MODEL        1
REMARK 921   NORMALIZED FREE ENERGY PREDICTED BY IDOCK:   -9.05 KCAL/MOL
REMARK 922        TOTAL FREE ENERGY PREDICTED BY IDOCK:  -11.91 KCAL/MOL
REMARK 923 INTER-LIGAND FREE ENERGY PREDICTED BY IDOCK:  -11.16 KCAL/MOL
REMARK 924 INTRA-LIGAND FREE ENERGY PREDICTED BY IDOCK:   -0.75 KCAL/MOL
REMARK 927      BINDING AFFINITY PREDICTED BY RF-SCORE:    0.00 PKD
ROOT
HETATM    1  O   UNL     1     -14.197   9.157  72.874  1.00  0.00    -1.016 OA 
HETATM    2  C   UNL     1     -13.201   9.485  72.005  1.00  0.00    -0.452 A  
HETATM    3  H   UNL     1     -14.244   8.230  73.077  1.00  0.00     0.000 HD 
HETATM    4  N   UNL     1     -13.136  10.796  71.717  1.00  0.00    -0.478 NA 
HETATM    5  N   UNL     1     -12.186  11.232  70.853  1.00  0.00    -0.371 NA 
HETATM    6  C   UNL     1     -11.313  10.353  70.295  1.00  0.00    -0.328 A  
HETATM    7  C   UNL     1     -11.346   8.969  70.595  1.00  0.00    -0.311 A  
HETATM    8  C   UNL     1     -11.554   6.221  71.273  1.00  0.00    -0.336 A  
HETATM    9  C   UNL     1     -10.452   8.000  70.073  1.00  0.00    -0.228 A  
HETATM   10  C   UNL     1     -12.346   8.520  71.484  1.00  0.00    -0.354 A  
HETATM   11  C   UNL     1     -10.552   6.647  70.412  1.00  0.00    -0.266 A  
HETATM   12  C   UNL     1     -12.445   7.150  71.806  1.00  0.00    -0.385 A  
ENDROOT
BRANCH   6  13
HETATM   13  C   UNL     1     -10.303  10.905  69.312  1.00  0.00    -0.211 C  
BRANCH  13  14
HETATM   14  C   UNL     1     -10.793  11.911  68.288  1.00  0.00    -0.261 A  
HETATM   15  C   UNL     1     -11.966  13.741  66.524  1.00  0.00    -0.434 A  
HETATM   16  C   UNL     1     -11.305  11.477  67.058  1.00  0.00    -0.340 A  
HETATM   17  C   UNL     1     -10.789  13.289  68.572  1.00  0.00    -0.286 A  
HETATM   18  F   UNL     1     -12.656  14.552  65.710  1.00  0.00    -0.383 F  
HETATM   19  C   UNL     1     -11.352  14.221  67.677  1.00  0.00    -0.344 A  
HETATM   20  C   UNL     1     -11.900  12.389  66.187  1.00  0.00    -0.442 A  
BRANCH  19  21
HETATM   21  C   UNL     1     -11.353  15.650  68.083  1.00  0.00    -0.340 C  
HETATM   22  N   UNL     1     -10.580  16.613  67.433  1.00  0.00    -0.316 N  
HETATM   23  C   UNL     1     -10.630  18.003  67.920  1.00  0.00    -0.372 C  
HETATM   24  O   UNL     1     -12.030  15.928  69.077  1.00  0.00    -0.378 OA 
HETATM   25  C   UNL     1      -9.220  18.541  68.211  1.00  0.00    -0.321 C  
HETATM   26  N   UNL     1      -8.336  18.362  67.050  1.00  0.00    -0.246 N  
HETATM   27  C   UNL     1      -8.280  16.990  66.545  1.00  0.00    -0.279 C  
HETATM   28  C   UNL     1      -7.600  19.441  66.586  1.00  0.00    -0.254 C  
HETATM   29  C   UNL     1      -9.681  16.421  66.288  1.00  0.00    -0.308 C  
HETATM   30  O   UNL     1      -7.687  20.562  67.077  1.00  0.00    -0.313 OA 
BRANCH  28  31
HETATM   31  C   UNL     1      -6.698  19.237  65.409  1.00  0.00    -0.293 C  
HETATM   32  C   UNL     1      -6.341  20.426  64.544  1.00  0.00    -0.332 C  
HETATM   33  C   UNL     1      -5.292  19.797  65.412  1.00  0.00    -0.185 C  
ENDBRANCH  28  31
ENDBRANCH  19  21
ENDBRANCH  13  14
ENDBRANCH   6  13
TORSDOF 4
ENDMDL
MODEL        2
REMARK 921   NORMALIZED FREE ENERGY PREDICTED BY IDOCK:   -8.72 KCAL/MOL
REMARK 922        TOTAL FREE ENERGY PREDICTED BY IDOCK:  -11.50 KCAL/MOL
REMARK 923 INTER-LIGAND FREE ENERGY PREDICTED BY IDOCK:  -10.92 KCAL/MOL
REMARK 924 INTRA-LIGAND FREE ENERGY PREDICTED BY IDOCK:   -0.58 KCAL/MOL
REMARK 927      BINDING AFFINITY PREDICTED BY RF-SCORE:    0.00 PKD
ROOT
HETATM    1  O   UNL     1     -11.655  16.429  63.885  1.00  0.00    -1.564 OA 
HETATM    2  C   UNL     1     -11.469  15.355  64.701  1.00  0.00    -0.337 A  
HETATM    3  H   UNL     1     -10.967  17.081  63.941  1.00  0.00     0.000 HD 
HETATM    4  N   UNL     1     -12.443  14.433  64.623  1.00  0.00    -0.625 NA 
HETATM    5  N   UNL     1     -12.363  13.325  65.402  1.00  0.00    -0.454 NA 
HETATM    6  C   UNL     1     -11.309  13.153  66.241  1.00  0.00    -0.315 A  
HETATM    7  C   UNL     1     -10.258  14.099  66.330  1.00  0.00    -0.301 A  
HETATM    8  C   UNL     1      -8.242  16.095  66.417  1.00  0.00    -0.336 A  
HETATM    9  C   UNL     1      -9.116  13.973  67.160  1.00  0.00    -0.239 A  
HETATM   10  C   UNL     1     -10.354  15.256  65.528  1.00  0.00    -0.408 A  
HETATM   11  C   UNL     1      -8.121  14.955  67.199  1.00  0.00    -0.239 A  
HETATM   12  C   UNL     1      -9.351  16.245  65.587  1.00  0.00    -0.045 A  
ENDROOT
BRANCH   6  13
HETATM   13  C   UNL     1     -11.304  11.911  67.106  1.00  0.00    -0.393 C  
BRANCH  13  14
HETATM   14  C   UNL     1     -11.699  12.065  68.562  1.00  0.00    -0.387 A  
HETATM   15  C   UNL     1     -12.711  12.343  71.157  1.00  0.00    -0.240 A  
HETATM   16  C   UNL     1     -11.896  13.340  69.111  1.00  0.00    -0.378 A  
HETATM   17  C   UNL     1     -11.923  10.937  69.372  1.00  0.00    -0.393 A  
HETATM   18  F   UNL     1     -13.318  12.527  72.338  1.00  0.00    -0.607 F  
HETATM   19  C   UNL     1     -12.405  11.068  70.690  1.00  0.00    -0.480 A  
HETATM   20  C   UNL     1     -12.411  13.475  70.400  1.00  0.00    -0.397 A  
BRANCH  19  21
HETATM   21  C   UNL     1     -12.665   9.821  71.454  1.00  0.00    -0.387 C  
HETATM   22  N   UNL     1     -11.643   8.949  71.832  1.00  0.00    -0.354 N  
HETATM   23  C   UNL     1     -11.999   7.724  72.569  1.00  0.00    -0.253 C  
HETATM   24  O   UNL     1     -13.850   9.563  71.680  1.00  0.00    -0.315 OA 
HETATM   25  C   UNL     1     -11.423   6.474  71.885  1.00  0.00    -0.301 C  
HETATM   26  N   UNL     1      -9.978   6.616  71.654  1.00  0.00    -0.174 N  
HETATM   27  C   UNL     1      -9.602   7.831  70.931  1.00  0.00    -0.167 C  
HETATM   28  C   UNL     1      -9.124   5.601  72.057  1.00  0.00    -0.137 C  
HETATM   29  C   UNL     1     -10.203   9.087  71.577  1.00  0.00    -0.344 C  
HETATM   30  O   UNL     1      -9.519   4.598  72.644  1.00  0.00    -0.132 OA 
BRANCH  28  31
HETATM   31  C   UNL     1      -7.657   5.759  71.805  1.00  0.00    -0.096 C  
HETATM   32  C   UNL     1      -6.761   6.194  72.944  1.00  0.00    -0.070 C  
HETATM   33  C   UNL     1      -6.664   4.795  72.415  1.00  0.00    -0.052 C  
ENDBRANCH  28  31
ENDBRANCH  19  21
ENDBRANCH  13  14
ENDBRANCH   6  13
TORSDOF 4
ENDMDL
MODEL        3
REMARK 921   NORMALIZED FREE ENERGY PREDICTED BY IDOCK:   -8.47 KCAL/MOL
REMARK 922        TOTAL FREE ENERGY PREDICTED BY IDOCK:  -11.20 KCAL/MOL
REMARK 923 INTER-LIGAND FREE ENERGY PREDICTED BY IDOCK:  -10.22 KCAL/MOL
REMARK 924 INTRA-LIGAND FREE ENERGY PREDICTED BY IDOCK:   -0.98 KCAL/MOL
REMARK 927      BINDING AFFINITY PREDICTED BY RF-SCORE:    0.00 PKD
ROOT
HETATM    1  O   UNL     1     -11.578   6.241  70.657  1.00  0.00    -0.353 OA 
HETATM    2  C   UNL     1     -11.135   7.464  70.255  1.00  0.00    -0.258 A  
HETATM    3  H   UNL     1     -12.311   6.274  71.261  1.00  0.00     0.000 HD 
HETATM    4  N   UNL     1     -10.098   7.417  69.401  1.00  0.00    -0.181 NA 
HETATM    5  N   UNL     1      -9.570   8.580  68.944  1.00  0.00    -0.158 NA 
HETATM    6  C   UNL     1     -10.089   9.770  69.343  1.00  0.00    -0.209 A  
HETATM    7  C   UNL     1     -11.193   9.850  70.227  1.00  0.00    -0.364 A  
HETATM    8  C   UNL     1     -13.390   9.849  72.025  1.00  0.00    -0.532 A  
HETATM    9  C   UNL     1     -11.803  11.053  70.664  1.00  0.00    -0.434 A  
HETATM   10  C   UNL     1     -11.729   8.637  70.710  1.00  0.00    -0.239 A  
HETATM   11  C   UNL     1     -12.889  11.051  71.545  1.00  0.00    -0.555 A  
HETATM   12  C   UNL     1     -12.815   8.650  71.610  1.00  0.00    -0.380 A  
ENDROOT
BRANCH   6  13
HETATM   13  C   UNL     1      -9.427  11.027  68.822  1.00  0.00    -0.190 C  
BRANCH  13  14
HETATM   14  C   UNL     1     -10.248  11.938  67.930  1.00  0.00    -0.203 A  
HETATM   15  C   UNL     1     -11.994  13.564  66.465  1.00  0.00    -0.413 A  
HETATM   16  C   UNL     1     -10.965  11.410  66.847  1.00  0.00    -0.355 A  
HETATM   17  C   UNL     1     -10.347  13.315  68.200  1.00  0.00    -0.246 A  
HETATM   18  F   UNL     1     -12.939  14.265  65.823  1.00  0.00    -0.517 F  
HETATM   19  C   UNL     1     -11.201  14.148  67.450  1.00  0.00    -0.334 A  
HETATM   20  C   UNL     1     -11.842  12.220  66.127  1.00  0.00    -0.398 A  
BRANCH  19  21
HETATM   21  C   UNL     1     -11.284  15.579  67.840  1.00  0.00    -0.325 C  
HETATM   22  N   UNL     1     -10.500  16.564  67.238  1.00  0.00    -0.308 N  
HETATM   23  C   UNL     1     -10.635  17.955  67.707  1.00  0.00    -0.389 C  
HETATM   24  O   UNL     1     -12.042  15.840  68.778  1.00  0.00    -0.314 OA 
HETATM   25  C   UNL     1      -9.271  18.547  68.094  1.00  0.00    -0.309 C  
HETATM   26  N   UNL     1      -8.298  18.392  67.004  1.00  0.00    -0.246 N  
HETATM   27  C   UNL     1      -8.155  17.018  66.518  1.00  0.00    -0.285 C  
HETATM   28  C   UNL     1      -7.568  19.493  66.584  1.00  0.00    -0.256 C  
HETATM   29  C   UNL     1      -9.513  16.396  66.164  1.00  0.00    -0.329 C  
HETATM   30  O   UNL     1      -7.732  20.614  67.056  1.00  0.00    -0.313 OA 
BRANCH  28  31
HETATM   31  C   UNL     1      -6.575  19.313  65.478  1.00  0.00    -0.303 C  
HETATM   32  C   UNL     1      -6.300  20.471  64.544  1.00  0.00    -0.341 C  
HETATM   33  C   UNL     1      -5.245  20.033  65.516  1.00  0.00    -0.183 C  
ENDBRANCH  28  31
ENDBRANCH  19  21
ENDBRANCH  13  14
ENDBRANCH   6  13
TORSDOF 4
ENDMDL
MODEL        4
REMARK 921   NORMALIZED FREE ENERGY PREDICTED BY IDOCK:   -8.40 KCAL/MOL
REMARK 922        TOTAL FREE ENERGY PREDICTED BY IDOCK:  -11.11 KCAL/MOL
REMARK 923 INTER-LIGAND FREE ENERGY PREDICTED BY IDOCK:  -10.01 KCAL/MOL
REMARK 924 INTRA-LIGAND FREE ENERGY PREDICTED BY IDOCK:   -1.09 KCAL/MOL
REMARK 927      BINDING AFFINITY PREDICTED BY RF-SCORE:    0.00 PKD
ROOT
HETATM    1  O   UNL     1     -12.931  12.439  63.370  1.00  0.00    -0.723 OA 
HETATM    2  C   UNL     1     -12.318  12.677  64.563  1.00  0.00    -0.464 A  
HETATM    3  H   UNL     1     -12.505  11.775  62.842  1.00  0.00     0.000 HD 
HETATM    4  N   UNL     1     -12.920  13.618  65.310  1.00  0.00    -0.737 NA 
HETATM    5  N   UNL     1     -12.387  13.941  66.514  1.00  0.00    -0.437 NA 
HETATM    6  C   UNL     1     -11.265  13.316  66.956  1.00  0.00    -0.292 A  
HETATM    7  C   UNL     1     -10.620  12.307  66.199  1.00  0.00    -0.281 A  
HETATM    8  C   UNL     1      -9.426  10.324  64.557  1.00  0.00    -0.356 A  
HETATM    9  C   UNL     1      -9.465  11.593  66.607  1.00  0.00    -0.213 A  
HETATM   10  C   UNL     1     -11.172  11.985  64.941  1.00  0.00    -0.374 A  
HETATM   11  C   UNL     1      -8.880  10.613  65.800  1.00  0.00    -0.198 A  
HETATM   12  C   UNL     1     -10.564  11.004  64.130  1.00  0.00    -0.412 A  
ENDROOT
BRANCH   6  13
HETATM   13  C   UNL     1     -10.705  13.753  68.293  1.00  0.00    -0.264 C  
BRANCH  13  14
HETATM   14  C   UNL     1     -11.444  13.315  69.542  1.00  0.00    -0.299 A  
HETATM   15  C   UNL     1     -13.058  12.532  71.691  1.00  0.00    -0.315 A  
HETATM   16  C   UNL     1     -11.908  14.266  70.460  1.00  0.00    -0.364 A  
HETATM   17  C   UNL     1     -11.719  11.955  69.778  1.00  0.00    -0.403 A  
HETATM   18  F   UNL     1     -13.942  12.227  72.653  1.00  0.00    -0.408 F  
HETATM   19  C   UNL     1     -12.508  11.549  70.874  1.00  0.00    -0.464 A  
HETATM   20  C   UNL     1     -12.722  13.875  71.524  1.00  0.00    -0.440 A  
BRANCH  19  21
HETATM   21  C   UNL     1     -12.794  10.098  71.014  1.00  0.00    -0.382 C  
HETATM   22  N   UNL     1     -11.791   9.158  71.254  1.00  0.00    -0.306 N  
HETATM   23  C   UNL     1     -12.167   7.737  71.357  1.00  0.00    -0.319 C  
HETATM   24  O   UNL     1     -13.968   9.760  70.839  1.00  0.00    -0.094 OA 
HETATM   25  C   UNL     1     -11.335   6.870  70.399  1.00  0.00    -0.328 C  
HETATM   26  N   UNL     1      -9.897   7.106  70.586  1.00  0.00    -0.182 N  
HETATM   27  C   UNL     1      -9.503   8.513  70.496  1.00  0.00    -0.170 C  
HETATM   28  C   UNL     1      -9.048   6.023  70.754  1.00  0.00    -0.153 C  
HETATM   29  C   UNL     1     -10.352   9.401  71.416  1.00  0.00    -0.256 C  
HETATM   30  O   UNL     1      -9.453   4.865  70.798  1.00  0.00    -0.149 OA 
BRANCH  28  31
HETATM   31  C   UNL     1      -7.585   6.284  70.933  1.00  0.00    -0.096 C  
HETATM   32  C   UNL     1      -7.037   6.456  72.333  1.00  0.00    -0.082 C  
HETATM   33  C   UNL     1      -6.686   5.231  71.543  1.00  0.00    -0.051 C  
ENDBRANCH  28  31
ENDBRANCH  19  21
ENDBRANCH  13  14
ENDBRANCH   6  13
TORSDOF 4
ENDMDL
MODEL        5
REMARK 921   NORMALIZED FREE ENERGY PREDICTED BY IDOCK:   -8.31 KCAL/MOL
REMARK 922        TOTAL FREE ENERGY PREDICTED BY IDOCK:  -11.00 KCAL/MOL
REMARK 923 INTER-LIGAND FREE ENERGY PREDICTED BY IDOCK:  -10.16 KCAL/MOL
REMARK 924 INTRA-LIGAND FREE ENERGY PREDICTED BY IDOCK:   -0.84 KCAL/MOL
REMARK 927      BINDING AFFINITY PREDICTED BY RF-SCORE:    0.00 PKD
ROOT
HETATM    1  O   UNL     1     -14.163   6.380  72.349  1.00  0.00    -0.647 OA 
HETATM    2  C   UNL     1     -13.542   7.525  71.953  1.00  0.00    -0.239 A  
HETATM    3  H   UNL     1     -13.574   5.718  72.691  1.00  0.00     0.000 HD 
HETATM    4  N   UNL     1     -14.376   8.461  71.468  1.00  0.00    -0.436 NA 
HETATM    5  N   UNL     1     -13.861   9.638  71.035  1.00  0.00    -0.094 NA 
HETATM    6  C   UNL     1     -12.523   9.864  71.097  1.00  0.00    -0.368 A  
HETATM    7  C   UNL     1     -11.623   8.904  71.621  1.00  0.00    -0.408 A  
HETATM    8  C   UNL     1      -9.941   6.872  72.671  1.00  0.00    -0.191 A  
HETATM    9  C   UNL     1     -10.221   9.081  71.742  1.00  0.00    -0.389 A  
HETATM   10  C   UNL     1     -12.163   7.676  72.057  1.00  0.00    -0.328 A  
HETATM   11  C   UNL     1      -9.394   8.082  72.264  1.00  0.00    -0.259 A  
HETATM   12  C   UNL     1     -11.316   6.670  72.569  1.00  0.00    -0.290 A  
ENDROOT
BRANCH   6  13
HETATM   13  C   UNL     1     -12.015  11.186  70.562  1.00  0.00    -0.475 C  
BRANCH  13  14
HETATM   14  C   UNL     1     -11.551  11.230  69.119  1.00  0.00    -0.387 A  
HETATM   15  C   UNL     1     -10.971  11.231  66.380  1.00  0.00    -0.227 A  
HETATM   16  C   UNL     1     -11.033  10.082  68.507  1.00  0.00    -0.255 A  
HETATM   17  C   UNL     1     -11.678  12.406  68.356  1.00  0.00    -0.386 A  
HETATM   18  F   UNL     1     -10.808  11.139  65.053  1.00  0.00    -0.351 F  
HETATM   19  C   UNL     1     -11.362  12.423  66.983  1.00  0.00    -0.388 A  
HETATM   20  C   UNL     1     -10.756  10.081  67.140  1.00  0.00    -0.279 A  
BRANCH  19  21
HETATM   21  C   UNL     1     -11.578  13.694  66.243  1.00  0.00    -0.348 C  
HETATM   22  N   UNL     1     -10.571  14.645  66.081  1.00  0.00    -0.303 N  
HETATM   23  C   UNL     1     -10.885  15.886  65.351  1.00  0.00    -0.349 C  
HETATM   24  O   UNL     1     -12.726  13.892  65.835  1.00  0.00    -0.489 OA 
HETATM   25  C   UNL     1     -10.516  17.127  66.178  1.00  0.00    -0.275 C  
HETATM   26  N   UNL     1      -9.122  17.060  66.639  1.00  0.00    -0.242 N  
HETATM   27  C   UNL     1      -8.787  15.831  67.359  1.00  0.00    -0.186 C  
HETATM   28  C   UNL     1      -8.285  18.146  66.430  1.00  0.00    -0.253 C  
HETATM   29  C   UNL     1      -9.186  14.580  66.566  1.00  0.00    -0.255 C  
HETATM   30  O   UNL     1      -8.647  19.155  65.832  1.00  0.00    -0.453 OA 
BRANCH  28  31
HETATM   31  C   UNL     1      -6.872  18.062  66.916  1.00  0.00    -0.217 C  
HETATM   32  C   UNL     1      -5.987  19.285  66.811  1.00  0.00    -0.166 C  
HETATM   33  C   UNL     1      -6.441  18.810  68.159  1.00  0.00    -0.227 C  
ENDBRANCH  28  31
ENDBRANCH  19  21
ENDBRANCH  13  14
ENDBRANCH   6  13
TORSDOF 4
ENDMDL
MODEL        6
REMARK 921   NORMALIZED FREE ENERGY PREDICTED BY IDOCK:   -8.30 KCAL/MOL
REMARK 922        TOTAL FREE ENERGY PREDICTED BY IDOCK:  -10.99 KCAL/MOL
REMARK 923 INTER-LIGAND FREE ENERGY PREDICTED BY IDOCK:  -10.11 KCAL/MOL
REMARK 924 INTRA-LIGAND FREE ENERGY PREDICTED BY IDOCK:   -0.88 KCAL/MOL
REMARK 927      BINDING AFFINITY PREDICTED BY RF-SCORE:    0.00 PKD
ROOT
HETATM    1  O   UNL     1     -14.356  14.945  72.525  1.00  0.00    -0.394 OA 
HETATM    2  C   UNL     1     -13.473  14.728  71.512  1.00  0.00    -0.394 A  
HETATM    3  H   UNL     1     -14.591  14.162  73.008  1.00  0.00     0.000 HD 
HETATM    4  N   UNL     1     -13.141  15.836  70.828  1.00  0.00    -0.489 NA 
HETATM    5  N   UNL     1     -12.275  15.733  69.790  1.00  0.00    -0.298 NA 
HETATM    6  C   UNL     1     -11.749  14.526  69.454  1.00  0.00    -0.318 A  
HETATM    7  C   UNL     1     -12.066  13.344  70.169  1.00  0.00    -0.415 A  
HETATM    8  C   UNL     1     -12.818  11.061  71.679  1.00  0.00    -0.540 A  
HETATM    9  C   UNL     1     -11.537  12.058  69.895  1.00  0.00    -0.315 A  
HETATM   10  C   UNL     1     -12.979  13.456  71.240  1.00  0.00    -0.368 A  
HETATM   11  C   UNL     1     -11.904  10.935  70.643  1.00  0.00    -0.453 A  
HETATM   12  C   UNL     1     -13.352  12.313  71.977  1.00  0.00    -0.491 A  
ENDROOT
BRANCH   6  13
HETATM   13  C   UNL     1     -10.818  14.479  68.262  1.00  0.00    -0.247 C  
BRANCH  13  14
HETATM   14  C   UNL     1     -11.245  13.649  67.067  1.00  0.00    -0.328 A  
HETATM   15  C   UNL     1     -11.852  12.288  64.697  1.00  0.00    -0.367 A  
HETATM   16  C   UNL     1     -12.340  14.043  66.287  1.00  0.00    -0.482 A  
HETATM   17  C   UNL     1     -10.523  12.501  66.691  1.00  0.00    -0.252 A  
HETATM   18  F   UNL     1     -12.100  11.758  63.491  1.00  0.00    -0.533 F  
HETATM   19  C   UNL     1     -10.840  11.793  65.514  1.00  0.00    -0.348 A  
HETATM   20  C   UNL     1     -12.634  13.370  65.101  1.00  0.00    -0.495 A  
BRANCH  19  21
HETATM   21  C   UNL     1      -9.990  10.625  65.165  1.00  0.00    -0.303 C  
HETATM   22  N   UNL     1      -9.920   9.485  65.967  1.00  0.00    -0.289 N  
HETATM   23  C   UNL     1      -9.033   8.385  65.551  1.00  0.00    -0.098 C  
HETATM   24  O   UNL     1      -9.293  10.747  64.154  1.00  0.00    -0.219 OA 
HETATM   25  C   UNL     1      -8.066   7.992  66.680  1.00  0.00    -0.103 C  
HETATM   26  N   UNL     1      -8.793   7.715  67.926  1.00  0.00    -0.127 N  
HETATM   27  C   UNL     1      -9.688   8.792  68.352  1.00  0.00    -0.162 C  
HETATM   28  C   UNL     1      -8.537   6.538  68.613  1.00  0.00    -0.124 C  
HETATM   29  C   UNL     1     -10.634   9.225  67.224  1.00  0.00    -0.233 C  
HETATM   30  O   UNL     1      -7.754   5.688  68.200  1.00  0.00    -0.087 OA 
BRANCH  28  31
HETATM   31  C   UNL     1      -9.281   6.277  69.886  1.00  0.00    -0.155 C  
HETATM   32  C   UNL     1     -10.689   5.730  69.812  1.00  0.00    -0.418 C  
HETATM   33  C   UNL     1      -9.580   4.860  70.324  1.00  0.00    -0.265 C  
ENDBRANCH  28  31
ENDBRANCH  19  21
ENDBRANCH  13  14
ENDBRANCH   6  13
TORSDOF 4
ENDMDL
MODEL        7
REMARK 921   NORMALIZED FREE ENERGY PREDICTED BY IDOCK:   -8.29 KCAL/MOL
REMARK 922        TOTAL FREE ENERGY PREDICTED BY IDOCK:  -10.97 KCAL/MOL
REMARK 923 INTER-LIGAND FREE ENERGY PREDICTED BY IDOCK:  -10.29 KCAL/MOL
REMARK 924 INTRA-LIGAND FREE ENERGY PREDICTED BY IDOCK:   -0.68 KCAL/MOL
REMARK 927      BINDING AFFINITY PREDICTED BY RF-SCORE:    0.00 PKD
ROOT
HETATM    1  O   UNL     1     -10.809   7.266  74.093  1.00  0.00    -0.536 OA 
HETATM    2  C   UNL     1     -10.810   7.966  72.925  1.00  0.00    -0.386 A  
HETATM    3  H   UNL     1      -9.941   7.076  74.430  1.00  0.00     0.000 HD 
HETATM    4  N   UNL     1     -12.037   8.233  72.447  1.00  0.00    -0.377 NA 
HETATM    5  N   UNL     1     -12.154   8.917  71.282  1.00  0.00    -0.300 NA 
HETATM    6  C   UNL     1     -11.045   9.328  70.616  1.00  0.00    -0.276 A  
HETATM    7  C   UNL     1      -9.739   9.078  71.105  1.00  0.00    -0.369 A  
HETATM    8  C   UNL     1      -7.189   8.476  72.196  1.00  0.00    -0.102 A  
HETATM    9  C   UNL     1      -8.538   9.499  70.478  1.00  0.00    -0.231 A  
HETATM   10  C   UNL     1      -9.623   8.353  72.310  1.00  0.00    -0.374 A  
HETATM   11  C   UNL     1      -7.283   9.207  71.019  1.00  0.00    -0.113 A  
HETATM   12  C   UNL     1      -8.350   8.052  72.837  1.00  0.00    -0.229 A  
ENDROOT
BRANCH   6  13
HETATM   13  C   UNL     1     -11.250  10.055  69.304  1.00  0.00    -0.213 C  
BRANCH  13  14
HETATM   14  C   UNL     1     -11.707  11.500  69.363  1.00  0.00    -0.413 A  
HETATM   15  C   UNL     1     -12.277  14.233  69.570  1.00  0.00    -0.297 A  
HETATM   16  C   UNL     1     -12.263  12.019  70.540  1.00  0.00    -0.414 A  
HETATM   17  C   UNL     1     -11.537  12.356  68.260  1.00  0.00    -0.384 A  
HETATM   18  F   UNL     1     -12.439  15.549  69.765  1.00  0.00    -0.358 F  
HETATM   19  C   UNL     1     -11.848  13.728  68.346  1.00  0.00    -0.411 A  
HETATM   20  C   UNL     1     -12.535  13.383  70.645  1.00  0.00    -0.385 A  
BRANCH  19  21
HETATM   21  C   UNL     1     -11.585  14.569  67.149  1.00  0.00    -0.388 C  
HETATM   22  N   UNL     1     -10.562  15.517  67.112  1.00  0.00    -0.296 N  
HETATM   23  C   UNL     1     -10.391  16.321  65.888  1.00  0.00    -0.365 C  
HETATM   24  O   UNL     1     -12.369  14.427  66.206  1.00  0.00    -0.409 OA 
HETATM   25  C   UNL     1     -10.386  17.824  66.205  1.00  0.00    -0.358 C  
HETATM   26  N   UNL     1      -9.405  18.141  67.252  1.00  0.00    -0.250 N  
HETATM   27  C   UNL     1      -9.553  17.348  68.473  1.00  0.00    -0.298 C  
HETATM   28  C   UNL     1      -8.499  19.170  67.044  1.00  0.00    -0.285 C  
HETATM   29  C   UNL     1      -9.600  15.844  68.172  1.00  0.00    -0.208 C  
HETATM   30  O   UNL     1      -8.450  19.805  65.995  1.00  0.00    -0.361 OA 
BRANCH  28  31
HETATM   31  C   UNL     1      -7.513  19.484  68.125  1.00  0.00    -0.335 C  
HETATM   32  C   UNL     1      -6.048  19.186  67.891  1.00  0.00    -0.218 C  
HETATM   33  C   UNL     1      -6.516  20.609  67.953  1.00  0.00    -0.355 C  
ENDBRANCH  28  31
ENDBRANCH  19  21
ENDBRANCH  13  14
ENDBRANCH   6  13
TORSDOF 4
ENDMDL
MODEL        8
REMARK 921   NORMALIZED FREE ENERGY PREDICTED BY IDOCK:   -8.20 KCAL/MOL
REMARK 922        TOTAL FREE ENERGY PREDICTED BY IDOCK:  -10.86 KCAL/MOL
REMARK 923 INTER-LIGAND FREE ENERGY PREDICTED BY IDOCK:  -10.14 KCAL/MOL
REMARK 924 INTRA-LIGAND FREE ENERGY PREDICTED BY IDOCK:   -0.73 KCAL/MOL
REMARK 927      BINDING AFFINITY PREDICTED BY RF-SCORE:    0.00 PKD
ROOT
HETATM    1  O   UNL     1     -10.226  19.771  69.576  1.00  0.00    -0.633 OA 
HETATM    2  C   UNL     1      -9.829  18.837  68.668  1.00  0.00    -0.392 A  
HETATM    3  H   UNL     1      -9.775  20.603  69.498  1.00  0.00     0.000 HD 
HETATM    4  N   UNL     1     -10.466  17.659  68.779  1.00  0.00    -0.334 NA 
HETATM    5  N   UNL     1     -10.140  16.654  67.930  1.00  0.00    -0.261 NA 
HETATM    6  C   UNL     1      -9.188  16.842  66.980  1.00  0.00    -0.225 A  
HETATM    7  C   UNL     1      -8.514  18.078  66.826  1.00  0.00    -0.274 A  
HETATM    8  C   UNL     1      -7.230  20.605  66.661  1.00  0.00    -0.280 A  
HETATM    9  C   UNL     1      -7.531  18.356  65.842  1.00  0.00    -0.208 A  
HETATM   10  C   UNL     1      -8.847  19.116  67.722  1.00  0.00    -0.339 A  
HETATM   11  C   UNL     1      -6.903  19.602  65.758  1.00  0.00    -0.305 A  
HETATM   12  C   UNL     1      -8.195  20.364  67.636  1.00  0.00    -0.287 A  
ENDROOT
BRANCH   6  13
HETATM   13  C   UNL     1      -8.850  15.665  66.090  1.00  0.00    -0.311 C  
BRANCH  13  14
HETATM   14  C   UNL     1      -9.976  14.721  65.713  1.00  0.00    -0.375 A  
HETATM   15  C   UNL     1     -11.929  12.963  64.747  1.00  0.00    -0.396 A  
HETATM   16  C   UNL     1     -11.157  15.219  65.146  1.00  0.00    -0.412 A  
HETATM   17  C   UNL     1      -9.838  13.331  65.877  1.00  0.00    -0.241 A  
HETATM   18  F   UNL     1     -12.827  12.167  64.150  1.00  0.00    -0.541 F  
HETATM   19  C   UNL     1     -10.829  12.439  65.420  1.00  0.00    -0.320 A  
HETATM   20  C   UNL     1     -12.123  14.341  64.655  1.00  0.00    -0.478 A  
BRANCH  19  21
HETATM   21  C   UNL     1     -10.574  10.984  65.586  1.00  0.00    -0.197 C  
HETATM   22  N   UNL     1     -10.833  10.312  66.782  1.00  0.00    -0.144 N  
HETATM   23  C   UNL     1     -10.528   8.873  66.860  1.00  0.00    -0.234 C  
HETATM   24  O   UNL     1     -10.056  10.413  64.623  1.00  0.00    -0.345 OA 
HETATM   25  C   UNL     1      -9.628   8.559  68.066  1.00  0.00    -0.149 C  
HETATM   26  N   UNL     1     -10.198   9.102  69.307  1.00  0.00    -0.204 N  
HETATM   27  C   UNL     1     -10.517  10.529  69.247  1.00  0.00    -0.235 C  
HETATM   28  C   UNL     1     -10.321   8.277  70.415  1.00  0.00    -0.205 C  
HETATM   29  C   UNL     1     -11.382  10.868  68.025  1.00  0.00    -0.312 C  
HETATM   30  O   UNL     1     -10.012   7.090  70.393  1.00  0.00    -0.180 OA 
BRANCH  28  31
HETATM   31  C   UNL     1     -10.895   8.851  71.672  1.00  0.00    -0.420 C  
HETATM   32  C   UNL     1     -12.350   8.593  71.998  1.00  0.00    -0.435 C  
HETATM   33  C   UNL     1     -11.278   7.948  72.824  1.00  0.00    -0.466 C  
ENDBRANCH  28  31
ENDBRANCH  19  21
ENDBRANCH  13  14
ENDBRANCH   6  13
TORSDOF 4
ENDMDL
MODEL        9
REMARK 921   NORMALIZED FREE ENERGY PREDICTED BY IDOCK:   -8.16 KCAL/MOL
REMARK 922        TOTAL FREE ENERGY PREDICTED BY IDOCK:  -10.82 KCAL/MOL
REMARK 923 INTER-LIGAND FREE ENERGY PREDICTED BY IDOCK:  -10.29 KCAL/MOL
REMARK 924 INTRA-LIGAND FREE ENERGY PREDICTED BY IDOCK:   -0.53 KCAL/MOL
REMARK 927      BINDING AFFINITY PREDICTED BY RF-SCORE:    0.00 PKD
ROOT
HETATM    1  O   UNL     1     -13.349  10.636  72.445  1.00  0.00    -0.612 OA 
HETATM    2  C   UNL     1     -12.878  11.409  71.428  1.00  0.00    -0.397 A  
HETATM    3  H   UNL     1     -13.751  11.128  73.151  1.00  0.00     0.000 HD 
HETATM    4  N   UNL     1     -12.309  10.714  70.429  1.00  0.00    -0.323 NA 
HETATM    5  N   UNL     1     -11.796  11.386  69.369  1.00  0.00    -0.325 NA 
HETATM    6  C   UNL     1     -11.865  12.742  69.320  1.00  0.00    -0.303 A  
HETATM    7  C   UNL     1     -12.476  13.500  70.349  1.00  0.00    -0.345 A  
HETATM    8  C   UNL     1     -13.707  14.883  72.501  1.00  0.00    -0.568 A  
HETATM    9  C   UNL     1     -12.609  14.912  70.353  1.00  0.00    -0.394 A  
HETATM   10  C   UNL     1     -12.995  12.796  71.456  1.00  0.00    -0.388 A  
HETATM   11  C   UNL     1     -13.220  15.592  71.411  1.00  0.00    -0.587 A  
HETATM   12  C   UNL     1     -13.596  13.495  72.523  1.00  0.00    -0.674 A  
ENDROOT
BRANCH   6  13
HETATM   13  C   UNL     1     -11.240  13.428  68.124  1.00  0.00    -0.304 C  
BRANCH  13  14
HETATM   14  C   UNL     1     -11.192  12.660  66.818  1.00  0.00    -0.347 A  
HETATM   15  C   UNL     1     -10.887  11.430  64.322  1.00  0.00    -0.349 A  
HETATM   16  C   UNL     1     -11.985  13.057  65.733  1.00  0.00    -0.482 A  
HETATM   17  C   UNL     1     -10.317  11.570  66.654  1.00  0.00    -0.262 A  
HETATM   18  F   UNL     1     -10.684  10.968  63.080  1.00  0.00    -0.346 F  
HETATM   19  C   UNL     1     -10.178  10.926  65.408  1.00  0.00    -0.339 A  
HETATM   20  C   UNL     1     -11.823  12.450  64.488  1.00  0.00    -0.452 A  
BRANCH  19  21
HETATM   21  C   UNL     1      -9.191   9.819  65.313  1.00  0.00    -0.238 C  
HETATM   22  N   UNL     1      -9.355   8.610  65.991  1.00  0.00    -0.223 N  
HETATM   23  C   UNL     1      -8.312   7.578  65.853  1.00  0.00    -0.139 C  
HETATM   24  O   UNL     1      -8.178  10.055  64.648  1.00  0.00    -0.149 OA 
HETATM   25  C   UNL     1      -7.811   7.107  67.227  1.00  0.00    -0.111 C  
HETATM   26  N   UNL     1      -8.930   6.693  68.084  1.00  0.00    -0.122 N  
HETATM   27  C   UNL     1      -9.981   7.701  68.228  1.00  0.00    -0.176 C  
HETATM   28  C   UNL     1      -8.876   5.463  68.723  1.00  0.00    -0.103 C  
HETATM   29  C   UNL     1     -10.466   8.214  66.865  1.00  0.00    -0.309 C  
HETATM   30  O   UNL     1      -7.947   4.677  68.568  1.00  0.00    -0.079 OA 
BRANCH  28  31
HETATM   31  C   UNL     1     -10.021   5.064  69.600  1.00  0.00    -0.311 C  
HETATM   32  C   UNL     1      -9.767   4.113  70.750  1.00  0.00    -0.266 C  
HETATM   33  C   UNL     1     -10.098   5.548  71.032  1.00  0.00    -0.271 C  
ENDBRANCH  28  31
ENDBRANCH  19  21
ENDBRANCH  13  14
ENDBRANCH   6  13
TORSDOF 4
ENDMDL
MODEL       10
REMARK 921   NORMALIZED FREE ENERGY PREDICTED BY IDOCK:   -8.16 KCAL/MOL
REMARK 922        TOTAL FREE ENERGY PREDICTED BY IDOCK:  -10.82 KCAL/MOL
REMARK 923 INTER-LIGAND FREE ENERGY PREDICTED BY IDOCK:   -9.86 KCAL/MOL
REMARK 924 INTRA-LIGAND FREE ENERGY PREDICTED BY IDOCK:   -0.96 KCAL/MOL
REMARK 927      BINDING AFFINITY PREDICTED BY RF-SCORE:    0.00 PKD
ROOT
HETATM    1  O   UNL     1      -6.631   8.856  72.297  1.00  0.00    -0.227 OA 
HETATM    2  C   UNL     1      -7.766   9.076  71.578  1.00  0.00     0.015 A  
HETATM    3  H   UNL     1      -6.767   8.350  73.090  1.00  0.00     0.000 HD 
HETATM    4  N   UNL     1      -7.573   9.791  70.457  1.00  0.00    -0.263 NA 
HETATM    5  N   UNL     1      -8.640  10.078  69.669  1.00  0.00    -0.185 NA 
HETATM    6  C   UNL     1      -9.879   9.641  70.010  1.00  0.00    -0.246 A  
HETATM    7  C   UNL     1     -10.109   8.869  71.176  1.00  0.00    -0.341 A  
HETATM    8  C   UNL     1     -10.416   7.354  73.556  1.00  0.00    -0.396 A  
HETATM    9  C   UNL     1     -11.368   8.356  71.580  1.00  0.00    -0.334 A  
HETATM   10  C   UNL     1      -8.998   8.586  71.998  1.00  0.00    -0.301 A  
HETATM   11  C   UNL     1     -11.517   7.606  72.750  1.00  0.00    -0.384 A  
HETATM   12  C   UNL     1      -9.165   7.840  73.184  1.00  0.00    -0.302 A  
ENDROOT
BRANCH   6  13
HETATM   13  C   UNL     1     -11.028  10.029  69.104  1.00  0.00    -0.256 C  
BRANCH  13  14
HETATM   14  C   UNL     1     -11.538  11.455  69.184  1.00  0.00    -0.381 A  
HETATM   15  C   UNL     1     -12.205  14.163  69.421  1.00  0.00    -0.287 A  
HETATM   16  C   UNL     1     -12.082  11.946  70.378  1.00  0.00    -0.421 A  
HETATM   17  C   UNL     1     -11.428  12.323  68.082  1.00  0.00    -0.371 A  
HETATM   18  F   UNL     1     -12.412  15.471  69.628  1.00  0.00    -0.346 F  
HETATM   19  C   UNL     1     -11.789  13.681  68.183  1.00  0.00    -0.407 A  
HETATM   20  C   UNL     1     -12.403  13.298  70.497  1.00  0.00    -0.389 A  
BRANCH  19  21
HETATM   21  C   UNL     1     -11.589  14.537  66.985  1.00  0.00    -0.386 C  
HETATM   22  N   UNL     1     -10.626  15.547  66.940  1.00  0.00    -0.304 N  
HETATM   23  C   UNL     1     -10.515  16.360  65.716  1.00  0.00    -0.354 C  
HETATM   24  O   UNL     1     -12.371  14.348  66.050  1.00  0.00    -0.394 OA 
HETATM   25  C   UNL     1     -10.599  17.860  66.035  1.00  0.00    -0.234 C  
HETATM   26  N   UNL     1      -9.630  18.236  67.073  1.00  0.00    -0.282 N  
HETATM   27  C   UNL     1      -9.717  17.434  68.294  1.00  0.00    -0.299 C  
HETATM   28  C   UNL     1      -8.790  19.318  66.858  1.00  0.00    -0.303 C  
HETATM   29  C   UNL     1      -9.676  15.930  67.992  1.00  0.00    -0.216 C  
HETATM   30  O   UNL     1      -8.789  19.956  65.809  1.00  0.00    -0.330 OA 
BRANCH  28  31
HETATM   31  C   UNL     1      -7.815  19.691  67.931  1.00  0.00    -0.333 C  
HETATM   32  C   UNL     1      -6.379  19.231  67.808  1.00  0.00    -0.226 C  
HETATM   33  C   UNL     1      -6.709  20.685  67.653  1.00  0.00    -0.375 C  
ENDBRANCH  28  31
ENDBRANCH  19  21
ENDBRANCH  13  14
ENDBRANCH   6  13
TORSDOF 4
ENDMDL
MODEL       11
REMARK 921   NORMALIZED FREE ENERGY PREDICTED BY IDOCK:   -8.11 KCAL/MOL
REMARK 922        TOTAL FREE ENERGY PREDICTED BY IDOCK:  -10.75 KCAL/MOL
REMARK 923 INTER-LIGAND FREE ENERGY PREDICTED BY IDOCK:  -10.25 KCAL/MOL
REMARK 924 INTRA-LIGAND FREE ENERGY PREDICTED BY IDOCK:   -0.51 KCAL/MOL
REMARK 927      BINDING AFFINITY PREDICTED BY RF-SCORE:    0.00 PKD
ROOT
HETATM    1  O   UNL     1     -13.479  10.631  72.423  1.00  0.00    -0.603 OA 
HETATM    2  C   UNL     1     -12.884  11.419  71.486  1.00  0.00    -0.403 A  
HETATM    3  H   UNL     1     -14.011  11.108  73.049  1.00  0.00     0.000 HD 
HETATM    4  N   UNL     1     -12.131  10.745  70.601  1.00  0.00    -0.339 NA 
HETATM    5  N   UNL     1     -11.483  11.434  69.629  1.00  0.00    -0.291 NA 
HETATM    6  C   UNL     1     -11.601  12.785  69.553  1.00  0.00    -0.276 A  
HETATM    7  C   UNL     1     -12.404  13.520  70.460  1.00  0.00    -0.412 A  
HETATM    8  C   UNL     1     -14.026  14.858  72.367  1.00  0.00    -0.582 A  
HETATM    9  C   UNL     1     -12.596  14.925  70.425  1.00  0.00    -0.394 A  
HETATM   10  C   UNL     1     -13.064  12.799  71.477  1.00  0.00    -0.380 A  
HETATM   11  C   UNL     1     -13.400  15.582  71.362  1.00  0.00    -0.592 A  
HETATM   12  C   UNL     1     -13.860  13.476  72.425  1.00  0.00    -0.687 A  
ENDROOT
BRANCH   6  13
HETATM   13  C   UNL     1     -10.822  13.492  68.465  1.00  0.00    -0.283 C  
BRANCH  13  14
HETATM   14  C   UNL     1     -11.265  13.280  67.030  1.00  0.00    -0.319 A  
HETATM   15  C   UNL     1     -11.906  13.118  64.310  1.00  0.00    -0.406 A  
HETATM   16  C   UNL     1     -12.381  13.960  66.526  1.00  0.00    -0.447 A  
HETATM   17  C   UNL     1     -10.537  12.439  66.168  1.00  0.00    -0.283 A  
HETATM   18  F   UNL     1     -12.173  13.182  62.998  1.00  0.00    -0.617 F  
HETATM   19  C   UNL     1     -10.870  12.329  64.803  1.00  0.00    -0.345 A  
HETATM   20  C   UNL     1     -12.692  13.887  65.168  1.00  0.00    -0.434 A  
BRANCH  19  21
HETATM   21  C   UNL     1     -10.014  11.461  63.954  1.00  0.00    -0.315 C  
HETATM   22  N   UNL     1      -9.618  10.184  64.352  1.00  0.00    -0.305 N  
HETATM   23  C   UNL     1      -8.749   9.403  63.453  1.00  0.00    -0.204 C  
HETATM   24  O   UNL     1      -9.616  11.961  62.899  1.00  0.00    -0.367 OA 
HETATM   25  C   UNL     1      -7.490   8.911  64.183  1.00  0.00    -0.111 C  
HETATM   26  N   UNL     1      -7.841   8.196  65.418  1.00  0.00    -0.107 N  
HETATM   27  C   UNL     1      -8.710   8.951  66.322  1.00  0.00    -0.141 C  
HETATM   28  C   UNL     1      -7.290   6.947  65.659  1.00  0.00    -0.079 C  
HETATM   29  C   UNL     1      -9.954   9.486  65.600  1.00  0.00    -0.199 C  
HETATM   30  O   UNL     1      -6.550   6.385  64.858  1.00  0.00    -0.037 OA 
BRANCH  28  31
HETATM   31  C   UNL     1      -7.652   6.239  66.927  1.00  0.00    -0.099 C  
HETATM   32  C   UNL     1      -8.785   5.237  66.909  1.00  0.00    -0.111 C  
HETATM   33  C   UNL     1      -7.375   4.760  67.088  1.00  0.00    -0.078 C  
ENDBRANCH  28  31
ENDBRANCH  19  21
ENDBRANCH  13  14
ENDBRANCH   6  13
TORSDOF 4
ENDMDL
MODEL       12
REMARK 921   NORMALIZED FREE ENERGY PREDICTED BY IDOCK:   -8.08 KCAL/MOL
REMARK 922        TOTAL FREE ENERGY PREDICTED BY IDOCK:  -10.72 KCAL/MOL
REMARK 923 INTER-LIGAND FREE ENERGY PREDICTED BY IDOCK:   -9.61 KCAL/MOL
REMARK 924 INTRA-LIGAND FREE ENERGY PREDICTED BY IDOCK:   -1.11 KCAL/MOL
REMARK 927      BINDING AFFINITY PREDICTED BY RF-SCORE:    0.00 PKD
ROOT
HETATM    1  O   UNL     1      -9.640  18.444  67.120  1.00  0.00    -0.283 OA 
HETATM    2  C   UNL     1     -10.279  17.272  66.849  1.00  0.00    -0.322 A  
HETATM    3  H   UNL     1      -9.582  18.649  68.046  1.00  0.00     0.000 HD 
HETATM    4  N   UNL     1     -10.362  16.983  65.540  1.00  0.00    -0.623 NA 
HETATM    5  N   UNL     1     -10.989  15.843  65.157  1.00  0.00    -0.396 NA 
HETATM    6  C   UNL     1     -11.518  15.007  66.088  1.00  0.00    -0.222 A  
HETATM    7  C   UNL     1     -11.430  15.277  67.476  1.00  0.00    -0.271 A  
HETATM    8  C   UNL     1     -11.197  15.967  70.220  1.00  0.00    -0.388 A  
HETATM    9  C   UNL     1     -11.934  14.440  68.504  1.00  0.00    -0.333 A  
HETATM   10  C   UNL     1     -10.789  16.472  67.867  1.00  0.00    -0.326 A  
HETATM   11  C   UNL     1     -11.814  14.778  69.855  1.00  0.00    -0.364 A  
HETATM   12  C   UNL     1     -10.688  16.808  69.233  1.00  0.00    -0.324 A  
ENDROOT
BRANCH   6  13
HETATM   13  C   UNL     1     -12.235  13.772  65.587  1.00  0.00    -0.484 C  
BRANCH  13  14
HETATM   14  C   UNL     1     -11.386  12.600  65.135  1.00  0.00    -0.343 A  
HETATM   15  C   UNL     1      -9.619  10.637  64.204  1.00  0.00    -0.300 A  
HETATM   16  C   UNL     1     -11.517  12.090  63.836  1.00  0.00    -0.518 A  
HETATM   17  C   UNL     1     -10.419  12.037  65.989  1.00  0.00    -0.284 A  
HETATM   18  F   UNL     1      -8.719   9.801  63.669  1.00  0.00    -0.160 F  
HETATM   19  C   UNL     1      -9.544  11.028  65.538  1.00  0.00    -0.263 A  
HETATM   20  C   UNL     1     -10.628  11.120  63.371  1.00  0.00    -0.340 A  
BRANCH  19  21
HETATM   21  C   UNL     1      -8.519  10.531  66.491  1.00  0.00    -0.139 C  
HETATM   22  N   UNL     1      -8.855   9.845  67.660  1.00  0.00    -0.125 N  
HETATM   23  C   UNL     1      -7.770   9.409  68.556  1.00  0.00    -0.085 C  
HETATM   24  O   UNL     1      -7.349  10.817  66.224  1.00  0.00    -0.131 OA 
HETATM   25  C   UNL     1      -8.003   9.902  69.993  1.00  0.00    -0.180 C  
HETATM   26  N   UNL     1      -9.340   9.525  70.471  1.00  0.00    -0.260 N  
HETATM   27  C   UNL     1     -10.432   9.942  69.590  1.00  0.00    -0.249 C  
HETATM   28  C   UNL     1      -9.469   8.895  71.700  1.00  0.00    -0.281 C  
HETATM   29  C   UNL     1     -10.196   9.493  68.142  1.00  0.00    -0.193 C  
HETATM   30  O   UNL     1      -8.502   8.595  72.393  1.00  0.00    -0.342 OA 
BRANCH  28  31
HETATM   31  C   UNL     1     -10.840   8.528  72.173  1.00  0.00    -0.427 C  
HETATM   32  C   UNL     1     -11.404   7.172  71.807  1.00  0.00    -0.285 C  
HETATM   33  C   UNL     1     -11.028   7.460  73.229  1.00  0.00    -0.367 C  
ENDBRANCH  28  31
ENDBRANCH  19  21
ENDBRANCH  13  14
ENDBRANCH   6  13
TORSDOF 4
ENDMDL
MODEL       13
REMARK 921   NORMALIZED FREE ENERGY PREDICTED BY IDOCK:   -8.03 KCAL/MOL
REMARK 922        TOTAL FREE ENERGY PREDICTED BY IDOCK:  -10.66 KCAL/MOL
REMARK 923 INTER-LIGAND FREE ENERGY PREDICTED BY IDOCK:   -9.80 KCAL/MOL
REMARK 924 INTRA-LIGAND FREE ENERGY PREDICTED BY IDOCK:   -0.85 KCAL/MOL
REMARK 927      BINDING AFFINITY PREDICTED BY RF-SCORE:    0.00 PKD
ROOT
HETATM    1  O   UNL     1      -7.080  20.958  65.159  1.00  0.00    -0.520 OA 
HETATM    2  C   UNL     1      -7.412  19.748  65.689  1.00  0.00    -0.251 A  
HETATM    3  H   UNL     1      -7.593  21.683  65.497  1.00  0.00     0.000 HD 
HETATM    4  N   UNL     1      -6.688  18.723  65.210  1.00  0.00    -0.500 NA 
HETATM    5  N   UNL     1      -6.943  17.470  65.662  1.00  0.00    -0.280 NA 
HETATM    6  C   UNL     1      -7.913  17.262  66.589  1.00  0.00    -0.261 A  
HETATM    7  C   UNL     1      -8.679  18.326  67.126  1.00  0.00    -0.256 A  
HETATM    8  C   UNL     1     -10.151  20.555  68.088  1.00  0.00    -0.210 A  
HETATM    9  C   UNL     1      -9.687  18.187  68.115  1.00  0.00    -0.331 A  
HETATM   10  C   UNL     1      -8.419  19.625  66.641  1.00  0.00    -0.356 A  
HETATM   11  C   UNL     1     -10.408  19.287  68.591  1.00  0.00    -0.330 A  
HETATM   12  C   UNL     1      -9.163  20.723  67.120  1.00  0.00    -0.354 A  
ENDROOT
BRANCH   6  13
HETATM   13  C   UNL     1      -8.168  15.834  67.022  1.00  0.00    -0.262 C  
BRANCH  13  14
HETATM   14  C   UNL     1      -9.270  15.070  66.314  1.00  0.00    -0.324 A  
HETATM   15  C   UNL     1     -11.118  13.633  64.779  1.00  0.00    -0.370 A  
HETATM   16  C   UNL     1     -10.192  15.746  65.504  1.00  0.00    -0.407 A  
HETATM   17  C   UNL     1      -9.358  13.669  66.417  1.00  0.00    -0.203 A  
HETATM   18  F   UNL     1     -11.927  12.990  63.925  1.00  0.00    -0.411 F  
HETATM   19  C   UNL     1     -10.304  12.940  65.670  1.00  0.00    -0.295 A  
HETATM   20  C   UNL     1     -11.104  15.027  64.731  1.00  0.00    -0.388 A  
BRANCH  19  21
HETATM   21  C   UNL     1     -10.289  11.460  65.799  1.00  0.00    -0.255 C  
HETATM   22  N   UNL     1     -10.801  10.802  66.918  1.00  0.00    -0.254 N  
HETATM   23  C   UNL     1     -10.722   9.331  66.967  1.00  0.00    -0.129 C  
HETATM   24  O   UNL     1      -9.734  10.844  64.885  1.00  0.00    -0.226 OA 
HETATM   25  C   UNL     1     -10.048   8.853  68.263  1.00  0.00    -0.187 C  
HETATM   26  N   UNL     1     -10.695   9.441  69.444  1.00  0.00    -0.226 N  
HETATM   27  C   UNL     1     -10.791  10.901  69.411  1.00  0.00    -0.240 C  
HETATM   28  C   UNL     1     -11.084   8.614  70.487  1.00  0.00    -0.242 C  
HETATM   29  C   UNL     1     -11.425  11.400  68.105  1.00  0.00    -0.305 C  
HETATM   30  O   UNL     1     -10.951   7.395  70.449  1.00  0.00    -0.243 OA 
BRANCH  28  31
HETATM   31  C   UNL     1     -11.732   9.234  71.685  1.00  0.00    -0.462 C  
HETATM   32  C   UNL     1     -13.243   9.280  71.759  1.00  0.00    -0.472 C  
HETATM   33  C   UNL     1     -12.481   8.377  72.682  1.00  0.00    -0.255 C  
ENDBRANCH  28  31
ENDBRANCH  19  21
ENDBRANCH  13  14
ENDBRANCH   6  13
TORSDOF 4
ENDMDL
MODEL       14
REMARK 921   NORMALIZED FREE ENERGY PREDICTED BY IDOCK:   -7.97 KCAL/MOL
REMARK 922        TOTAL FREE ENERGY PREDICTED BY IDOCK:  -10.59 KCAL/MOL
REMARK 923 INTER-LIGAND FREE ENERGY PREDICTED BY IDOCK:   -9.76 KCAL/MOL
REMARK 924 INTRA-LIGAND FREE ENERGY PREDICTED BY IDOCK:   -0.83 KCAL/MOL
REMARK 927      BINDING AFFINITY PREDICTED BY RF-SCORE:    0.00 PKD
ROOT
HETATM    1  O   UNL     1     -12.487   6.010  72.547  1.00  0.00    -0.547 OA 
HETATM    2  C   UNL     1     -11.711   6.912  71.885  1.00  0.00    -0.299 A  
HETATM    3  H   UNL     1     -13.292   6.374  72.896  1.00  0.00     0.000 HD 
HETATM    4  N   UNL     1     -10.573   6.397  71.391  1.00  0.00    -0.224 NA 
HETATM    5  N   UNL     1      -9.719   7.212  70.722  1.00  0.00    -0.172 NA 
HETATM    6  C   UNL     1     -10.019   8.525  70.551  1.00  0.00    -0.188 A  
HETATM    7  C   UNL     1     -11.221   9.091  71.043  1.00  0.00    -0.361 A  
HETATM    8  C   UNL     1     -13.656  10.086  72.112  1.00  0.00    -0.351 A  
HETATM    9  C   UNL     1     -11.613  10.444  70.879  1.00  0.00    -0.428 A  
HETATM   10  C   UNL     1     -12.098   8.242  71.751  1.00  0.00    -0.364 A  
HETATM   11  C   UNL     1     -12.815  10.932  71.402  1.00  0.00    -0.554 A  
HETATM   12  C   UNL     1     -13.301   8.750  72.285  1.00  0.00    -0.460 A  
ENDROOT
BRANCH   6  13
HETATM   13  C   UNL     1      -9.005   9.383  69.825  1.00  0.00    -0.199 C  
BRANCH  13  14
HETATM   14  C   UNL     1      -9.271   9.709  68.369  1.00  0.00    -0.133 A  
HETATM   15  C   UNL     1     -10.025  10.171  65.712  1.00  0.00    -0.271 A  
HETATM   16  C   UNL     1      -8.901   8.807  67.362  1.00  0.00    -0.140 A  
HETATM   17  C   UNL     1      -9.937  10.894  68.005  1.00  0.00    -0.188 A  
HETATM   18  F   UNL     1     -10.476  10.278  64.455  1.00  0.00    -0.393 F  
HETATM   19  C   UNL     1     -10.295  11.149  66.666  1.00  0.00    -0.286 A  
HETATM   20  C   UNL     1      -9.288   9.034  66.041  1.00  0.00    -0.305 A  
BRANCH  19  21
HETATM   21  C   UNL     1     -11.045  12.400  66.381  1.00  0.00    -0.301 C  
HETATM   22  N   UNL     1     -10.483  13.665  66.559  1.00  0.00    -0.278 N  
HETATM   23  C   UNL     1     -11.311  14.849  66.271  1.00  0.00    -0.306 C  
HETATM   24  O   UNL     1     -12.222  12.258  66.039  1.00  0.00    -0.646 OA 
HETATM   25  C   UNL     1     -11.336  15.815  67.467  1.00  0.00    -0.150 C  
HETATM   26  N   UNL     1      -9.974  16.148  67.906  1.00  0.00    -0.236 N  
HETATM   27  C   UNL     1      -9.132  14.985  68.189  1.00  0.00    -0.178 C  
HETATM   28  C   UNL     1      -9.624  17.479  68.081  1.00  0.00    -0.294 C  
HETATM   29  C   UNL     1      -9.127  13.989  67.021  1.00  0.00    -0.246 C  
HETATM   30  O   UNL     1     -10.396  18.402  67.841  1.00  0.00    -0.369 OA 
BRANCH  28  31
HETATM   31  C   UNL     1      -8.236  17.798  68.538  1.00  0.00    -0.296 C  
HETATM   32  C   UNL     1      -7.279  18.457  67.569  1.00  0.00    -0.211 C  
HETATM   33  C   UNL     1      -7.804  19.234  68.738  1.00  0.00    -0.388 C  
ENDBRANCH  28  31
ENDBRANCH  19  21
ENDBRANCH  13  14
ENDBRANCH   6  13
TORSDOF 4
ENDMDL
MODEL       15
REMARK 921   NORMALIZED FREE ENERGY PREDICTED BY IDOCK:   -7.94 KCAL/MOL
REMARK 922        TOTAL FREE ENERGY PREDICTED BY IDOCK:  -10.54 KCAL/MOL
REMARK 923 INTER-LIGAND FREE ENERGY PREDICTED BY IDOCK:   -9.48 KCAL/MOL
REMARK 924 INTRA-LIGAND FREE ENERGY PREDICTED BY IDOCK:   -1.06 KCAL/MOL
REMARK 927      BINDING AFFINITY PREDICTED BY RF-SCORE:    0.00 PKD
ROOT
HETATM    1  O   UNL     1     -12.501  11.622  62.907  1.00  0.00    -0.930 OA 
HETATM    2  C   UNL     1     -11.956  11.864  64.131  1.00  0.00    -0.307 A  
HETATM    3  H   UNL     1     -11.950  11.102  62.334  1.00  0.00     0.000 HD 
HETATM    4  N   UNL     1     -12.736  12.599  64.942  1.00  0.00    -0.778 NA 
HETATM    5  N   UNL     1     -12.285  12.908  66.183  1.00  0.00    -0.508 NA 
HETATM    6  C   UNL     1     -11.067  12.473  66.597  1.00  0.00    -0.283 A  
HETATM    7  C   UNL     1     -10.233  11.680  65.772  1.00  0.00    -0.281 A  
HETATM    8  C   UNL     1      -8.662  10.122  63.994  1.00  0.00    -0.224 A  
HETATM    9  C   UNL     1      -8.964  11.169  66.146  1.00  0.00    -0.205 A  
HETATM   10  C   UNL     1     -10.700  11.374  64.476  1.00  0.00    -0.391 A  
HETATM   11  C   UNL     1      -8.193  10.397  65.271  1.00  0.00    -0.162 A  
HETATM   12  C   UNL     1      -9.906  10.607  63.599  1.00  0.00    -0.392 A  
ENDROOT
BRANCH   6  13
HETATM   13  C   UNL     1     -10.614  12.886  67.981  1.00  0.00    -0.238 C  
BRANCH  13  14
HETATM   14  C   UNL     1     -11.036  12.016  69.149  1.00  0.00    -0.272 A  
HETATM   15  C   UNL     1     -11.988  10.262  71.113  1.00  0.00    -0.376 A  
HETATM   16  C   UNL     1     -12.159  12.356  69.916  1.00  0.00    -0.317 A  
HETATM   17  C   UNL     1     -10.342  10.830  69.453  1.00  0.00    -0.207 A  
HETATM   18  F   UNL     1     -12.560   9.400  71.965  1.00  0.00    -0.391 F  
HETATM   19  C   UNL     1     -10.798   9.955  70.460  1.00  0.00    -0.391 A  
HETATM   20  C   UNL     1     -12.638  11.475  70.885  1.00  0.00    -0.438 A  
BRANCH  19  21
HETATM   21  C   UNL     1     -10.034   8.699  70.676  1.00  0.00    -0.192 C  
HETATM   22  N   UNL     1      -9.777   7.793  69.645  1.00  0.00    -0.171 N  
HETATM   23  C   UNL     1      -9.030   6.563  69.959  1.00  0.00    -0.144 C  
HETATM   24  O   UNL     1      -9.694   8.467  71.839  1.00  0.00    -0.231 OA 
HETATM   25  C   UNL     1      -9.792   5.314  69.490  1.00  0.00    -0.200 C  
HETATM   26  N   UNL     1     -10.164   5.423  68.072  1.00  0.00    -0.175 N  
HETATM   27  C   UNL     1     -10.900   6.643  67.738  1.00  0.00    -0.294 C  
HETATM   28  C   UNL     1      -9.868   4.378  67.210  1.00  0.00    -0.162 C  
HETATM   29  C   UNL     1     -10.174   7.900  68.235  1.00  0.00    -0.203 C  
HETATM   30  O   UNL     1      -9.263   3.374  67.572  1.00  0.00    -0.161 OA 
BRANCH  28  31
HETATM   31  C   UNL     1     -10.264   4.505  65.772  1.00  0.00    -0.289 C  
HETATM   32  C   UNL     1      -9.248   5.015  64.775  1.00  0.00    -0.004 C  
HETATM   33  C   UNL     1      -9.677   3.579  64.730  1.00  0.00    -0.165 C  
ENDBRANCH  28  31
ENDBRANCH  19  21
ENDBRANCH  13  14
ENDBRANCH   6  13
TORSDOF 4
ENDMDL
MODEL       16
REMARK 921   NORMALIZED FREE ENERGY PREDICTED BY IDOCK:   -7.90 KCAL/MOL
REMARK 922        TOTAL FREE ENERGY PREDICTED BY IDOCK:  -10.50 KCAL/MOL
REMARK 923 INTER-LIGAND FREE ENERGY PREDICTED BY IDOCK:   -9.63 KCAL/MOL
REMARK 924 INTRA-LIGAND FREE ENERGY PREDICTED BY IDOCK:   -0.87 KCAL/MOL
REMARK 927      BINDING AFFINITY PREDICTED BY RF-SCORE:    0.00 PKD
ROOT
HETATM    1  O   UNL     1     -11.399   5.844  69.945  1.00  0.00    -0.364 OA 
HETATM    2  C   UNL     1     -10.835   6.750  69.098  1.00  0.00    -0.258 A  
HETATM    3  H   UNL     1     -11.094   5.910  70.842  1.00  0.00     0.000 HD 
HETATM    4  N   UNL     1     -11.267   6.656  67.829  1.00  0.00    -0.237 NA 
HETATM    5  N   UNL     1     -10.762   7.504  66.900  1.00  0.00    -0.328 NA 
HETATM    6  C   UNL     1      -9.839   8.436  67.253  1.00  0.00    -0.203 A  
HETATM    7  C   UNL     1      -9.380   8.571  68.586  1.00  0.00    -0.142 A  
HETATM    8  C   UNL     1      -8.538   8.701  71.294  1.00  0.00    -0.236 A  
HETATM    9  C   UNL     1      -8.441   9.535  69.033  1.00  0.00    -0.128 A  
HETATM   10  C   UNL     1      -9.899   7.676  69.546  1.00  0.00    -0.178 A  
HETATM   11  C   UNL     1      -8.031   9.602  70.367  1.00  0.00    -0.191 A  
HETATM   12  C   UNL     1      -9.465   7.744  70.887  1.00  0.00    -0.165 A  
ENDROOT
BRANCH   6  13
HETATM   13  C   UNL     1      -9.293   9.325  66.156  1.00  0.00    -0.270 C  
BRANCH  13  14
HETATM   14  C   UNL     1     -10.084  10.568  65.798  1.00  0.00    -0.329 A  
HETATM   15  C   UNL     1     -11.791  12.702  65.188  1.00  0.00    -0.396 A  
HETATM   16  C   UNL     1     -10.492  10.792  64.476  1.00  0.00    -0.351 A  
HETATM   17  C   UNL     1     -10.466  11.491  66.789  1.00  0.00    -0.275 A  
HETATM   18  F   UNL     1     -12.711  13.623  64.868  1.00  0.00    -0.406 F  
HETATM   19  C   UNL     1     -11.302  12.585  66.486  1.00  0.00    -0.387 A  
HETATM   20  C   UNL     1     -11.351  11.849  64.177  1.00  0.00    -0.455 A  
BRANCH  19  21
HETATM   21  C   UNL     1     -11.699  13.477  67.605  1.00  0.00    -0.363 C  
HETATM   22  N   UNL     1     -11.459  14.852  67.587  1.00  0.00    -0.345 N  
HETATM   23  C   UNL     1     -11.869  15.654  68.752  1.00  0.00    -0.321 C  
HETATM   24  O   UNL     1     -12.197  12.922  68.588  1.00  0.00    -0.198 OA 
HETATM   25  C   UNL     1     -10.699  16.490  69.293  1.00  0.00    -0.331 C  
HETATM   26  N   UNL     1     -10.081  17.288  68.225  1.00  0.00    -0.301 N  
HETATM   27  C   UNL     1      -9.674  16.511  67.054  1.00  0.00    -0.250 C  
HETATM   28  C   UNL     1      -9.873  18.645  68.425  1.00  0.00    -0.384 C  
HETATM   29  C   UNL     1     -10.820  15.639  66.524  1.00  0.00    -0.260 C  
HETATM   30  O   UNL     1     -10.226  19.223  69.448  1.00  0.00    -0.225 OA 
BRANCH  28  31
HETATM   31  C   UNL     1      -9.234  19.439  67.330  1.00  0.00    -0.378 C  
HETATM   32  C   UNL     1     -10.085  19.898  66.166  1.00  0.00    -0.611 C  
HETATM   33  C   UNL     1      -9.566  20.904  67.149  1.00  0.00    -0.362 C  
ENDBRANCH  28  31
ENDBRANCH  19  21
ENDBRANCH  13  14
ENDBRANCH   6  13
TORSDOF 4
ENDMDL
MODEL       17
REMARK 921   NORMALIZED FREE ENERGY PREDICTED BY IDOCK:   -7.90 KCAL/MOL
REMARK 922        TOTAL FREE ENERGY PREDICTED BY IDOCK:  -10.49 KCAL/MOL
REMARK 923 INTER-LIGAND FREE ENERGY PREDICTED BY IDOCK:   -9.60 KCAL/MOL
REMARK 924 INTRA-LIGAND FREE ENERGY PREDICTED BY IDOCK:   -0.89 KCAL/MOL
REMARK 927      BINDING AFFINITY PREDICTED BY RF-SCORE:    0.00 PKD
ROOT
HETATM    1  O   UNL     1     -12.379  15.748  63.821  1.00  0.00    -1.046 OA 
HETATM    2  C   UNL     1     -11.866  14.647  64.436  1.00  0.00    -0.390 A  
HETATM    3  H   UNL     1     -11.926  16.555  64.031  1.00  0.00     0.000 HD 
HETATM    4  N   UNL     1     -12.508  13.504  64.140  1.00  0.00    -0.665 NA 
HETATM    5  N   UNL     1     -12.085  12.347  64.707  1.00  0.00    -0.419 NA 
HETATM    6  C   UNL     1     -11.024  12.348  65.555  1.00  0.00    -0.293 A  
HETATM    7  C   UNL     1     -10.316  13.534  65.870  1.00  0.00    -0.301 A  
HETATM    8  C   UNL     1      -9.014  15.994  66.426  1.00  0.00    -0.354 A  
HETATM    9  C   UNL     1      -9.185  13.606  66.723  1.00  0.00    -0.251 A  
HETATM   10  C   UNL     1     -10.769  14.737  65.288  1.00  0.00    -0.406 A  
HETATM   11  C   UNL     1      -8.542  14.818  66.992  1.00  0.00    -0.260 A  
HETATM   12  C   UNL     1     -10.120  15.954  65.580  1.00  0.00    -0.353 A  
ENDROOT
BRANCH   6  13
HETATM   13  C   UNL     1     -10.630  11.026  66.178  1.00  0.00    -0.288 C  
BRANCH  13  14
HETATM   14  C   UNL     1     -10.731  10.901  67.686  1.00  0.00    -0.288 A  
HETATM   15  C   UNL     1     -11.057  10.412  70.424  1.00  0.00    -0.296 A  
HETATM   16  C   UNL     1     -11.847  11.406  68.366  1.00  0.00    -0.344 A  
HETATM   17  C   UNL     1      -9.734  10.235  68.423  1.00  0.00    -0.165 A  
HETATM   18  F   UNL     1     -11.325  10.091  71.697  1.00  0.00    -0.415 F  
HETATM   19  C   UNL     1      -9.876  10.009  69.807  1.00  0.00    -0.270 A  
HETATM   20  C   UNL     1     -12.013  11.151  69.727  1.00  0.00    -0.428 A  
BRANCH  19  21
HETATM   21  C   UNL     1      -8.799   9.250  70.494  1.00  0.00    -0.241 C  
HETATM   22  N   UNL     1      -8.958   7.921  70.889  1.00  0.00    -0.141 N  
HETATM   23  C   UNL     1      -7.842   7.255  71.584  1.00  0.00    -0.091 C  
HETATM   24  O   UNL     1      -7.774   9.884  70.756  1.00  0.00    -0.293 OA 
HETATM   25  C   UNL     1      -8.304   6.637  72.914  1.00  0.00    -0.118 C  
HETATM   26  N   UNL     1      -9.470   5.765  72.715  1.00  0.00    -0.145 N  
HETATM   27  C   UNL     1     -10.586   6.405  72.018  1.00  0.00    -0.213 C  
HETATM   28  C   UNL     1      -9.455   4.482  73.241  1.00  0.00    -0.119 C  
HETATM   29  C   UNL     1     -10.136   7.063  70.707  1.00  0.00    -0.194 C  
HETATM   30  O   UNL     1      -8.484   4.022  73.834  1.00  0.00    -0.091 OA 
BRANCH  28  31
HETATM   31  C   UNL     1     -10.655   3.613  73.037  1.00  0.00    -0.252 C  
HETATM   32  C   UNL     1     -10.453   2.151  72.700  1.00  0.00    -0.224 C  
HETATM   33  C   UNL     1     -11.003   2.535  74.041  1.00  0.00    -0.248 C  
ENDBRANCH  28  31
ENDBRANCH  19  21
ENDBRANCH  13  14
ENDBRANCH   6  13
TORSDOF 4
ENDMDL
MODEL       18
REMARK 921   NORMALIZED FREE ENERGY PREDICTED BY IDOCK:   -7.87 KCAL/MOL
REMARK 922        TOTAL FREE ENERGY PREDICTED BY IDOCK:  -10.46 KCAL/MOL
REMARK 923 INTER-LIGAND FREE ENERGY PREDICTED BY IDOCK:   -9.77 KCAL/MOL
REMARK 924 INTRA-LIGAND FREE ENERGY PREDICTED BY IDOCK:   -0.69 KCAL/MOL
REMARK 927      BINDING AFFINITY PREDICTED BY RF-SCORE:    0.00 PKD
ROOT
HETATM    1  O   UNL     1     -14.205   9.311  72.709  1.00  0.00    -0.856 OA 
HETATM    2  C   UNL     1     -13.078   9.452  71.958  1.00  0.00    -0.433 A  
HETATM    3  H   UNL     1     -14.378   8.418  72.984  1.00  0.00     0.000 HD 
HETATM    4  N   UNL     1     -12.833  10.714  71.568  1.00  0.00    -0.430 NA 
HETATM    5  N   UNL     1     -11.740  10.967  70.806  1.00  0.00    -0.312 NA 
HETATM    6  C   UNL     1     -10.906   9.956  70.450  1.00  0.00    -0.319 A  
HETATM    7  C   UNL     1     -11.129   8.618  70.861  1.00  0.00    -0.310 A  
HETATM    8  C   UNL     1     -11.721   5.985  71.740  1.00  0.00    -0.249 A  
HETATM    9  C   UNL     1     -10.288   7.519  70.551  1.00  0.00    -0.217 A  
HETATM   10  C   UNL     1     -12.275   8.360  71.642  1.00  0.00    -0.358 A  
HETATM   11  C   UNL     1     -10.578   6.223  70.989  1.00  0.00    -0.289 A  
HETATM   12  C   UNL     1     -12.563   7.046  72.065  1.00  0.00    -0.254 A  
ENDROOT
BRANCH   6  13
HETATM   13  C   UNL     1      -9.726  10.305  69.568  1.00  0.00    -0.235 C  
BRANCH  13  14
HETATM   14  C   UNL     1     -10.018  10.816  68.171  1.00  0.00    -0.176 A  
HETATM   15  C   UNL     1     -10.841  11.686  65.640  1.00  0.00    -0.276 A  
HETATM   16  C   UNL     1      -9.965   9.947  67.073  1.00  0.00    -0.254 A  
HETATM   17  C   UNL     1     -10.395  12.155  67.957  1.00  0.00    -0.213 A  
HETATM   18  F   UNL     1     -11.350  12.013  64.444  1.00  0.00    -0.347 F  
HETATM   19  C   UNL     1     -10.783  12.610  66.680  1.00  0.00    -0.275 A  
HETATM   20  C   UNL     1     -10.386  10.380  65.816  1.00  0.00    -0.257 A  
BRANCH  19  21
HETATM   21  C   UNL     1     -11.218  14.025  66.558  1.00  0.00    -0.322 C  
HETATM   22  N   UNL     1     -10.354  15.096  66.792  1.00  0.00    -0.267 N  
HETATM   23  C   UNL     1     -10.881  16.466  66.667  1.00  0.00    -0.086 C  
HETATM   24  O   UNL     1     -12.412  14.202  66.300  1.00  0.00    -0.466 OA 
HETATM   25  C   UNL     1     -10.601  17.288  67.935  1.00  0.00    -0.384 C  
HETATM   26  N   UNL     1      -9.176  17.242  68.291  1.00  0.00    -0.257 N  
HETATM   27  C   UNL     1      -8.630  15.889  68.411  1.00  0.00    -0.178 C  
HETATM   28  C   UNL     1      -8.502  18.427  68.545  1.00  0.00    -0.325 C  
HETATM   29  C   UNL     1      -8.937  15.040  67.170  1.00  0.00    -0.217 C  
HETATM   30  O   UNL     1      -9.036  19.527  68.441  1.00  0.00    -0.338 OA 
BRANCH  28  31
HETATM   31  C   UNL     1      -7.053  18.359  68.915  1.00  0.00    -0.292 C  
HETATM   32  C   UNL     1      -6.035  19.028  68.016  1.00  0.00    -0.211 C  
HETATM   33  C   UNL     1      -6.318  19.600  69.373  1.00  0.00    -0.365 C  
ENDBRANCH  28  31
ENDBRANCH  19  21
ENDBRANCH  13  14
ENDBRANCH   6  13
TORSDOF 4
ENDMDL
MODEL       19
REMARK 921   NORMALIZED FREE ENERGY PREDICTED BY IDOCK:   -7.84 KCAL/MOL
REMARK 922        TOTAL FREE ENERGY PREDICTED BY IDOCK:  -10.42 KCAL/MOL
REMARK 923 INTER-LIGAND FREE ENERGY PREDICTED BY IDOCK:   -9.82 KCAL/MOL
REMARK 924 INTRA-LIGAND FREE ENERGY PREDICTED BY IDOCK:   -0.60 KCAL/MOL
REMARK 927      BINDING AFFINITY PREDICTED BY RF-SCORE:    0.00 PKD
ROOT
HETATM    1  O   UNL     1     -10.861   7.914  69.492  1.00  0.00    -0.332 OA 
HETATM    2  C   UNL     1     -10.516   8.428  68.279  1.00  0.00    -0.163 A  
HETATM    3  H   UNL     1     -10.476   7.065  69.676  1.00  0.00     0.000 HD 
HETATM    4  N   UNL     1     -11.061   9.628  68.018  1.00  0.00    -0.133 NA 
HETATM    5  N   UNL     1     -10.793  10.227  66.831  1.00  0.00    -0.185 NA 
HETATM    6  C   UNL     1      -9.980   9.622  65.927  1.00  0.00    -0.281 A  
HETATM    7  C   UNL     1      -9.375   8.366  66.183  1.00  0.00    -0.267 A  
HETATM    8  C   UNL     1      -8.260   5.837  66.828  1.00  0.00    -0.105 A  
HETATM    9  C   UNL     1      -8.496   7.689  65.301  1.00  0.00    -0.090 A  
HETATM   10  C   UNL     1      -9.670   7.741  67.413  1.00  0.00    -0.211 A  
HETATM   11  C   UNL     1      -7.944   6.445  65.622  1.00  0.00    -0.120 A  
HETATM   12  C   UNL     1      -9.117   6.480  67.719  1.00  0.00    -0.112 A  
ENDROOT
BRANCH   6  13
HETATM   13  C   UNL     1      -9.753  10.332  64.610  1.00  0.00    -0.398 C  
BRANCH  13  14
HETATM   14  C   UNL     1     -10.424  11.677  64.410  1.00  0.00    -0.374 A  
HETATM   15  C   UNL     1     -11.854  14.079  64.254  1.00  0.00    -0.410 A  
HETATM   16  C   UNL     1     -11.475  11.815  63.495  1.00  0.00    -0.489 A  
HETATM   17  C   UNL     1     -10.039  12.796  65.173  1.00  0.00    -0.246 A  
HETATM   18  F   UNL     1     -12.653  15.156  64.238  1.00  0.00    -0.492 F  
HETATM   19  C   UNL     1     -10.735  14.018  65.080  1.00  0.00    -0.393 A  
HETATM   20  C   UNL     1     -12.194  13.009  63.427  1.00  0.00    -0.552 A  
BRANCH  19  21
HETATM   21  C   UNL     1     -10.294  15.129  65.963  1.00  0.00    -0.311 C  
HETATM   22  N   UNL     1     -10.450  15.089  67.349  1.00  0.00    -0.254 N  
HETATM   23  C   UNL     1     -10.002  16.248  68.141  1.00  0.00    -0.239 C  
HETATM   24  O   UNL     1      -9.841  16.124  65.392  1.00  0.00    -0.474 OA 
HETATM   25  C   UNL     1     -11.125  16.766  69.054  1.00  0.00    -0.171 C  
HETATM   26  N   UNL     1     -11.683  15.681  69.873  1.00  0.00    -0.339 N  
HETATM   27  C   UNL     1     -12.126  14.516  69.106  1.00  0.00    -0.264 C  
HETATM   28  C   UNL     1     -11.809  15.860  71.243  1.00  0.00    -0.449 C  
HETATM   29  C   UNL     1     -11.030  14.010  68.158  1.00  0.00    -0.252 C  
HETATM   30  O   UNL     1     -11.431  16.879  71.813  1.00  0.00    -0.066 OA 
BRANCH  28  31
HETATM   31  C   UNL     1     -12.388  14.748  72.059  1.00  0.00    -0.416 C  
HETATM   32  C   UNL     1     -12.911  15.051  73.446  1.00  0.00    -0.652 C  
HETATM   33  C   UNL     1     -13.872  14.701  72.350  1.00  0.00    -0.580 C  
ENDBRANCH  28  31
ENDBRANCH  19  21
ENDBRANCH  13  14
ENDBRANCH   6  13
TORSDOF 4
ENDMDL
MODEL       20
REMARK 921   NORMALIZED FREE ENERGY PREDICTED BY IDOCK:   -7.83 KCAL/MOL
REMARK 922        TOTAL FREE ENERGY PREDICTED BY IDOCK:  -10.41 KCAL/MOL
REMARK 923 INTER-LIGAND FREE ENERGY PREDICTED BY IDOCK:   -9.68 KCAL/MOL
REMARK 924 INTRA-LIGAND FREE ENERGY PREDICTED BY IDOCK:   -0.74 KCAL/MOL
REMARK 927      BINDING AFFINITY PREDICTED BY RF-SCORE:    0.00 PKD
ROOT
HETATM    1  O   UNL     1      -7.339  20.941  65.160  1.00  0.00    -0.433 OA 
HETATM    2  C   UNL     1      -7.520  19.692  65.671  1.00  0.00    -0.218 A  
HETATM    3  H   UNL     1      -7.891  21.606  65.555  1.00  0.00     0.000 HD 
HETATM    4  N   UNL     1      -6.740  18.753  65.112  1.00  0.00    -0.518 NA 
HETATM    5  N   UNL     1      -6.846  17.470  65.540  1.00  0.00    -0.130 NA 
HETATM    6  C   UNL     1      -7.726  17.148  66.523  1.00  0.00    -0.286 A  
HETATM    7  C   UNL     1      -8.547  18.120  67.144  1.00  0.00    -0.250 A  
HETATM    8  C   UNL     1     -10.146  20.175  68.274  1.00  0.00    -0.471 A  
HETATM    9  C   UNL     1      -9.466  17.862  68.193  1.00  0.00    -0.288 A  
HETATM   10  C   UNL     1      -8.442  19.450  66.685  1.00  0.00    -0.339 A  
HETATM   11  C   UNL     1     -10.250  18.876  68.752  1.00  0.00    -0.325 A  
HETATM   12  C   UNL     1      -9.249  20.461  67.248  1.00  0.00    -0.525 A  
ENDROOT
BRANCH   6  13
HETATM   13  C   UNL     1      -7.817  15.691  66.925  1.00  0.00    -0.258 C  
BRANCH  13  14
HETATM   14  C   UNL     1      -9.162  15.005  66.785  1.00  0.00    -0.280 A  
HETATM   15  C   UNL     1     -11.496  13.481  66.527  1.00  0.00    -0.339 A  
HETATM   16  C   UNL     1      -9.682  14.719  65.516  1.00  0.00    -0.261 A  
HETATM   17  C   UNL     1      -9.887  14.599  67.921  1.00  0.00    -0.217 A  
HETATM   18  F   UNL     1     -12.528  12.644  66.348  1.00  0.00    -0.394 F  
HETATM   19  C   UNL     1     -11.078  13.856  67.800  1.00  0.00    -0.281 A  
HETATM   20  C   UNL     1     -10.839  13.949  65.390  1.00  0.00    -0.321 A  
BRANCH  19  21
HETATM   21  C   UNL     1     -11.748  13.423  69.054  1.00  0.00    -0.323 C  
HETATM   22  N   UNL     1     -11.435  12.222  69.692  1.00  0.00    -0.249 N  
HETATM   23  C   UNL     1     -12.168  11.865  70.920  1.00  0.00    -0.249 C  
HETATM   24  O   UNL     1     -12.649  14.158  69.466  1.00  0.00    -0.227 OA 
HETATM   25  C   UNL     1     -12.789  10.464  70.810  1.00  0.00    -0.364 C  
HETATM   26  N   UNL     1     -11.781   9.467  70.424  1.00  0.00    -0.216 N  
HETATM   27  C   UNL     1     -11.035   9.807  69.211  1.00  0.00    -0.193 C  
HETATM   28  C   UNL     1     -11.664   8.298  71.161  1.00  0.00    -0.280 C  
HETATM   29  C   UNL     1     -10.441  11.220  69.286  1.00  0.00    -0.111 C  
HETATM   30  O   UNL     1     -12.343   8.076  72.159  1.00  0.00    -0.313 OA 
BRANCH  28  31
HETATM   31  C   UNL     1     -10.637   7.292  70.746  1.00  0.00    -0.237 C  
HETATM   32  C   UNL     1     -10.749   5.875  71.266  1.00  0.00    -0.325 C  
HETATM   33  C   UNL     1     -11.007   6.157  69.816  1.00  0.00    -0.459 C  
ENDBRANCH  28  31
ENDBRANCH  19  21
ENDBRANCH  13  14
ENDBRANCH   6  13
TORSDOF 4
ENDMDL
MODEL       21
REMARK 921   NORMALIZED FREE ENERGY PREDICTED BY IDOCK:   -7.83 KCAL/MOL
REMARK 922        TOTAL FREE ENERGY PREDICTED BY IDOCK:  -10.41 KCAL/MOL
REMARK 923 INTER-LIGAND FREE ENERGY PREDICTED BY IDOCK:   -9.58 KCAL/MOL
REMARK 924 INTRA-LIGAND FREE ENERGY PREDICTED BY IDOCK:   -0.83 KCAL/MOL
REMARK 927      BINDING AFFINITY PREDICTED BY RF-SCORE:    0.00 PKD
ROOT
HETATM    1  O   UNL     1     -11.638  16.445  63.749  1.00  0.00    -1.605 OA 
HETATM    2  C   UNL     1     -11.085  15.556  64.619  1.00  0.00    -0.359 A  
HETATM    3  H   UNL     1     -12.164  16.045  63.067  1.00  0.00     0.000 HD 
HETATM    4  N   UNL     1     -10.342  16.123  65.584  1.00  0.00    -0.395 NA 
HETATM    5  N   UNL     1      -9.735  15.326  66.499  1.00  0.00    -0.252 NA 
HETATM    6  C   UNL     1      -9.886  13.978  66.440  1.00  0.00    -0.296 A  
HETATM    7  C   UNL     1     -10.679  13.354  65.446  1.00  0.00    -0.307 A  
HETATM    8  C   UNL     1     -12.279  12.248  63.379  1.00  0.00    -0.630 A  
HETATM    9  C   UNL     1     -10.904  11.958  65.339  1.00  0.00    -0.343 A  
HETATM   10  C   UNL     1     -11.296  14.186  64.489  1.00  0.00    -0.355 A  
HETATM   11  C   UNL     1     -11.696  11.414  64.323  1.00  0.00    -0.015 A  
HETATM   12  C   UNL     1     -12.081  13.624  63.460  1.00  0.00    -0.341 A  
ENDROOT
BRANCH   6  13
HETATM   13  C   UNL     1      -9.151  13.150  67.472  1.00  0.00    -0.205 C  
BRANCH  13  14
HETATM   14  C   UNL     1      -9.984  12.340  68.448  1.00  0.00    -0.210 A  
HETATM   15  C   UNL     1     -11.646  10.718  70.011  1.00  0.00    -0.334 A  
HETATM   16  C   UNL     1     -11.232  12.812  68.875  1.00  0.00    -0.332 A  
HETATM   17  C   UNL     1      -9.544  11.083  68.901  1.00  0.00    -0.174 A  
HETATM   18  F   UNL     1     -12.531   9.933  70.641  1.00  0.00    -0.325 F  
HETATM   19  C   UNL     1     -10.362  10.271  69.712  1.00  0.00    -0.287 A  
HETATM   20  C   UNL     1     -12.063  11.998  69.644  1.00  0.00    -0.295 A  
BRANCH  19  21
HETATM   21  C   UNL     1      -9.839   8.935  70.099  1.00  0.00    -0.178 C  
HETATM   22  N   UNL     1      -9.612   7.923  69.166  1.00  0.00    -0.152 N  
HETATM   23  C   UNL     1      -9.112   6.622  69.645  1.00  0.00    -0.142 C  
HETATM   24  O   UNL     1      -9.678   8.748  71.308  1.00  0.00    -0.214 OA 
HETATM   25  C   UNL     1     -10.003   5.469  69.159  1.00  0.00    -0.190 C  
HETATM   26  N   UNL     1     -10.186   5.521  67.702  1.00  0.00    -0.183 N  
HETATM   27  C   UNL     1     -10.674   6.808  67.203  1.00  0.00    -0.371 C  
HETATM   28  C   UNL     1      -9.962   4.378  66.948  1.00  0.00    -0.177 C  
HETATM   29  C   UNL     1      -9.820   7.976  67.713  1.00  0.00    -0.165 C  
HETATM   30  O   UNL     1      -9.571   3.326  67.444  1.00  0.00    -0.201 OA 
BRANCH  28  31
HETATM   31  C   UNL     1     -10.163   4.448  65.467  1.00  0.00    -0.260 C  
HETATM   32  C   UNL     1      -8.972   4.733  64.579  1.00  0.00    -0.128 C  
HETATM   33  C   UNL     1      -9.601   3.372  64.564  1.00  0.00    -0.160 C  
ENDBRANCH  28  31
ENDBRANCH  19  21
ENDBRANCH  13  14
ENDBRANCH   6  13
TORSDOF 4
ENDMDL
MODEL       22
REMARK 921   NORMALIZED FREE ENERGY PREDICTED BY IDOCK:   -7.83 KCAL/MOL
REMARK 922        TOTAL FREE ENERGY PREDICTED BY IDOCK:  -10.41 KCAL/MOL
REMARK 923 INTER-LIGAND FREE ENERGY PREDICTED BY IDOCK:   -9.42 KCAL/MOL
REMARK 924 INTRA-LIGAND FREE ENERGY PREDICTED BY IDOCK:   -0.99 KCAL/MOL
REMARK 927      BINDING AFFINITY PREDICTED BY RF-SCORE:    0.00 PKD
ROOT
HETATM    1  O   UNL     1     -10.272   4.103  66.911  1.00  0.00    -0.271 OA 
HETATM    2  C   UNL     1      -9.941   5.424  66.950  1.00  0.00    -0.184 A  
HETATM    3  H   UNL     1     -10.759   3.803  67.670  1.00  0.00     0.000 HD 
HETATM    4  N   UNL     1      -9.252   5.847  65.878  1.00  0.00    -0.133 NA 
HETATM    5  N   UNL     1      -8.861   7.145  65.818  1.00  0.00    -0.112 NA 
HETATM    6  C   UNL     1      -9.170   7.999  66.828  1.00  0.00    -0.165 A  
HETATM    7  C   UNL     1      -9.912   7.585  67.961  1.00  0.00    -0.204 A  
HETATM    8  C   UNL     1     -11.381   6.601  70.182  1.00  0.00    -0.440 A  
HETATM    9  C   UNL     1     -10.294   8.426  69.038  1.00  0.00    -0.231 A  
HETATM   10  C   UNL     1     -10.303   6.231  68.024  1.00  0.00    -0.236 A  
HETATM   11  C   UNL     1     -11.022   7.941  70.129  1.00  0.00    -0.235 A  
HETATM   12  C   UNL     1     -11.025   5.752  69.137  1.00  0.00    -0.308 A  
ENDROOT
BRANCH   6  13
HETATM   13  C   UNL     1      -8.672   9.424  66.711  1.00  0.00    -0.138 C  
BRANCH  13  14
HETATM   14  C   UNL     1      -9.668  10.486  66.288  1.00  0.00    -0.254 A  
HETATM   15  C   UNL     1     -11.720  12.263  65.602  1.00  0.00    -0.382 A  
HETATM   16  C   UNL     1     -10.211  10.473  64.997  1.00  0.00    -0.365 A  
HETATM   17  C   UNL     1     -10.101  11.471  67.195  1.00  0.00    -0.223 A  
HETATM   18  F   UNL     1     -12.791  12.996  65.269  1.00  0.00    -0.532 F  
HETATM   19  C   UNL     1     -11.114  12.388  66.849  1.00  0.00    -0.335 A  
HETATM   20  C   UNL     1     -11.241  11.352  64.661  1.00  0.00    -0.220 A  
BRANCH  19  21
HETATM   21  C   UNL     1     -11.548  13.358  67.888  1.00  0.00    -0.339 C  
HETATM   22  N   UNL     1     -11.321  14.730  67.771  1.00  0.00    -0.317 N  
HETATM   23  C   UNL     1     -11.767  15.613  68.863  1.00  0.00    -0.384 C  
HETATM   24  O   UNL     1     -12.064  12.872  68.898  1.00  0.00    -0.270 OA 
HETATM   25  C   UNL     1     -10.619  16.500  69.367  1.00  0.00    -0.329 C  
HETATM   26  N   UNL     1      -9.983  17.223  68.257  1.00  0.00    -0.295 N  
HETATM   27  C   UNL     1      -9.539  16.364  67.158  1.00  0.00    -0.235 C  
HETATM   28  C   UNL     1      -9.793  18.593  68.359  1.00  0.00    -0.384 C  
HETATM   29  C   UNL     1     -10.663  15.441  66.668  1.00  0.00    -0.309 C  
HETATM   30  O   UNL     1     -10.177  19.243  69.327  1.00  0.00    -0.296 OA 
BRANCH  28  31
HETATM   31  C   UNL     1      -9.135  19.309  67.222  1.00  0.00    -0.346 C  
HETATM   32  C   UNL     1      -9.998  19.883  66.120  1.00  0.00    -0.593 C  
HETATM   33  C   UNL     1      -9.290  20.806  67.065  1.00  0.00    -0.354 C  
ENDBRANCH  28  31
ENDBRANCH  19  21
ENDBRANCH  13  14
ENDBRANCH   6  13
TORSDOF 4
ENDMDL
MODEL       23
REMARK 921   NORMALIZED FREE ENERGY PREDICTED BY IDOCK:   -7.81 KCAL/MOL
REMARK 922        TOTAL FREE ENERGY PREDICTED BY IDOCK:  -10.38 KCAL/MOL
REMARK 923 INTER-LIGAND FREE ENERGY PREDICTED BY IDOCK:   -9.72 KCAL/MOL
REMARK 924 INTRA-LIGAND FREE ENERGY PREDICTED BY IDOCK:   -0.66 KCAL/MOL
REMARK 927      BINDING AFFINITY PREDICTED BY RF-SCORE:    0.00 PKD
ROOT
HETATM    1  O   UNL     1     -12.411  13.782  63.032  1.00  0.00    -1.089 OA 
HETATM    2  C   UNL     1     -12.083  13.099  64.163  1.00  0.00    -0.430 A  
HETATM    3  H   UNL     1     -11.963  13.477  62.252  1.00  0.00     0.000 HD 
HETATM    4  N   UNL     1     -12.715  13.531  65.267  1.00  0.00    -0.657 NA 
HETATM    5  N   UNL     1     -12.455  12.926  66.453  1.00  0.00    -0.359 NA 
HETATM    6  C   UNL     1     -11.572  11.896  66.516  1.00  0.00    -0.255 A  
HETATM    7  C   UNL     1     -10.905  11.407  65.366  1.00  0.00    -0.292 A  
HETATM    8  C   UNL     1      -9.626  10.556  62.979  1.00  0.00    -0.369 A  
HETATM    9  C   UNL     1      -9.993  10.321  65.351  1.00  0.00    -0.371 A  
HETATM   10  C   UNL     1     -11.169  12.049  64.138  1.00  0.00    -0.441 A  
HETATM   11  C   UNL     1      -9.367   9.899  64.174  1.00  0.00    -0.295 A  
HETATM   12  C   UNL     1     -10.520  11.623  62.960  1.00  0.00    -0.256 A  
ENDROOT
BRANCH   6  13
HETATM   13  C   UNL     1     -11.303  11.292  67.878  1.00  0.00    -0.367 C  
BRANCH  13  14
HETATM   14  C   UNL     1      -9.877  11.327  68.394  1.00  0.00    -0.200 A  
HETATM   15  C   UNL     1      -7.172  11.233  69.107  1.00  0.00    -0.115 A  
HETATM   16  C   UNL     1      -9.401  10.305  69.227  1.00  0.00    -0.221 A  
HETATM   17  C   UNL     1      -8.995  12.353  68.009  1.00  0.00    -0.194 A  
HETATM   18  F   UNL     1      -5.866  11.068  69.362  1.00  0.00    -0.041 F  
HETATM   19  C   UNL     1      -7.637  12.329  68.387  1.00  0.00    -0.128 A  
HETATM   20  C   UNL     1      -8.050  10.254  69.571  1.00  0.00    -0.170 A  
BRANCH  19  21
HETATM   21  C   UNL     1      -6.766  13.425  67.889  1.00  0.00    -0.150 C  
HETATM   22  N   UNL     1      -7.092  14.772  68.053  1.00  0.00    -0.123 N  
HETATM   23  C   UNL     1      -6.177  15.789  67.506  1.00  0.00    -0.143 C  
HETATM   24  O   UNL     1      -5.764  13.075  67.260  1.00  0.00    -0.334 OA 
HETATM   25  C   UNL     1      -6.921  16.774  66.591  1.00  0.00    -0.232 C  
HETATM   26  N   UNL     1      -8.090  17.348  67.272  1.00  0.00    -0.197 N  
HETATM   27  C   UNL     1      -9.008  16.354  67.830  1.00  0.00    -0.198 C  
HETATM   28  C   UNL     1      -8.267  18.723  67.273  1.00  0.00    -0.263 C  
HETATM   29  C   UNL     1      -8.275  15.337  68.715  1.00  0.00    -0.169 C  
HETATM   30  O   UNL     1      -7.459  19.494  66.764  1.00  0.00    -0.228 OA 
BRANCH  28  31
HETATM   31  C   UNL     1      -9.469  19.288  67.964  1.00  0.00    -0.400 C  
HETATM   32  C   UNL     1      -9.952  20.670  67.580  1.00  0.00    -0.428 C  
HETATM   33  C   UNL     1     -10.771  19.468  67.215  1.00  0.00    -0.604 C  
ENDBRANCH  28  31
ENDBRANCH  19  21
ENDBRANCH  13  14
ENDBRANCH   6  13
TORSDOF 4
ENDMDL
MODEL       24
REMARK 921   NORMALIZED FREE ENERGY PREDICTED BY IDOCK:   -7.76 KCAL/MOL
REMARK 922        TOTAL FREE ENERGY PREDICTED BY IDOCK:  -10.32 KCAL/MOL
REMARK 923 INTER-LIGAND FREE ENERGY PREDICTED BY IDOCK:   -9.24 KCAL/MOL
REMARK 924 INTRA-LIGAND FREE ENERGY PREDICTED BY IDOCK:   -1.08 KCAL/MOL
REMARK 927      BINDING AFFINITY PREDICTED BY RF-SCORE:    0.00 PKD
ROOT
HETATM    1  O   UNL     1      -7.660   8.198  70.543  1.00  0.00    -0.075 OA 
HETATM    2  C   UNL     1      -8.028   8.464  69.259  1.00  0.00    -0.113 A  
HETATM    3  H   UNL     1      -8.174   7.518  70.961  1.00  0.00     0.000 HD 
HETATM    4  N   UNL     1      -7.301   9.427  68.669  1.00  0.00    -0.075 NA 
HETATM    5  N   UNL     1      -7.590   9.779  67.392  1.00  0.00    -0.091 NA 
HETATM    6  C   UNL     1      -8.596   9.159  66.722  1.00  0.00    -0.127 A  
HETATM    7  C   UNL     1      -9.366   8.127  67.312  1.00  0.00    -0.174 A  
HETATM    8  C   UNL     1     -10.840   6.095  68.638  1.00  0.00    -0.403 A  
HETATM    9  C   UNL     1     -10.411   7.418  66.667  1.00  0.00    -0.201 A  
HETATM   10  C   UNL     1      -9.070   7.775  68.646  1.00  0.00    -0.136 A  
HETATM   11  C   UNL     1     -11.133   6.413  67.319  1.00  0.00    -0.416 A  
HETATM   12  C   UNL     1      -9.816   6.770  69.297  1.00  0.00    -0.160 A  
ENDROOT
BRANCH   6  13
HETATM   13  C   UNL     1      -8.886   9.627  65.312  1.00  0.00    -0.204 C  
BRANCH  13  14
HETATM   14  C   UNL     1      -9.931  10.711  65.131  1.00  0.00    -0.366 A  
HETATM   15  C   UNL     1     -12.060  12.512  64.890  1.00  0.00    -0.440 A  
HETATM   16  C   UNL     1     -10.607  10.846  63.911  1.00  0.00    -0.285 A  
HETATM   17  C   UNL     1     -10.276  11.565  66.195  1.00  0.00    -0.272 A  
HETATM   18  F   UNL     1     -13.168  13.257  64.764  1.00  0.00    -0.262 F  
HETATM   19  C   UNL     1     -11.328  12.496  66.073  1.00  0.00    -0.386 A  
HETATM   20  C   UNL     1     -11.675  11.736  63.797  1.00  0.00    -0.499 A  
BRANCH  19  21
HETATM   21  C   UNL     1     -11.658  13.319  67.264  1.00  0.00    -0.359 C  
HETATM   22  N   UNL     1     -11.434  14.696  67.307  1.00  0.00    -0.360 N  
HETATM   23  C   UNL     1     -11.774  15.427  68.541  1.00  0.00    -0.338 C  
HETATM   24  O   UNL     1     -12.084  12.703  68.245  1.00  0.00    -0.279 OA 
HETATM   25  C   UNL     1     -10.578  16.247  69.049  1.00  0.00    -0.286 C  
HETATM   26  N   UNL     1     -10.042  17.112  67.989  1.00  0.00    -0.295 N  
HETATM   27  C   UNL     1      -9.706  16.407  66.751  1.00  0.00    -0.251 C  
HETATM   28  C   UNL     1      -9.835  18.458  68.251  1.00  0.00    -0.359 C  
HETATM   29  C   UNL     1     -10.876  15.549  66.250  1.00  0.00    -0.283 C  
HETATM   30  O   UNL     1     -10.125  18.974  69.326  1.00  0.00    -0.319 OA 
BRANCH  28  31
HETATM   31  C   UNL     1      -9.279  19.321  67.162  1.00  0.00    -0.354 C  
HETATM   32  C   UNL     1     -10.229  19.935  66.156  1.00  0.00    -0.611 C  
HETATM   33  C   UNL     1      -9.536  20.812  67.156  1.00  0.00    -0.465 C  
ENDBRANCH  28  31
ENDBRANCH  19  21
ENDBRANCH  13  14
ENDBRANCH   6  13
TORSDOF 4
ENDMDL
MODEL       25
REMARK 921   NORMALIZED FREE ENERGY PREDICTED BY IDOCK:   -7.75 KCAL/MOL
REMARK 922        TOTAL FREE ENERGY PREDICTED BY IDOCK:  -10.31 KCAL/MOL
REMARK 923 INTER-LIGAND FREE ENERGY PREDICTED BY IDOCK:   -9.37 KCAL/MOL
REMARK 924 INTRA-LIGAND FREE ENERGY PREDICTED BY IDOCK:   -0.94 KCAL/MOL
REMARK 927      BINDING AFFINITY PREDICTED BY RF-SCORE:    0.00 PKD
ROOT
HETATM    1  O   UNL     1      -7.765  21.354  67.130  1.00  0.00    -0.767 OA 
HETATM    2  C   UNL     1      -8.408  20.191  67.428  1.00  0.00    -0.338 A  
HETATM    3  H   UNL     1      -6.860  21.380  67.417  1.00  0.00     0.000 HD 
HETATM    4  N   UNL     1      -9.688  20.154  67.022  1.00  0.00    -0.410 NA 
HETATM    5  N   UNL     1     -10.427  19.046  67.278  1.00  0.00    -0.425 NA 
HETATM    6  C   UNL     1      -9.873  17.990  67.929  1.00  0.00    -0.308 A  
HETATM    7  C   UNL     1      -8.521  17.993  68.351  1.00  0.00    -0.306 A  
HETATM    8  C   UNL     1      -5.805  18.158  69.160  1.00  0.00    -0.218 A  
HETATM    9  C   UNL     1      -7.869  16.919  69.010  1.00  0.00    -0.184 A  
HETATM   10  C   UNL     1      -7.762  19.155  68.095  1.00  0.00    -0.328 A  
HETATM   11  C   UNL     1      -6.530  17.000  69.403  1.00  0.00    -0.236 A  
HETATM   12  C   UNL     1      -6.416  19.228  68.510  1.00  0.00    -0.278 A  
ENDROOT
BRANCH   6  13
HETATM   13  C   UNL     1     -10.766  16.801  68.212  1.00  0.00    -0.364 C  
BRANCH  13  14
HETATM   14  C   UNL     1     -10.787  15.678  67.192  1.00  0.00    -0.297 A  
HETATM   15  C   UNL     1     -10.545  13.678  65.248  1.00  0.00    -0.346 A  
HETATM   16  C   UNL     1     -11.166  15.931  65.867  1.00  0.00     0.065 A  
HETATM   17  C   UNL     1     -10.381  14.377  67.544  1.00  0.00    -0.251 A  
HETATM   18  F   UNL     1     -10.320  12.802  64.259  1.00  0.00    -0.326 F  
HETATM   19  C   UNL     1     -10.283  13.356  66.577  1.00  0.00    -0.282 A  
HETATM   20  C   UNL     1     -11.033  14.937  64.898  1.00  0.00    -0.422 A  
BRANCH  19  21
HETATM   21  C   UNL     1      -9.793  12.028  67.027  1.00  0.00    -0.194 C  
HETATM   22  N   UNL     1     -10.549  11.192  67.849  1.00  0.00    -0.187 N  
HETATM   23  C   UNL     1      -9.971   9.901  68.263  1.00  0.00    -0.151 C  
HETATM   24  O   UNL     1      -8.645  11.731  66.684  1.00  0.00    -0.178 OA 
HETATM   25  C   UNL     1     -10.006   9.738  69.790  1.00  0.00    -0.236 C  
HETATM   26  N   UNL     1     -11.360   9.965  70.315  1.00  0.00    -0.274 N  
HETATM   27  C   UNL     1     -11.956  11.238  69.909  1.00  0.00    -0.365 C  
HETATM   28  C   UNL     1     -11.920   9.032  71.175  1.00  0.00    -0.298 C  
HETATM   29  C   UNL     1     -11.893  11.436  68.389  1.00  0.00    -0.274 C  
HETATM   30  O   UNL     1     -11.346   7.992  71.486  1.00  0.00    -0.248 OA 
BRANCH  28  31
HETATM   31  C   UNL     1     -13.295   9.285  71.706  1.00  0.00    -0.477 C  
HETATM   32  C   UNL     1     -14.383   8.268  71.437  1.00  0.00    -0.461 C  
HETATM   33  C   UNL     1     -13.853   8.438  72.829  1.00  0.00    -0.011 C  
ENDBRANCH  28  31
ENDBRANCH  19  21
ENDBRANCH  13  14
ENDBRANCH   6  13
TORSDOF 4
ENDMDL
MODEL       26
REMARK 921   NORMALIZED FREE ENERGY PREDICTED BY IDOCK:   -7.71 KCAL/MOL
REMARK 922        TOTAL FREE ENERGY PREDICTED BY IDOCK:  -10.26 KCAL/MOL
REMARK 923 INTER-LIGAND FREE ENERGY PREDICTED BY IDOCK:   -9.37 KCAL/MOL
REMARK 924 INTRA-LIGAND FREE ENERGY PREDICTED BY IDOCK:   -0.90 KCAL/MOL
REMARK 927      BINDING AFFINITY PREDICTED BY RF-SCORE:    0.00 PKD
ROOT
HETATM    1  O   UNL     1     -11.195  16.223  70.554  1.00  0.00    -0.376 OA 
HETATM    2  C   UNL     1     -11.202  15.973  69.216  1.00  0.00    -0.346 A  
HETATM    3  H   UNL     1     -10.705  16.998  70.801  1.00  0.00     0.000 HD 
HETATM    4  N   UNL     1     -11.894  14.876  68.866  1.00  0.00    -0.313 NA 
HETATM    5  N   UNL     1     -11.957  14.528  67.557  1.00  0.00    -0.369 NA 
HETATM    6  C   UNL     1     -11.333  15.285  66.617  1.00  0.00    -0.170 A  
HETATM    7  C   UNL     1     -10.613  16.457  66.954  1.00  0.00    -0.252 A  
HETATM    8  C   UNL     1      -9.183  18.764  67.786  1.00  0.00    -0.316 A  
HETATM    9  C   UNL     1      -9.961  17.309  66.026  1.00  0.00    -0.249 A  
HETATM   10  C   UNL     1     -10.539  16.806  68.319  1.00  0.00    -0.352 A  
HETATM   11  C   UNL     1      -9.262  18.448  66.436  1.00  0.00    -0.280 A  
HETATM   12  C   UNL     1      -9.818  17.950  68.721  1.00  0.00    -0.354 A  
ENDROOT
BRANCH   6  13
HETATM   13  C   UNL     1     -11.416  14.817  65.180  1.00  0.00    -0.371 C  
BRANCH  13  14
HETATM   14  C   UNL     1     -10.993  13.392  64.878  1.00  0.00    -0.353 A  
HETATM   15  C   UNL     1      -9.980  10.879  64.173  1.00  0.00    -0.344 A  
HETATM   16  C   UNL     1     -11.432  12.756  63.709  1.00  0.00    -0.533 A  
HETATM   17  C   UNL     1     -10.115  12.703  65.735  1.00  0.00    -0.284 A  
HETATM   18  F   UNL     1      -9.426   9.744  63.725  1.00  0.00    -0.310 F  
HETATM   19  C   UNL     1      -9.622  11.426  65.402  1.00  0.00    -0.255 A  
HETATM   20  C   UNL     1     -10.917  11.509  63.354  1.00  0.00    -0.397 A  
BRANCH  19  21
HETATM   21  C   UNL     1      -8.657  10.795  66.340  1.00  0.00    -0.158 C  
HETATM   22  N   UNL     1      -9.067  10.095  67.475  1.00  0.00    -0.134 N  
HETATM   23  C   UNL     1      -8.037   9.522  68.359  1.00  0.00    -0.101 C  
HETATM   24  O   UNL     1      -7.463  10.984  66.093  1.00  0.00    -0.141 OA 
HETATM   25  C   UNL     1      -8.239   9.973  69.815  1.00  0.00    -0.178 C  
HETATM   26  N   UNL     1      -9.610   9.701  70.267  1.00  0.00    -0.256 N  
HETATM   27  C   UNL     1     -10.650  10.254  69.397  1.00  0.00    -0.237 C  
HETATM   28  C   UNL     1      -9.810   9.033  71.466  1.00  0.00    -0.310 C  
HETATM   29  C   UNL     1     -10.441   9.848  67.932  1.00  0.00    -0.236 C  
HETATM   30  O   UNL     1      -8.882   8.616  72.152  1.00  0.00    -0.262 OA 
BRANCH  28  31
HETATM   31  C   UNL     1     -11.214   8.774  71.914  1.00  0.00    -0.438 C  
HETATM   32  C   UNL     1     -11.952   7.577  71.356  1.00  0.00    -0.336 C  
HETATM   33  C   UNL     1     -11.532   7.586  72.795  1.00  0.00    -0.352 C  
ENDBRANCH  28  31
ENDBRANCH  19  21
ENDBRANCH  13  14
ENDBRANCH   6  13
TORSDOF 4
ENDMDL
MODEL       27
REMARK 921   NORMALIZED FREE ENERGY PREDICTED BY IDOCK:   -7.68 KCAL/MOL
REMARK 922        TOTAL FREE ENERGY PREDICTED BY IDOCK:  -10.23 KCAL/MOL
REMARK 923 INTER-LIGAND FREE ENERGY PREDICTED BY IDOCK:   -9.53 KCAL/MOL
REMARK 924 INTRA-LIGAND FREE ENERGY PREDICTED BY IDOCK:   -0.70 KCAL/MOL
REMARK 927      BINDING AFFINITY PREDICTED BY RF-SCORE:    0.00 PKD
ROOT
HETATM    1  O   UNL     1      -6.106  18.362  65.664  1.00  0.00    -0.198 OA 
HETATM    2  C   UNL     1      -7.129  17.722  66.297  1.00  0.00    -0.294 A  
HETATM    3  H   UNL     1      -6.295  19.265  65.439  1.00  0.00     0.000 HD 
HETATM    4  N   UNL     1      -6.862  16.444  66.615  1.00  0.00    -0.238 NA 
HETATM    5  N   UNL     1      -7.816  15.710  67.239  1.00  0.00    -0.179 NA 
HETATM    6  C   UNL     1      -9.019  16.265  67.541  1.00  0.00    -0.187 A  
HETATM    7  C   UNL     1      -9.320  17.615  67.235  1.00  0.00    -0.249 A  
HETATM    8  C   UNL     1      -9.788  20.326  66.535  1.00  0.00    -0.531 A  
HETATM    9  C   UNL     1     -10.541  18.268  67.544  1.00  0.00    -0.432 A  
HETATM   10  C   UNL     1      -8.329  18.369  66.573  1.00  0.00    -0.290 A  
HETATM   11  C   UNL     1     -10.768  19.605  67.203  1.00  0.00    -0.587 A  
HETATM   12  C   UNL     1      -8.577  19.713  66.222  1.00  0.00    -0.393 A  
ENDROOT
BRANCH   6  13
HETATM   13  C   UNL     1     -10.048  15.376  68.205  1.00  0.00    -0.218 C  
BRANCH  13  14
HETATM   14  C   UNL     1     -10.827  14.420  67.323  1.00  0.00    -0.290 A  
HETATM   15  C   UNL     1     -12.056  12.699  65.487  1.00  0.00    -0.458 A  
HETATM   16  C   UNL     1     -11.814  14.903  66.453  1.00  0.00    -0.137 A  
HETATM   17  C   UNL     1     -10.541  13.042  67.324  1.00  0.00    -0.247 A  
HETATM   18  F   UNL     1     -12.572  11.949  64.503  1.00  0.00    -0.383 F  
HETATM   19  C   UNL     1     -11.176  12.163  66.423  1.00  0.00    -0.380 A  
HETATM   20  C   UNL     1     -12.416  14.046  65.532  1.00  0.00    -0.533 A  
BRANCH  19  21
HETATM   21  C   UNL     1     -10.772  10.734  66.458  1.00  0.00    -0.181 C  
HETATM   22  N   UNL     1     -10.831   9.968  67.623  1.00  0.00    -0.287 N  
HETATM   23  C   UNL     1     -10.389   8.564  67.567  1.00  0.00    -0.267 C  
HETATM   24  O   UNL     1     -10.317  10.275  65.407  1.00  0.00    -0.269 OA 
HETATM   25  C   UNL     1      -9.333   8.268  68.643  1.00  0.00    -0.143 C  
HETATM   26  N   UNL     1      -9.805   8.677  69.974  1.00  0.00    -0.177 N  
HETATM   27  C   UNL     1     -10.257  10.067  70.049  1.00  0.00    -0.255 C  
HETATM   28  C   UNL     1      -9.725   7.779  71.027  1.00  0.00    -0.163 C  
HETATM   29  C   UNL     1     -11.283  10.392  68.955  1.00  0.00    -0.234 C  
HETATM   30  O   UNL     1      -9.314   6.631  70.888  1.00  0.00    -0.157 OA 
BRANCH  28  31
HETATM   31  C   UNL     1     -10.202   8.217  72.377  1.00  0.00    -0.397 C  
HETATM   32  C   UNL     1     -11.666   8.054  72.724  1.00  0.00    -0.352 C  
HETATM   33  C   UNL     1     -10.641   7.197  73.404  1.00  0.00    -0.424 C  
ENDBRANCH  28  31
ENDBRANCH  19  21
ENDBRANCH  13  14
ENDBRANCH   6  13
TORSDOF 4
ENDMDL
MODEL       28
REMARK 921   NORMALIZED FREE ENERGY PREDICTED BY IDOCK:   -7.68 KCAL/MOL
REMARK 922        TOTAL FREE ENERGY PREDICTED BY IDOCK:  -10.22 KCAL/MOL
REMARK 923 INTER-LIGAND FREE ENERGY PREDICTED BY IDOCK:   -8.98 KCAL/MOL
REMARK 924 INTRA-LIGAND FREE ENERGY PREDICTED BY IDOCK:   -1.24 KCAL/MOL
REMARK 927      BINDING AFFINITY PREDICTED BY RF-SCORE:    0.00 PKD
ROOT
HETATM    1  O   UNL     1      -5.816  10.093  69.055  1.00  0.00    -0.038 OA 
HETATM    2  C   UNL     1      -6.901  10.040  68.234  1.00  0.00    -0.063 A  
HETATM    3  H   UNL     1      -6.018   9.957  69.973  1.00  0.00     0.000 HD 
HETATM    4  N   UNL     1      -6.615  10.234  66.935  1.00  0.00    -0.073 NA 
HETATM    5  N   UNL     1      -7.624  10.213  66.030  1.00  0.00    -0.112 NA 
HETATM    6  C   UNL     1      -8.902   9.992  66.434  1.00  0.00    -0.143 A  
HETATM    7  C   UNL     1      -9.230   9.765  67.794  1.00  0.00    -0.141 A  
HETATM    8  C   UNL     1      -9.736   9.355  70.557  1.00  0.00    -0.331 A  
HETATM    9  C   UNL     1     -10.535   9.502  68.285  1.00  0.00    -0.265 A  
HETATM   10  C   UNL     1      -8.178   9.803  68.733  1.00  0.00    -0.108 A  
HETATM   11  C   UNL     1     -10.782   9.295  69.645  1.00  0.00    -0.244 A  
HETATM   12  C   UNL     1      -8.443   9.607  70.104  1.00  0.00    -0.231 A  
ENDROOT
BRANCH   6  13
HETATM   13  C   UNL     1      -9.982  10.017  65.374  1.00  0.00    -0.364 C  
BRANCH  13  14
HETATM   14  C   UNL     1     -10.592  11.360  65.022  1.00  0.00    -0.359 A  
HETATM   15  C   UNL     1     -11.980  13.725  64.457  1.00  0.00    -0.427 A  
HETATM   16  C   UNL     1     -11.091  11.596  63.734  1.00  0.00    -0.499 A  
HETATM   17  C   UNL     1     -10.714  12.373  65.991  1.00  0.00    -0.294 A  
HETATM   18  F   UNL     1     -12.765  14.774  64.174  1.00  0.00    -0.451 F  
HETATM   19  C   UNL     1     -11.386  13.579  65.707  1.00  0.00    -0.318 A  
HETATM   20  C   UNL     1     -11.792  12.769  63.458  1.00  0.00    -0.618 A  
BRANCH  19  21
HETATM   21  C   UNL     1     -11.516  14.570  66.807  1.00  0.00    -0.367 C  
HETATM   22  N   UNL     1     -10.761  15.743  66.848  1.00  0.00    -0.315 N  
HETATM   23  C   UNL     1     -10.942  16.656  67.991  1.00  0.00    -0.311 C  
HETATM   24  O   UNL     1     -12.285  14.263  67.722  1.00  0.00    -0.325 OA 
HETATM   25  C   UNL     1      -9.598  16.978  68.664  1.00  0.00    -0.275 C  
HETATM   26  N   UNL     1      -8.617  17.461  67.682  1.00  0.00    -0.215 N  
HETATM   27  C   UNL     1      -8.429  16.572  66.535  1.00  0.00    -0.293 C  
HETATM   28  C   UNL     1      -7.921  18.632  67.938  1.00  0.00    -0.259 C  
HETATM   29  C   UNL     1      -9.765  16.206  65.874  1.00  0.00    -0.340 C  
HETATM   30  O   UNL     1      -8.122  19.316  68.938  1.00  0.00    -0.353 OA 
BRANCH  28  31
HETATM   31  C   UNL     1      -6.919  19.102  66.931  1.00  0.00    -0.209 C  
HETATM   32  C   UNL     1      -7.392  19.940  65.762  1.00  0.00    -0.337 C  
HETATM   33  C   UNL     1      -6.554  20.567  66.836  1.00  0.00    -0.306 C  
ENDBRANCH  28  31
ENDBRANCH  19  21
ENDBRANCH  13  14
ENDBRANCH   6  13
TORSDOF 4
ENDMDL
MODEL       29
REMARK 921   NORMALIZED FREE ENERGY PREDICTED BY IDOCK:   -7.65 KCAL/MOL
REMARK 922        TOTAL FREE ENERGY PREDICTED BY IDOCK:  -10.19 KCAL/MOL
REMARK 923 INTER-LIGAND FREE ENERGY PREDICTED BY IDOCK:   -9.37 KCAL/MOL
REMARK 924 INTRA-LIGAND FREE ENERGY PREDICTED BY IDOCK:   -0.82 KCAL/MOL
REMARK 927      BINDING AFFINITY PREDICTED BY RF-SCORE:    0.00 PKD
ROOT
HETATM    1  O   UNL     1     -10.009   5.123  74.186  1.00  0.00    -0.163 OA 
HETATM    2  C   UNL     1     -10.354   6.002  73.204  1.00  0.00    -0.213 A  
HETATM    3  H   UNL     1      -9.707   4.282  73.864  1.00  0.00     0.000 HD 
HETATM    4  N   UNL     1     -10.783   7.191  73.660  1.00  0.00    -0.347 NA 
HETATM    5  N   UNL     1     -11.163   8.138  72.767  1.00  0.00    -0.384 NA 
HETATM    6  C   UNL     1     -11.102   7.886  71.434  1.00  0.00    -0.243 A  
HETATM    7  C   UNL     1     -10.636   6.648  70.924  1.00  0.00    -0.263 A  
HETATM    8  C   UNL     1      -9.706   4.111  70.056  1.00  0.00    -0.282 A  
HETATM    9  C   UNL     1     -10.520   6.324  69.549  1.00  0.00    -0.293 A  
HETATM   10  C   UNL     1     -10.256   5.662  71.859  1.00  0.00    -0.244 A  
HETATM   11  C   UNL     1     -10.057   5.076  69.122  1.00  0.00    -0.257 A  
HETATM   12  C   UNL     1      -9.804   4.401  71.415  1.00  0.00    -0.262 A  
ENDROOT
BRANCH   6  13
HETATM   13  C   UNL     1     -11.576   8.976  70.497  1.00  0.00    -0.209 C  
BRANCH  13  14
HETATM   14  C   UNL     1     -10.523   9.744  69.721  1.00  0.00    -0.278 A  
HETATM   15  C   UNL     1      -8.528  10.910  68.140  1.00  0.00    -0.131 A  
HETATM   16  C   UNL     1      -9.193   9.765  70.163  1.00  0.00    -0.253 A  
HETATM   17  C   UNL     1     -10.849  10.405  68.523  1.00  0.00    -0.278 A  
HETATM   18  F   UNL     1      -7.522  11.332  67.362  1.00  0.00    -0.096 F  
HETATM   19  C   UNL     1      -9.855  11.020  67.734  1.00  0.00    -0.190 A  
HETATM   20  C   UNL     1      -8.200  10.337  69.368  1.00  0.00    -0.171 A  
BRANCH  19  21
HETATM   21  C   UNL     1     -10.282  11.647  66.457  1.00  0.00    -0.214 C  
HETATM   22  N   UNL     1     -10.084  13.002  66.186  1.00  0.00    -0.281 N  
HETATM   23  C   UNL     1     -10.561  13.540  64.900  1.00  0.00    -0.397 C  
HETATM   24  O   UNL     1     -10.885  10.912  65.669  1.00  0.00    -0.165 OA 
HETATM   25  C   UNL     1     -11.469  14.762  65.110  1.00  0.00    -0.371 C  
HETATM   26  N   UNL     1     -10.813  15.769  65.955  1.00  0.00    -0.303 N  
HETATM   27  C   UNL     1     -10.324  15.253  67.234  1.00  0.00    -0.264 C  
HETATM   28  C   UNL     1     -10.770  17.088  65.530  1.00  0.00    -0.138 C  
HETATM   29  C   UNL     1      -9.448  14.007  67.047  1.00  0.00    -0.250 C  
HETATM   30  O   UNL     1     -11.222  17.449  64.447  1.00  0.00    -0.978 OA 
BRANCH  28  31
HETATM   31  C   UNL     1     -10.106  18.101  66.409  1.00  0.00    -0.392 C  
HETATM   32  C   UNL     1     -10.409  19.568  66.195  1.00  0.00    -0.614 C  
HETATM   33  C   UNL     1     -10.910  18.879  67.428  1.00  0.00    -0.449 C  
ENDBRANCH  28  31
ENDBRANCH  19  21
ENDBRANCH  13  14
ENDBRANCH   6  13
TORSDOF 4
ENDMDL
MODEL       30
REMARK 921   NORMALIZED FREE ENERGY PREDICTED BY IDOCK:   -7.65 KCAL/MOL
REMARK 922        TOTAL FREE ENERGY PREDICTED BY IDOCK:  -10.19 KCAL/MOL
REMARK 923 INTER-LIGAND FREE ENERGY PREDICTED BY IDOCK:   -9.21 KCAL/MOL
REMARK 924 INTRA-LIGAND FREE ENERGY PREDICTED BY IDOCK:   -0.98 KCAL/MOL
REMARK 927      BINDING AFFINITY PREDICTED BY RF-SCORE:    0.00 PKD
ROOT
HETATM    1  O   UNL     1     -10.095  16.476  69.804  1.00  0.00    -0.163 OA 
HETATM    2  C   UNL     1     -10.768  15.295  69.874  1.00  0.00    -0.285 A  
HETATM    3  H   UNL     1     -10.344  17.104  70.471  1.00  0.00     0.000 HD 
HETATM    4  N   UNL     1     -10.417  14.406  68.929  1.00  0.00    -0.245 NA 
HETATM    5  N   UNL     1     -11.034  13.199  68.901  1.00  0.00    -0.243 NA 
HETATM    6  C   UNL     1     -11.987  12.896  69.820  1.00  0.00    -0.296 A  
HETATM    7  C   UNL     1     -12.364  13.805  70.839  1.00  0.00    -0.456 A  
HETATM    8  C   UNL     1     -13.032  15.741  72.804  1.00  0.00    -0.585 A  
HETATM    9  C   UNL     1     -13.329  13.547  71.846  1.00  0.00    -0.529 A  
HETATM   10  C   UNL     1     -11.729  15.065  70.855  1.00  0.00    -0.376 A  
HETATM   11  C   UNL     1     -13.653  14.500  72.817  1.00  0.00    -0.533 A  
HETATM   12  C   UNL     1     -12.076  16.022  71.831  1.00  0.00    -0.590 A  
ENDROOT
BRANCH   6  13
HETATM   13  C   UNL     1     -12.659  11.544  69.706  1.00  0.00    -0.006 C  
BRANCH  13  14
HETATM   14  C   UNL     1     -12.290  10.486  70.728  1.00  0.00    -0.474 A  
HETATM   15  C   UNL     1     -11.705   8.332  72.418  1.00  0.00    -0.397 A  
HETATM   16  C   UNL     1     -13.234  10.048  71.666  1.00  0.00    -0.518 A  
HETATM   17  C   UNL     1     -11.015   9.891  70.722  1.00  0.00    -0.407 A  
HETATM   18  F   UNL     1     -11.525   7.224  73.151  1.00  0.00    -0.297 F  
HETATM   19  C   UNL     1     -10.702   8.825  71.589  1.00  0.00    -0.397 A  
HETATM   20  C   UNL     1     -12.944   8.967  72.499  1.00  0.00    -0.429 A  
BRANCH  19  21
HETATM   21  C   UNL     1      -9.349   8.221  71.476  1.00  0.00    -0.180 C  
HETATM   22  N   UNL     1      -9.086   7.125  70.654  1.00  0.00    -0.157 N  
HETATM   23  C   UNL     1      -7.717   6.579  70.623  1.00  0.00    -0.105 C  
HETATM   24  O   UNL     1      -8.479   8.705  72.205  1.00  0.00    -0.318 OA 
HETATM   25  C   UNL     1      -7.712   5.070  70.911  1.00  0.00    -0.083 C  
HETATM   26  N   UNL     1      -8.642   4.359  70.023  1.00  0.00    -0.068 N  
HETATM   27  C   UNL     1     -10.006   4.891  70.032  1.00  0.00    -0.253 C  
HETATM   28  C   UNL     1      -8.199   3.244  69.328  1.00  0.00    -0.059 C  
HETATM   29  C   UNL     1     -10.028   6.405  69.786  1.00  0.00    -0.166 C  
HETATM   30  O   UNL     1      -7.039   2.846  69.388  1.00  0.00    -0.043 OA 
BRANCH  28  31
HETATM   31  C   UNL     1      -9.163   2.528  68.436  1.00  0.00    -0.253 C  
HETATM   32  C   UNL     1      -9.213   2.892  66.968  1.00  0.00    -0.176 C  
HETATM   33  C   UNL     1      -8.665   1.560  67.385  1.00  0.00    -0.123 C  
ENDBRANCH  28  31
ENDBRANCH  19  21
ENDBRANCH  13  14
ENDBRANCH   6  13
TORSDOF 4
ENDMDL
MODEL       31
REMARK 921   NORMALIZED FREE ENERGY PREDICTED BY IDOCK:   -7.56 KCAL/MOL
REMARK 922        TOTAL FREE ENERGY PREDICTED BY IDOCK:  -10.08 KCAL/MOL
REMARK 923 INTER-LIGAND FREE ENERGY PREDICTED BY IDOCK:   -9.43 KCAL/MOL
REMARK 924 INTRA-LIGAND FREE ENERGY PREDICTED BY IDOCK:   -0.65 KCAL/MOL
REMARK 927      BINDING AFFINITY PREDICTED BY RF-SCORE:    0.00 PKD
ROOT
HETATM    1  O   UNL     1      -9.785   9.531  64.661  1.00  0.00    -0.425 OA 
HETATM    2  C   UNL     1     -10.066  10.583  65.479  1.00  0.00    -0.283 A  
HETATM    3  H   UNL     1     -10.168   9.602  63.794  1.00  0.00     0.000 HD 
HETATM    4  N   UNL     1      -9.526  10.483  66.705  1.00  0.00    -0.165 NA 
HETATM    5  N   UNL     1      -9.751  11.472  67.605  1.00  0.00    -0.172 NA 
HETATM    6  C   UNL     1     -10.507  12.548  67.265  1.00  0.00    -0.220 A  
HETATM    7  C   UNL     1     -11.073  12.690  65.974  1.00  0.00    -0.321 A  
HETATM    8  C   UNL     1     -12.163  12.820  63.356  1.00  0.00    -0.594 A  
HETATM    9  C   UNL     1     -11.848  13.795  65.540  1.00  0.00    -0.378 A  
HETATM   10  C   UNL     1     -10.847  11.651  65.046  1.00  0.00    -0.346 A  
HETATM   11  C   UNL     1     -12.381  13.861  64.249  1.00  0.00    -0.390 A  
HETATM   12  C   UNL     1     -11.402  11.723  63.751  1.00  0.00    -0.524 A  
ENDROOT
BRANCH   6  13
HETATM   13  C   UNL     1     -10.747  13.595  68.331  1.00  0.00    -0.272 C  
BRANCH  13  14
HETATM   14  C   UNL     1     -11.495  13.171  69.580  1.00  0.00    -0.291 A  
HETATM   15  C   UNL     1     -13.126  12.426  71.730  1.00  0.00    -0.342 A  
HETATM   16  C   UNL     1     -11.912  14.128  70.515  1.00  0.00    -0.393 A  
HETATM   17  C   UNL     1     -11.827  11.821  69.798  1.00  0.00    -0.420 A  
HETATM   18  F   UNL     1     -14.015  12.145  72.693  1.00  0.00    -0.344 F  
HETATM   19  C   UNL     1     -12.624  11.433  70.894  1.00  0.00    -0.453 A  
HETATM   20  C   UNL     1     -12.734  13.756  71.578  1.00  0.00    -0.432 A  
BRANCH  19  21
HETATM   21  C   UNL     1     -12.971   9.993  71.016  1.00  0.00    -0.360 C  
HETATM   22  N   UNL     1     -12.012   9.012  71.273  1.00  0.00    -0.298 N  
HETATM   23  C   UNL     1     -12.446   7.607  71.355  1.00  0.00    -0.333 C  
HETATM   24  O   UNL     1     -14.152   9.703  70.809  1.00  0.00     0.029 OA 
HETATM   25  C   UNL     1     -11.626   6.714  70.411  1.00  0.00    -0.398 C  
HETATM   26  N   UNL     1     -10.185   6.892  70.635  1.00  0.00    -0.195 N  
HETATM   27  C   UNL     1      -9.733   8.282  70.566  1.00  0.00    -0.171 C  
HETATM   28  C   UNL     1      -9.383   5.774  70.815  1.00  0.00    -0.163 C  
HETATM   29  C   UNL     1     -10.568   9.197  71.472  1.00  0.00    -0.358 C  
HETATM   30  O   UNL     1      -9.835   4.634  70.841  1.00  0.00    -0.177 OA 
BRANCH  28  31
HETATM   31  C   UNL     1      -7.916   5.976  71.032  1.00  0.00    -0.116 C  
HETATM   32  C   UNL     1      -7.218   5.175  72.110  1.00  0.00    -0.086 C  
HETATM   33  C   UNL     1      -6.929   4.888  70.667  1.00  0.00    -0.041 C  
ENDBRANCH  28  31
ENDBRANCH  19  21
ENDBRANCH  13  14
ENDBRANCH   6  13
TORSDOF 4
ENDMDL
MODEL       32
REMARK 921   NORMALIZED FREE ENERGY PREDICTED BY IDOCK:   -7.56 KCAL/MOL
REMARK 922        TOTAL FREE ENERGY PREDICTED BY IDOCK:  -10.07 KCAL/MOL
REMARK 923 INTER-LIGAND FREE ENERGY PREDICTED BY IDOCK:   -9.39 KCAL/MOL
REMARK 924 INTRA-LIGAND FREE ENERGY PREDICTED BY IDOCK:   -0.68 KCAL/MOL
REMARK 927      BINDING AFFINITY PREDICTED BY RF-SCORE:    0.00 PKD
ROOT
HETATM    1  O   UNL     1     -10.974   5.326  74.267  1.00  0.00    -0.415 OA 
HETATM    2  C   UNL     1     -10.731   6.121  73.189  1.00  0.00    -0.260 A  
HETATM    3  H   UNL     1     -10.271   5.313  74.905  1.00  0.00     0.000 HD 
HETATM    4  N   UNL     1     -11.725   6.139  72.285  1.00  0.00    -0.317 NA 
HETATM    5  N   UNL     1     -11.582   6.892  71.166  1.00  0.00    -0.300 NA 
HETATM    6  C   UNL     1     -10.452   7.619  70.970  1.00  0.00    -0.211 A  
HETATM    7  C   UNL     1      -9.396   7.634  71.914  1.00  0.00    -0.181 A  
HETATM    8  C   UNL     1      -7.354   7.543  73.884  1.00  0.00    -0.122 A  
HETATM    9  C   UNL     1      -8.201   8.389  71.790  1.00  0.00    -0.200 A  
HETATM   10  C   UNL     1      -9.544   6.838  73.069  1.00  0.00    -0.168 A  
HETATM   11  C   UNL     1      -7.198   8.347  72.763  1.00  0.00    -0.109 A  
HETATM   12  C   UNL     1      -8.518   6.794  74.037  1.00  0.00    -0.155 A  
ENDROOT
BRANCH   6  13
HETATM   13  C   UNL     1     -10.346   8.407  69.682  1.00  0.00    -0.218 C  
BRANCH  13  14
HETATM   14  C   UNL     1     -11.072   9.736  69.607  1.00  0.00    -0.251 A  
HETATM   15  C   UNL     1     -12.161  12.315  69.563  1.00  0.00    -0.198 A  
HETATM   16  C   UNL     1     -11.749  10.236  70.728  1.00  0.00    -0.453 A  
HETATM   17  C   UNL     1     -11.039  10.511  68.434  1.00  0.00    -0.335 A  
HETATM   18  F   UNL     1     -12.577  13.587  69.638  1.00  0.00    -0.302 F  
HETATM   19  C   UNL     1     -11.610  11.799  68.393  1.00  0.00    -0.380 A  
HETATM   20  C   UNL     1     -12.280  11.526  70.707  1.00  0.00    -0.463 A  
BRANCH  19  21
HETATM   21  C   UNL     1     -11.480  12.569  67.129  1.00  0.00    -0.351 C  
HETATM   22  N   UNL     1     -10.759  13.762  67.050  1.00  0.00    -0.281 N  
HETATM   23  C   UNL     1     -10.704  14.467  65.758  1.00  0.00    -0.315 C  
HETATM   24  O   UNL     1     -12.105  12.127  66.161  1.00  0.00    -0.621 OA 
HETATM   25  C   UNL     1     -11.143  15.933  65.905  1.00  0.00    -0.053 C  
HETATM   26  N   UNL     1     -10.387  16.607  66.969  1.00  0.00    -0.301 N  
HETATM   27  C   UNL     1     -10.421  15.917  68.260  1.00  0.00    -0.257 C  
HETATM   28  C   UNL     1      -9.783  17.827  66.705  1.00  0.00    -0.313 C  
HETATM   29  C   UNL     1     -10.025  14.441  68.126  1.00  0.00    -0.223 C  
HETATM   30  O   UNL     1      -9.816  18.354  65.596  1.00  0.00    -0.440 OA 
BRANCH  28  31
HETATM   31  C   UNL     1      -9.026  18.503  67.804  1.00  0.00    -0.289 C  
HETATM   32  C   UNL     1      -8.678  19.969  67.661  1.00  0.00    -0.395 C  
HETATM   33  C   UNL     1      -9.698  19.542  68.674  1.00  0.00    -0.514 C  
ENDBRANCH  28  31
ENDBRANCH  19  21
ENDBRANCH  13  14
ENDBRANCH   6  13
TORSDOF 4
ENDMDL
MODEL       33
REMARK 921   NORMALIZED FREE ENERGY PREDICTED BY IDOCK:   -7.55 KCAL/MOL
REMARK 922        TOTAL FREE ENERGY PREDICTED BY IDOCK:  -10.06 KCAL/MOL
REMARK 923 INTER-LIGAND FREE ENERGY PREDICTED BY IDOCK:   -9.56 KCAL/MOL
REMARK 924 INTRA-LIGAND FREE ENERGY PREDICTED BY IDOCK:   -0.49 KCAL/MOL
REMARK 927      BINDING AFFINITY PREDICTED BY RF-SCORE:    0.00 PKD
ROOT
HETATM    1  O   UNL     1     -11.447   6.494  70.691  1.00  0.00    -0.328 OA 
HETATM    2  C   UNL     1     -11.040   7.709  70.231  1.00  0.00    -0.244 A  
HETATM    3  H   UNL     1     -12.190   6.532  71.282  1.00  0.00     0.000 HD 
HETATM    4  N   UNL     1      -9.988   7.655  69.397  1.00  0.00    -0.176 NA 
HETATM    5  N   UNL     1      -9.494   8.810  68.887  1.00  0.00    -0.145 NA 
HETATM    6  C   UNL     1     -10.061  10.000  69.214  1.00  0.00    -0.213 A  
HETATM    7  C   UNL     1     -11.183  10.086  70.075  1.00  0.00    -0.345 A  
HETATM    8  C   UNL     1     -13.409  10.101  71.836  1.00  0.00    -0.505 A  
HETATM    9  C   UNL     1     -11.842  11.288  70.437  1.00  0.00    -0.443 A  
HETATM   10  C   UNL     1     -11.683   8.882  70.613  1.00  0.00    -0.212 A  
HETATM   11  C   UNL     1     -12.942  11.294  71.301  1.00  0.00    -0.427 A  
HETATM   12  C   UNL     1     -12.785   8.903  71.495  1.00  0.00    -0.386 A  
ENDROOT
BRANCH   6  13
HETATM   13  C   UNL     1      -9.435  11.252  68.636  1.00  0.00    -0.179 C  
BRANCH  13  14
HETATM   14  C   UNL     1      -9.772  11.610  67.202  1.00  0.00    -0.195 A  
HETATM   15  C   UNL     1     -10.676  12.203  64.620  1.00  0.00    -0.304 A  
HETATM   16  C   UNL     1      -9.748  10.628  66.202  1.00  0.00    -0.253 A  
HETATM   17  C   UNL     1     -10.162  12.918  66.858  1.00  0.00    -0.243 A  
HETATM   18  F   UNL     1     -11.223  12.398  63.412  1.00  0.00    -0.444 F  
HETATM   19  C   UNL     1     -10.591  13.232  65.553  1.00  0.00    -0.295 A  
HETATM   20  C   UNL     1     -10.210  10.924  64.920  1.00  0.00    -0.381 A  
BRANCH  19  21
HETATM   21  C   UNL     1     -11.037  14.626  65.293  1.00  0.00    -0.360 C  
HETATM   22  N   UNL     1     -10.228  15.731  65.560  1.00  0.00    -0.368 N  
HETATM   23  C   UNL     1     -10.764  17.077  65.290  1.00  0.00    -0.096 C  
HETATM   24  O   UNL     1     -12.195  14.755  64.887  1.00  0.00    -0.375 OA 
HETATM   25  C   UNL     1     -10.652  17.980  66.529  1.00  0.00    -0.253 C  
HETATM   26  N   UNL     1      -9.278  17.994  67.050  1.00  0.00    -0.259 N  
HETATM   27  C   UNL     1      -8.723  16.666  67.316  1.00  0.00    -0.191 C  
HETATM   28  C   UNL     1      -8.662  19.209  67.307  1.00  0.00    -0.286 C  
HETATM   29  C   UNL     1      -8.864  15.737  66.103  1.00  0.00    -0.311 C  
HETATM   30  O   UNL     1      -9.202  20.286  67.074  1.00  0.00    -0.358 OA 
BRANCH  28  31
HETATM   31  C   UNL     1      -7.266  19.203  67.846  1.00  0.00    -0.269 C  
HETATM   32  C   UNL     1      -6.554  20.522  68.054  1.00  0.00    -0.345 C  
HETATM   33  C   UNL     1      -6.979  19.712  69.242  1.00  0.00    -0.375 C  
ENDBRANCH  28  31
ENDBRANCH  19  21
ENDBRANCH  13  14
ENDBRANCH   6  13
TORSDOF 4
ENDMDL
MODEL       34
REMARK 921   NORMALIZED FREE ENERGY PREDICTED BY IDOCK:   -7.50 KCAL/MOL
REMARK 922        TOTAL FREE ENERGY PREDICTED BY IDOCK:  -10.00 KCAL/MOL
REMARK 923 INTER-LIGAND FREE ENERGY PREDICTED BY IDOCK:   -9.52 KCAL/MOL
REMARK 924 INTRA-LIGAND FREE ENERGY PREDICTED BY IDOCK:   -0.48 KCAL/MOL
REMARK 927      BINDING AFFINITY PREDICTED BY RF-SCORE:    0.00 PKD
ROOT
HETATM    1  O   UNL     1     -14.250   9.776  72.602  1.00  0.00    -0.599 OA 
HETATM    2  C   UNL     1     -13.241  10.178  71.780  1.00  0.00    -0.438 A  
HETATM    3  H   UNL     1     -14.771  10.489  72.952  1.00  0.00     0.000 HD 
HETATM    4  N   UNL     1     -12.503   9.169  71.286  1.00  0.00    -0.311 NA 
HETATM    5  N   UNL     1     -11.464   9.457  70.463  1.00  0.00    -0.269 NA 
HETATM    6  C   UNL     1     -11.182  10.747  70.143  1.00  0.00    -0.267 A  
HETATM    7  C   UNL     1     -11.954  11.829  70.633  1.00  0.00    -0.320 A  
HETATM    8  C   UNL     1     -13.576  13.891  71.717  1.00  0.00    -0.466 A  
HETATM    9  C   UNL     1     -11.736  13.194  70.320  1.00  0.00    -0.203 A  
HETATM   10  C   UNL     1     -13.025  11.523  71.500  1.00  0.00    -0.485 A  
HETATM   11  C   UNL     1     -12.539  14.209  70.851  1.00  0.00    -0.433 A  
HETATM   12  C   UNL     1     -13.818  12.558  72.039  1.00  0.00    -0.083 A  
ENDROOT
BRANCH   6  13
HETATM   13  C   UNL     1      -9.986  10.996  69.249  1.00  0.00    -0.088 C  
BRANCH  13  14
HETATM   14  C   UNL     1     -10.252  11.315  67.790  1.00  0.00    -0.203 A  
HETATM   15  C   UNL     1     -11.032  11.871  65.160  1.00  0.00    -0.312 A  
HETATM   16  C   UNL     1     -10.325  10.285  66.843  1.00  0.00    -0.298 A  
HETATM   17  C   UNL     1     -10.478  12.639  67.371  1.00  0.00    -0.233 A  
HETATM   18  F   UNL     1     -11.529  12.065  63.930  1.00  0.00    -0.381 F  
HETATM   19  C   UNL     1     -10.844  12.932  66.042  1.00  0.00    -0.300 A  
HETATM   20  C   UNL     1     -10.725  10.564  65.536  1.00  0.00    -0.047 A  
BRANCH  19  21
HETATM   21  C   UNL     1     -11.117  14.352  65.701  1.00  0.00    -0.321 C  
HETATM   22  N   UNL     1     -10.230  15.381  66.019  1.00  0.00    -0.302 N  
HETATM   23  C   UNL     1     -10.596  16.763  65.660  1.00  0.00    -0.246 C  
HETATM   24  O   UNL     1     -12.210  14.580  65.176  1.00  0.00    -0.386 OA 
HETATM   25  C   UNL     1     -10.514  17.695  66.879  1.00  0.00    -0.290 C  
HETATM   26  N   UNL     1      -9.204  17.592  67.537  1.00  0.00    -0.240 N  
HETATM   27  C   UNL     1      -8.817  16.226  67.893  1.00  0.00    -0.183 C  
HETATM   28  C   UNL     1      -8.495  18.749  67.822  1.00  0.00    -0.275 C  
HETATM   29  C   UNL     1      -8.932  15.272  66.697  1.00  0.00    -0.291 C  
HETATM   30  O   UNL     1      -8.897  19.865  67.507  1.00  0.00    -0.318 OA 
BRANCH  28  31
HETATM   31  C   UNL     1      -7.167  18.624  68.501  1.00  0.00    -0.314 C  
HETATM   32  C   UNL     1      -6.012  19.470  68.012  1.00  0.00    -0.231 C  
HETATM   33  C   UNL     1      -6.629  19.755  69.349  1.00  0.00    -0.390 C  
ENDBRANCH  28  31
ENDBRANCH  19  21
ENDBRANCH  13  14
ENDBRANCH   6  13
TORSDOF 4
ENDMDL
MODEL       35
REMARK 921   NORMALIZED FREE ENERGY PREDICTED BY IDOCK:   -7.44 KCAL/MOL
REMARK 922        TOTAL FREE ENERGY PREDICTED BY IDOCK:   -9.92 KCAL/MOL
REMARK 923 INTER-LIGAND FREE ENERGY PREDICTED BY IDOCK:   -9.22 KCAL/MOL
REMARK 924 INTRA-LIGAND FREE ENERGY PREDICTED BY IDOCK:   -0.70 KCAL/MOL
REMARK 927      BINDING AFFINITY PREDICTED BY RF-SCORE:    0.00 PKD
ROOT
HETATM    1  O   UNL     1     -11.218  12.705  65.176  1.00  0.00    -0.288 OA 
HETATM    2  C   UNL     1     -11.436  12.680  66.520  1.00  0.00    -0.353 A  
HETATM    3  H   UNL     1     -10.992  13.562  64.836  1.00  0.00     0.000 HD 
HETATM    4  N   UNL     1     -11.758  11.468  67.001  1.00  0.00    -0.550 NA 
HETATM    5  N   UNL     1     -12.006  11.332  68.327  1.00  0.00    -0.621 NA 
HETATM    6  C   UNL     1     -11.924  12.407  69.152  1.00  0.00    -0.240 A  
HETATM    7  C   UNL     1     -11.568  13.693  68.677  1.00  0.00    -0.364 A  
HETATM    8  C   UNL     1     -10.870  16.213  67.572  1.00  0.00    -0.284 A  
HETATM    9  C   UNL     1     -11.436  14.853  69.482  1.00  0.00    -0.325 A  
HETATM   10  C   UNL     1     -11.325  13.831  67.294  1.00  0.00    -0.343 A  
HETATM   11  C   UNL     1     -11.087  16.093  68.937  1.00  0.00    -0.347 A  
HETATM   12  C   UNL     1     -10.988  15.091  66.755  1.00  0.00    -0.323 A  
ENDROOT
BRANCH   6  13
HETATM   13  C   UNL     1     -12.249  12.189  70.615  1.00  0.00    -0.392 C  
BRANCH  13  14
HETATM   14  C   UNL     1     -12.316  10.759  71.115  1.00  0.00    -0.498 A  
HETATM   15  C   UNL     1     -12.522   8.043  71.763  1.00  0.00    -0.324 A  
HETATM   16  C   UNL     1     -13.515  10.243  71.626  1.00  0.00    -0.360 A  
HETATM   17  C   UNL     1     -11.196   9.911  71.031  1.00  0.00    -0.435 A  
HETATM   18  F   UNL     1     -12.711   6.730  71.958  1.00  0.00    -0.364 F  
HETATM   19  C   UNL     1     -11.283   8.549  71.382  1.00  0.00    -0.327 A  
HETATM   20  C   UNL     1     -13.618   8.887  71.937  1.00  0.00    -0.474 A  
BRANCH  19  21
HETATM   21  C   UNL     1     -10.065   7.716  71.209  1.00  0.00    -0.186 C  
HETATM   22  N   UNL     1      -9.729   7.127  69.989  1.00  0.00    -0.171 N  
HETATM   23  C   UNL     1      -8.512   6.298  69.919  1.00  0.00    -0.130 C  
HETATM   24  O   UNL     1      -9.398   7.517  72.228  1.00  0.00    -0.139 OA 
HETATM   25  C   UNL     1      -8.818   4.907  69.343  1.00  0.00    -0.091 C  
HETATM   26  N   UNL     1      -9.527   5.011  68.059  1.00  0.00    -0.125 N  
HETATM   27  C   UNL     1     -10.734   5.837  68.106  1.00  0.00    -0.209 C  
HETATM   28  C   UNL     1      -9.062   4.294  66.967  1.00  0.00    -0.136 C  
HETATM   29  C   UNL     1     -10.456   7.217  68.717  1.00  0.00    -0.200 C  
HETATM   30  O   UNL     1      -8.048   3.604  67.013  1.00  0.00    -0.090 OA 
BRANCH  28  31
HETATM   31  C   UNL     1      -9.803   4.406  65.672  1.00  0.00    -0.229 C  
HETATM   32  C   UNL     1      -9.016   4.532  64.386  1.00  0.00    -0.152 C  
HETATM   33  C   UNL     1      -9.775   3.271  64.671  1.00  0.00    -0.149 C  
ENDBRANCH  28  31
ENDBRANCH  19  21
ENDBRANCH  13  14
ENDBRANCH   6  13
TORSDOF 4
ENDMDL
MODEL       36
REMARK 921   NORMALIZED FREE ENERGY PREDICTED BY IDOCK:   -7.42 KCAL/MOL
REMARK 922        TOTAL FREE ENERGY PREDICTED BY IDOCK:   -9.90 KCAL/MOL
REMARK 923 INTER-LIGAND FREE ENERGY PREDICTED BY IDOCK:   -9.25 KCAL/MOL
REMARK 924 INTRA-LIGAND FREE ENERGY PREDICTED BY IDOCK:   -0.65 KCAL/MOL
REMARK 927      BINDING AFFINITY PREDICTED BY RF-SCORE:    0.00 PKD
ROOT
HETATM    1  O   UNL     1     -12.583   5.689  72.675  1.00  0.00    -0.445 OA 
HETATM    2  C   UNL     1     -11.714   6.443  71.946  1.00  0.00    -0.328 A  
HETATM    3  H   UNL     1     -12.324   5.568  73.581  1.00  0.00     0.000 HD 
HETATM    4  N   UNL     1     -12.080   6.613  70.664  1.00  0.00    -0.364 NA 
HETATM    5  N   UNL     1     -11.280   7.340  69.844  1.00  0.00    -0.214 NA 
HETATM    6  C   UNL     1     -10.132   7.890  70.318  1.00  0.00    -0.196 A  
HETATM    7  C   UNL     1      -9.732   7.743  71.669  1.00  0.00    -0.200 A  
HETATM    8  C   UNL     1      -9.048   7.339  74.395  1.00  0.00    -0.204 A  
HETATM    9  C   UNL     1      -8.564   8.310  72.240  1.00  0.00    -0.257 A  
HETATM   10  C   UNL     1     -10.560   6.974  72.514  1.00  0.00    -0.255 A  
HETATM   11  C   UNL     1      -8.231   8.114  73.584  1.00  0.00    -0.292 A  
HETATM   12  C   UNL     1     -10.205   6.773  73.864  1.00  0.00    -0.396 A  
ENDROOT
BRANCH   6  13
HETATM   13  C   UNL     1      -9.272   8.658  69.338  1.00  0.00    -0.150 C  
BRANCH  13  14
HETATM   14  C   UNL     1      -9.932   9.764  68.538  1.00  0.00    -0.177 A  
HETATM   15  C   UNL     1     -11.409  11.671  67.117  1.00  0.00    -0.306 A  
HETATM   16  C   UNL     1     -10.136   9.615  67.160  1.00  0.00    -0.276 A  
HETATM   17  C   UNL     1     -10.393  10.934  69.169  1.00  0.00    -0.228 A  
HETATM   18  F   UNL     1     -12.220  12.481  66.422  1.00  0.00    -0.457 F  
HETATM   19  C   UNL     1     -11.113  11.913  68.455  1.00  0.00    -0.290 A  
HETATM   20  C   UNL     1     -10.883  10.561  66.457  1.00  0.00    -0.128 A  
BRANCH  19  21
HETATM   21  C   UNL     1     -11.610  13.090  69.214  1.00  0.00    -0.310 C  
HETATM   22  N   UNL     1     -11.384  14.401  68.792  1.00  0.00    -0.257 N  
HETATM   23  C   UNL     1     -11.896  15.506  69.622  1.00  0.00    -0.366 C  
HETATM   24  O   UNL     1     -12.181  12.844  70.280  1.00  0.00    -0.339 OA 
HETATM   25  C   UNL     1     -10.782  16.507  69.966  1.00  0.00    -0.221 C  
HETATM   26  N   UNL     1     -10.088  16.962  68.754  1.00  0.00    -0.277 N  
HETATM   27  C   UNL     1      -9.578  15.880  67.911  1.00  0.00    -0.215 C  
HETATM   28  C   UNL     1      -9.911  18.322  68.544  1.00  0.00    -0.393 C  
HETATM   29  C   UNL     1     -10.668  14.848  67.591  1.00  0.00    -0.270 C  
HETATM   30  O   UNL     1     -10.353  19.172  69.310  1.00  0.00    -0.155 OA 
BRANCH  28  31
HETATM   31  C   UNL     1      -9.193  18.766  67.308  1.00  0.00    -0.304 C  
HETATM   32  C   UNL     1      -9.992  19.363  66.171  1.00  0.00    -0.501 C  
HETATM   33  C   UNL     1      -9.076  20.237  66.974  1.00  0.00    -0.481 C  
ENDBRANCH  28  31
ENDBRANCH  19  21
ENDBRANCH  13  14
ENDBRANCH   6  13
TORSDOF 4
ENDMDL
MODEL       37
REMARK 921   NORMALIZED FREE ENERGY PREDICTED BY IDOCK:   -7.41 KCAL/MOL
REMARK 922        TOTAL FREE ENERGY PREDICTED BY IDOCK:   -9.89 KCAL/MOL
REMARK 923 INTER-LIGAND FREE ENERGY PREDICTED BY IDOCK:   -9.36 KCAL/MOL
REMARK 924 INTRA-LIGAND FREE ENERGY PREDICTED BY IDOCK:   -0.54 KCAL/MOL
REMARK 927      BINDING AFFINITY PREDICTED BY RF-SCORE:    0.00 PKD
ROOT
HETATM    1  O   UNL     1     -12.702  15.215  63.821  1.00  0.00    -0.877 OA 
HETATM    2  C   UNL     1     -12.020  14.277  64.535  1.00  0.00    -0.462 A  
HETATM    3  H   UNL     1     -12.352  16.095  63.904  1.00  0.00     0.000 HD 
HETATM    4  N   UNL     1     -12.515  13.034  64.418  1.00  0.00    -0.602 NA 
HETATM    5  N   UNL     1     -11.918  12.022  65.096  1.00  0.00    -0.334 NA 
HETATM    6  C   UNL     1     -10.834  12.268  65.876  1.00  0.00    -0.271 A  
HETATM    7  C   UNL     1     -10.278  13.565  66.003  1.00  0.00    -0.308 A  
HETATM    8  C   UNL     1      -9.297  16.223  66.179  1.00  0.00    -0.374 A  
HETATM    9  C   UNL     1      -9.134  13.891  66.775  1.00  0.00    -0.238 A  
HETATM   10  C   UNL     1     -10.913  14.615  65.306  1.00  0.00    -0.374 A  
HETATM   11  C   UNL     1      -8.649  15.200  66.857  1.00  0.00    -0.289 A  
HETATM   12  C   UNL     1     -10.421  15.934  65.409  1.00  0.00    -0.429 A  
ENDROOT
BRANCH   6  13
HETATM   13  C   UNL     1     -10.241  11.099  66.632  1.00  0.00    -0.274 C  
BRANCH  13  14
HETATM   14  C   UNL     1     -10.660  10.909  68.077  1.00  0.00    -0.239 A  
HETATM   15  C   UNL     1     -11.608  10.340  70.649  1.00  0.00    -0.347 A  
HETATM   16  C   UNL     1     -11.773  11.591  68.587  1.00  0.00    -0.389 A  
HETATM   17  C   UNL     1      -9.973  10.013  68.916  1.00  0.00    -0.198 A  
HETATM   18  F   UNL     1     -12.180  10.006  71.815  1.00  0.00    -0.430 F  
HETATM   19  C   UNL     1     -10.426   9.741  70.222  1.00  0.00    -0.345 A  
HETATM   20  C   UNL     1     -12.250  11.297  69.864  1.00  0.00    -0.358 A  
BRANCH  19  21
HETATM   21  C   UNL     1      -9.671   8.739  71.018  1.00  0.00    -0.230 C  
HETATM   22  N   UNL     1      -9.357   7.473  70.522  1.00  0.00    -0.161 N  
HETATM   23  C   UNL     1      -8.623   6.537  71.392  1.00  0.00    -0.126 C  
HETATM   24  O   UNL     1      -9.392   9.067  72.175  1.00  0.00    -0.356 OA 
HETATM   25  C   UNL     1      -9.355   5.191  71.504  1.00  0.00    -0.148 C  
HETATM   26  N   UNL     1      -9.652   4.638  70.175  1.00  0.00    -0.176 N  
HETATM   27  C   UNL     1     -10.373   5.555  69.291  1.00  0.00    -0.265 C  
HETATM   28  C   UNL     1      -9.307   3.325  69.894  1.00  0.00    -0.164 C  
HETATM   29  C   UNL     1      -9.678   6.921  69.200  1.00  0.00    -0.155 C  
HETATM   30  O   UNL     1      -8.718   2.609  70.698  1.00  0.00    -0.060 OA 
BRANCH  28  31
HETATM   31  C   UNL     1      -9.627   2.778  68.538  1.00  0.00    -0.094 C  
HETATM   32  C   UNL     1      -8.544   2.760  67.481  1.00  0.00    -0.120 C  
HETATM   33  C   UNL     1      -9.022   1.470  68.075  1.00  0.00    -0.164 C  
ENDBRANCH  28  31
ENDBRANCH  19  21
ENDBRANCH  13  14
ENDBRANCH   6  13
TORSDOF 4
ENDMDL
MODEL       38
REMARK 921   NORMALIZED FREE ENERGY PREDICTED BY IDOCK:   -7.41 KCAL/MOL
REMARK 922        TOTAL FREE ENERGY PREDICTED BY IDOCK:   -9.89 KCAL/MOL
REMARK 923 INTER-LIGAND FREE ENERGY PREDICTED BY IDOCK:   -9.20 KCAL/MOL
REMARK 924 INTRA-LIGAND FREE ENERGY PREDICTED BY IDOCK:   -0.69 KCAL/MOL
REMARK 927      BINDING AFFINITY PREDICTED BY RF-SCORE:    0.00 PKD
ROOT
HETATM    1  O   UNL     1     -10.799   4.382  74.557  1.00  0.00    -0.291 OA 
HETATM    2  C   UNL     1     -10.324   5.340  73.714  1.00  0.00    -0.245 A  
HETATM    3  H   UNL     1     -10.826   3.511  74.178  1.00  0.00     0.000 HD 
HETATM    4  N   UNL     1     -10.286   6.571  74.249  1.00  0.00    -0.343 NA 
HETATM    5  N   UNL     1      -9.839   7.603  73.492  1.00  0.00    -0.311 NA 
HETATM    6  C   UNL     1      -9.431   7.388  72.214  1.00  0.00    -0.146 A  
HETATM    7  C   UNL     1      -9.441   6.098  71.630  1.00  0.00    -0.160 A  
HETATM    8  C   UNL     1      -9.546   3.459  70.589  1.00  0.00    -0.238 A  
HETATM    9  C   UNL     1      -9.006   5.794  70.315  1.00  0.00    -0.149 A  
HETATM   10  C   UNL     1      -9.921   5.031  72.418  1.00  0.00    -0.226 A  
HETATM   11  C   UNL     1      -9.053   4.493  69.805  1.00  0.00    -0.166 A  
HETATM   12  C   UNL     1      -9.977   3.725  71.886  1.00  0.00    -0.230 A  
ENDROOT
BRANCH   6  13
HETATM   13  C   UNL     1      -8.978   8.592  71.416  1.00  0.00    -0.286 C  
BRANCH  13  14
HETATM   14  C   UNL     1     -10.048   9.458  70.779  1.00  0.00    -0.366 A  
HETATM   15  C   UNL     1     -11.900  11.286  69.747  1.00  0.00    -0.364 A  
HETATM   16  C   UNL     1     -11.265   9.680  71.439  1.00  0.00    -0.426 A  
HETATM   17  C   UNL     1      -9.822  10.092  69.544  1.00  0.00    -0.255 A  
HETATM   18  F   UNL     1     -12.755  12.247  69.368  1.00  0.00     0.018 F  
HETATM   19  C   UNL     1     -10.762  10.992  69.002  1.00  0.00    -0.258 A  
HETATM   20  C   UNL     1     -12.180  10.600  70.928  1.00  0.00    -0.497 A  
BRANCH  19  21
HETATM   21  C   UNL     1     -10.416  11.658  67.720  1.00  0.00    -0.187 C  
HETATM   22  N   UNL     1     -10.159  13.028  67.634  1.00  0.00    -0.214 N  
HETATM   23  C   UNL     1      -9.846  13.604  66.314  1.00  0.00    -0.301 C  
HETATM   24  O   UNL     1     -10.433  10.940  66.717  1.00  0.00    -0.231 OA 
HETATM   25  C   UNL     1     -10.765  14.793  65.993  1.00  0.00    -0.312 C  
HETATM   26  N   UNL     1     -10.749  15.782  67.079  1.00  0.00    -0.317 N  
HETATM   27  C   UNL     1     -11.050  15.228  68.400  1.00  0.00    -0.287 C  
HETATM   28  C   UNL     1     -10.531  17.118  66.777  1.00  0.00    -0.263 C  
HETATM   29  C   UNL     1     -10.168  14.014  68.722  1.00  0.00    -0.197 C  
HETATM   30  O   UNL     1     -10.305  17.509  65.636  1.00  0.00    -0.601 OA 
BRANCH  28  31
HETATM   31  C   UNL     1     -10.528  18.112  67.896  1.00  0.00    -0.408 C  
HETATM   32  C   UNL     1      -9.224  18.776  68.282  1.00  0.00    -0.366 C  
HETATM   33  C   UNL     1     -10.300  19.581  67.617  1.00  0.00    -0.574 C  
ENDBRANCH  28  31
ENDBRANCH  19  21
ENDBRANCH  13  14
ENDBRANCH   6  13
TORSDOF 4
ENDMDL
MODEL       39
REMARK 921   NORMALIZED FREE ENERGY PREDICTED BY IDOCK:   -7.40 KCAL/MOL
REMARK 922        TOTAL FREE ENERGY PREDICTED BY IDOCK:   -9.87 KCAL/MOL
REMARK 923 INTER-LIGAND FREE ENERGY PREDICTED BY IDOCK:   -8.92 KCAL/MOL
REMARK 924 INTRA-LIGAND FREE ENERGY PREDICTED BY IDOCK:   -0.96 KCAL/MOL
REMARK 927      BINDING AFFINITY PREDICTED BY RF-SCORE:    0.00 PKD
ROOT
HETATM    1  O   UNL     1     -11.158   5.528  66.852  1.00  0.00    -0.455 OA 
HETATM    2  C   UNL     1     -10.783   6.654  67.520  1.00  0.00    -0.317 A  
HETATM    3  H   UNL     1     -11.261   4.765  67.408  1.00  0.00     0.000 HD 
HETATM    4  N   UNL     1     -10.637   7.734  66.733  1.00  0.00    -0.285 NA 
HETATM    5  N   UNL     1     -10.255   8.908  67.294  1.00  0.00    -0.237 NA 
HETATM    6  C   UNL     1     -10.031   8.987  68.631  1.00  0.00    -0.172 A  
HETATM    7  C   UNL     1     -10.197   7.871  69.487  1.00  0.00    -0.208 A  
HETATM    8  C   UNL     1     -10.542   5.540  71.070  1.00  0.00    -0.300 A  
HETATM    9  C   UNL     1     -10.008   7.886  70.893  1.00  0.00    -0.196 A  
HETATM   10  C   UNL     1     -10.580   6.649  68.896  1.00  0.00    -0.264 A  
HETATM   11  C   UNL     1     -10.183   6.738  71.672  1.00  0.00    -0.208 A  
HETATM   12  C   UNL     1     -10.740   5.495  69.692  1.00  0.00    -0.349 A  
ENDROOT
BRANCH   6  13
HETATM   13  C   UNL     1      -9.573  10.321  69.182  1.00  0.00    -0.229 C  
BRANCH  13  14
HETATM   14  C   UNL     1     -10.556  11.475  69.142  1.00  0.00    -0.174 A  
HETATM   15  C   UNL     1     -12.163  13.767  69.205  1.00  0.00    -0.264 A  
HETATM   16  C   UNL     1     -11.446  11.685  70.204  1.00  0.00    -0.206 A  
HETATM   17  C   UNL     1     -10.560  12.381  68.066  1.00  0.00    -0.238 A  
HETATM   18  F   UNL     1     -12.849  14.909  69.349  1.00  0.00    -0.107 F  
HETATM   19  C   UNL     1     -11.387  13.523  68.076  1.00  0.00    -0.318 A  
HETATM   20  C   UNL     1     -12.236  12.833  70.239  1.00  0.00    -0.351 A  
BRANCH  19  21
HETATM   21  C   UNL     1     -11.286  14.455  66.923  1.00  0.00    -0.334 C  
HETATM   22  N   UNL     1     -10.387  15.523  66.901  1.00  0.00    -0.284 N  
HETATM   23  C   UNL     1     -10.374  16.408  65.723  1.00  0.00    -0.369 C  
HETATM   24  O   UNL     1     -12.092  14.270  66.007  1.00  0.00    -0.405 OA 
HETATM   25  C   UNL     1     -10.535  17.880  66.131  1.00  0.00    -0.321 C  
HETATM   26  N   UNL     1      -9.548  18.257  67.153  1.00  0.00    -0.274 N  
HETATM   27  C   UNL     1      -9.539  17.385  68.329  1.00  0.00    -0.292 C  
HETATM   28  C   UNL     1      -8.783  19.399  66.970  1.00  0.00    -0.293 C  
HETATM   29  C   UNL     1      -9.420  15.905  67.938  1.00  0.00    -0.213 C  
HETATM   30  O   UNL     1      -8.863  20.093  65.961  1.00  0.00    -0.295 OA 
BRANCH  28  31
HETATM   31  C   UNL     1      -7.791  19.771  68.027  1.00  0.00    -0.342 C  
HETATM   32  C   UNL     1      -6.347  19.354  67.855  1.00  0.00    -0.237 C  
HETATM   33  C   UNL     1      -6.720  20.802  67.746  1.00  0.00    -0.381 C  
ENDBRANCH  28  31
ENDBRANCH  19  21
ENDBRANCH  13  14
ENDBRANCH   6  13
TORSDOF 4
ENDMDL
MODEL       40
REMARK 921   NORMALIZED FREE ENERGY PREDICTED BY IDOCK:   -7.39 KCAL/MOL
REMARK 922        TOTAL FREE ENERGY PREDICTED BY IDOCK:   -9.87 KCAL/MOL
REMARK 923 INTER-LIGAND FREE ENERGY PREDICTED BY IDOCK:   -9.01 KCAL/MOL
REMARK 924 INTRA-LIGAND FREE ENERGY PREDICTED BY IDOCK:   -0.86 KCAL/MOL
REMARK 927      BINDING AFFINITY PREDICTED BY RF-SCORE:    0.00 PKD
ROOT
HETATM    1  O   UNL     1      -9.869   3.401  70.116  1.00  0.00    -0.122 OA 
HETATM    2  C   UNL     1      -9.669   4.732  70.322  1.00  0.00    -0.225 A  
HETATM    3  H   UNL     1     -10.179   2.933  70.883  1.00  0.00     0.000 HD 
HETATM    4  N   UNL     1      -9.230   5.394  69.237  1.00  0.00    -0.114 NA 
HETATM    5  N   UNL     1      -8.987   6.724  69.334  1.00  0.00    -0.138 NA 
HETATM    6  C   UNL     1      -9.191   7.374  70.509  1.00  0.00    -0.157 A  
HETATM    7  C   UNL     1      -9.671   6.707  71.662  1.00  0.00    -0.170 A  
HETATM    8  C   UNL     1     -10.610   5.227  73.896  1.00  0.00    -0.335 A  
HETATM    9  C   UNL     1      -9.933   7.324  72.912  1.00  0.00    -0.257 A  
HETATM   10  C   UNL     1      -9.908   5.320  71.560  1.00  0.00    -0.228 A  
HETATM   11  C   UNL     1     -10.400   6.595  74.010  1.00  0.00    -0.377 A  
HETATM   12  C   UNL     1     -10.366   4.594  72.680  1.00  0.00    -0.253 A  
ENDROOT
BRANCH   6  13
HETATM   13  C   UNL     1      -8.865   8.852  70.553  1.00  0.00    -0.221 C  
BRANCH  13  14
HETATM   14  C   UNL     1      -9.931   9.823  70.083  1.00  0.00    -0.315 A  
HETATM   15  C   UNL     1     -11.746  11.827  69.358  1.00  0.00    -0.341 A  
HETATM   16  C   UNL     1     -11.054  10.080  70.880  1.00  0.00    -0.385 A  
HETATM   17  C   UNL     1      -9.789  10.518  68.868  1.00  0.00    -0.209 A  
HETATM   18  F   UNL     1     -12.565  12.863  69.127  1.00  0.00    -0.107 F  
HETATM   19  C   UNL     1     -10.713  11.509  68.481  1.00  0.00    -0.242 A  
HETATM   20  C   UNL     1     -11.951  11.087  70.522  1.00  0.00    -0.474 A  
BRANCH  19  21
HETATM   21  C   UNL     1     -10.454  12.230  67.208  1.00  0.00    -0.218 C  
HETATM   22  N   UNL     1     -10.100  13.580  67.173  1.00  0.00    -0.242 N  
HETATM   23  C   UNL     1      -9.885  14.217  65.862  1.00  0.00    -0.298 C  
HETATM   24  O   UNL     1     -10.636  11.583  66.174  1.00  0.00    -0.250 OA 
HETATM   25  C   UNL     1     -10.735  15.488  65.714  1.00  0.00    -0.353 C  
HETATM   26  N   UNL     1     -10.524  16.401  66.847  1.00  0.00    -0.303 N  
HETATM   27  C   UNL     1     -10.725  15.785  68.159  1.00  0.00    -0.285 C  
HETATM   28  C   UNL     1     -10.234  17.734  66.599  1.00  0.00    -0.361 C  
HETATM   29  C   UNL     1      -9.914  14.490  68.310  1.00  0.00    -0.229 C  
HETATM   30  O   UNL     1     -10.101  18.182  65.464  1.00  0.00    -0.488 OA 
BRANCH  28  31
HETATM   31  C   UNL     1     -10.032  18.649  67.766  1.00  0.00    -0.381 C  
HETATM   32  C   UNL     1      -8.669  19.269  67.983  1.00  0.00    -0.357 C  
HETATM   33  C   UNL     1      -9.816  20.131  67.551  1.00  0.00    -0.574 C  
ENDBRANCH  28  31
ENDBRANCH  19  21
ENDBRANCH  13  14
ENDBRANCH   6  13
TORSDOF 4
ENDMDL
MODEL       41
REMARK 921   NORMALIZED FREE ENERGY PREDICTED BY IDOCK:   -7.38 KCAL/MOL
REMARK 922        TOTAL FREE ENERGY PREDICTED BY IDOCK:   -9.85 KCAL/MOL
REMARK 923 INTER-LIGAND FREE ENERGY PREDICTED BY IDOCK:   -9.46 KCAL/MOL
REMARK 924 INTRA-LIGAND FREE ENERGY PREDICTED BY IDOCK:   -0.40 KCAL/MOL
REMARK 927      BINDING AFFINITY PREDICTED BY RF-SCORE:    0.00 PKD
ROOT
HETATM    1  O   UNL     1     -11.483  14.752  68.335  1.00  0.00    -0.285 OA 
HETATM    2  C   UNL     1     -11.917  13.845  69.253  1.00  0.00    -0.357 A  
HETATM    3  H   UNL     1     -11.540  15.655  68.625  1.00  0.00     0.000 HD 
HETATM    4  N   UNL     1     -11.837  12.568  68.842  1.00  0.00    -0.311 NA 
HETATM    5  N   UNL     1     -12.254  11.583  69.675  1.00  0.00    -0.265 NA 
HETATM    6  C   UNL     1     -12.737  11.887  70.907  1.00  0.00    -0.209 A  
HETATM    7  C   UNL     1     -12.815  13.222  71.375  1.00  0.00    -0.411 A  
HETATM    8  C   UNL     1     -12.935  15.947  72.160  1.00  0.00    -0.465 A  
HETATM    9  C   UNL     1     -13.282  13.612  72.656  1.00  0.00    -0.533 A  
HETATM   10  C   UNL     1     -12.394  14.244  70.498  1.00  0.00    -0.430 A  
HETATM   11  C   UNL     1     -13.336  14.954  73.043  1.00  0.00    -0.556 A  
HETATM   12  C   UNL     1     -12.467  15.595  70.896  1.00  0.00    -0.497 A  
ENDROOT
BRANCH   6  13
HETATM   13  C   UNL     1     -13.217  10.739  71.769  1.00  0.00    -0.523 C  
BRANCH  13  14
HETATM   14  C   UNL     1     -12.653   9.361  71.485  1.00  0.00    -0.447 A  
HETATM   15  C   UNL     1     -11.708   6.851  70.681  1.00  0.00    -0.367 A  
HETATM   16  C   UNL     1     -13.455   8.222  71.636  1.00  0.00    -0.358 A  
HETATM   17  C   UNL     1     -11.335   9.203  71.019  1.00  0.00    -0.377 A  
HETATM   18  F   UNL     1     -11.354   5.656  70.187  1.00  0.00    -0.382 F  
HETATM   19  C   UNL     1     -10.840   7.939  70.638  1.00  0.00    -0.238 A  
HETATM   20  C   UNL     1     -12.986   6.975  71.223  1.00  0.00    -0.357 A  
BRANCH  19  21
HETATM   21  C   UNL     1      -9.455   7.874  70.105  1.00  0.00    -0.160 C  
HETATM   22  N   UNL     1      -9.099   8.437  68.879  1.00  0.00    -0.146 N  
HETATM   23  C   UNL     1      -7.704   8.304  68.422  1.00  0.00    -0.105 C  
HETATM   24  O   UNL     1      -8.646   7.233  70.781  1.00  0.00    -0.141 OA 
HETATM   25  C   UNL     1      -7.636   7.704  67.009  1.00  0.00    -0.103 C  
HETATM   26  N   UNL     1      -8.487   8.455  66.074  1.00  0.00    -0.124 N  
HETATM   27  C   UNL     1      -9.874   8.606  66.514  1.00  0.00    -0.278 C  
HETATM   28  C   UNL     1      -7.955   8.883  64.867  1.00  0.00    -0.129 C  
HETATM   29  C   UNL     1      -9.961   9.166  67.940  1.00  0.00    -0.186 C  
HETATM   30  O   UNL     1      -6.781   8.700  64.560  1.00  0.00    -0.066 OA 
BRANCH  28  31
HETATM   31  C   UNL     1      -8.839   9.638  63.925  1.00  0.00    -0.255 C  
HETATM   32  C   UNL     1      -8.207  10.575  62.919  1.00  0.00    -0.152 C  
HETATM   33  C   UNL     1      -8.850   9.305  62.449  1.00  0.00    -0.242 C  
ENDBRANCH  28  31
ENDBRANCH  19  21
ENDBRANCH  13  14
ENDBRANCH   6  13
TORSDOF 4
ENDMDL
MODEL       42
REMARK 921   NORMALIZED FREE ENERGY PREDICTED BY IDOCK:   -7.36 KCAL/MOL
REMARK 922        TOTAL FREE ENERGY PREDICTED BY IDOCK:   -9.83 KCAL/MOL
REMARK 923 INTER-LIGAND FREE ENERGY PREDICTED BY IDOCK:   -8.81 KCAL/MOL
REMARK 924 INTRA-LIGAND FREE ENERGY PREDICTED BY IDOCK:   -1.02 KCAL/MOL
REMARK 927      BINDING AFFINITY PREDICTED BY RF-SCORE:    0.00 PKD
ROOT
HETATM    1  O   UNL     1     -11.622  16.515  63.828  1.00  0.00    -1.617 OA 
HETATM    2  C   UNL     1     -11.487  15.391  64.586  1.00  0.00    -0.337 A  
HETATM    3  H   UNL     1     -10.952  17.170  63.985  1.00  0.00     0.000 HD 
HETATM    4  N   UNL     1     -12.435  14.465  64.365  1.00  0.00    -0.679 NA 
HETATM    5  N   UNL     1     -12.402  13.309  65.074  1.00  0.00    -0.429 NA 
HETATM    6  C   UNL     1     -11.420  13.095  65.988  1.00  0.00    -0.335 A  
HETATM    7  C   UNL     1     -10.397  14.045  66.227  1.00  0.00    -0.294 A  
HETATM    8  C   UNL     1      -8.431  16.055  66.617  1.00  0.00    -0.323 A  
HETATM    9  C   UNL     1      -9.327  13.878  67.143  1.00  0.00    -0.244 A  
HETATM   10  C   UNL     1     -10.445  15.251  65.497  1.00  0.00    -0.396 A  
HETATM   11  C   UNL     1      -8.356  14.867  67.331  1.00  0.00    -0.213 A  
HETATM   12  C   UNL     1      -9.467  16.246  65.706  1.00  0.00    -0.229 A  
ENDROOT
BRANCH   6  13
HETATM   13  C   UNL     1     -11.466  11.799  66.768  1.00  0.00    -0.352 C  
BRANCH  13  14
HETATM   14  C   UNL     1     -10.397  10.763  66.477  1.00  0.00    -0.300 A  
HETATM   15  C   UNL     1      -8.238   9.079  65.896  1.00  0.00    -0.117 A  
HETATM   16  C   UNL     1     -10.178  10.321  65.165  1.00  0.00    -0.295 A  
HETATM   17  C   UNL     1      -9.576  10.265  67.505  1.00  0.00    -0.180 A  
HETATM   18  F   UNL     1      -7.144   8.387  65.548  1.00  0.00    -0.069 F  
HETATM   19  C   UNL     1      -8.504   9.394  67.226  1.00  0.00    -0.125 A  
HETATM   20  C   UNL     1      -9.095   9.492  64.877  1.00  0.00    -0.276 A  
BRANCH  19  21
HETATM   21  C   UNL     1      -7.655   8.962  68.366  1.00  0.00    -0.091 C  
HETATM   22  N   UNL     1      -7.985   7.872  69.173  1.00  0.00    -0.116 N  
HETATM   23  C   UNL     1      -7.093   7.531  70.295  1.00  0.00    -0.060 C  
HETATM   24  O   UNL     1      -6.669   9.665  68.602  1.00  0.00    -0.052 OA 
HETATM   25  C   UNL     1      -7.870   7.443  71.617  1.00  0.00    -0.087 C  
HETATM   26  N   UNL     1      -9.023   6.540  71.494  1.00  0.00    -0.140 N  
HETATM   27  C   UNL     1      -9.917   6.856  70.380  1.00  0.00    -0.179 C  
HETATM   28  C   UNL     1      -9.209   5.544  72.442  1.00  0.00    -0.144 C  
HETATM   29  C   UNL     1      -9.152   6.988  69.056  1.00  0.00    -0.135 C  
HETATM   30  O   UNL     1      -8.422   5.353  73.363  1.00  0.00    -0.116 OA 
BRANCH  28  31
HETATM   31  C   UNL     1     -10.394   4.640  72.304  1.00  0.00    -0.251 C  
HETATM   32  C   UNL     1     -10.437   3.360  73.110  1.00  0.00    -0.256 C  
HETATM   33  C   UNL     1     -11.375   4.481  73.445  1.00  0.00    -0.376 C  
ENDBRANCH  28  31
ENDBRANCH  19  21
ENDBRANCH  13  14
ENDBRANCH   6  13
TORSDOF 4
ENDMDL
MODEL       43
REMARK 921   NORMALIZED FREE ENERGY PREDICTED BY IDOCK:   -7.36 KCAL/MOL
REMARK 922        TOTAL FREE ENERGY PREDICTED BY IDOCK:   -9.83 KCAL/MOL
REMARK 923 INTER-LIGAND FREE ENERGY PREDICTED BY IDOCK:   -8.86 KCAL/MOL
REMARK 924 INTRA-LIGAND FREE ENERGY PREDICTED BY IDOCK:   -0.97 KCAL/MOL
REMARK 927      BINDING AFFINITY PREDICTED BY RF-SCORE:    0.00 PKD
ROOT
HETATM    1  O   UNL     1      -8.084  10.705  65.093  1.00  0.00    -0.253 OA 
HETATM    2  C   UNL     1      -8.933  11.558  65.730  1.00  0.00    -0.115 A  
HETATM    3  H   UNL     1      -8.413  10.378  64.264  1.00  0.00     0.000 HD 
HETATM    4  N   UNL     1      -8.469  12.019  66.903  1.00  0.00    -0.178 NA 
HETATM    5  N   UNL     1      -9.239  12.869  67.627  1.00  0.00    -0.184 NA 
HETATM    6  C   UNL     1     -10.459  13.249  67.164  1.00  0.00    -0.248 A  
HETATM    7  C   UNL     1     -10.966  12.794  65.922  1.00  0.00    -0.303 A  
HETATM    8  C   UNL     1     -11.858  11.777  63.427  1.00  0.00    -0.435 A  
HETATM    9  C   UNL     1     -12.215  13.169  65.364  1.00  0.00    -0.510 A  
HETATM   10  C   UNL     1     -10.166  11.899  65.181  1.00  0.00    -0.314 A  
HETATM   11  C   UNL     1     -12.651  12.671  64.133  1.00  0.00    -0.442 A  
HETATM   12  C   UNL     1     -10.624  11.394  63.946  1.00  0.00    -0.452 A  
ENDROOT
BRANCH   6  13
HETATM   13  C   UNL     1     -11.279  14.170  68.041  1.00  0.00    -0.302 C  
BRANCH  13  14
HETATM   14  C   UNL     1     -11.803  13.614  69.351  1.00  0.00    -0.392 A  
HETATM   15  C   UNL     1     -13.039  12.588  71.644  1.00  0.00    -0.315 A  
HETATM   16  C   UNL     1     -12.256  14.479  70.357  1.00  0.00    -0.394 A  
HETATM   17  C   UNL     1     -11.890  12.226  69.562  1.00  0.00    -0.380 A  
HETATM   18  F   UNL     1     -13.756  12.155  72.691  1.00  0.00    -0.461 F  
HETATM   19  C   UNL     1     -12.484  11.700  70.727  1.00  0.00    -0.425 A  
HETATM   20  C   UNL     1     -12.882  13.965  71.492  1.00  0.00    -0.441 A  
BRANCH  19  21
HETATM   21  C   UNL     1     -12.583  10.222  70.841  1.00  0.00    -0.371 C  
HETATM   22  N   UNL     1     -11.469   9.388  70.736  1.00  0.00    -0.283 N  
HETATM   23  C   UNL     1     -11.666   7.932  70.840  1.00  0.00    -0.257 C  
HETATM   24  O   UNL     1     -13.722   9.765  70.969  1.00  0.00    -0.277 OA 
HETATM   25  C   UNL     1     -11.055   7.199  69.636  1.00  0.00    -0.179 C  
HETATM   26  N   UNL     1      -9.650   7.583  69.441  1.00  0.00    -0.155 N  
HETATM   27  C   UNL     1      -9.430   9.027  69.343  1.00  0.00    -0.159 C  
HETATM   28  C   UNL     1      -8.689   6.593  69.299  1.00  0.00    -0.131 C  
HETATM   29  C   UNL     1     -10.070   9.780  70.518  1.00  0.00    -0.224 C  
HETATM   30  O   UNL     1      -8.956   5.398  69.373  1.00  0.00    -0.103 OA 
BRANCH  28  31
HETATM   31  C   UNL     1      -7.265   7.005  69.091  1.00  0.00    -0.090 C  
HETATM   32  C   UNL     1      -6.239   5.946  68.751  1.00  0.00    -0.032 C  
HETATM   33  C   UNL     1      -6.642   6.950  67.713  1.00  0.00    -0.055 C  
ENDBRANCH  28  31
ENDBRANCH  19  21
ENDBRANCH  13  14
ENDBRANCH   6  13
TORSDOF 4
ENDMDL
MODEL       44
REMARK 921   NORMALIZED FREE ENERGY PREDICTED BY IDOCK:   -7.34 KCAL/MOL
REMARK 922        TOTAL FREE ENERGY PREDICTED BY IDOCK:   -9.80 KCAL/MOL
REMARK 923 INTER-LIGAND FREE ENERGY PREDICTED BY IDOCK:   -9.28 KCAL/MOL
REMARK 924 INTRA-LIGAND FREE ENERGY PREDICTED BY IDOCK:   -0.53 KCAL/MOL
REMARK 927      BINDING AFFINITY PREDICTED BY RF-SCORE:    0.00 PKD
ROOT
HETATM    1  O   UNL     1     -13.027  15.870  63.953  1.00  0.00    -0.395 OA 
HETATM    2  C   UNL     1     -12.184  14.804  64.033  1.00  0.00    -0.155 A  
HETATM    3  H   UNL     1     -12.804  16.585  64.538  1.00  0.00     0.000 HD 
HETATM    4  N   UNL     1     -12.500  13.793  63.206  1.00  0.00    -0.762 NA 
HETATM    5  N   UNL     1     -11.732  12.675  63.212  1.00  0.00    -0.474 NA 
HETATM    6  C   UNL     1     -10.657  12.587  64.038  1.00  0.00    -0.421 A  
HETATM    7  C   UNL     1     -10.289  13.645  64.906  1.00  0.00    -0.408 A  
HETATM    8  C   UNL     1      -9.693  15.836  66.609  1.00  0.00    -0.266 A  
HETATM    9  C   UNL     1      -9.168  13.635  65.774  1.00  0.00     0.284 A  
HETATM   10  C   UNL     1     -11.101  14.799  64.906  1.00  0.00    -0.416 A  
HETATM   11  C   UNL     1      -8.872  14.717  66.609  1.00  0.00    -0.240 A  
HETATM   12  C   UNL     1     -10.799  15.878  65.763  1.00  0.00    -0.260 A  
ENDROOT
BRANCH   6  13
HETATM   13  C   UNL     1      -9.867  11.297  64.017  1.00  0.00    -0.334 C  
BRANCH  13  14
HETATM   14  C   UNL     1      -9.375  10.750  65.343  1.00  0.00    -0.243 A  
HETATM   15  C   UNL     1      -8.465  10.023  67.889  1.00  0.00    -0.118 A  
HETATM   16  C   UNL     1      -8.001  10.639  65.597  1.00  0.00    -0.136 A  
HETATM   17  C   UNL     1     -10.282  10.394  66.358  1.00  0.00    -0.292 A  
HETATM   18  F   UNL     1      -7.980   9.813  69.121  1.00  0.00    -0.083 F  
HETATM   19  C   UNL     1      -9.833   9.999  67.634  1.00  0.00    -0.194 A  
HETATM   20  C   UNL     1      -7.551  10.287  66.870  1.00  0.00    -0.105 A  
BRANCH  19  21
HETATM   21  C   UNL     1     -10.863   9.694  68.661  1.00  0.00    -0.167 C  
HETATM   22  N   UNL     1     -11.715  10.671  69.178  1.00  0.00    -0.275 N  
HETATM   23  C   UNL     1     -12.691  10.278  70.211  1.00  0.00    -0.102 C  
HETATM   24  O   UNL     1     -10.878   8.534  69.083  1.00  0.00    -0.159 OA 
HETATM   25  C   UNL     1     -12.576  11.173  71.455  1.00  0.00    -0.374 C  
HETATM   26  N   UNL     1     -12.652  12.595  71.092  1.00  0.00    -0.331 N  
HETATM   27  C   UNL     1     -11.697  13.004  70.061  1.00  0.00    -0.215 C  
HETATM   28  C   UNL     1     -13.533  13.423  71.771  1.00  0.00    -0.370 C  
HETATM   29  C   UNL     1     -11.769  12.095  68.826  1.00  0.00    -0.321 C  
HETATM   30  O   UNL     1     -14.292  13.008  72.642  1.00  0.00    -0.565 OA 
BRANCH  28  31
HETATM   31  C   UNL     1     -13.589  14.870  71.394  1.00  0.00    -0.515 C  
HETATM   32  C   UNL     1     -14.366  15.827  72.272  1.00  0.00    -0.361 C  
HETATM   33  C   UNL     1     -12.869  15.909  72.225  1.00  0.00    -0.503 C  
ENDBRANCH  28  31
ENDBRANCH  19  21
ENDBRANCH  13  14
ENDBRANCH   6  13
TORSDOF 4
ENDMDL
MODEL       45
REMARK 921   NORMALIZED FREE ENERGY PREDICTED BY IDOCK:   -7.32 KCAL/MOL
REMARK 922        TOTAL FREE ENERGY PREDICTED BY IDOCK:   -9.77 KCAL/MOL
REMARK 923 INTER-LIGAND FREE ENERGY PREDICTED BY IDOCK:   -8.95 KCAL/MOL
REMARK 924 INTRA-LIGAND FREE ENERGY PREDICTED BY IDOCK:   -0.83 KCAL/MOL
REMARK 927      BINDING AFFINITY PREDICTED BY RF-SCORE:    0.00 PKD
ROOT
HETATM    1  O   UNL     1     -12.647  16.365  73.504  1.00  0.00    -0.483 OA 
HETATM    2  C   UNL     1     -12.670  15.279  72.682  1.00  0.00    -0.382 A  
HETATM    3  H   UNL     1     -12.171  17.108  73.150  1.00  0.00     0.000 HD 
HETATM    4  N   UNL     1     -13.342  14.229  73.182  1.00  0.00    -0.600 NA 
HETATM    5  N   UNL     1     -13.420  13.090  72.450  1.00  0.00    -0.565 NA 
HETATM    6  C   UNL     1     -12.830  13.020  71.229  1.00  0.00    -0.281 A  
HETATM    7  C   UNL     1     -12.132  14.118  70.668  1.00  0.00    -0.421 A  
HETATM    8  C   UNL     1     -10.744  16.392  69.690  1.00  0.00    -0.337 A  
HETATM    9  C   UNL     1     -11.516  14.127  69.390  1.00  0.00    -0.337 A  
HETATM   10  C   UNL     1     -12.043  15.295  71.440  1.00  0.00    -0.415 A  
HETATM   11  C   UNL     1     -10.837  15.249  68.907  1.00  0.00    -0.247 A  
HETATM   12  C   UNL     1     -11.342  16.416  70.947  1.00  0.00    -0.215 A  
ENDROOT
BRANCH   6  13
HETATM   13  C   UNL     1     -12.926  11.706  70.483  1.00  0.00     0.084 C  
BRANCH  13  14
HETATM   14  C   UNL     1     -12.482  10.451  71.209  1.00  0.00    -0.521 A  
HETATM   15  C   UNL     1     -11.756   7.982  72.311  1.00  0.00    -0.371 A  
HETATM   16  C   UNL     1     -13.380   9.749  72.025  1.00  0.00    -0.547 A  
HETATM   17  C   UNL     1     -11.182   9.941  71.039  1.00  0.00    -0.435 A  
HETATM   18  F   UNL     1     -11.506   6.739  72.746  1.00  0.00    -0.273 F  
HETATM   19  C   UNL     1     -10.798   8.713  71.614  1.00  0.00    -0.374 A  
HETATM   20  C   UNL     1     -13.020   8.514  72.563  1.00  0.00    -0.300 A  
BRANCH  19  21
HETATM   21  C   UNL     1      -9.422   8.224  71.336  1.00  0.00    -0.175 C  
HETATM   22  N   UNL     1      -9.161   7.207  70.417  1.00  0.00    -0.156 N  
HETATM   23  C   UNL     1      -7.766   6.773  70.224  1.00  0.00    -0.101 C  
HETATM   24  O   UNL     1      -8.524   8.726  72.017  1.00  0.00    -0.322 OA 
HETATM   25  C   UNL     1      -7.626   5.253  70.402  1.00  0.00    -0.075 C  
HETATM   26  N   UNL     1      -8.583   4.531  69.552  1.00  0.00    -0.080 N  
HETATM   27  C   UNL     1      -9.975   4.953  69.722  1.00  0.00    -0.244 C  
HETATM   28  C   UNL     1      -8.129   3.501  68.742  1.00  0.00    -0.061 C  
HETATM   29  C   UNL     1     -10.127   6.474  69.588  1.00  0.00    -0.181 C  
HETATM   30  O   UNL     1      -6.944   3.192  68.668  1.00  0.00    -0.047 OA 
BRANCH  28  31
HETATM   31  C   UNL     1      -9.121   2.772  67.891  1.00  0.00    -0.226 C  
HETATM   32  C   UNL     1      -9.346   3.235  66.468  1.00  0.00    -0.145 C  
HETATM   33  C   UNL     1      -8.657   1.928  66.724  1.00  0.00    -0.115 C  
ENDBRANCH  28  31
ENDBRANCH  19  21
ENDBRANCH  13  14
ENDBRANCH   6  13
TORSDOF 4
ENDMDL
MODEL       46
REMARK 921   NORMALIZED FREE ENERGY PREDICTED BY IDOCK:   -7.32 KCAL/MOL
REMARK 922        TOTAL FREE ENERGY PREDICTED BY IDOCK:   -9.77 KCAL/MOL
REMARK 923 INTER-LIGAND FREE ENERGY PREDICTED BY IDOCK:   -9.11 KCAL/MOL
REMARK 924 INTRA-LIGAND FREE ENERGY PREDICTED BY IDOCK:   -0.67 KCAL/MOL
REMARK 927      BINDING AFFINITY PREDICTED BY RF-SCORE:    0.00 PKD
ROOT
HETATM    1  O   UNL     1     -12.128  16.533  72.899  1.00  0.00    -0.517 OA 
HETATM    2  C   UNL     1     -12.434  15.308  72.388  1.00  0.00    -0.362 A  
HETATM    3  H   UNL     1     -11.666  17.101  72.294  1.00  0.00     0.000 HD 
HETATM    4  N   UNL     1     -13.086  14.505  73.245  1.00  0.00    -0.589 NA 
HETATM    5  N   UNL     1     -13.430  13.256  72.843  1.00  0.00    -0.510 NA 
HETATM    6  C   UNL     1     -13.123  12.832  71.589  1.00  0.00    -0.331 A  
HETATM    7  C   UNL     1     -12.454  13.664  70.658  1.00  0.00    -0.417 A  
HETATM    8  C   UNL     1     -11.084  15.436  68.914  1.00  0.00    -0.275 A  
HETATM    9  C   UNL     1     -12.125  13.300  69.328  1.00  0.00    -0.291 A  
HETATM   10  C   UNL     1     -12.085  14.957  71.088  1.00  0.00    -0.384 A  
HETATM   11  C   UNL     1     -11.455  14.176  68.468  1.00  0.00    -0.333 A  
HETATM   12  C   UNL     1     -11.397  15.825  70.215  1.00  0.00    -0.371 A  
ENDROOT
BRANCH   6  13
HETATM   13  C   UNL     1     -13.507  11.415  71.220  1.00  0.00     0.266 C  
BRANCH  13  14
HETATM   14  C   UNL     1     -12.455  10.335  71.389  1.00  0.00    -0.528 A  
HETATM   15  C   UNL     1     -10.621   8.221  71.450  1.00  0.00    -0.223 A  
HETATM   16  C   UNL     1     -12.754   9.161  72.094  1.00  0.00    -0.467 A  
HETATM   17  C   UNL     1     -11.184  10.468  70.802  1.00  0.00    -0.188 A  
HETATM   18  F   UNL     1      -9.837   7.135  71.394  1.00  0.00    -0.175 F  
HETATM   19  C   UNL     1     -10.243   9.420  70.852  1.00  0.00    -0.373 A  
HETATM   20  C   UNL     1     -11.842   8.105  72.112  1.00  0.00    -0.417 A  
BRANCH  19  21
HETATM   21  C   UNL     1      -8.945   9.627  70.158  1.00  0.00    -0.236 C  
HETATM   22  N   UNL     1      -8.866   9.971  68.808  1.00  0.00    -0.130 N  
HETATM   23  C   UNL     1      -7.534  10.134  68.200  1.00  0.00    -0.083 C  
HETATM   24  O   UNL     1      -7.933   9.412  70.830  1.00  0.00    -0.249 OA 
HETATM   25  C   UNL     1      -7.389   9.271  66.937  1.00  0.00    -0.090 C  
HETATM   26  N   UNL     1      -8.492   9.517  65.998  1.00  0.00    -0.122 N  
HETATM   27  C   UNL     1      -9.825   9.369  66.585  1.00  0.00    -0.245 C  
HETATM   28  C   UNL     1      -8.204   9.790  64.669  1.00  0.00    -0.150 C  
HETATM   29  C   UNL     1      -9.975  10.193  67.871  1.00  0.00    -0.162 C  
HETATM   30  O   UNL     1      -7.055   9.878  64.247  1.00  0.00    -0.122 OA 
BRANCH  28  31
HETATM   31  C   UNL     1      -9.341  10.028  63.726  1.00  0.00    -0.307 C  
HETATM   32  C   UNL     1      -9.904  11.427  63.597  1.00  0.00    -0.380 C  
HETATM   33  C   UNL     1      -9.133  10.828  62.459  1.00  0.00    -0.344 C  
ENDBRANCH  28  31
ENDBRANCH  19  21
ENDBRANCH  13  14
ENDBRANCH   6  13
TORSDOF 4
ENDMDL
MODEL       47
REMARK 921   NORMALIZED FREE ENERGY PREDICTED BY IDOCK:   -7.30 KCAL/MOL
REMARK 922        TOTAL FREE ENERGY PREDICTED BY IDOCK:   -9.75 KCAL/MOL
REMARK 923 INTER-LIGAND FREE ENERGY PREDICTED BY IDOCK:   -8.92 KCAL/MOL
REMARK 924 INTRA-LIGAND FREE ENERGY PREDICTED BY IDOCK:   -0.83 KCAL/MOL
REMARK 927      BINDING AFFINITY PREDICTED BY RF-SCORE:    0.00 PKD
ROOT
HETATM    1  O   UNL     1     -10.904   4.513  66.319  1.00  0.00    -0.462 OA 
HETATM    2  C   UNL     1     -10.307   5.735  66.244  1.00  0.00    -0.074 A  
HETATM    3  H   UNL     1     -10.424   3.820  65.883  1.00  0.00     0.000 HD 
HETATM    4  N   UNL     1     -10.987   6.716  66.861  1.00  0.00    -0.381 NA 
HETATM    5  N   UNL     1     -10.487   7.976  66.839  1.00  0.00    -0.341 NA 
HETATM    6  C   UNL     1      -9.313   8.236  66.206  1.00  0.00    -0.204 A  
HETATM    7  C   UNL     1      -8.565   7.218  65.564  1.00  0.00    -0.090 A  
HETATM    8  C   UNL     1      -7.194   5.079  64.298  1.00  0.00    -0.054 A  
HETATM    9  C   UNL     1      -7.322   7.410  64.909  1.00  0.00    -0.080 A  
HETATM   10  C   UNL     1      -9.098   5.912  65.578  1.00  0.00    -0.006 A  
HETATM   11  C   UNL     1      -6.645   6.354  64.290  1.00  0.00    -0.034 A  
HETATM   12  C   UNL     1      -8.412   4.859  64.938  1.00  0.00    -0.144 A  
ENDROOT
BRANCH   6  13
HETATM   13  C   UNL     1      -8.833   9.671  66.190  1.00  0.00    -0.173 C  
BRANCH  13  14
HETATM   14  C   UNL     1      -9.857  10.753  65.906  1.00  0.00    -0.290 A  
HETATM   15  C   UNL     1     -11.954  12.559  65.478  1.00  0.00    -0.442 A  
HETATM   16  C   UNL     1     -10.489  10.820  64.657  1.00  0.00    -0.346 A  
HETATM   17  C   UNL     1     -10.228  11.675  66.902  1.00  0.00    -0.244 A  
HETATM   18  F   UNL     1     -13.047  13.306  65.267  1.00  0.00    -0.510 F  
HETATM   19  C   UNL     1     -11.263  12.607  66.686  1.00  0.00    -0.346 A  
HETATM   20  C   UNL     1     -11.541  11.712  64.450  1.00  0.00    -0.270 A  
BRANCH  19  21
HETATM   21  C   UNL     1     -11.625  13.506  67.812  1.00  0.00    -0.339 C  
HETATM   22  N   UNL     1     -11.393  14.882  67.775  1.00  0.00    -0.319 N  
HETATM   23  C   UNL     1     -11.765  15.691  68.948  1.00  0.00    -0.384 C  
HETATM   24  O   UNL     1     -12.085  12.956  68.816  1.00  0.00    -0.280 OA 
HETATM   25  C   UNL     1     -10.580  16.536  69.441  1.00  0.00    -0.329 C  
HETATM   26  N   UNL     1     -10.004  17.329  68.346  1.00  0.00    -0.302 N  
HETATM   27  C   UNL     1      -9.635  16.545  67.167  1.00  0.00    -0.240 C  
HETATM   28  C   UNL     1      -9.796  18.688  68.529  1.00  0.00    -0.386 C  
HETATM   29  C   UNL     1     -10.795  15.664  66.684  1.00  0.00    -0.266 C  
HETATM   30  O   UNL     1     -10.116  19.273  69.560  1.00  0.00    -0.214 OA 
BRANCH  28  31
HETATM   31  C   UNL     1      -9.200  19.477  67.405  1.00  0.00    -0.393 C  
HETATM   32  C   UNL     1     -10.113  20.024  66.329  1.00  0.00    -0.603 C  
HETATM   33  C   UNL     1      -9.453  20.964  67.293  1.00  0.00    -0.377 C  
ENDBRANCH  28  31
ENDBRANCH  19  21
ENDBRANCH  13  14
ENDBRANCH   6  13
TORSDOF 4
ENDMDL
MODEL       48
REMARK 921   NORMALIZED FREE ENERGY PREDICTED BY IDOCK:   -7.29 KCAL/MOL
REMARK 922        TOTAL FREE ENERGY PREDICTED BY IDOCK:   -9.75 KCAL/MOL
REMARK 923 INTER-LIGAND FREE ENERGY PREDICTED BY IDOCK:   -8.91 KCAL/MOL
REMARK 924 INTRA-LIGAND FREE ENERGY PREDICTED BY IDOCK:   -0.83 KCAL/MOL
REMARK 927      BINDING AFFINITY PREDICTED BY RF-SCORE:    0.00 PKD
ROOT
HETATM    1  O   UNL     1      -6.176  17.674  66.114  1.00  0.00    -0.209 OA 
HETATM    2  C   UNL     1      -7.193  17.310  66.943  1.00  0.00    -0.200 A  
HETATM    3  H   UNL     1      -6.355  18.453  65.601  1.00  0.00     0.000 HD 
HETATM    4  N   UNL     1      -6.940  16.208  67.669  1.00  0.00    -0.137 NA 
HETATM    5  N   UNL     1      -7.890  15.749  68.521  1.00  0.00    -0.133 NA 
HETATM    6  C   UNL     1      -9.076  16.402  68.639  1.00  0.00    -0.233 A  
HETATM    7  C   UNL     1      -9.363  17.577  67.901  1.00  0.00    -0.265 A  
HETATM    8  C   UNL     1      -9.803  19.903  66.336  1.00  0.00    -0.572 A  
HETATM    9  C   UNL     1     -10.564  18.324  67.993  1.00  0.00    -0.347 A  
HETATM   10  C   UNL     1      -8.376  18.040  67.006  1.00  0.00    -0.248 A  
HETATM   11  C   UNL     1     -10.778  19.473  67.225  1.00  0.00    -0.604 A  
HETATM   12  C   UNL     1      -8.610  19.193  66.227  1.00  0.00    -0.303 A  
ENDROOT
BRANCH   6  13
HETATM   13  C   UNL     1     -10.103  15.813  69.582  1.00  0.00    -0.289 C  
BRANCH  13  14
HETATM   14  C   UNL     1     -10.829  14.558  69.138  1.00  0.00    -0.278 A  
HETATM   15  C   UNL     1     -11.906  12.105  68.326  1.00  0.00    -0.301 A  
HETATM   16  C   UNL     1     -10.959  14.260  67.775  1.00  0.00    -0.275 A  
HETATM   17  C   UNL     1     -11.340  13.648  70.081  1.00  0.00     0.006 A  
HETATM   18  F   UNL     1     -12.286  10.895  67.891  1.00  0.00    -0.162 F  
HETATM   19  C   UNL     1     -11.910  12.423  69.681  1.00  0.00    -0.380 A  
HETATM   20  C   UNL     1     -11.485  13.032  67.373  1.00  0.00    -0.380 A  
BRANCH  19  21
HETATM   21  C   UNL     1     -12.374  11.499  70.748  1.00  0.00    -0.375 C  
HETATM   22  N   UNL     1     -11.744  10.281  71.007  1.00  0.00    -0.369 N  
HETATM   23  C   UNL     1     -12.289   9.419  72.072  1.00  0.00    -0.345 C  
HETATM   24  O   UNL     1     -13.394  11.840  71.352  1.00  0.00    -0.196 OA 
HETATM   25  C   UNL     1     -12.567   8.000  71.552  1.00  0.00    -0.312 C  
HETATM   26  N   UNL     1     -11.379   7.435  70.897  1.00  0.00    -0.270 N  
HETATM   27  C   UNL     1     -10.816   8.280  69.842  1.00  0.00    -0.213 C  
HETATM   28  C   UNL     1     -10.940   6.171  71.259  1.00  0.00    -0.282 C  
HETATM   29  C   UNL     1     -10.571   9.713  70.331  1.00  0.00    -0.295 C  
HETATM   30  O   UNL     1     -11.479   5.513  72.144  1.00  0.00    -0.213 OA 
BRANCH  28  31
HETATM   31  C   UNL     1      -9.734   5.609  70.574  1.00  0.00    -0.233 C  
HETATM   32  C   UNL     1      -9.367   4.160  70.808  1.00  0.00    -0.223 C  
HETATM   33  C   UNL     1      -9.885   4.588  69.468  1.00  0.00    -0.277 C  
ENDBRANCH  28  31
ENDBRANCH  19  21
ENDBRANCH  13  14
ENDBRANCH   6  13
TORSDOF 4
ENDMDL
MODEL       49
REMARK 921   NORMALIZED FREE ENERGY PREDICTED BY IDOCK:   -7.29 KCAL/MOL
REMARK 922        TOTAL FREE ENERGY PREDICTED BY IDOCK:   -9.74 KCAL/MOL
REMARK 923 INTER-LIGAND FREE ENERGY PREDICTED BY IDOCK:   -9.17 KCAL/MOL
REMARK 924 INTRA-LIGAND FREE ENERGY PREDICTED BY IDOCK:   -0.57 KCAL/MOL
REMARK 927      BINDING AFFINITY PREDICTED BY RF-SCORE:    0.00 PKD
ROOT
HETATM    1  O   UNL     1      -9.954   5.248  67.918  1.00  0.00    -0.148 OA 
HETATM    2  C   UNL     1     -10.206   6.204  68.854  1.00  0.00    -0.188 A  
HETATM    3  H   UNL     1      -9.088   5.303  67.532  1.00  0.00     0.000 HD 
HETATM    4  N   UNL     1     -11.431   6.127  69.400  1.00  0.00    -0.357 NA 
HETATM    5  N   UNL     1     -11.791   7.039  70.337  1.00  0.00    -0.284 NA 
HETATM    6  C   UNL     1     -10.921   8.009  70.719  1.00  0.00    -0.248 A  
HETATM    7  C   UNL     1      -9.616   8.103  70.175  1.00  0.00    -0.168 A  
HETATM    8  C   UNL     1      -7.045   8.179  68.974  1.00  0.00    -0.062 A  
HETATM    9  C   UNL     1      -8.646   9.069  70.544  1.00  0.00    -0.229 A  
HETATM   10  C   UNL     1      -9.252   7.160  69.190  1.00  0.00    -0.139 A  
HETATM   11  C   UNL     1      -7.378   9.103  69.955  1.00  0.00    -0.070 A  
HETATM   12  C   UNL     1      -7.975   7.214  68.594  1.00  0.00    -0.123 A  
ENDROOT
BRANCH   6  13
HETATM   13  C   UNL     1     -11.403   9.014  71.743  1.00  0.00    -0.447 C  
BRANCH  13  14
HETATM   14  C   UNL     1     -11.951  10.332  71.232  1.00  0.00    -0.457 A  
HETATM   15  C   UNL     1     -12.725  12.894  70.409  1.00  0.00     0.049 A  
HETATM   16  C   UNL     1     -12.790  11.110  72.041  1.00  0.00    -0.285 A  
HETATM   17  C   UNL     1     -11.591  10.820  69.963  1.00  0.00    -0.417 A  
HETATM   18  F   UNL     1     -13.009  14.172  70.123  1.00  0.00    -0.360 F  
HETATM   19  C   UNL     1     -11.999  12.097  69.528  1.00  0.00    -0.338 A  
HETATM   20  C   UNL     1     -13.164  12.391  71.633  1.00  0.00    -0.367 A  
BRANCH  19  21
HETATM   21  C   UNL     1     -11.526  12.553  68.195  1.00  0.00    -0.319 C  
HETATM   22  N   UNL     1     -10.760  13.707  68.029  1.00  0.00    -0.242 N  
HETATM   23  C   UNL     1     -10.355  14.094  66.666  1.00  0.00    -0.277 C  
HETATM   24  O   UNL     1     -11.908  11.887  67.230  1.00  0.00    -0.576 OA 
HETATM   25  C   UNL     1     -10.755  15.545  66.356  1.00  0.00    -0.303 C  
HETATM   26  N   UNL     1     -10.261  16.462  67.392  1.00  0.00    -0.275 N  
HETATM   27  C   UNL     1     -10.645  16.091  68.755  1.00  0.00    -0.262 C  
HETATM   28  C   UNL     1      -9.560  17.598  67.015  1.00  0.00    -0.276 C  
HETATM   29  C   UNL     1     -10.290  14.632  69.069  1.00  0.00    -0.235 C  
HETATM   30  O   UNL     1      -9.293  17.851  65.844  1.00  0.00    -0.520 OA 
BRANCH  28  31
HETATM   31  C   UNL     1      -9.074  18.525  68.084  1.00  0.00    -0.329 C  
HETATM   32  C   UNL     1      -8.706  19.945  67.712  1.00  0.00    -0.377 C  
HETATM   33  C   UNL     1      -9.928  19.687  68.541  1.00  0.00    -0.542 C  
ENDBRANCH  28  31
ENDBRANCH  19  21
ENDBRANCH  13  14
ENDBRANCH   6  13
TORSDOF 4
ENDMDL
MODEL       50
REMARK 921   NORMALIZED FREE ENERGY PREDICTED BY IDOCK:   -7.26 KCAL/MOL
REMARK 922        TOTAL FREE ENERGY PREDICTED BY IDOCK:   -9.70 KCAL/MOL
REMARK 923 INTER-LIGAND FREE ENERGY PREDICTED BY IDOCK:   -8.57 KCAL/MOL
REMARK 924 INTRA-LIGAND FREE ENERGY PREDICTED BY IDOCK:   -1.13 KCAL/MOL
REMARK 927      BINDING AFFINITY PREDICTED BY RF-SCORE:    0.00 PKD
ROOT
HETATM    1  O   UNL     1      -8.771   8.115  65.142  1.00  0.00    -0.328 OA 
HETATM    2  C   UNL     1      -9.205   8.664  66.310  1.00  0.00    -0.202 A  
HETATM    3  H   UNL     1      -7.868   8.318  64.930  1.00  0.00     0.000 HD 
HETATM    4  N   UNL     1     -10.483   8.378  66.609  1.00  0.00    -0.249 NA 
HETATM    5  N   UNL     1     -11.020   8.883  67.747  1.00  0.00    -0.022 NA 
HETATM    6  C   UNL     1     -10.271   9.660  68.571  1.00  0.00    -0.193 A  
HETATM    7  C   UNL     1      -8.916   9.962  68.292  1.00  0.00    -0.119 A  
HETATM    8  C   UNL     1      -6.221  10.503  67.583  1.00  0.00    -0.056 A  
HETATM    9  C   UNL     1      -8.067  10.743  69.117  1.00  0.00    -0.133 A  
HETATM   10  C   UNL     1      -8.367   9.446  67.099  1.00  0.00    -0.124 A  
HETATM   11  C   UNL     1      -6.738  11.004  68.770  1.00  0.00    -0.065 A  
HETATM   12  C   UNL     1      -7.029   9.729  66.753  1.00  0.00    -0.085 A  
ENDROOT
BRANCH   6  13
HETATM   13  C   UNL     1     -10.947  10.219  69.805  1.00  0.00    -0.338 C  
BRANCH  13  14
HETATM   14  C   UNL     1     -11.538  11.613  69.714  1.00  0.00    -0.389 A  
HETATM   15  C   UNL     1     -12.368  14.286  69.642  1.00  0.00    -0.266 A  
HETATM   16  C   UNL     1     -12.180  12.183  70.821  1.00  0.00    -0.367 A  
HETATM   17  C   UNL     1     -11.411  12.375  68.538  1.00  0.00    -0.350 A  
HETATM   18  F   UNL     1     -12.658  15.593  69.706  1.00  0.00    -0.360 F  
HETATM   19  C   UNL     1     -11.852  13.712  68.483  1.00  0.00    -0.406 A  
HETATM   20  C   UNL     1     -12.582  13.518  70.787  1.00  0.00    -0.382 A  
BRANCH  19  21
HETATM   21  C   UNL     1     -11.627  14.459  67.218  1.00  0.00    -0.379 C  
HETATM   22  N   UNL     1     -10.676  15.474  67.108  1.00  0.00    -0.312 N  
HETATM   23  C   UNL     1     -10.540  16.174  65.819  1.00  0.00    -0.334 C  
HETATM   24  O   UNL     1     -12.380  14.175  66.283  1.00  0.00    -0.456 OA 
HETATM   25  C   UNL     1     -10.651  17.696  65.997  1.00  0.00    -0.220 C  
HETATM   26  N   UNL     1      -9.716  18.178  67.023  1.00  0.00    -0.295 N  
HETATM   27  C   UNL     1      -9.829  17.489  68.309  1.00  0.00    -0.319 C  
HETATM   28  C   UNL     1      -8.883  19.248  66.733  1.00  0.00    -0.317 C  
HETATM   29  C   UNL     1      -9.761  15.965  68.146  1.00  0.00    -0.212 C  
HETATM   30  O   UNL     1      -8.860  19.789  65.631  1.00  0.00    -0.330 OA 
BRANCH  28  31
HETATM   31  C   UNL     1      -7.944  19.731  67.794  1.00  0.00    -0.334 C  
HETATM   32  C   UNL     1      -6.501  19.276  67.758  1.00  0.00    -0.239 C  
HETATM   33  C   UNL     1      -6.838  20.706  67.456  1.00  0.00    -0.389 C  
ENDBRANCH  28  31
ENDBRANCH  19  21
ENDBRANCH  13  14
ENDBRANCH   6  13
TORSDOF 4
ENDMDL
MODEL       51
REMARK 921   NORMALIZED FREE ENERGY PREDICTED BY IDOCK:   -7.23 KCAL/MOL
REMARK 922        TOTAL FREE ENERGY PREDICTED BY IDOCK:   -9.67 KCAL/MOL
REMARK 923 INTER-LIGAND FREE ENERGY PREDICTED BY IDOCK:   -8.52 KCAL/MOL
REMARK 924 INTRA-LIGAND FREE ENERGY PREDICTED BY IDOCK:   -1.15 KCAL/MOL
REMARK 927      BINDING AFFINITY PREDICTED BY RF-SCORE:    0.00 PKD
ROOT
HETATM    1  O   UNL     1     -11.635  14.154  63.870  1.00  0.00    -0.630 OA 
HETATM    2  C   UNL     1     -11.388  15.176  64.735  1.00  0.00    -0.395 A  
HETATM    3  H   UNL     1     -11.745  13.309  64.290  1.00  0.00     0.000 HD 
HETATM    4  N   UNL     1     -11.230  16.371  64.140  1.00  0.00    -0.896 NA 
HETATM    5  N   UNL     1     -10.969  17.457  64.909  1.00  0.00    -0.851 NA 
HETATM    6  C   UNL     1     -10.875  17.335  66.258  1.00  0.00     0.051 A  
HETATM    7  C   UNL     1     -11.055  16.092  66.913  1.00  0.00    -0.039 A  
HETATM    8  C   UNL     1     -11.413  13.529  68.080  1.00  0.00    -0.338 A  
HETATM    9  C   UNL     1     -10.998  15.894  68.317  1.00  0.00    -0.329 A  
HETATM   10  C   UNL     1     -11.312  14.963  66.108  1.00  0.00    -0.307 A  
HETATM   11  C   UNL     1     -11.180  14.632  68.891  1.00  0.00    -0.285 A  
HETATM   12  C   UNL     1     -11.479  13.693  66.699  1.00  0.00    -0.365 A  
ENDROOT
BRANCH   6  13
HETATM   13  C   UNL     1     -10.546  18.583  67.049  1.00  0.00    -0.421 C  
BRANCH  13  14
HETATM   14  C   UNL     1      -9.082  18.919  67.256  1.00  0.00    -0.301 A  
HETATM   15  C   UNL     1      -6.467  19.714  67.864  1.00  0.00    -0.226 A  
HETATM   16  C   UNL     1      -8.511  20.024  66.610  1.00  0.00    -0.370 A  
HETATM   17  C   UNL     1      -8.285  18.163  68.136  1.00  0.00    -0.284 A  
HETATM   18  F   UNL     1      -5.274  20.213  68.219  1.00  0.00    -0.190 F  
HETATM   19  C   UNL     1      -6.958  18.539  68.426  1.00  0.00    -0.278 A  
HETATM   20  C   UNL     1      -7.212  20.424  66.923  1.00  0.00    -0.333 A  
BRANCH  19  21
HETATM   21  C   UNL     1      -6.209  17.713  69.408  1.00  0.00    -0.249 C  
HETATM   22  N   UNL     1      -5.971  16.352  69.213  1.00  0.00    -0.144 N  
HETATM   23  C   UNL     1      -5.237  15.610  70.253  1.00  0.00    -0.135 C  
HETATM   24  O   UNL     1      -5.863  18.288  70.444  1.00  0.00    -0.207 OA 
HETATM   25  C   UNL     1      -6.018  14.366  70.706  1.00  0.00    -0.195 C  
HETATM   26  N   UNL     1      -6.400  13.534  69.556  1.00  0.00    -0.111 N  
HETATM   27  C   UNL     1      -7.122  14.255  68.507  1.00  0.00    -0.105 C  
HETATM   28  C   UNL     1      -6.123  12.175  69.580  1.00  0.00    -0.117 C  
HETATM   29  C   UNL     1      -6.377  15.523  68.071  1.00  0.00    -0.138 C  
HETATM   30  O   UNL     1      -5.528  11.638  70.509  1.00  0.00    -0.115 OA 
BRANCH  28  31
HETATM   31  C   UNL     1      -6.528  11.343  68.404  1.00  0.00    -0.050 C  
HETATM   32  C   UNL     1      -6.784   9.866  68.605  1.00  0.00    -0.050 C  
HETATM   33  C   UNL     1      -7.931  10.784  68.305  1.00  0.00    -0.118 C  
ENDBRANCH  28  31
ENDBRANCH  19  21
ENDBRANCH  13  14
ENDBRANCH   6  13
TORSDOF 4
ENDMDL
MODEL       52
REMARK 921   NORMALIZED FREE ENERGY PREDICTED BY IDOCK:   -7.23 KCAL/MOL
REMARK 922        TOTAL FREE ENERGY PREDICTED BY IDOCK:   -9.66 KCAL/MOL
REMARK 923 INTER-LIGAND FREE ENERGY PREDICTED BY IDOCK:   -8.78 KCAL/MOL
REMARK 924 INTRA-LIGAND FREE ENERGY PREDICTED BY IDOCK:   -0.88 KCAL/MOL
REMARK 927      BINDING AFFINITY PREDICTED BY RF-SCORE:    0.00 PKD
ROOT
HETATM    1  O   UNL     1     -12.304  13.624  62.962  1.00  0.00    -1.041 OA 
HETATM    2  C   UNL     1     -11.687  12.784  63.838  1.00  0.00    -0.459 A  
HETATM    3  H   UNL     1     -12.781  14.333  63.376  1.00  0.00     0.000 HD 
HETATM    4  N   UNL     1     -11.013  11.780  63.252  1.00  0.00    -0.346 NA 
HETATM    5  N   UNL     1     -10.369  10.877  64.033  1.00  0.00    -0.364 NA 
HETATM    6  C   UNL     1     -10.404  10.994  65.386  1.00  0.00    -0.268 A  
HETATM    7  C   UNL     1     -11.091  12.053  66.030  1.00  0.00    -0.364 A  
HETATM    8  C   UNL     1     -12.531  14.213  67.177  1.00  0.00    -0.038 A  
HETATM    9  C   UNL     1     -11.147  12.254  67.433  1.00  0.00    -0.333 A  
HETATM   10  C   UNL     1     -11.770  12.981  65.213  1.00  0.00    -0.388 A  
HETATM   11  C   UNL     1     -11.853  13.321  67.997  1.00  0.00    -0.392 A  
HETATM   12  C   UNL     1     -12.490  14.045  65.795  1.00  0.00    -0.523 A  
ENDROOT
BRANCH   6  13
HETATM   13  C   UNL     1      -9.694   9.931  66.195  1.00  0.00    -0.297 C  
BRANCH  13  14
HETATM   14  C   UNL     1      -8.707  10.391  67.250  1.00  0.00    -0.125 A  
HETATM   15  C   UNL     1      -6.678  11.087  69.050  1.00  0.00    -0.074 A  
HETATM   16  C   UNL     1      -8.481   9.615  68.395  1.00  0.00    -0.118 A  
HETATM   17  C   UNL     1      -7.966  11.575  67.078  1.00  0.00    -0.161 A  
HETATM   18  F   UNL     1      -5.635  11.301  69.865  1.00  0.00    -0.054 F  
HETATM   19  C   UNL     1      -6.962  11.948  67.994  1.00  0.00    -0.078 A  
HETATM   20  C   UNL     1      -7.462   9.958  69.284  1.00  0.00    -0.096 A  
BRANCH  19  21
HETATM   21  C   UNL     1      -6.192  13.185  67.703  1.00  0.00    -0.153 C  
HETATM   22  N   UNL     1      -6.673  14.457  68.019  1.00  0.00    -0.130 N  
HETATM   23  C   UNL     1      -5.848  15.628  67.672  1.00  0.00    -0.122 C  
HETATM   24  O   UNL     1      -5.125  13.029  67.102  1.00  0.00    -0.329 OA 
HETATM   25  C   UNL     1      -6.647  16.647  66.845  1.00  0.00    -0.207 C  
HETATM   26  N   UNL     1      -7.907  17.000  67.515  1.00  0.00    -0.168 N  
HETATM   27  C   UNL     1      -8.738  15.850  67.876  1.00  0.00    -0.168 C  
HETATM   28  C   UNL     1      -8.235  18.337  67.684  1.00  0.00    -0.250 C  
HETATM   29  C   UNL     1      -7.944  14.801  68.667  1.00  0.00    -0.143 C  
HETATM   30  O   UNL     1      -7.491  19.249  67.336  1.00  0.00    -0.227 OA 
BRANCH  28  31
HETATM   31  C   UNL     1      -9.526  18.675  68.360  1.00  0.00    -0.377 C  
HETATM   32  C   UNL     1     -10.116  20.055  68.164  1.00  0.00    -0.547 C  
HETATM   33  C   UNL     1     -10.790  18.865  67.550  1.00  0.00    -0.440 C  
ENDBRANCH  28  31
ENDBRANCH  19  21
ENDBRANCH  13  14
ENDBRANCH   6  13
TORSDOF 4
ENDMDL
MODEL       53
REMARK 921   NORMALIZED FREE ENERGY PREDICTED BY IDOCK:   -7.22 KCAL/MOL
REMARK 922        TOTAL FREE ENERGY PREDICTED BY IDOCK:   -9.66 KCAL/MOL
REMARK 923 INTER-LIGAND FREE ENERGY PREDICTED BY IDOCK:   -8.86 KCAL/MOL
REMARK 924 INTRA-LIGAND FREE ENERGY PREDICTED BY IDOCK:   -0.80 KCAL/MOL
REMARK 927      BINDING AFFINITY PREDICTED BY RF-SCORE:    0.00 PKD
ROOT
HETATM    1  O   UNL     1      -7.809  19.628  65.728  1.00  0.00    -0.376 OA 
HETATM    2  C   UNL     1      -8.506  18.529  66.128  1.00  0.00    -0.130 A  
HETATM    3  H   UNL     1      -6.871  19.561  65.862  1.00  0.00     0.000 HD 
HETATM    4  N   UNL     1      -9.833  18.624  65.940  1.00  0.00    -0.504 NA 
HETATM    5  N   UNL     1     -10.625  17.588  66.313  1.00  0.00    -0.258 NA 
HETATM    6  C   UNL     1     -10.080  16.472  66.862  1.00  0.00    -0.281 A  
HETATM    7  C   UNL     1      -8.682  16.336  67.055  1.00  0.00    -0.220 A  
HETATM    8  C   UNL     1      -5.868  16.222  67.402  1.00  0.00    -0.182 A  
HETATM    9  C   UNL     1      -8.041  15.193  67.595  1.00  0.00    -0.177 A  
HETATM   10  C   UNL     1      -7.865  17.423  66.678  1.00  0.00    -0.292 A  
HETATM   11  C   UNL     1      -6.654  15.136  67.761  1.00  0.00    -0.186 A  
HETATM   12  C   UNL     1      -6.468  17.358  66.864  1.00  0.00    -0.219 A  
ENDROOT
BRANCH   6  13
HETATM   13  C   UNL     1     -11.027  15.371  67.288  1.00  0.00    -0.317 C  
BRANCH  13  14
HETATM   14  C   UNL     1     -11.295  14.252  66.300  1.00  0.00    -0.347 A  
HETATM   15  C   UNL     1     -11.548  12.278  64.331  1.00  0.00    -0.360 A  
HETATM   16  C   UNL     1     -12.083  14.484  65.165  1.00  0.00    -0.363 A  
HETATM   17  C   UNL     1     -10.721  12.980  66.478  1.00  0.00    -0.290 A  
HETATM   18  F   UNL     1     -11.589  11.421  63.302  1.00  0.00    -0.467 F  
HETATM   19  C   UNL     1     -10.866  11.970  65.505  1.00  0.00    -0.336 A  
HETATM   20  C   UNL     1     -12.197  13.503  64.180  1.00  0.00    -0.449 A  
BRANCH  19  21
HETATM   21  C   UNL     1     -10.180  10.676  65.750  1.00  0.00    -0.252 C  
HETATM   22  N   UNL     1     -10.386   9.927  66.910  1.00  0.00    -0.239 N  
HETATM   23  C   UNL     1      -9.644   8.665  67.075  1.00  0.00    -0.182 C  
HETATM   24  O   UNL     1      -9.361  10.329  64.895  1.00  0.00    -0.207 OA 
HETATM   25  C   UNL     1      -8.890   8.634  68.414  1.00  0.00    -0.142 C  
HETATM   26  N   UNL     1      -9.791   8.931  69.536  1.00  0.00    -0.176 N  
HETATM   27  C   UNL     1     -10.544  10.177  69.387  1.00  0.00    -0.237 C  
HETATM   28  C   UNL     1      -9.807   8.086  70.635  1.00  0.00    -0.184 C  
HETATM   29  C   UNL     1     -11.272  10.244  68.038  1.00  0.00    -0.235 C  
HETATM   30  O   UNL     1      -9.128   7.066  70.694  1.00  0.00    -0.156 OA 
BRANCH  28  31
HETATM   31  C   UNL     1     -10.725   8.411  71.772  1.00  0.00    -0.355 C  
HETATM   32  C   UNL     1     -12.028   7.653  71.900  1.00  0.00    -0.331 C  
HETATM   33  C   UNL     1     -10.933   7.421  72.897  1.00  0.00    -0.408 C  
ENDBRANCH  28  31
ENDBRANCH  19  21
ENDBRANCH  13  14
ENDBRANCH   6  13
TORSDOF 4
ENDMDL
MODEL       54
REMARK 921   NORMALIZED FREE ENERGY PREDICTED BY IDOCK:   -7.19 KCAL/MOL
REMARK 922        TOTAL FREE ENERGY PREDICTED BY IDOCK:   -9.62 KCAL/MOL
REMARK 923 INTER-LIGAND FREE ENERGY PREDICTED BY IDOCK:   -8.52 KCAL/MOL
REMARK 924 INTRA-LIGAND FREE ENERGY PREDICTED BY IDOCK:   -1.10 KCAL/MOL
REMARK 927      BINDING AFFINITY PREDICTED BY RF-SCORE:    0.00 PKD
ROOT
HETATM    1  O   UNL     1      -9.780   8.505  71.052  1.00  0.00    -0.171 OA 
HETATM    2  C   UNL     1      -9.684   8.909  69.756  1.00  0.00    -0.175 A  
HETATM    3  H   UNL     1      -9.054   8.781  71.599  1.00  0.00     0.000 HD 
HETATM    4  N   UNL     1     -10.710   8.518  68.982  1.00  0.00    -0.151 NA 
HETATM    5  N   UNL     1     -10.710   8.858  67.669  1.00  0.00    -0.213 NA 
HETATM    6  C   UNL     1      -9.689   9.587  67.151  1.00  0.00    -0.171 A  
HETATM    7  C   UNL     1      -8.603  10.030  67.947  1.00  0.00    -0.121 A  
HETATM    8  C   UNL     1      -6.484  10.821  69.661  1.00  0.00    -0.103 A  
HETATM    9  C   UNL     1      -7.518  10.817  67.482  1.00  0.00    -0.093 A  
HETATM   10  C   UNL     1      -8.602   9.661  69.309  1.00  0.00    -0.153 A  
HETATM   11  C   UNL     1      -6.477  11.210  68.328  1.00  0.00    -0.057 A  
HETATM   12  C   UNL     1      -7.538  10.053  70.148  1.00  0.00    -0.168 A  
ENDROOT
BRANCH   6  13
HETATM   13  C   UNL     1      -9.737   9.899  65.671  1.00  0.00    -0.346 C  
BRANCH  13  14
HETATM   14  C   UNL     1     -10.383  11.204  65.247  1.00  0.00    -0.336 A  
HETATM   15  C   UNL     1     -11.836  13.493  64.548  1.00  0.00    -0.405 A  
HETATM   16  C   UNL     1     -10.862  11.365  63.940  1.00  0.00    -0.463 A  
HETATM   17  C   UNL     1     -10.559  12.254  66.167  1.00  0.00    -0.281 A  
HETATM   18  F   UNL     1     -12.649  14.501  64.203  1.00  0.00    -0.464 F  
HETATM   19  C   UNL     1     -11.265  13.423  65.815  1.00  0.00    -0.305 A  
HETATM   20  C   UNL     1     -11.595  12.501  63.597  1.00  0.00    -0.580 A  
BRANCH  19  21
HETATM   21  C   UNL     1     -11.450  14.457  66.866  1.00  0.00    -0.366 C  
HETATM   22  N   UNL     1     -10.837  15.709  66.799  1.00  0.00    -0.307 N  
HETATM   23  C   UNL     1     -11.061  16.662  67.900  1.00  0.00    -0.212 C  
HETATM   24  O   UNL     1     -12.127  14.120  67.841  1.00  0.00    -0.358 OA 
HETATM   25  C   UNL     1      -9.731  17.175  68.472  1.00  0.00    -0.291 C  
HETATM   26  N   UNL     1      -8.867  17.707  67.409  1.00  0.00    -0.233 N  
HETATM   27  C   UNL     1      -8.639  16.778  66.301  1.00  0.00    -0.305 C  
HETATM   28  C   UNL     1      -8.301  18.963  67.559  1.00  0.00    -0.273 C  
HETATM   29  C   UNL     1      -9.956  16.223  65.743  1.00  0.00    -0.323 C  
HETATM   30  O   UNL     1      -8.526  19.678  68.531  1.00  0.00    -0.343 OA 
BRANCH  28  31
HETATM   31  C   UNL     1      -7.417  19.483  66.469  1.00  0.00    -0.271 C  
HETATM   32  C   UNL     1      -6.817  20.865  66.609  1.00  0.00    -0.318 C  
HETATM   33  C   UNL     1      -5.932  19.659  66.702  1.00  0.00    -0.164 C  
ENDBRANCH  28  31
ENDBRANCH  19  21
ENDBRANCH  13  14
ENDBRANCH   6  13
TORSDOF 4
ENDMDL
MODEL       55
REMARK 921   NORMALIZED FREE ENERGY PREDICTED BY IDOCK:   -7.14 KCAL/MOL
REMARK 922        TOTAL FREE ENERGY PREDICTED BY IDOCK:   -9.56 KCAL/MOL
REMARK 923 INTER-LIGAND FREE ENERGY PREDICTED BY IDOCK:   -8.64 KCAL/MOL
REMARK 924 INTRA-LIGAND FREE ENERGY PREDICTED BY IDOCK:   -0.92 KCAL/MOL
REMARK 927      BINDING AFFINITY PREDICTED BY RF-SCORE:    0.00 PKD
ROOT
HETATM    1  O   UNL     1     -11.283   7.096  73.339  1.00  0.00    -0.561 OA 
HETATM    2  C   UNL     1     -11.150   6.852  72.006  1.00  0.00    -0.245 A  
HETATM    3  H   UNL     1     -10.902   6.427  73.896  1.00  0.00     0.000 HD 
HETATM    4  N   UNL     1     -11.689   7.799  71.220  1.00  0.00    -0.283 NA 
HETATM    5  N   UNL     1     -11.622   7.650  69.873  1.00  0.00     0.072 NA 
HETATM    6  C   UNL     1     -11.013   6.562  69.334  1.00  0.00    -0.337 A  
HETATM    7  C   UNL     1     -10.420   5.559  70.138  1.00  0.00    -0.370 A  
HETATM    8  C   UNL     1      -9.300   3.617  71.880  1.00  0.00    -0.189 A  
HETATM    9  C   UNL     1      -9.745   4.412  69.646  1.00  0.00    -0.289 A  
HETATM   10  C   UNL     1     -10.505   5.712  71.538  1.00  0.00    -0.298 A  
HETATM   11  C   UNL     1      -9.189   3.459  70.505  1.00  0.00    -0.212 A  
HETATM   12  C   UNL     1      -9.952   4.735  72.393  1.00  0.00    -0.226 A  
ENDROOT
BRANCH   6  13
HETATM   13  C   UNL     1     -11.008   6.444  67.825  1.00  0.00    -0.425 C  
BRANCH  13  14
HETATM   14  C   UNL     1      -9.997   7.274  67.058  1.00  0.00    -0.293 A  
HETATM   15  C   UNL     1      -8.265   8.712  65.393  1.00  0.00    -0.136 A  
HETATM   16  C   UNL     1      -8.789   6.704  66.633  1.00  0.00    -0.140 A  
HETATM   17  C   UNL     1     -10.271   8.611  66.715  1.00  0.00    -0.361 A  
HETATM   18  F   UNL     1      -7.471   9.305  64.490  1.00  0.00    -0.096 F  
HETATM   19  C   UNL     1      -9.391   9.352  65.901  1.00  0.00    -0.290 A  
HETATM   20  C   UNL     1      -7.933   7.418  65.795  1.00  0.00    -0.118 A  
BRANCH  19  21
HETATM   21  C   UNL     1      -9.788  10.739  65.545  1.00  0.00    -0.255 C  
HETATM   22  N   UNL     1      -9.941  11.742  66.502  1.00  0.00    -0.200 N  
HETATM   23  C   UNL     1     -10.360  13.083  66.057  1.00  0.00    -0.285 C  
HETATM   24  O   UNL     1     -10.041  10.939  64.353  1.00  0.00    -0.288 OA 
HETATM   25  C   UNL     1     -11.594  13.568  66.833  1.00  0.00    -0.363 C  
HETATM   26  N   UNL     1     -11.376  13.478  68.283  1.00  0.00    -0.275 N  
HETATM   27  C   UNL     1     -10.951  12.156  68.746  1.00  0.00    -0.232 C  
HETATM   28  C   UNL     1     -11.644  14.581  69.079  1.00  0.00    -0.298 C  
HETATM   29  C   UNL     1      -9.744  11.637  67.954  1.00  0.00    -0.179 C  
HETATM   30  O   UNL     1     -12.018  15.655  68.617  1.00  0.00    -0.336 OA 
BRANCH  28  31
HETATM   31  C   UNL     1     -11.425  14.467  70.555  1.00  0.00    -0.240 C  
HETATM   32  C   UNL     1     -11.936  15.568  71.459  1.00  0.00    -0.463 C  
HETATM   33  C   UNL     1     -12.590  14.219  71.488  1.00  0.00    -0.432 C  
ENDBRANCH  28  31
ENDBRANCH  19  21
ENDBRANCH  13  14
ENDBRANCH   6  13
TORSDOF 4
ENDMDL
MODEL       56
REMARK 921   NORMALIZED FREE ENERGY PREDICTED BY IDOCK:   -7.14 KCAL/MOL
REMARK 922        TOTAL FREE ENERGY PREDICTED BY IDOCK:   -9.56 KCAL/MOL
REMARK 923 INTER-LIGAND FREE ENERGY PREDICTED BY IDOCK:   -9.04 KCAL/MOL
REMARK 924 INTRA-LIGAND FREE ENERGY PREDICTED BY IDOCK:   -0.52 KCAL/MOL
REMARK 927      BINDING AFFINITY PREDICTED BY RF-SCORE:    0.00 PKD
ROOT
HETATM    1  O   UNL     1     -10.865  19.684  65.667  1.00  0.00    -0.473 OA 
HETATM    2  C   UNL     1     -10.204  18.548  66.021  1.00  0.00    -0.345 A  
HETATM    3  H   UNL     1     -10.601  20.454  66.157  1.00  0.00     0.000 HD 
HETATM    4  N   UNL     1     -10.577  17.459  65.329  1.00  0.00    -0.640 NA 
HETATM    5  N   UNL     1      -9.989  16.269  65.609  1.00  0.00    -0.506 NA 
HETATM    6  C   UNL     1      -9.034  16.187  66.571  1.00  0.00    -0.287 A  
HETATM    7  C   UNL     1      -8.607  17.322  67.303  1.00  0.00    -0.214 A  
HETATM    8  C   UNL     1      -7.875  19.679  68.705  1.00  0.00    -0.349 A  
HETATM    9  C   UNL     1      -7.598  17.317  68.300  1.00  0.00    -0.227 A  
HETATM   10  C   UNL     1      -9.232  18.554  67.017  1.00  0.00    -0.284 A  
HETATM   11  C   UNL     1      -7.235  18.480  68.986  1.00  0.00    -0.262 A  
HETATM   12  C   UNL     1      -8.866  19.717  67.727  1.00  0.00    -0.379 A  
ENDROOT
BRANCH   6  13
HETATM   13  C   UNL     1      -8.447  14.821  66.854  1.00  0.00    -0.230 C  
BRANCH  13  14
HETATM   14  C   UNL     1      -9.391  13.634  66.852  1.00  0.00    -0.261 A  
HETATM   15  C   UNL     1     -10.896  11.274  66.900  1.00  0.00    -0.282 A  
HETATM   16  C   UNL     1      -9.653  12.939  65.664  1.00  0.00    -0.036 A  
HETATM   17  C   UNL     1      -9.982  13.181  68.046  1.00  0.00    -0.233 A  
HETATM   18  F   UNL     1     -11.492  10.073  66.890  1.00  0.00    -0.078 F  
HETATM   19  C   UNL     1     -10.765  12.009  68.075  1.00  0.00    -0.244 A  
HETATM   20  C   UNL     1     -10.393  11.757  65.693  1.00  0.00    -0.293 A  
BRANCH  19  21
HETATM   21  C   UNL     1     -11.303  11.574  69.390  1.00  0.00    -0.289 C  
HETATM   22  N   UNL     1     -10.944  10.362  69.980  1.00  0.00    -0.295 N  
HETATM   23  C   UNL     1     -11.547  10.004  71.276  1.00  0.00    -0.350 C  
HETATM   24  O   UNL     1     -12.143  12.319  69.902  1.00  0.00    -0.299 OA 
HETATM   25  C   UNL     1     -12.199   8.614  71.223  1.00  0.00    -0.281 C  
HETATM   26  N   UNL     1     -11.255   7.605  70.722  1.00  0.00    -0.266 N  
HETATM   27  C   UNL     1     -10.638   7.946  69.439  1.00  0.00    -0.205 C  
HETATM   28  C   UNL     1     -11.079   6.428  71.432  1.00  0.00    -0.277 C  
HETATM   29  C   UNL     1     -10.016   9.348  69.461  1.00  0.00    -0.191 C  
HETATM   30  O   UNL     1     -11.650   6.206  72.496  1.00  0.00    -0.286 OA 
BRANCH  28  31
HETATM   31  C   UNL     1     -10.120   5.409  70.901  1.00  0.00    -0.286 C  
HETATM   32  C   UNL     1      -8.778   5.242  71.579  1.00  0.00    -0.140 C  
HETATM   33  C   UNL     1      -9.809   4.160  71.696  1.00  0.00    -0.254 C  
ENDBRANCH  28  31
ENDBRANCH  19  21
ENDBRANCH  13  14
ENDBRANCH   6  13
TORSDOF 4
ENDMDL
MODEL       57
REMARK 921   NORMALIZED FREE ENERGY PREDICTED BY IDOCK:   -7.12 KCAL/MOL
REMARK 922        TOTAL FREE ENERGY PREDICTED BY IDOCK:   -9.53 KCAL/MOL
REMARK 923 INTER-LIGAND FREE ENERGY PREDICTED BY IDOCK:  -10.08 KCAL/MOL
REMARK 924 INTRA-LIGAND FREE ENERGY PREDICTED BY IDOCK:    0.55 KCAL/MOL
REMARK 927      BINDING AFFINITY PREDICTED BY RF-SCORE:    0.00 PKD
ROOT
HETATM    1  O   UNL     1     -14.284   8.704  73.157  1.00  0.00    -1.059 OA 
HETATM    2  C   UNL     1     -13.425   9.242  72.248  1.00  0.00    -0.482 A  
HETATM    3  H   UNL     1     -14.234   7.758  73.224  1.00  0.00     0.000 HD 
HETATM    4  N   UNL     1     -13.496  10.581  72.152  1.00  0.00    -0.297 NA 
HETATM    5  N   UNL     1     -12.690  11.220  71.269  1.00  0.00    -0.415 NA 
HETATM    6  C   UNL     1     -11.822  10.514  70.500  1.00  0.00    -0.347 A  
HETATM    7  C   UNL     1     -11.711   9.104  70.593  1.00  0.00    -0.256 A  
HETATM    8  C   UNL     1     -11.622   6.281  70.874  1.00  0.00    -0.338 A  
HETATM    9  C   UNL     1     -10.810   8.305  69.844  1.00  0.00    -0.213 A  
HETATM   10  C   UNL     1     -12.562   8.444  71.504  1.00  0.00    -0.334 A  
HETATM   11  C   UNL     1     -10.764   6.915  69.987  1.00  0.00    -0.276 A  
HETATM   12  C   UNL     1     -12.515   7.039  71.628  1.00  0.00    -0.413 A  
ENDROOT
BRANCH   6  13
HETATM   13  C   UNL     1     -10.979  11.289  69.510  1.00  0.00    -0.249 C  
BRANCH  13  14
HETATM   14  C   UNL     1     -11.327  12.747  69.279  1.00  0.00    -0.307 A  
HETATM   15  C   UNL     1     -11.749  15.504  69.042  1.00  0.00    -0.377 A  
HETATM   16  C   UNL     1     -12.255  13.393  70.106  1.00  0.00    -0.385 A  
HETATM   17  C   UNL     1     -10.690  13.489  68.267  1.00  0.00    -0.271 A  
HETATM   18  F   UNL     1     -11.886  16.838  69.059  1.00  0.00    -0.072 F  
HETATM   19  C   UNL     1     -10.918  14.872  68.121  1.00  0.00    -0.276 A  
HETATM   20  C   UNL     1     -12.455  14.769  69.993  1.00  0.00    -0.327 A  
BRANCH  19  21
HETATM   21  C   UNL     1     -10.162  15.586  67.060  1.00  0.00    -0.271 C  
HETATM   22  N   UNL     1      -9.170  16.523  67.352  1.00  0.00    -0.215 N  
HETATM   23  C   UNL     1      -8.488  17.198  66.233  1.00  0.00    -0.244 C  
HETATM   24  O   UNL     1     -10.508  15.351  65.899  1.00  0.00    -0.302 OA 
HETATM   25  C   UNL     1      -8.546  18.726  66.385  1.00  0.00    -0.284 C  
HETATM   26  N   UNL     1      -8.054  19.145  67.705  1.00  0.00    -0.265 N  
HETATM   27  C   UNL     1      -8.713  18.480  68.830  1.00  0.00    -0.240 C  
HETATM   28  C   UNL     1      -7.097  20.145  67.786  1.00  0.00    -0.295 C  
HETATM   29  C   UNL     1      -8.701  16.954  68.675  1.00  0.00    -0.267 C  
HETATM   30  O   UNL     1      -6.604  20.671  66.792  1.00  0.00    -0.232 OA 
BRANCH  28  31
HETATM   31  C   UNL     1      -6.615  20.565  69.139  1.00  0.00    -0.119 C  
HETATM   32  C   UNL     1      -5.620  19.688  69.867  1.00  0.00    -0.275 C  
HETATM   33  C   UNL     1      -5.187  21.023  69.338  1.00  0.00    -0.378 C  
ENDBRANCH  28  31
ENDBRANCH  19  21
ENDBRANCH  13  14
ENDBRANCH   6  13
TORSDOF 4
ENDMDL
MODEL       58
REMARK 921   NORMALIZED FREE ENERGY PREDICTED BY IDOCK:   -7.11 KCAL/MOL
REMARK 922        TOTAL FREE ENERGY PREDICTED BY IDOCK:   -9.52 KCAL/MOL
REMARK 923 INTER-LIGAND FREE ENERGY PREDICTED BY IDOCK:   -8.41 KCAL/MOL
REMARK 924 INTRA-LIGAND FREE ENERGY PREDICTED BY IDOCK:   -1.11 KCAL/MOL
REMARK 927      BINDING AFFINITY PREDICTED BY RF-SCORE:    0.00 PKD
ROOT
HETATM    1  O   UNL     1     -10.141   9.841  64.264  1.00  0.00    -0.407 OA 
HETATM    2  C   UNL     1     -10.379  10.833  65.166  1.00  0.00    -0.271 A  
HETATM    3  H   UNL     1      -9.265   9.476  64.312  1.00  0.00     0.000 HD 
HETATM    4  N   UNL     1     -11.617  11.350  65.098  1.00  0.00     0.045 NA 
HETATM    5  N   UNL     1     -11.959  12.352  65.945  1.00  0.00    -0.587 NA 
HETATM    6  C   UNL     1     -11.060  12.819  66.850  1.00  0.00    -0.270 A  
HETATM    7  C   UNL     1      -9.754  12.281  66.958  1.00  0.00    -0.207 A  
HETATM    8  C   UNL     1      -7.165  11.120  67.036  1.00  0.00    -0.128 A  
HETATM    9  C   UNL     1      -8.774  12.698  67.895  1.00  0.00    -0.181 A  
HETATM   10  C   UNL     1      -9.400  11.248  66.065  1.00  0.00    -0.234 A  
HETATM   11  C   UNL     1      -7.501  12.122  67.936  1.00  0.00    -0.117 A  
HETATM   12  C   UNL     1      -8.108  10.685  66.107  1.00  0.00    -0.154 A  
ENDROOT
BRANCH   6  13
HETATM   13  C   UNL     1     -11.498  13.963  67.739  1.00  0.00    -0.354 C  
BRANCH  13  14
HETATM   14  C   UNL     1     -11.988  13.624  69.133  1.00  0.00    -0.394 A  
HETATM   15  C   UNL     1     -13.160  12.953  71.585  1.00  0.00    -0.335 A  
HETATM   16  C   UNL     1     -12.518  14.624  69.960  1.00  0.00    -0.333 A  
HETATM   17  C   UNL     1     -11.966  12.298  69.603  1.00  0.00    -0.347 A  
HETATM   18  F   UNL     1     -13.851  12.668  72.699  1.00  0.00    -0.595 F  
HETATM   19  C   UNL     1     -12.528  11.955  70.849  1.00  0.00    -0.397 A  
HETATM   20  C   UNL     1     -13.112  14.285  71.176  1.00  0.00    -0.412 A  
BRANCH  19  21
HETATM   21  C   UNL     1     -12.510  10.521  71.240  1.00  0.00    -0.419 C  
HETATM   22  N   UNL     1     -11.441   9.677  70.936  1.00  0.00    -0.323 N  
HETATM   23  C   UNL     1     -11.521   8.264  71.346  1.00  0.00    -0.269 C  
HETATM   24  O   UNL     1     -13.528  10.100  71.795  1.00  0.00    -0.365 OA 
HETATM   25  C   UNL     1     -11.275   7.324  70.155  1.00  0.00    -0.239 C  
HETATM   26  N   UNL     1     -10.021   7.661  69.467  1.00  0.00    -0.179 N  
HETATM   27  C   UNL     1      -9.917   9.062  69.059  1.00  0.00    -0.185 C  
HETATM   28  C   UNL     1      -9.101   6.657  69.202  1.00  0.00    -0.137 C  
HETATM   29  C   UNL     1     -10.201  10.017  70.226  1.00  0.00    -0.206 C  
HETATM   30  O   UNL     1      -9.270   5.495  69.561  1.00  0.00    -0.117 OA 
BRANCH  28  31
HETATM   31  C   UNL     1      -7.835   7.018  68.492  1.00  0.00    -0.122 C  
HETATM   32  C   UNL     1      -6.963   5.911  67.940  1.00  0.00    -0.065 C  
HETATM   33  C   UNL     1      -7.706   6.811  66.998  1.00  0.00    -0.100 C  
ENDBRANCH  28  31
ENDBRANCH  19  21
ENDBRANCH  13  14
ENDBRANCH   6  13
TORSDOF 4
ENDMDL
MODEL       59
REMARK 921   NORMALIZED FREE ENERGY PREDICTED BY IDOCK:   -7.10 KCAL/MOL
REMARK 922        TOTAL FREE ENERGY PREDICTED BY IDOCK:   -9.51 KCAL/MOL
REMARK 923 INTER-LIGAND FREE ENERGY PREDICTED BY IDOCK:   -8.63 KCAL/MOL
REMARK 924 INTRA-LIGAND FREE ENERGY PREDICTED BY IDOCK:   -0.89 KCAL/MOL
REMARK 927      BINDING AFFINITY PREDICTED BY RF-SCORE:    0.00 PKD
ROOT
HETATM    1  O   UNL     1      -5.848  14.538  67.408  1.00  0.00    -0.342 OA 
HETATM    2  C   UNL     1      -7.170  14.220  67.475  1.00  0.00    -0.176 A  
HETATM    3  H   UNL     1      -5.676  15.417  67.090  1.00  0.00     0.000 HD 
HETATM    4  N   UNL     1      -7.412  12.977  67.923  1.00  0.00    -0.121 NA 
HETATM    5  N   UNL     1      -8.696  12.552  68.020  1.00  0.00    -0.179 NA 
HETATM    6  C   UNL     1      -9.718  13.377  67.673  1.00  0.00    -0.222 A  
HETATM    7  C   UNL     1      -9.494  14.699  67.216  1.00  0.00    -0.221 A  
HETATM    8  C   UNL     1      -8.885  17.312  66.290  1.00  0.00    -0.250 A  
HETATM    9  C   UNL     1     -10.510  15.623  66.863  1.00  0.00    -0.307 A  
HETATM   10  C   UNL     1      -8.155  15.130  67.104  1.00  0.00    -0.245 A  
HETATM   11  C   UNL     1     -10.209  16.912  66.412  1.00  0.00    -0.326 A  
HETATM   12  C   UNL     1      -7.865  16.428  66.634  1.00  0.00    -0.316 A  
ENDROOT
BRANCH   6  13
HETATM   13  C   UNL     1     -11.124  12.824  67.773  1.00  0.00    -0.289 C  
BRANCH  13  14
HETATM   14  C   UNL     1     -11.700  12.609  69.159  1.00  0.00    -0.375 A  
HETATM   15  C   UNL     1     -13.031  12.230  71.592  1.00  0.00    -0.311 A  
HETATM   16  C   UNL     1     -11.994  13.704  69.981  1.00  0.00    -0.413 A  
HETATM   17  C   UNL     1     -11.995  11.314  69.625  1.00  0.00    -0.423 A  
HETATM   18  F   UNL     1     -13.785  12.115  72.695  1.00  0.00    -0.461 F  
HETATM   19  C   UNL     1     -12.639  11.112  70.862  1.00  0.00    -0.483 A  
HETATM   20  C   UNL     1     -12.667  13.514  71.188  1.00  0.00    -0.425 A  
BRANCH  19  21
HETATM   21  C   UNL     1     -12.962   9.714  71.249  1.00  0.00    -0.360 C  
HETATM   22  N   UNL     1     -11.975   8.784  71.582  1.00  0.00    -0.309 N  
HETATM   23  C   UNL     1     -12.389   7.414  71.932  1.00  0.00    -0.310 C  
HETATM   24  O   UNL     1     -14.154   9.400  71.195  1.00  0.00    -0.177 OA 
HETATM   25  C   UNL     1     -11.644   6.373  71.082  1.00  0.00    -0.318 C  
HETATM   26  N   UNL     1     -10.190   6.578  71.150  1.00  0.00    -0.191 N  
HETATM   27  C   UNL     1      -9.759   7.936  70.814  1.00  0.00    -0.172 C  
HETATM   28  C   UNL     1      -9.366   5.502  71.443  1.00  0.00    -0.147 C  
HETATM   29  C   UNL     1     -10.522   8.992  71.624  1.00  0.00    -0.355 C  
HETATM   30  O   UNL     1      -9.804   4.383  71.695  1.00  0.00    -0.168 OA 
BRANCH  28  31
HETATM   31  C   UNL     1      -7.888   5.728  71.498  1.00  0.00    -0.112 C  
HETATM   32  C   UNL     1      -7.083   5.052  72.586  1.00  0.00    -0.083 C  
HETATM   33  C   UNL     1      -6.926   4.609  71.162  1.00  0.00    -0.039 C  
ENDBRANCH  28  31
ENDBRANCH  19  21
ENDBRANCH  13  14
ENDBRANCH   6  13
TORSDOF 4
ENDMDL
MODEL       60
REMARK 921   NORMALIZED FREE ENERGY PREDICTED BY IDOCK:   -7.03 KCAL/MOL
REMARK 922        TOTAL FREE ENERGY PREDICTED BY IDOCK:   -9.42 KCAL/MOL
REMARK 923 INTER-LIGAND FREE ENERGY PREDICTED BY IDOCK:   -8.52 KCAL/MOL
REMARK 924 INTRA-LIGAND FREE ENERGY PREDICTED BY IDOCK:   -0.91 KCAL/MOL
REMARK 927      BINDING AFFINITY PREDICTED BY RF-SCORE:    0.00 PKD
ROOT
HETATM    1  O   UNL     1      -6.126   7.399  66.510  1.00  0.00    -0.038 OA 
HETATM    2  C   UNL     1      -7.251   7.544  67.264  1.00  0.00    -0.086 A  
HETATM    3  H   UNL     1      -6.206   6.756  65.815  1.00  0.00     0.000 HD 
HETATM    4  N   UNL     1      -7.138   8.453  68.247  1.00  0.00    -0.083 NA 
HETATM    5  N   UNL     1      -8.197   8.670  69.065  1.00  0.00    -0.120 NA 
HETATM    6  C   UNL     1      -9.353   7.981  68.886  1.00  0.00    -0.150 A  
HETATM    7  C   UNL     1      -9.508   7.031  67.846  1.00  0.00    -0.128 A  
HETATM    8  C   UNL     1      -9.657   5.140  65.735  1.00  0.00    -0.138 A  
HETATM    9  C   UNL     1     -10.692   6.296  67.582  1.00  0.00    -0.391 A  
HETATM   10  C   UNL     1      -8.398   6.799  67.007  1.00  0.00    -0.114 A  
HETATM   11  C   UNL     1     -10.765   5.368  66.539  1.00  0.00    -0.309 A  
HETATM   12  C   UNL     1      -8.481   5.850  65.967  1.00  0.00    -0.137 A  
ENDROOT
BRANCH   6  13
HETATM   13  C   UNL     1     -10.482   8.249  69.859  1.00  0.00    -0.223 C  
BRANCH  13  14
HETATM   14  C   UNL     1     -11.158   9.605  69.797  1.00  0.00    -0.247 A  
HETATM   15  C   UNL     1     -12.152  12.222  69.785  1.00  0.00    -0.229 A  
HETATM   16  C   UNL     1     -11.848  10.104  70.911  1.00  0.00    -0.468 A  
HETATM   17  C   UNL     1     -11.065  10.406  68.644  1.00  0.00    -0.313 A  
HETATM   18  F   UNL     1     -12.525  13.506  69.880  1.00  0.00    -0.347 F  
HETATM   19  C   UNL     1     -11.587  11.714  68.619  1.00  0.00    -0.373 A  
HETATM   20  C   UNL     1     -12.331  11.412  70.906  1.00  0.00    -0.483 A  
BRANCH  19  21
HETATM   21  C   UNL     1     -11.395  12.508  67.377  1.00  0.00    -0.313 C  
HETATM   22  N   UNL     1     -10.552  13.619  67.323  1.00  0.00    -0.266 N  
HETATM   23  C   UNL     1     -10.441  14.357  66.053  1.00  0.00    -0.301 C  
HETATM   24  O   UNL     1     -12.078  12.167  66.408  1.00  0.00    -0.630 OA 
HETATM   25  C   UNL     1     -10.719  15.855  66.254  1.00  0.00    -0.261 C  
HETATM   26  N   UNL     1      -9.879  16.410  67.325  1.00  0.00    -0.240 N  
HETATM   27  C   UNL     1      -9.967  15.685  68.594  1.00  0.00    -0.208 C  
HETATM   28  C   UNL     1      -9.152  17.567  67.088  1.00  0.00    -0.243 C  
HETATM   29  C   UNL     1      -9.733  14.180  68.406  1.00  0.00    -0.226 C  
HETATM   30  O   UNL     1      -9.145  18.131  65.998  1.00  0.00    -0.513 OA 
BRANCH  28  31
HETATM   31  C   UNL     1      -8.310  18.121  68.194  1.00  0.00    -0.285 C  
HETATM   32  C   UNL     1      -7.320  19.221  67.881  1.00  0.00    -0.289 C  
HETATM   33  C   UNL     1      -8.537  19.529  68.700  1.00  0.00    -0.365 C  
ENDBRANCH  28  31
ENDBRANCH  19  21
ENDBRANCH  13  14
ENDBRANCH   6  13
TORSDOF 4
ENDMDL
MODEL       61
REMARK 921   NORMALIZED FREE ENERGY PREDICTED BY IDOCK:   -7.03 KCAL/MOL
REMARK 922        TOTAL FREE ENERGY PREDICTED BY IDOCK:   -9.42 KCAL/MOL
REMARK 923 INTER-LIGAND FREE ENERGY PREDICTED BY IDOCK:   -8.48 KCAL/MOL
REMARK 924 INTRA-LIGAND FREE ENERGY PREDICTED BY IDOCK:   -0.94 KCAL/MOL
REMARK 927      BINDING AFFINITY PREDICTED BY RF-SCORE:    0.00 PKD
ROOT
HETATM    1  O   UNL     1     -11.330  15.056  70.307  1.00  0.00    -0.243 OA 
HETATM    2  C   UNL     1     -11.485  14.567  69.045  1.00  0.00    -0.290 A  
HETATM    3  H   UNL     1     -10.952  15.926  70.342  1.00  0.00     0.000 HD 
HETATM    4  N   UNL     1     -12.019  13.335  68.996  1.00  0.00    -0.311 NA 
HETATM    5  N   UNL     1     -12.207  12.749  67.788  1.00  0.00    -0.251 NA 
HETATM    6  C   UNL     1     -11.865  13.404  66.648  1.00  0.00    -0.395 A  
HETATM    7  C   UNL     1     -11.318  14.710  66.669  1.00  0.00    -0.358 A  
HETATM    8  C   UNL     1     -10.207  17.314  66.871  1.00  0.00    -0.322 A  
HETATM    9  C   UNL     1     -10.963  15.464  65.521  1.00  0.00    -0.350 A  
HETATM   10  C   UNL     1     -11.111  15.310  67.929  1.00  0.00    -0.321 A  
HETATM   11  C   UNL     1     -10.421  16.749  65.622  1.00  0.00    -0.284 A  
HETATM   12  C   UNL     1     -10.550  16.601  68.017  1.00  0.00    -0.338 A  
ENDROOT
BRANCH   6  13
HETATM   13  C   UNL     1     -12.070  12.674  65.338  1.00  0.00    -0.516 C  
BRANCH  13  14
HETATM   14  C   UNL     1     -10.992  11.704  64.896  1.00  0.00    -0.345 A  
HETATM   15  C   UNL     1      -8.819  10.147  64.061  1.00  0.00    -0.228 A  
HETATM   16  C   UNL     1     -10.802  11.428  63.535  1.00  0.00    -0.430 A  
HETATM   17  C   UNL     1     -10.133  11.104  65.835  1.00  0.00    -0.296 A  
HETATM   18  F   UNL     1      -7.724   9.526  63.603  1.00  0.00    -0.111 F  
HETATM   19  C   UNL     1      -9.053  10.295  65.425  1.00  0.00    -0.221 A  
HETATM   20  C   UNL     1      -9.712  10.662  63.122  1.00  0.00    -0.375 A  
BRANCH  19  21
HETATM   21  C   UNL     1      -8.165   9.747  66.483  1.00  0.00    -0.120 C  
HETATM   22  N   UNL     1      -8.601   8.797  67.407  1.00  0.00    -0.125 N  
HETATM   23  C   UNL     1      -7.654   8.327  68.434  1.00  0.00    -0.101 C  
HETATM   24  O   UNL     1      -7.031  10.231  66.540  1.00  0.00    -0.096 OA 
HETATM   25  C   UNL     1      -8.244   8.477  69.845  1.00  0.00    -0.121 C  
HETATM   26  N   UNL     1      -9.566   7.840  69.936  1.00  0.00    -0.164 N  
HETATM   27  C   UNL     1     -10.519   8.286  68.919  1.00  0.00    -0.191 C  
HETATM   28  C   UNL     1      -9.823   6.957  70.974  1.00  0.00    -0.178 C  
HETATM   29  C   UNL     1      -9.931   8.182  67.505  1.00  0.00    -0.192 C  
HETATM   30  O   UNL     1      -8.974   6.647  71.804  1.00  0.00    -0.140 OA 
BRANCH  28  31
HETATM   31  C   UNL     1     -11.178   6.326  71.056  1.00  0.00    -0.372 C  
HETATM   32  C   UNL     1     -11.681   5.842  72.398  1.00  0.00    -0.307 C  
HETATM   33  C   UNL     1     -12.316   7.038  71.753  1.00  0.00    -0.391 C  
ENDBRANCH  28  31
ENDBRANCH  19  21
ENDBRANCH  13  14
ENDBRANCH   6  13
TORSDOF 4
ENDMDL
MODEL       62
REMARK 921   NORMALIZED FREE ENERGY PREDICTED BY IDOCK:   -7.03 KCAL/MOL
REMARK 922        TOTAL FREE ENERGY PREDICTED BY IDOCK:   -9.42 KCAL/MOL
REMARK 923 INTER-LIGAND FREE ENERGY PREDICTED BY IDOCK:   -8.82 KCAL/MOL
REMARK 924 INTRA-LIGAND FREE ENERGY PREDICTED BY IDOCK:   -0.60 KCAL/MOL
REMARK 927      BINDING AFFINITY PREDICTED BY RF-SCORE:    0.00 PKD
ROOT
HETATM    1  O   UNL     1     -11.255  19.776  65.327  1.00  0.00    -0.329 OA 
HETATM    2  C   UNL     1     -10.724  18.548  65.581  1.00  0.00    -0.053 A  
HETATM    3  H   UNL     1     -10.950  20.459  65.913  1.00  0.00     0.000 HD 
HETATM    4  N   UNL     1     -11.156  17.583  64.753  1.00  0.00    -0.812 NA 
HETATM    5  N   UNL     1     -10.698  16.318  64.924  1.00  0.00    -0.685 NA 
HETATM    6  C   UNL     1      -9.813  16.038  65.915  1.00  0.00    -0.348 A  
HETATM    7  C   UNL     1      -9.326  17.039  66.791  1.00  0.00    -0.268 A  
HETATM    8  C   UNL     1      -8.461  19.147  68.484  1.00  0.00    -0.399 A  
HETATM    9  C   UNL     1      -8.382  16.827  67.828  1.00  0.00    -0.193 A  
HETATM   10  C   UNL     1      -9.816  18.351  66.617  1.00  0.00    -0.362 A  
HETATM   11  C   UNL     1      -7.953  17.867  68.658  1.00  0.00    -0.285 A  
HETATM   12  C   UNL     1      -9.386  19.388  67.471  1.00  0.00    -0.386 A  
ENDROOT
BRANCH   6  13
HETATM   13  C   UNL     1      -9.373  14.598  66.070  1.00  0.00    -0.216 C  
BRANCH  13  14
HETATM   14  C   UNL     1     -10.144  13.727  67.043  1.00  0.00    -0.256 A  
HETATM   15  C   UNL     1     -11.775  12.096  68.629  1.00  0.00    -0.330 A  
HETATM   16  C   UNL     1     -11.074  14.299  67.921  1.00  0.00    -0.293 A  
HETATM   17  C   UNL     1      -9.977  12.330  67.048  1.00  0.00    -0.220 A  
HETATM   18  F   UNL     1     -12.669  11.359  69.304  1.00  0.00    -0.192 F  
HETATM   19  C   UNL     1     -10.775  11.502  67.864  1.00  0.00    -0.241 A  
HETATM   20  C   UNL     1     -11.894  13.483  68.701  1.00  0.00    -0.404 A  
BRANCH  19  21
HETATM   21  C   UNL     1     -10.568  10.034  67.765  1.00  0.00    -0.261 C  
HETATM   22  N   UNL     1     -10.365   9.230  68.888  1.00  0.00    -0.210 N  
HETATM   23  C   UNL     1     -10.146   7.787  68.690  1.00  0.00    -0.199 C  
HETATM   24  O   UNL     1     -10.520   9.572  66.622  1.00  0.00    -0.231 OA 
HETATM   25  C   UNL     1      -8.859   7.318  69.385  1.00  0.00    -0.137 C  
HETATM   26  N   UNL     1      -8.844   7.720  70.798  1.00  0.00    -0.138 N  
HETATM   27  C   UNL     1      -9.068   9.150  71.017  1.00  0.00    -0.237 C  
HETATM   28  C   UNL     1      -8.561   6.773  71.771  1.00  0.00    -0.121 C  
HETATM   29  C   UNL     1     -10.328   9.645  70.296  1.00  0.00    -0.280 C  
HETATM   30  O   UNL     1      -8.364   5.591  71.505  1.00  0.00    -0.120 OA 
BRANCH  28  31
HETATM   31  C   UNL     1      -8.541   7.205  73.204  1.00  0.00    -0.147 C  
HETATM   32  C   UNL     1      -9.787   7.017  74.043  1.00  0.00    -0.345 C  
HETATM   33  C   UNL     1      -8.574   6.179  74.316  1.00  0.00    -0.118 C  
ENDBRANCH  28  31
ENDBRANCH  19  21
ENDBRANCH  13  14
ENDBRANCH   6  13
TORSDOF 4
ENDMDL
MODEL       63
REMARK 921   NORMALIZED FREE ENERGY PREDICTED BY IDOCK:   -7.03 KCAL/MOL
REMARK 922        TOTAL FREE ENERGY PREDICTED BY IDOCK:   -9.42 KCAL/MOL
REMARK 923 INTER-LIGAND FREE ENERGY PREDICTED BY IDOCK:   -9.99 KCAL/MOL
REMARK 924 INTRA-LIGAND FREE ENERGY PREDICTED BY IDOCK:    0.58 KCAL/MOL
REMARK 927      BINDING AFFINITY PREDICTED BY RF-SCORE:    0.00 PKD
ROOT
HETATM    1  O   UNL     1      -6.267  17.502  68.902  1.00  0.00    -0.183 OA 
HETATM    2  C   UNL     1      -7.604  17.254  68.830  1.00  0.00    -0.256 A  
HETATM    3  H   UNL     1      -6.007  18.333  68.522  1.00  0.00     0.000 HD 
HETATM    4  N   UNL     1      -7.973  16.079  69.367  1.00  0.00    -0.213 NA 
HETATM    5  N   UNL     1      -9.282  15.726  69.339  1.00  0.00    -0.267 NA 
HETATM    6  C   UNL     1     -10.203  16.554  68.781  1.00  0.00    -0.267 A  
HETATM    7  C   UNL     1      -9.846  17.808  68.225  1.00  0.00    -0.340 A  
HETATM    8  C   UNL     1      -8.974  20.275  67.125  1.00  0.00    -0.469 A  
HETATM    9  C   UNL     1     -10.754  18.734  67.652  1.00  0.00    -0.449 A  
HETATM   10  C   UNL     1      -8.481  18.163  68.244  1.00  0.00    -0.294 A  
HETATM   11  C   UNL     1     -10.324  19.951  67.115  1.00  0.00    -0.581 A  
HETATM   12  C   UNL     1      -8.058  19.387  67.686  1.00  0.00    -0.317 A  
ENDROOT
BRANCH   6  13
HETATM   13  C   UNL     1     -11.640  16.080  68.753  1.00  0.00    -0.352 C  
BRANCH  13  14
HETATM   14  C   UNL     1     -12.072  15.080  69.808  1.00  0.00    -0.354 A  
HETATM   15  C   UNL     1     -13.106  13.179  71.585  1.00  0.00    -0.353 A  
HETATM   16  C   UNL     1     -12.909  15.478  70.860  1.00  0.00    -0.535 A  
HETATM   17  C   UNL     1     -11.684  13.730  69.725  1.00  0.00    -0.367 A  
HETATM   18  F   UNL     1     -13.733  12.295  72.374  1.00  0.00    -0.580 F  
HETATM   19  C   UNL     1     -12.177  12.771  70.632  1.00  0.00    -0.374 A  
HETATM   20  C   UNL     1     -13.432  14.527  71.736  1.00  0.00    -0.458 A  
BRANCH  19  21
HETATM   21  C   UNL     1     -11.757  11.359  70.436  1.00  0.00    -0.268 C  
HETATM   22  N   UNL     1     -10.918  10.967  69.392  1.00  0.00    -0.240 N  
HETATM   23  C   UNL     1     -10.573   9.541  69.264  1.00  0.00    -0.220 C  
HETATM   24  O   UNL     1     -12.249  10.537  71.213  1.00  0.00    -0.357 OA 
HETATM   25  C   UNL     1     -10.881   9.018  67.852  1.00  0.00    -0.053 C  
HETATM   26  N   UNL     1     -10.254   9.863  66.826  1.00  0.00    -0.233 N  
HETATM   27  C   UNL     1     -10.577  11.286  66.941  1.00  0.00    -0.257 C  
HETATM   28  C   UNL     1      -9.495   9.270  65.829  1.00  0.00    -0.262 C  
HETATM   29  C   UNL     1     -10.314  11.816  68.357  1.00  0.00    -0.214 C  
HETATM   30  O   UNL     1      -9.285   8.061  65.788  1.00  0.00    -0.124 OA 
BRANCH  28  31
HETATM   31  C   UNL     1      -8.872  10.147  64.788  1.00  0.00    -0.219 C  
HETATM   32  C   UNL     1      -8.311   9.511  63.535  1.00  0.00    -0.176 C  
HETATM   33  C   UNL     1      -9.550  10.352  63.451  1.00  0.00    -0.361 C  
ENDBRANCH  28  31
ENDBRANCH  19  21
ENDBRANCH  13  14
ENDBRANCH   6  13
TORSDOF 4
ENDMDL
MODEL       64
REMARK 921   NORMALIZED FREE ENERGY PREDICTED BY IDOCK:   -7.00 KCAL/MOL
REMARK 922        TOTAL FREE ENERGY PREDICTED BY IDOCK:   -9.38 KCAL/MOL
REMARK 923 INTER-LIGAND FREE ENERGY PREDICTED BY IDOCK:   -8.85 KCAL/MOL
REMARK 924 INTRA-LIGAND FREE ENERGY PREDICTED BY IDOCK:   -0.53 KCAL/MOL
REMARK 927      BINDING AFFINITY PREDICTED BY RF-SCORE:    0.00 PKD
ROOT
HETATM    1  O   UNL     1     -11.178  16.860  69.240  1.00  0.00    -0.269 OA 
HETATM    2  C   UNL     1     -11.351  15.535  68.977  1.00  0.00    -0.326 A  
HETATM    3  H   UNL     1     -10.877  17.366  68.495  1.00  0.00     0.000 HD 
HETATM    4  N   UNL     1     -11.776  14.818  70.031  1.00  0.00    -0.278 NA 
HETATM    5  N   UNL     1     -11.971  13.484  69.883  1.00  0.00    -0.335 NA 
HETATM    6  C   UNL     1     -11.744  12.888  68.684  1.00  0.00    -0.324 A  
HETATM    7  C   UNL     1     -11.314  13.621  67.551  1.00  0.00    -0.335 A  
HETATM    8  C   UNL     1     -10.428  15.219  65.378  1.00  0.00    -0.422 A  
HETATM    9  C   UNL     1     -11.084  13.073  66.263  1.00  0.00    -0.314 A  
HETATM   10  C   UNL     1     -11.099  15.006  67.715  1.00  0.00    -0.312 A  
HETATM   11  C   UNL     1     -10.653  13.861  65.193  1.00  0.00    -0.391 A  
HETATM   12  C   UNL     1     -10.650  15.788  66.630  1.00  0.00    -0.307 A  
ENDROOT
BRANCH   6  13
HETATM   13  C   UNL     1     -11.948  11.391  68.601  1.00  0.00    -0.317 C  
BRANCH  13  14
HETATM   14  C   UNL     1     -11.841  10.593  69.887  1.00  0.00    -0.392 A  
HETATM   15  C   UNL     1     -11.737   8.887  72.104  1.00  0.00    -0.341 A  
HETATM   16  C   UNL     1     -12.944  10.481  70.745  1.00  0.00    -0.413 A  
HETATM   17  C   UNL     1     -10.654   9.913  70.217  1.00  0.00    -0.359 A  
HETATM   18  F   UNL     1     -11.785   7.985  73.094  1.00  0.00    -0.433 F  
HETATM   19  C   UNL     1     -10.584   9.074  71.347  1.00  0.00    -0.393 A  
HETATM   20  C   UNL     1     -12.893   9.622  71.842  1.00  0.00    -0.515 A  
BRANCH  19  21
HETATM   21  C   UNL     1      -9.308   8.352  71.589  1.00  0.00    -0.214 C  
HETATM   22  N   UNL     1      -9.017   7.126  70.988  1.00  0.00    -0.149 N  
HETATM   23  C   UNL     1      -7.735   6.473  71.305  1.00  0.00    -0.095 C  
HETATM   24  O   UNL     1      -8.543   8.867  72.408  1.00  0.00    -0.399 OA 
HETATM   25  C   UNL     1      -7.949   5.029  71.784  1.00  0.00    -0.110 C  
HETATM   26  N   UNL     1      -8.768   4.270  70.828  1.00  0.00    -0.085 N  
HETATM   27  C   UNL     1     -10.043   4.907  70.493  1.00  0.00    -0.242 C  
HETATM   28  C   UNL     1      -8.327   3.031  70.390  1.00  0.00    -0.048 C  
HETATM   29  C   UNL     1      -9.853   6.364  70.051  1.00  0.00    -0.168 C  
HETATM   30  O   UNL     1      -7.249   2.554  70.733  1.00  0.00    -0.033 OA 
BRANCH  28  31
HETATM   31  C   UNL     1      -9.180   2.270  69.424  1.00  0.00    -0.187 C  
HETATM   32  C   UNL     1      -9.343   2.799  68.016  1.00  0.00    -0.257 C  
HETATM   33  C   UNL     1      -8.554   1.545  68.252  1.00  0.00    -0.091 C  
ENDBRANCH  28  31
ENDBRANCH  19  21
ENDBRANCH  13  14
ENDBRANCH   6  13
TORSDOF 4
ENDMDL
MODEL       65
REMARK 921   NORMALIZED FREE ENERGY PREDICTED BY IDOCK:   -6.99 KCAL/MOL
REMARK 922        TOTAL FREE ENERGY PREDICTED BY IDOCK:   -9.38 KCAL/MOL
REMARK 923 INTER-LIGAND FREE ENERGY PREDICTED BY IDOCK:   -8.40 KCAL/MOL
REMARK 924 INTRA-LIGAND FREE ENERGY PREDICTED BY IDOCK:   -0.97 KCAL/MOL
REMARK 927      BINDING AFFINITY PREDICTED BY RF-SCORE:    0.00 PKD
ROOT
HETATM    1  O   UNL     1     -10.372   4.860  69.818  1.00  0.00    -0.260 OA 
HETATM    2  C   UNL     1     -10.221   6.040  69.156  1.00  0.00    -0.204 A  
HETATM    3  H   UNL     1      -9.751   4.730  70.525  1.00  0.00     0.000 HD 
HETATM    4  N   UNL     1     -11.099   6.223  68.156  1.00  0.00    -0.326 NA 
HETATM    5  N   UNL     1     -11.032   7.362  67.422  1.00  0.00    -0.209 NA 
HETATM    6  C   UNL     1     -10.093   8.302  67.703  1.00  0.00    -0.209 A  
HETATM    7  C   UNL     1      -9.167   8.145  68.764  1.00  0.00    -0.144 A  
HETATM    8  C   UNL     1      -7.361   7.676  70.903  1.00  0.00    -0.066 A  
HETATM    9  C   UNL     1      -8.179   9.094  69.131  1.00  0.00    -0.117 A  
HETATM   10  C   UNL     1      -9.233   6.952  69.514  1.00  0.00    -0.148 A  
HETATM   11  C   UNL     1      -7.294   8.864  70.189  1.00  0.00    -0.059 A  
HETATM   12  C   UNL     1      -8.324   6.726  70.569  1.00  0.00    -0.129 A  
ENDROOT
BRANCH   6  13
HETATM   13  C   UNL     1     -10.053   9.532  66.821  1.00  0.00    -0.312 C  
BRANCH  13  14
HETATM   14  C   UNL     1     -10.793  10.766  67.299  1.00  0.00    -0.344 A  
HETATM   15  C   UNL     1     -11.905  13.127  68.311  1.00  0.00    -0.349 A  
HETATM   16  C   UNL     1     -11.441  10.766  68.542  1.00  0.00    -0.362 A  
HETATM   17  C   UNL     1     -10.802  11.944  66.531  1.00  0.00    -0.317 A  
HETATM   18  F   UNL     1     -12.330  14.256  68.897  1.00  0.00    -0.356 F  
HETATM   19  C   UNL     1     -11.385  13.131  67.020  1.00  0.00    -0.349 A  
HETATM   20  C   UNL     1     -11.984  11.946  69.049  1.00  0.00    -0.321 A  
BRANCH  19  21
HETATM   21  C   UNL     1     -11.300  14.342  66.164  1.00  0.00    -0.350 C  
HETATM   22  N   UNL     1     -10.372  15.358  66.397  1.00  0.00    -0.285 N  
HETATM   23  C   UNL     1     -10.377  16.534  65.508  1.00  0.00    -0.284 C  
HETATM   24  O   UNL     1     -12.146  14.432  65.270  1.00  0.00    -0.378 OA 
HETATM   25  C   UNL     1     -10.478  17.839  66.311  1.00  0.00    -0.307 C  
HETATM   26  N   UNL     1      -9.443  17.901  67.353  1.00  0.00    -0.256 N  
HETATM   27  C   UNL     1      -9.416  16.739  68.242  1.00  0.00    -0.240 C  
HETATM   28  C   UNL     1      -8.652  19.036  67.457  1.00  0.00    -0.286 C  
HETATM   29  C   UNL     1      -9.356  15.423  67.455  1.00  0.00    -0.201 C  
HETATM   30  O   UNL     1      -8.749  19.982  66.682  1.00  0.00    -0.322 OA 
BRANCH  28  31
HETATM   31  C   UNL     1      -7.610  19.083  68.530  1.00  0.00    -0.364 C  
HETATM   32  C   UNL     1      -6.165  18.826  68.160  1.00  0.00    -0.213 C  
HETATM   33  C   UNL     1      -6.594  20.205  68.565  1.00  0.00    -0.337 C  
ENDBRANCH  28  31
ENDBRANCH  19  21
ENDBRANCH  13  14
ENDBRANCH   6  13
TORSDOF 4
ENDMDL
MODEL       66
REMARK 921   NORMALIZED FREE ENERGY PREDICTED BY IDOCK:   -6.99 KCAL/MOL
REMARK 922        TOTAL FREE ENERGY PREDICTED BY IDOCK:   -9.37 KCAL/MOL
REMARK 923 INTER-LIGAND FREE ENERGY PREDICTED BY IDOCK:   -8.57 KCAL/MOL
REMARK 924 INTRA-LIGAND FREE ENERGY PREDICTED BY IDOCK:   -0.80 KCAL/MOL
REMARK 927      BINDING AFFINITY PREDICTED BY RF-SCORE:    0.00 PKD
ROOT
HETATM    1  O   UNL     1      -9.786   2.511  67.567  1.00  0.00    -0.324 OA 
HETATM    2  C   UNL     1      -9.487   3.801  67.882  1.00  0.00    -0.170 A  
HETATM    3  H   UNL     1      -9.911   1.947  68.322  1.00  0.00     0.000 HD 
HETATM    4  N   UNL     1      -9.309   4.598  66.814  1.00  0.00    -0.136 NA 
HETATM    5  N   UNL     1      -8.996   5.902  67.013  1.00  0.00    -0.115 NA 
HETATM    6  C   UNL     1      -8.871   6.392  68.274  1.00  0.00    -0.115 A  
HETATM    7  C   UNL     1      -9.071   5.580  69.418  1.00  0.00    -0.134 A  
HETATM    8  C   UNL     1      -9.474   3.823  71.611  1.00  0.00    -0.213 A  
HETATM    9  C   UNL     1      -8.983   6.027  70.761  1.00  0.00    -0.153 A  
HETATM   10  C   UNL     1      -9.382   4.220  69.204  1.00  0.00    -0.229 A  
HETATM   11  C   UNL     1      -9.187   5.162  71.840  1.00  0.00    -0.160 A  
HETATM   12  C   UNL     1      -9.571   3.355  70.302  1.00  0.00    -0.215 A  
ENDROOT
BRANCH   6  13
HETATM   13  C   UNL     1      -8.484   7.848  68.420  1.00  0.00    -0.128 C  
BRANCH  13  14
HETATM   14  C   UNL     1      -9.591   8.881  68.342  1.00  0.00    -0.157 A  
HETATM   15  C   UNL     1     -11.441  10.983  68.313  1.00  0.00    -0.304 A  
HETATM   16  C   UNL     1     -10.459   9.074  69.425  1.00  0.00    -0.229 A  
HETATM   17  C   UNL     1      -9.736   9.697  67.204  1.00  0.00    -0.222 A  
HETATM   18  F   UNL     1     -12.245  12.051  68.405  1.00  0.00    -0.369 F  
HETATM   19  C   UNL     1     -10.684  10.740  67.170  1.00  0.00    -0.324 A  
HETATM   20  C   UNL     1     -11.371  10.129  69.413  1.00  0.00    -0.233 A  
BRANCH  19  21
HETATM   21  C   UNL     1     -10.731  11.586  65.949  1.00  0.00    -0.272 C  
HETATM   22  N   UNL     1     -10.395  12.941  65.966  1.00  0.00    -0.277 N  
HETATM   23  C   UNL     1     -10.493  13.706  64.710  1.00  0.00    -0.418 C  
HETATM   24  O   UNL     1     -11.150  11.037  64.927  1.00  0.00    -0.136 OA 
HETATM   25  C   UNL     1     -11.355  14.965  64.891  1.00  0.00    -0.413 C  
HETATM   26  N   UNL     1     -10.885  15.769  66.028  1.00  0.00    -0.294 N  
HETATM   27  C   UNL     1     -10.772  15.025  67.284  1.00  0.00    -0.298 C  
HETATM   28  C   UNL     1     -10.661  17.126  65.853  1.00  0.00    -0.215 C  
HETATM   29  C   UNL     1      -9.948  13.742  67.112  1.00  0.00    -0.243 C  
HETATM   30  O   UNL     1     -10.797  17.684  64.768  1.00  0.00    -0.762 OA 
BRANCH  28  31
HETATM   31  C   UNL     1     -10.191  17.930  67.025  1.00  0.00    -0.359 C  
HETATM   32  C   UNL     1      -9.308  19.134  66.781  1.00  0.00    -0.364 C  
HETATM   33  C   UNL     1     -10.716  19.330  67.256  1.00  0.00    -0.594 C  
ENDBRANCH  28  31
ENDBRANCH  19  21
ENDBRANCH  13  14
ENDBRANCH   6  13
TORSDOF 4
ENDMDL
MODEL       67
REMARK 921   NORMALIZED FREE ENERGY PREDICTED BY IDOCK:   -6.97 KCAL/MOL
REMARK 922        TOTAL FREE ENERGY PREDICTED BY IDOCK:   -9.35 KCAL/MOL
REMARK 923 INTER-LIGAND FREE ENERGY PREDICTED BY IDOCK:   -8.35 KCAL/MOL
REMARK 924 INTRA-LIGAND FREE ENERGY PREDICTED BY IDOCK:   -1.00 KCAL/MOL
REMARK 927      BINDING AFFINITY PREDICTED BY RF-SCORE:    0.00 PKD
ROOT
HETATM    1  O   UNL     1      -5.804  20.751  70.320  1.00  0.00    -0.514 OA 
HETATM    2  C   UNL     1      -6.070  19.715  69.477  1.00  0.00    -0.295 A  
HETATM    3  H   UNL     1      -5.682  21.585  69.882  1.00  0.00     0.000 HD 
HETATM    4  N   UNL     1      -6.242  18.535  70.097  1.00  0.00    -0.095 NA 
HETATM    5  N   UNL     1      -6.502  17.433  69.350  1.00  0.00    -0.244 NA 
HETATM    6  C   UNL     1      -6.592  17.527  67.999  1.00  0.00    -0.172 A  
HETATM    7  C   UNL     1      -6.436  18.761  67.320  1.00  0.00    -0.195 A  
HETATM    8  C   UNL     1      -6.070  21.299  66.101  1.00  0.00    -0.285 A  
HETATM    9  C   UNL     1      -6.544  18.941  65.917  1.00  0.00    -0.278 A  
HETATM   10  C   UNL     1      -6.151  19.902  68.101  1.00  0.00    -0.271 A  
HETATM   11  C   UNL     1      -6.368  20.192  65.319  1.00  0.00    -0.299 A  
HETATM   12  C   UNL     1      -5.963  21.155  67.483  1.00  0.00    -0.407 A  
ENDROOT
BRANCH   6  13
HETATM   13  C   UNL     1      -6.849  16.251  67.227  1.00  0.00    -0.230 C  
BRANCH  13  14
HETATM   14  C   UNL     1      -8.288  15.797  67.075  1.00  0.00    -0.259 A  
HETATM   15  C   UNL     1     -10.911  15.004  66.503  1.00  0.00    -0.327 A  
HETATM   16  C   UNL     1      -9.332  16.730  67.113  1.00  0.00    -0.236 A  
HETATM   17  C   UNL     1      -8.597  14.444  66.845  1.00  0.00    -0.191 A  
HETATM   18  F   UNL     1     -12.155  14.702  66.105  1.00  0.00    -0.370 F  
HETATM   19  C   UNL     1      -9.919  14.031  66.584  1.00  0.00    -0.280 A  
HETATM   20  C   UNL     1     -10.636  16.335  66.816  1.00  0.00    -0.257 A  
BRANCH  19  21
HETATM   21  C   UNL     1     -10.145  12.590  66.298  1.00  0.00    -0.250 C  
HETATM   22  N   UNL     1     -10.643  11.707  67.257  1.00  0.00    -0.219 N  
HETATM   23  C   UNL     1     -10.814  10.290  66.888  1.00  0.00    -0.135 C  
HETATM   24  O   UNL     1      -9.804  12.202  65.178  1.00  0.00    -0.247 OA 
HETATM   25  C   UNL     1     -10.100   9.365  67.886  1.00  0.00    -0.194 C  
HETATM   26  N   UNL     1     -10.508   9.660  69.267  1.00  0.00    -0.208 N  
HETATM   27  C   UNL     1     -10.354  11.064  69.651  1.00  0.00     0.043 C  
HETATM   28  C   UNL     1     -10.922   8.623  70.089  1.00  0.00    -0.226 C  
HETATM   29  C   UNL     1     -11.027  12.006  68.643  1.00  0.00    -0.240 C  
HETATM   30  O   UNL     1     -11.006   7.463  69.698  1.00  0.00    -0.238 OA 
BRANCH  28  31
HETATM   31  C   UNL     1     -11.325   8.943  71.494  1.00  0.00    -0.395 C  
HETATM   32  C   UNL     1     -12.794   8.939  71.854  1.00  0.00    -0.437 C  
HETATM   33  C   UNL     1     -11.895   7.868  72.393  1.00  0.00    -0.402 C  
ENDBRANCH  28  31
ENDBRANCH  19  21
ENDBRANCH  13  14
ENDBRANCH   6  13
TORSDOF 4
ENDMDL
MODEL       68
REMARK 921   NORMALIZED FREE ENERGY PREDICTED BY IDOCK:   -6.96 KCAL/MOL
REMARK 922        TOTAL FREE ENERGY PREDICTED BY IDOCK:   -9.34 KCAL/MOL
REMARK 923 INTER-LIGAND FREE ENERGY PREDICTED BY IDOCK:   -8.68 KCAL/MOL
REMARK 924 INTRA-LIGAND FREE ENERGY PREDICTED BY IDOCK:   -0.65 KCAL/MOL
REMARK 927      BINDING AFFINITY PREDICTED BY RF-SCORE:    0.00 PKD
ROOT
HETATM    1  O   UNL     1      -8.929   6.180  64.932  1.00  0.00    -0.364 OA 
HETATM    2  C   UNL     1      -9.002   6.816  66.134  1.00  0.00    -0.136 A  
HETATM    3  H   UNL     1      -8.881   6.767  64.186  1.00  0.00     0.000 HD 
HETATM    4  N   UNL     1      -9.071   5.987  67.189  1.00  0.00    -0.113 NA 
HETATM    5  N   UNL     1      -9.158   6.515  68.435  1.00  0.00    -0.124 NA 
HETATM    6  C   UNL     1      -9.168   7.862  68.608  1.00  0.00    -0.142 A  
HETATM    7  C   UNL     1      -9.077   8.760  67.517  1.00  0.00    -0.146 A  
HETATM    8  C   UNL     1      -8.917  10.432  65.229  1.00  0.00    -0.212 A  
HETATM    9  C   UNL     1      -9.055  10.174  67.623  1.00  0.00    -0.144 A  
HETATM   10  C   UNL     1      -9.002   8.205  66.222  1.00  0.00    -0.215 A  
HETATM   11  C   UNL     1      -8.971  10.997  66.496  1.00  0.00    -0.181 A  
HETATM   12  C   UNL     1      -8.932   9.046  65.092  1.00  0.00    -0.216 A  
ENDROOT
BRANCH   6  13
HETATM   13  C   UNL     1      -9.303   8.380  70.024  1.00  0.00    -0.159 C  
BRANCH  13  14
HETATM   14  C   UNL     1     -10.693   8.741  70.512  1.00  0.00    -0.259 A  
HETATM   15  C   UNL     1     -13.141   9.424  71.686  1.00  0.00    -0.394 A  
HETATM   16  C   UNL     1     -11.574   7.740  70.944  1.00  0.00    -0.289 A  
HETATM   17  C   UNL     1     -11.105  10.084  70.588  1.00  0.00    -0.408 A  
HETATM   18  F   UNL     1     -14.257   9.701  72.375  1.00  0.00    -0.372 F  
HETATM   19  C   UNL     1     -12.348  10.436  71.152  1.00  0.00    -0.505 A  
HETATM   20  C   UNL     1     -12.787   8.083  71.539  1.00  0.00    -0.331 A  
BRANCH  19  21
HETATM   21  C   UNL     1     -12.677  11.882  71.242  1.00  0.00    -0.298 C  
HETATM   22  N   UNL     1     -12.404  12.777  70.206  1.00  0.00    -0.253 N  
HETATM   23  C   UNL     1     -12.746  14.198  70.394  1.00  0.00    -0.279 C  
HETATM   24  O   UNL     1     -13.149  12.263  72.317  1.00  0.00    -0.396 OA 
HETATM   25  C   UNL     1     -11.534  15.103  70.126  1.00  0.00    -0.281 C  
HETATM   26  N   UNL     1     -10.940  14.816  68.813  1.00  0.00    -0.248 N  
HETATM   27  C   UNL     1     -10.601  13.408  68.602  1.00  0.00    -0.241 C  
HETATM   28  C   UNL     1     -10.691  15.862  67.938  1.00  0.00    -0.312 C  
HETATM   29  C   UNL     1     -11.789  12.485  68.905  1.00  0.00    -0.301 C  
HETATM   30  O   UNL     1     -10.988  17.025  68.196  1.00  0.00    -0.367 OA 
BRANCH  28  31
HETATM   31  C   UNL     1     -10.077  15.551  66.609  1.00  0.00    -0.275 C  
HETATM   32  C   UNL     1     -10.920  14.869  65.554  1.00  0.00    -0.355 C  
HETATM   33  C   UNL     1     -10.512  16.299  65.368  1.00  0.00    -0.365 C  
ENDBRANCH  28  31
ENDBRANCH  19  21
ENDBRANCH  13  14
ENDBRANCH   6  13
TORSDOF 4
ENDMDL
MODEL       69
REMARK 921   NORMALIZED FREE ENERGY PREDICTED BY IDOCK:   -6.95 KCAL/MOL
REMARK 922        TOTAL FREE ENERGY PREDICTED BY IDOCK:   -9.33 KCAL/MOL
REMARK 923 INTER-LIGAND FREE ENERGY PREDICTED BY IDOCK:   -8.89 KCAL/MOL
REMARK 924 INTRA-LIGAND FREE ENERGY PREDICTED BY IDOCK:   -0.44 KCAL/MOL
REMARK 927      BINDING AFFINITY PREDICTED BY RF-SCORE:    0.00 PKD
ROOT
HETATM    1  O   UNL     1     -11.298  13.279  65.578  1.00  0.00    -0.291 OA 
HETATM    2  C   UNL     1     -11.541  13.073  66.902  1.00  0.00    -0.366 A  
HETATM    3  H   UNL     1     -11.065  14.175  65.362  1.00  0.00     0.000 HD 
HETATM    4  N   UNL     1     -11.871  11.807  67.208  1.00  0.00    -0.624 NA 
HETATM    5  N   UNL     1     -12.145  11.493  68.498  1.00  0.00    -0.535 NA 
HETATM    6  C   UNL     1     -12.079  12.446  69.464  1.00  0.00    -0.189 A  
HETATM    7  C   UNL     1     -11.715  13.785  69.174  1.00  0.00    -0.379 A  
HETATM    8  C   UNL     1     -10.998  16.430  68.434  1.00  0.00    -0.353 A  
HETATM    9  C   UNL     1     -11.599  14.824  70.131  1.00  0.00    -0.338 A  
HETATM   10  C   UNL     1     -11.446  14.108  67.827  1.00  0.00    -0.352 A  
HETATM   11  C   UNL     1     -11.241  16.126  69.766  1.00  0.00    -0.343 A  
HETATM   12  C   UNL     1     -11.099  15.429  67.471  1.00  0.00    -0.315 A  
ENDROOT
BRANCH   6  13
HETATM   13  C   UNL     1     -12.432  12.032  70.876  1.00  0.00    -0.384 C  
BRANCH  13  14
HETATM   14  C   UNL     1     -12.229  10.578  71.255  1.00  0.00    -0.472 A  
HETATM   15  C   UNL     1     -11.969   7.825  71.689  1.00  0.00    -0.297 A  
HETATM   16  C   UNL     1     -13.251   9.864  71.896  1.00  0.00    -0.558 A  
HETATM   17  C   UNL     1     -11.037   9.907  70.928  1.00  0.00    -0.418 A  
HETATM   18  F   UNL     1     -11.950   6.489  71.796  1.00  0.00    -0.329 F  
HETATM   19  C   UNL     1     -10.886   8.527  71.169  1.00  0.00    -0.298 A  
HETATM   20  C   UNL     1     -13.124   8.491  72.100  1.00  0.00    -0.393 A  
BRANCH  19  21
HETATM   21  C   UNL     1      -9.613   7.889  70.742  1.00  0.00    -0.165 C  
HETATM   22  N   UNL     1      -9.072   8.081  69.470  1.00  0.00    -0.152 N  
HETATM   23  C   UNL     1      -7.816   7.389  69.128  1.00  0.00    -0.116 C  
HETATM   24  O   UNL     1      -9.093   7.123  71.557  1.00  0.00    -0.142 OA 
HETATM   25  C   UNL     1      -7.961   6.582  67.829  1.00  0.00    -0.115 C  
HETATM   26  N   UNL     1      -8.479   7.421  66.739  1.00  0.00    -0.121 N  
HETATM   27  C   UNL     1      -9.722   8.124  67.062  1.00  0.00    -0.212 C  
HETATM   28  C   UNL     1      -7.822   7.429  65.518  1.00  0.00    -0.115 C  
HETATM   29  C   UNL     1      -9.609   8.903  68.379  1.00  0.00    -0.146 C  
HETATM   30  O   UNL     1      -6.791   6.795  65.317  1.00  0.00    -0.049 OA 
BRANCH  28  31
HETATM   31  C   UNL     1      -8.371   8.283  64.418  1.00  0.00    -0.082 C  
HETATM   32  C   UNL     1      -7.734   9.629  64.148  1.00  0.00    -0.129 C  
HETATM   33  C   UNL     1      -7.571   8.517  63.155  1.00  0.00    -0.115 C  
ENDBRANCH  28  31
ENDBRANCH  19  21
ENDBRANCH  13  14
ENDBRANCH   6  13
TORSDOF 4
ENDMDL
MODEL       70
REMARK 921   NORMALIZED FREE ENERGY PREDICTED BY IDOCK:   -6.94 KCAL/MOL
REMARK 922        TOTAL FREE ENERGY PREDICTED BY IDOCK:   -9.30 KCAL/MOL
REMARK 923 INTER-LIGAND FREE ENERGY PREDICTED BY IDOCK:   -8.42 KCAL/MOL
REMARK 924 INTRA-LIGAND FREE ENERGY PREDICTED BY IDOCK:   -0.88 KCAL/MOL
REMARK 927      BINDING AFFINITY PREDICTED BY RF-SCORE:    0.00 PKD
ROOT
HETATM    1  O   UNL     1      -6.182  12.250  67.528  1.00  0.00    -0.107 OA 
HETATM    2  C   UNL     1      -6.990  11.298  68.073  1.00  0.00    -0.068 A  
HETATM    3  H   UNL     1      -6.356  12.425  66.610  1.00  0.00     0.000 HD 
HETATM    4  N   UNL     1      -6.744  11.049  69.370  1.00  0.00    -0.099 NA 
HETATM    5  N   UNL     1      -7.483  10.110  70.010  1.00  0.00    -0.167 NA 
HETATM    6  C   UNL     1      -8.461   9.439  69.347  1.00  0.00    -0.142 A  
HETATM    7  C   UNL     1      -8.755   9.695  67.985  1.00  0.00    -0.119 A  
HETATM    8  C   UNL     1      -9.210  10.297  65.249  1.00  0.00    -0.244 A  
HETATM    9  C   UNL     1      -9.776   9.055  67.237  1.00  0.00    -0.232 A  
HETATM   10  C   UNL     1      -7.972  10.662  67.321  1.00  0.00    -0.116 A  
HETATM   11  C   UNL     1     -10.002   9.356  65.891  1.00  0.00    -0.327 A  
HETATM   12  C   UNL     1      -8.202  10.946  65.958  1.00  0.00    -0.155 A  
ENDROOT
BRANCH   6  13
HETATM   13  C   UNL     1      -9.222   8.380  70.115  1.00  0.00    -0.159 C  
BRANCH  13  14
HETATM   14  C   UNL     1     -10.625   8.720  70.580  1.00  0.00    -0.258 A  
HETATM   15  C   UNL     1     -13.101   9.371  71.712  1.00  0.00    -0.409 A  
HETATM   16  C   UNL     1     -11.492   7.707  71.012  1.00  0.00    -0.294 A  
HETATM   17  C   UNL     1     -11.064  10.056  70.633  1.00  0.00    -0.408 A  
HETATM   18  F   UNL     1     -14.232   9.635  72.382  1.00  0.00    -0.372 F  
HETATM   19  C   UNL     1     -12.321  10.391  71.175  1.00  0.00    -0.505 A  
HETATM   20  C   UNL     1     -12.720   8.035  71.587  1.00  0.00    -0.347 A  
BRANCH  19  21
HETATM   21  C   UNL     1     -12.679  11.831  71.242  1.00  0.00    -0.316 C  
HETATM   22  N   UNL     1     -12.385  12.723  70.210  1.00  0.00    -0.253 N  
HETATM   23  C   UNL     1     -12.759  14.139  70.375  1.00  0.00    -0.279 C  
HETATM   24  O   UNL     1     -13.196  12.211  72.296  1.00  0.00    -0.460 OA 
HETATM   25  C   UNL     1     -11.554  15.064  70.143  1.00  0.00    -0.287 C  
HETATM   26  N   UNL     1     -10.909  14.779  68.854  1.00  0.00    -0.245 N  
HETATM   27  C   UNL     1     -10.537  13.376  68.667  1.00  0.00    -0.241 C  
HETATM   28  C   UNL     1     -10.647  15.823  67.980  1.00  0.00    -0.279 C  
HETATM   29  C   UNL     1     -11.718  12.433  68.934  1.00  0.00    -0.324 C  
HETATM   30  O   UNL     1     -10.973  16.982  68.218  1.00  0.00    -0.365 OA 
BRANCH  28  31
HETATM   31  C   UNL     1      -9.980  15.513  66.677  1.00  0.00    -0.272 C  
HETATM   32  C   UNL     1     -10.764  15.685  65.394  1.00  0.00    -0.424 C  
HETATM   33  C   UNL     1      -9.637  16.623  65.706  1.00  0.00    -0.151 C  
ENDBRANCH  28  31
ENDBRANCH  19  21
ENDBRANCH  13  14
ENDBRANCH   6  13
TORSDOF 4
ENDMDL
MODEL       71
REMARK 921   NORMALIZED FREE ENERGY PREDICTED BY IDOCK:   -6.93 KCAL/MOL
REMARK 922        TOTAL FREE ENERGY PREDICTED BY IDOCK:   -9.30 KCAL/MOL
REMARK 923 INTER-LIGAND FREE ENERGY PREDICTED BY IDOCK:   -8.36 KCAL/MOL
REMARK 924 INTRA-LIGAND FREE ENERGY PREDICTED BY IDOCK:   -0.94 KCAL/MOL
REMARK 927      BINDING AFFINITY PREDICTED BY RF-SCORE:    0.00 PKD
ROOT
HETATM    1  O   UNL     1      -9.050   8.600  64.507  1.00  0.00    -0.405 OA 
HETATM    2  C   UNL     1      -9.123   8.543  65.866  1.00  0.00    -0.183 A  
HETATM    3  H   UNL     1      -8.600   9.368  64.175  1.00  0.00     0.000 HD 
HETATM    4  N   UNL     1      -9.760   7.457  66.335  1.00  0.00    -0.141 NA 
HETATM    5  N   UNL     1      -9.899   7.306  67.676  1.00  0.00    -0.144 NA 
HETATM    6  C   UNL     1      -9.395   8.237  68.526  1.00  0.00    -0.138 A  
HETATM    7  C   UNL     1      -8.702   9.382  68.060  1.00  0.00    -0.124 A  
HETATM    8  C   UNL     1      -7.362  11.637  66.976  1.00  0.00    -0.143 A  
HETATM    9  C   UNL     1      -8.126  10.380  68.887  1.00  0.00    -0.129 A  
HETATM   10  C   UNL     1      -8.573   9.541  66.664  1.00  0.00    -0.141 A  
HETATM   11  C   UNL     1      -7.462  11.487  68.352  1.00  0.00    -0.109 A  
HETATM   12  C   UNL     1      -7.913  10.671  66.137  1.00  0.00    -0.151 A  
ENDROOT
BRANCH   6  13
HETATM   13  C   UNL     1      -9.618   8.021  70.007  1.00  0.00    -0.171 C  
BRANCH  13  14
HETATM   14  C   UNL     1     -10.955   8.441  70.586  1.00  0.00    -0.266 A  
HETATM   15  C   UNL     1     -13.288   9.228  71.919  1.00  0.00    -0.429 A  
HETATM   16  C   UNL     1     -11.849   7.478  71.074  1.00  0.00    -0.319 A  
HETATM   17  C   UNL     1     -11.301   9.801  70.690  1.00  0.00    -0.401 A  
HETATM   18  F   UNL     1     -14.343   9.551  72.680  1.00  0.00    -0.378 F  
HETATM   19  C   UNL     1     -12.488  10.205  71.334  1.00  0.00    -0.524 A  
HETATM   20  C   UNL     1     -13.005   7.873  71.748  1.00  0.00    -0.351 A  
BRANCH  19  21
HETATM   21  C   UNL     1     -12.746  11.664  71.447  1.00  0.00    -0.339 C  
HETATM   22  N   UNL     1     -12.498  12.550  70.397  1.00  0.00    -0.197 N  
HETATM   23  C   UNL     1     -12.764  13.984  70.609  1.00  0.00    -0.303 C  
HETATM   24  O   UNL     1     -13.133  12.061  72.549  1.00  0.00    -0.184 OA 
HETATM   25  C   UNL     1     -11.532  14.836  70.267  1.00  0.00    -0.260 C  
HETATM   26  N   UNL     1     -11.034  14.528  68.919  1.00  0.00    -0.247 N  
HETATM   27  C   UNL     1     -10.771  13.108  68.685  1.00  0.00    -0.250 C  
HETATM   28  C   UNL     1     -10.793  15.566  68.031  1.00  0.00    -0.300 C  
HETATM   29  C   UNL     1     -11.978  12.237  69.060  1.00  0.00    -0.248 C  
HETATM   30  O   UNL     1     -11.021  16.740  68.309  1.00  0.00    -0.361 OA 
BRANCH  28  31
HETATM   31  C   UNL     1     -10.277  15.234  66.667  1.00  0.00    -0.275 C  
HETATM   32  C   UNL     1     -10.176  16.334  65.633  1.00  0.00    -0.368 C  
HETATM   33  C   UNL     1      -8.926  15.742  66.211  1.00  0.00    -0.381 C  
ENDBRANCH  28  31
ENDBRANCH  19  21
ENDBRANCH  13  14
ENDBRANCH   6  13
TORSDOF 4
ENDMDL
MODEL       72
REMARK 921   NORMALIZED FREE ENERGY PREDICTED BY IDOCK:   -6.92 KCAL/MOL
REMARK 922        TOTAL FREE ENERGY PREDICTED BY IDOCK:   -9.29 KCAL/MOL
REMARK 923 INTER-LIGAND FREE ENERGY PREDICTED BY IDOCK:   -8.37 KCAL/MOL
REMARK 924 INTRA-LIGAND FREE ENERGY PREDICTED BY IDOCK:   -0.92 KCAL/MOL
REMARK 927      BINDING AFFINITY PREDICTED BY RF-SCORE:    0.00 PKD
ROOT
HETATM    1  O   UNL     1      -5.153  15.048  72.343  1.00  0.00    -0.185 OA 
HETATM    2  C   UNL     1      -5.368  15.687  71.159  1.00  0.00    -0.031 A  
HETATM    3  H   UNL     1      -5.278  14.107  72.303  1.00  0.00     0.000 HD 
HETATM    4  N   UNL     1      -5.193  17.018  71.216  1.00  0.00    -0.274 NA 
HETATM    5  N   UNL     1      -5.392  17.754  70.094  1.00  0.00    -0.219 NA 
HETATM    6  C   UNL     1      -5.755  17.150  68.934  1.00  0.00    -0.149 A  
HETATM    7  C   UNL     1      -5.928  15.747  68.840  1.00  0.00    -0.108 A  
HETATM    8  C   UNL     1      -6.262  12.928  68.814  1.00  0.00    -0.076 A  
HETATM    9  C   UNL     1      -6.279  15.045  67.658  1.00  0.00    -0.134 A  
HETATM   10  C   UNL     1      -5.734  14.988  70.013  1.00  0.00    -0.128 A  
HETATM   11  C   UNL     1      -6.438  13.656  67.646  1.00  0.00    -0.164 A  
HETATM   12  C   UNL     1      -5.912  13.589  69.990  1.00  0.00    -0.143 A  
ENDROOT
BRANCH   6  13
HETATM   13  C   UNL     1      -5.994  18.038  67.731  1.00  0.00    -0.157 C  
BRANCH  13  14
HETATM   14  C   UNL     1      -7.426  18.421  67.413  1.00  0.00    -0.221 A  
HETATM   15  C   UNL     1      -9.977  19.184  66.548  1.00  0.00    -0.383 A  
HETATM   16  C   UNL     1      -7.852  19.749  67.551  1.00  0.00    -0.317 A  
HETATM   17  C   UNL     1      -8.338  17.466  66.927  1.00  0.00    -0.260 A  
HETATM   18  F   UNL     1     -11.131  19.624  66.026  1.00  0.00    -0.463 F  
HETATM   19  C   UNL     1      -9.634  17.836  66.516  1.00  0.00    -0.315 A  
HETATM   20  C   UNL     1      -9.119  20.129  67.109  1.00  0.00    -0.489 A  
BRANCH  19  21
HETATM   21  C   UNL     1     -10.511  16.770  65.964  1.00  0.00    -0.293 C  
HETATM   22  N   UNL     1     -10.850  15.630  66.693  1.00  0.00    -0.299 N  
HETATM   23  C   UNL     1     -11.708  14.615  66.055  1.00  0.00    -0.306 C  
HETATM   24  O   UNL     1     -10.871  16.920  64.793  1.00  0.00    -0.787 OA 
HETATM   25  C   UNL     1     -11.065  13.221  66.120  1.00  0.00    -0.285 C  
HETATM   26  N   UNL     1     -10.683  12.878  67.497  1.00  0.00    -0.225 N  
HETATM   27  C   UNL     1      -9.838  13.878  68.152  1.00  0.00    -0.240 C  
HETATM   28  C   UNL     1     -11.075  11.658  68.026  1.00  0.00    -0.242 C  
HETATM   29  C   UNL     1     -10.445  15.284  68.062  1.00  0.00    -0.248 C  
HETATM   30  O   UNL     1     -11.770  10.861  67.403  1.00  0.00    -0.510 OA 
BRANCH  28  31
HETATM   31  C   UNL     1     -10.668  11.323  69.426  1.00  0.00    -0.188 C  
HETATM   32  C   UNL     1     -10.979   9.945  69.970  1.00  0.00    -0.338 C  
HETATM   33  C   UNL     1      -9.558  10.329  69.687  1.00  0.00    -0.192 C  
ENDBRANCH  28  31
ENDBRANCH  19  21
ENDBRANCH  13  14
ENDBRANCH   6  13
TORSDOF 4
ENDMDL
MODEL       73
REMARK 921   NORMALIZED FREE ENERGY PREDICTED BY IDOCK:   -6.91 KCAL/MOL
REMARK 922        TOTAL FREE ENERGY PREDICTED BY IDOCK:   -9.28 KCAL/MOL
REMARK 923 INTER-LIGAND FREE ENERGY PREDICTED BY IDOCK:   -8.48 KCAL/MOL
REMARK 924 INTRA-LIGAND FREE ENERGY PREDICTED BY IDOCK:   -0.80 KCAL/MOL
REMARK 927      BINDING AFFINITY PREDICTED BY RF-SCORE:    0.00 PKD
ROOT
HETATM    1  O   UNL     1      -7.326  20.945  65.503  1.00  0.00    -0.456 OA 
HETATM    2  C   UNL     1      -7.488  19.663  65.932  1.00  0.00    -0.316 A  
HETATM    3  H   UNL     1      -7.873  21.577  65.955  1.00  0.00     0.000 HD 
HETATM    4  N   UNL     1      -6.714  18.770  65.293  1.00  0.00    -0.500 NA 
HETATM    5  N   UNL     1      -6.803  17.460  65.634  1.00  0.00    -0.101 NA 
HETATM    6  C   UNL     1      -7.658  17.064  66.612  1.00  0.00    -0.263 A  
HETATM    7  C   UNL     1      -8.471  17.986  67.317  1.00  0.00    -0.237 A  
HETATM    8  C   UNL     1     -10.058  19.946  68.619  1.00  0.00    -0.518 A  
HETATM    9  C   UNL     1      -9.365  17.650  68.365  1.00  0.00    -0.289 A  
HETATM   10  C   UNL     1      -8.385  19.345  66.947  1.00  0.00    -0.308 A  
HETATM   11  C   UNL     1     -10.142  18.617  69.010  1.00  0.00    -0.289 A  
HETATM   12  C   UNL     1      -9.185  20.309  67.595  1.00  0.00    -0.449 A  
ENDROOT
BRANCH   6  13
HETATM   13  C   UNL     1      -7.730  15.583  66.916  1.00  0.00    -0.200 C  
BRANCH  13  14
HETATM   14  C   UNL     1      -8.997  14.846  66.527  1.00  0.00    -0.288 A  
HETATM   15  C   UNL     1     -11.171  13.339  65.610  1.00  0.00    -0.285 A  
HETATM   16  C   UNL     1      -9.819  15.340  65.505  1.00  0.00    -0.362 A  
HETATM   17  C   UNL     1      -9.344  13.632  67.147  1.00  0.00    -0.240 A  
HETATM   18  F   UNL     1     -12.135  12.598  65.046  1.00  0.00    -0.384 F  
HETATM   19  C   UNL     1     -10.454  12.880  66.711  1.00  0.00    -0.262 A  
HETATM   20  C   UNL     1     -10.894  14.582  65.042  1.00  0.00    -0.425 A  
BRANCH  19  21
HETATM   21  C   UNL     1     -10.714  11.582  67.387  1.00  0.00    -0.232 C  
HETATM   22  N   UNL     1      -9.961  10.437  67.123  1.00  0.00    -0.187 N  
HETATM   23  C   UNL     1     -10.307   9.189  67.826  1.00  0.00    -0.245 C  
HETATM   24  O   UNL     1     -11.682  11.557  68.152  1.00  0.00    -0.426 OA 
HETATM   25  C   UNL     1     -10.525   8.035  66.836  1.00  0.00    -0.317 C  
HETATM   26  N   UNL     1      -9.379   7.893  65.927  1.00  0.00    -0.061 N  
HETATM   27  C   UNL     1      -9.014   9.124  65.225  1.00  0.00    -0.198 C  
HETATM   28  C   UNL     1      -8.799   6.645  65.756  1.00  0.00    -0.077 C  
HETATM   29  C   UNL     1      -8.831  10.299  66.195  1.00  0.00    -0.151 C  
HETATM   30  O   UNL     1      -9.177   5.651  66.369  1.00  0.00    -0.143 OA 
BRANCH  28  31
HETATM   31  C   UNL     1      -7.639   6.519  64.819  1.00  0.00    -0.099 C  
HETATM   32  C   UNL     1      -7.341   5.171  64.200  1.00  0.00    -0.056 C  
HETATM   33  C   UNL     1      -7.867   6.282  63.342  1.00  0.00    -0.110 C  
ENDBRANCH  28  31
ENDBRANCH  19  21
ENDBRANCH  13  14
ENDBRANCH   6  13
TORSDOF 4
ENDMDL
MODEL       74
REMARK 921   NORMALIZED FREE ENERGY PREDICTED BY IDOCK:   -6.89 KCAL/MOL
REMARK 922        TOTAL FREE ENERGY PREDICTED BY IDOCK:   -9.25 KCAL/MOL
REMARK 923 INTER-LIGAND FREE ENERGY PREDICTED BY IDOCK:   -8.55 KCAL/MOL
REMARK 924 INTRA-LIGAND FREE ENERGY PREDICTED BY IDOCK:   -0.70 KCAL/MOL
REMARK 927      BINDING AFFINITY PREDICTED BY RF-SCORE:    0.00 PKD
ROOT
HETATM    1  O   UNL     1     -10.314  20.133  69.367  1.00  0.00    -0.557 OA 
HETATM    2  C   UNL     1      -9.992  19.124  68.511  1.00  0.00    -0.425 A  
HETATM    3  H   UNL     1      -9.757  20.898  69.290  1.00  0.00     0.000 HD 
HETATM    4  N   UNL     1     -10.779  18.040  68.619  1.00  0.00    -0.082 NA 
HETATM    5  N   UNL     1     -10.539  16.972  67.820  1.00  0.00    -0.352 NA 
HETATM    6  C   UNL     1      -9.521  17.004  66.921  1.00  0.00    -0.257 A  
HETATM    7  C   UNL     1      -8.688  18.140  66.771  1.00  0.00    -0.275 A  
HETATM    8  C   UNL     1      -7.086  20.477  66.605  1.00  0.00    -0.313 A  
HETATM    9  C   UNL     1      -7.627  18.255  65.837  1.00  0.00    -0.164 A  
HETATM   10  C   UNL     1      -8.933  19.243  67.615  1.00  0.00    -0.346 A  
HETATM   11  C   UNL     1      -6.841  19.409  65.753  1.00  0.00    -0.301 A  
HETATM   12  C   UNL     1      -8.124  20.395  67.530  1.00  0.00    -0.331 A  
ENDROOT
BRANCH   6  13
HETATM   13  C   UNL     1      -9.289  15.762  66.087  1.00  0.00    -0.381 C  
BRANCH  13  14
HETATM   14  C   UNL     1      -8.571  14.598  66.742  1.00  0.00    -0.195 A  
HETATM   15  C   UNL     1      -7.426  12.488  68.182  1.00  0.00    -0.117 A  
HETATM   16  C   UNL     1      -7.456  14.824  67.560  1.00  0.00    -0.221 A  
HETATM   17  C   UNL     1      -9.037  13.280  66.581  1.00  0.00    -0.181 A  
HETATM   18  F   UNL     1      -6.931  11.543  68.994  1.00  0.00    -0.080 F  
HETATM   19  C   UNL     1      -8.449  12.207  67.281  1.00  0.00    -0.178 A  
HETATM   20  C   UNL     1      -6.895  13.773  68.286  1.00  0.00    -0.109 A  
BRANCH  19  21
HETATM   21  C   UNL     1      -9.041  10.857  67.093  1.00  0.00    -0.145 C  
HETATM   22  N   UNL     1     -10.002  10.336  67.960  1.00  0.00    -0.150 N  
HETATM   23  C   UNL     1     -10.516   8.978  67.707  1.00  0.00    -0.245 C  
HETATM   24  O   UNL     1      -8.584  10.192  66.160  1.00  0.00    -0.134 OA 
HETATM   25  C   UNL     1     -10.386   8.092  68.955  1.00  0.00    -0.209 C  
HETATM   26  N   UNL     1     -10.995   8.735  70.127  1.00  0.00    -0.238 N  
HETATM   27  C   UNL     1     -10.505  10.089  70.391  1.00  0.00    -0.240 C  
HETATM   28  C   UNL     1     -11.896   8.021  70.903  1.00  0.00    -0.224 C  
HETATM   29  C   UNL     1     -10.589  10.978  69.143  1.00  0.00    -0.219 C  
HETATM   30  O   UNL     1     -12.244   6.877  70.626  1.00  0.00    -0.365 OA 
BRANCH  28  31
HETATM   31  C   UNL     1     -12.498   8.691  72.098  1.00  0.00    -0.453 C  
HETATM   32  C   UNL     1     -13.251   9.989  71.908  1.00  0.00    -0.557 C  
HETATM   33  C   UNL     1     -14.000   8.742  72.273  1.00  0.00    -0.511 C  
ENDBRANCH  28  31
ENDBRANCH  19  21
ENDBRANCH  13  14
ENDBRANCH   6  13
TORSDOF 4
ENDMDL
MODEL       75
REMARK 921   NORMALIZED FREE ENERGY PREDICTED BY IDOCK:   -6.88 KCAL/MOL
REMARK 922        TOTAL FREE ENERGY PREDICTED BY IDOCK:   -9.24 KCAL/MOL
REMARK 923 INTER-LIGAND FREE ENERGY PREDICTED BY IDOCK:   -8.40 KCAL/MOL
REMARK 924 INTRA-LIGAND FREE ENERGY PREDICTED BY IDOCK:   -0.84 KCAL/MOL
REMARK 927      BINDING AFFINITY PREDICTED BY RF-SCORE:    0.00 PKD
ROOT
HETATM    1  O   UNL     1     -12.187  14.226  63.332  1.00  0.00    -1.038 OA 
HETATM    2  C   UNL     1     -11.790  15.024  64.362  1.00  0.00    -0.339 A  
HETATM    3  H   UNL     1     -12.415  13.342  63.593  1.00  0.00     0.000 HD 
HETATM    4  N   UNL     1     -11.466  16.275  63.993  1.00  0.00    -0.984 NA 
HETATM    5  N   UNL     1     -11.047  17.151  64.938  1.00  0.00    -0.792 NA 
HETATM    6  C   UNL     1     -10.963  16.767  66.239  1.00  0.00     0.149 A  
HETATM    7  C   UNL     1     -11.317  15.462  66.660  1.00  0.00    -0.103 A  
HETATM    8  C   UNL     1     -12.033  12.802  67.347  1.00  0.00    -0.335 A  
HETATM    9  C   UNL     1     -11.281  14.999  68.000  1.00  0.00    -0.324 A  
HETATM   10  C   UNL     1     -11.738  14.550  65.669  1.00  0.00    -0.335 A  
HETATM   11  C   UNL     1     -11.639  13.691  68.338  1.00  0.00    -0.377 A  
HETATM   12  C   UNL     1     -12.083  13.228  66.022  1.00  0.00    -0.491 A  
ENDROOT
BRANCH   6  13
HETATM   13  C   UNL     1     -10.454  17.787  67.234  1.00  0.00    -0.356 C  
BRANCH  13  14
HETATM   14  C   UNL     1      -9.010  17.671  67.685  1.00  0.00    -0.240 A  
HETATM   15  C   UNL     1      -6.440  17.536  68.787  1.00  0.00    -0.207 A  
HETATM   16  C   UNL     1      -8.161  18.784  67.635  1.00  0.00    -0.270 A  
HETATM   17  C   UNL     1      -8.513  16.462  68.206  1.00  0.00    -0.195 A  
HETATM   18  F   UNL     1      -5.258  17.564  69.419  1.00  0.00    -0.157 F  
HETATM   19  C   UNL     1      -7.210  16.377  68.737  1.00  0.00    -0.191 A  
HETATM   20  C   UNL     1      -6.885  18.718  68.195  1.00  0.00    -0.254 A  
BRANCH  19  21
HETATM   21  C   UNL     1      -6.787  15.076  69.316  1.00  0.00    -0.149 C  
HETATM   22  N   UNL     1      -6.840  13.883  68.593  1.00  0.00    -0.094 N  
HETATM   23  C   UNL     1      -6.420  12.637  69.259  1.00  0.00    -0.106 C  
HETATM   24  O   UNL     1      -6.446  15.098  70.502  1.00  0.00    -0.061 OA 
HETATM   25  C   UNL     1      -7.509  11.558  69.157  1.00  0.00    -0.025 C  
HETATM   26  N   UNL     1      -7.929  11.360  67.762  1.00  0.00    -0.114 N  
HETATM   27  C   UNL     1      -8.342  12.588  67.080  1.00  0.00    -0.179 C  
HETATM   28  C   UNL     1      -7.970  10.076  67.241  1.00  0.00    -0.106 C  
HETATM   29  C   UNL     1      -7.284  13.692  67.207  1.00  0.00     0.026 C  
HETATM   30  O   UNL     1      -7.625   9.090  67.885  1.00  0.00    -0.091 OA 
BRANCH  28  31
HETATM   31  C   UNL     1      -8.410   9.895  65.822  1.00  0.00    -0.131 C  
HETATM   32  C   UNL     1      -8.976   8.558  65.396  1.00  0.00    -0.150 C  
HETATM   33  C   UNL     1      -9.878   9.752  65.485  1.00  0.00    -0.378 C  
ENDBRANCH  28  31
ENDBRANCH  19  21
ENDBRANCH  13  14
ENDBRANCH   6  13
TORSDOF 4
ENDMDL
MODEL       76
REMARK 921   NORMALIZED FREE ENERGY PREDICTED BY IDOCK:   -6.87 KCAL/MOL
REMARK 922        TOTAL FREE ENERGY PREDICTED BY IDOCK:   -9.23 KCAL/MOL
REMARK 923 INTER-LIGAND FREE ENERGY PREDICTED BY IDOCK:   -8.33 KCAL/MOL
REMARK 924 INTRA-LIGAND FREE ENERGY PREDICTED BY IDOCK:   -0.90 KCAL/MOL
REMARK 927      BINDING AFFINITY PREDICTED BY RF-SCORE:    0.00 PKD
ROOT
HETATM    1  O   UNL     1     -10.155  16.551  69.474  1.00  0.00    -0.237 OA 
HETATM    2  C   UNL     1     -10.751  15.331  69.569  1.00  0.00    -0.265 A  
HETATM    3  H   UNL     1     -10.385  17.150  70.174  1.00  0.00     0.000 HD 
HETATM    4  N   UNL     1     -10.426  14.484  68.578  1.00  0.00    -0.243 NA 
HETATM    5  N   UNL     1     -10.972  13.242  68.569  1.00  0.00    -0.256 NA 
HETATM    6  C   UNL     1     -11.829  12.865  69.553  1.00  0.00    -0.320 A  
HETATM    7  C   UNL     1     -12.174  13.729  70.621  1.00  0.00    -0.434 A  
HETATM    8  C   UNL     1     -12.792  15.583  72.680  1.00  0.00    -0.524 A  
HETATM    9  C   UNL     1     -13.038  13.395  71.694  1.00  0.00    -0.463 A  
HETATM   10  C   UNL     1     -11.614  15.024  70.616  1.00  0.00    -0.358 A  
HETATM   11  C   UNL     1     -13.338  14.307  72.711  1.00  0.00    -0.621 A  
HETATM   12  C   UNL     1     -11.936  15.940  71.640  1.00  0.00    -0.553 A  
ENDROOT
BRANCH   6  13
HETATM   13  C   UNL     1     -12.428  11.478  69.459  1.00  0.00    -0.060 C  
BRANCH  13  14
HETATM   14  C   UNL     1     -11.707  10.350  70.171  1.00  0.00    -0.394 A  
HETATM   15  C   UNL     1     -10.554   8.081  71.338  1.00  0.00    -0.216 A  
HETATM   16  C   UNL     1     -12.183   9.867  71.397  1.00  0.00    -0.499 A  
HETATM   17  C   UNL     1     -10.580   9.736  69.593  1.00  0.00    -0.260 A  
HETATM   18  F   UNL     1     -10.128   6.925  71.866  1.00  0.00    -0.183 F  
HETATM   19  C   UNL     1      -9.975   8.611  70.188  1.00  0.00    -0.193 A  
HETATM   20  C   UNL     1     -11.614   8.730  71.971  1.00  0.00    -0.436 A  
BRANCH  19  21
HETATM   21  C   UNL     1      -8.824   7.994  69.480  1.00  0.00    -0.144 C  
HETATM   22  N   UNL     1      -8.970   7.305  68.275  1.00  0.00    -0.126 N  
HETATM   23  C   UNL     1      -7.773   6.707  67.657  1.00  0.00    -0.107 C  
HETATM   24  O   UNL     1      -7.734   8.067  70.054  1.00  0.00    -0.084 OA 
HETATM   25  C   UNL     1      -7.988   5.215  67.358  1.00  0.00    -0.100 C  
HETATM   26  N   UNL     1      -9.215   5.003  66.577  1.00  0.00    -0.130 N  
HETATM   27  C   UNL     1     -10.414   5.597  67.169  1.00  0.00    -0.270 C  
HETATM   28  C   UNL     1      -9.162   4.231  65.426  1.00  0.00    -0.152 C  
HETATM   29  C   UNL     1     -10.204   7.078  67.513  1.00  0.00    -0.199 C  
HETATM   30  O   UNL     1      -8.116   3.748  65.001  1.00  0.00    -0.092 OA 
BRANCH  28  31
HETATM   31  C   UNL     1     -10.423   4.019  64.649  1.00  0.00    -0.208 C  
HETATM   32  C   UNL     1     -10.389   4.160  63.143  1.00  0.00    -0.067 C  
HETATM   33  C   UNL     1     -10.582   2.807  63.758  1.00  0.00    -0.136 C  
ENDBRANCH  28  31
ENDBRANCH  19  21
ENDBRANCH  13  14
ENDBRANCH   6  13
TORSDOF 4
ENDMDL
MODEL       77
REMARK 921   NORMALIZED FREE ENERGY PREDICTED BY IDOCK:   -6.86 KCAL/MOL
REMARK 922        TOTAL FREE ENERGY PREDICTED BY IDOCK:   -9.22 KCAL/MOL
REMARK 923 INTER-LIGAND FREE ENERGY PREDICTED BY IDOCK:   -8.06 KCAL/MOL
REMARK 924 INTRA-LIGAND FREE ENERGY PREDICTED BY IDOCK:   -1.16 KCAL/MOL
REMARK 927      BINDING AFFINITY PREDICTED BY RF-SCORE:    0.00 PKD
ROOT
HETATM    1  O   UNL     1     -10.322   4.959  66.015  1.00  0.00    -0.252 OA 
HETATM    2  C   UNL     1     -10.114   5.907  66.970  1.00  0.00    -0.183 A  
HETATM    3  H   UNL     1      -9.697   4.985  65.300  1.00  0.00     0.000 HD 
HETATM    4  N   UNL     1     -10.998   5.871  67.980  1.00  0.00    -0.242 NA 
HETATM    5  N   UNL     1     -10.890   6.779  68.982  1.00  0.00    -0.249 NA 
HETATM    6  C   UNL     1      -9.896   7.705  68.961  1.00  0.00    -0.168 A  
HETATM    7  C   UNL     1      -8.938   7.755  67.919  1.00  0.00    -0.125 A  
HETATM    8  C   UNL     1      -7.108   7.747  65.748  1.00  0.00    -0.061 A  
HETATM    9  C   UNL     1      -7.860   8.673  67.845  1.00  0.00    -0.103 A  
HETATM   10  C   UNL     1      -9.065   6.817  66.873  1.00  0.00    -0.148 A  
HETATM   11  C   UNL     1      -6.956   8.665  66.778  1.00  0.00    -0.077 A  
HETATM   12  C   UNL     1      -8.155   6.829  65.795  1.00  0.00    -0.123 A  
ENDROOT
BRANCH   6  13
HETATM   13  C   UNL     1      -9.857   8.709  70.093  1.00  0.00    -0.191 C  
BRANCH  13  14
HETATM   14  C   UNL     1     -10.751   9.929  69.983  1.00  0.00    -0.338 A  
HETATM   15  C   UNL     1     -12.171  12.340  69.879  1.00  0.00    -0.163 A  
HETATM   16  C   UNL     1     -11.525  10.341  71.076  1.00  0.00    -0.386 A  
HETATM   17  C   UNL     1     -10.783  10.696  68.804  1.00  0.00    -0.249 A  
HETATM   18  F   UNL     1     -12.754  13.545  69.929  1.00  0.00    -0.276 F  
HETATM   19  C   UNL     1     -11.518  11.897  68.732  1.00  0.00    -0.347 A  
HETATM   20  C   UNL     1     -12.222  11.548  71.026  1.00  0.00    -0.368 A  
BRANCH  19  21
HETATM   21  C   UNL     1     -11.450  12.670  67.466  1.00  0.00    -0.340 C  
HETATM   22  N   UNL     1     -10.570  13.738  67.288  1.00  0.00    -0.273 N  
HETATM   23  C   UNL     1     -10.589  14.461  66.004  1.00  0.00    -0.302 C  
HETATM   24  O   UNL     1     -12.267  12.356  66.597  1.00  0.00    -0.562 OA 
HETATM   25  C   UNL     1     -10.767  15.972  66.219  1.00  0.00    -0.234 C  
HETATM   26  N   UNL     1      -9.771  16.494  67.165  1.00  0.00    -0.240 N  
HETATM   27  C   UNL     1      -9.730  15.784  68.444  1.00  0.00    -0.203 C  
HETATM   28  C   UNL     1      -9.028  17.612  66.821  1.00  0.00    -0.257 C  
HETATM   29  C   UNL     1      -9.593  14.268  68.249  1.00  0.00    -0.221 C  
HETATM   30  O   UNL     1      -9.135  18.167  65.731  1.00  0.00    -0.466 OA 
BRANCH  28  31
HETATM   31  C   UNL     1      -8.026  18.134  67.802  1.00  0.00    -0.238 C  
HETATM   32  C   UNL     1      -7.443  19.514  67.590  1.00  0.00    -0.291 C  
HETATM   33  C   UNL     1      -8.382  19.272  68.733  1.00  0.00    -0.386 C  
ENDBRANCH  28  31
ENDBRANCH  19  21
ENDBRANCH  13  14
ENDBRANCH   6  13
TORSDOF 4
ENDMDL
MODEL       78
REMARK 921   NORMALIZED FREE ENERGY PREDICTED BY IDOCK:   -6.85 KCAL/MOL
REMARK 922        TOTAL FREE ENERGY PREDICTED BY IDOCK:   -9.20 KCAL/MOL
REMARK 923 INTER-LIGAND FREE ENERGY PREDICTED BY IDOCK:   -8.55 KCAL/MOL
REMARK 924 INTRA-LIGAND FREE ENERGY PREDICTED BY IDOCK:   -0.65 KCAL/MOL
REMARK 927      BINDING AFFINITY PREDICTED BY RF-SCORE:    0.00 PKD
ROOT
HETATM    1  O   UNL     1     -14.374   9.100  72.831  1.00  0.00    -1.006 OA 
HETATM    2  C   UNL     1     -13.172   9.121  72.192  1.00  0.00    -0.458 A  
HETATM    3  H   UNL     1     -14.617   8.246  73.170  1.00  0.00     0.000 HD 
HETATM    4  N   UNL     1     -12.828  10.328  71.713  1.00  0.00    -0.443 NA 
HETATM    5  N   UNL     1     -11.653  10.461  71.049  1.00  0.00    -0.337 NA 
HETATM    6  C   UNL     1     -10.838   9.388  70.878  1.00  0.00    -0.322 A  
HETATM    7  C   UNL     1     -11.166   8.108  71.389  1.00  0.00    -0.297 A  
HETATM    8  C   UNL     1     -11.971   5.600  72.445  1.00  0.00    -0.105 A  
HETATM    9  C   UNL     1     -10.354   6.951  71.273  1.00  0.00    -0.221 A  
HETATM   10  C   UNL     1     -12.396   7.973  72.066  1.00  0.00    -0.366 A  
HETATM   11  C   UNL     1     -10.749   5.717  71.798  1.00  0.00    -0.305 A  
HETATM   12  C   UNL     1     -12.789   6.719  72.579  1.00  0.00     0.378 A  
ENDROOT
BRANCH   6  13
HETATM   13  C   UNL     1      -9.560   9.602  70.095  1.00  0.00    -0.300 C  
BRANCH  13  14
HETATM   14  C   UNL     1      -9.633  10.462  68.849  1.00  0.00    -0.197 A  
HETATM   15  C   UNL     1      -9.929  12.242  66.708  1.00  0.00    -0.205 A  
HETATM   16  C   UNL     1     -10.692  10.309  67.944  1.00  0.00    -0.310 A  
HETATM   17  C   UNL     1      -8.671  11.459  68.603  1.00  0.00    -0.121 A  
HETATM   18  F   UNL     1     -10.190  13.146  65.753  1.00  0.00    -0.268 F  
HETATM   19  C   UNL     1      -8.797  12.342  67.511  1.00  0.00    -0.182 A  
HETATM   20  C   UNL     1     -10.844  11.205  66.885  1.00  0.00    -0.333 A  
BRANCH  19  21
HETATM   21  C   UNL     1      -7.764  13.399  67.360  1.00  0.00    -0.137 C  
HETATM   22  N   UNL     1      -8.042  14.751  67.568  1.00  0.00    -0.167 N  
HETATM   23  C   UNL     1      -6.958  15.731  67.373  1.00  0.00    -0.202 C  
HETATM   24  O   UNL     1      -6.655  13.020  66.973  1.00  0.00    -0.133 OA 
HETATM   25  C   UNL     1      -7.382  16.843  66.401  1.00  0.00    -0.267 C  
HETATM   26  N   UNL     1      -8.652  17.454  66.817  1.00  0.00    -0.248 N  
HETATM   27  C   UNL     1      -9.739  16.497  67.025  1.00  0.00    -0.250 C  
HETATM   28  C   UNL     1      -8.743  18.835  66.909  1.00  0.00    -0.293 C  
HETATM   29  C   UNL     1      -9.321  15.356  67.962  1.00  0.00    -0.196 C  
HETATM   30  O   UNL     1      -7.787  19.576  66.699  1.00  0.00    -0.257 OA 
BRANCH  28  31
HETATM   31  C   UNL     1     -10.047  19.439  67.326  1.00  0.00    -0.497 C  
HETATM   32  C   UNL     1     -10.213  19.910  68.754  1.00  0.00    -0.451 C  
HETATM   33  C   UNL     1     -10.143  20.915  67.644  1.00  0.00    -0.057 C  
ENDBRANCH  28  31
ENDBRANCH  19  21
ENDBRANCH  13  14
ENDBRANCH   6  13
TORSDOF 4
ENDMDL
MODEL       79
REMARK 921   NORMALIZED FREE ENERGY PREDICTED BY IDOCK:   -6.85 KCAL/MOL
REMARK 922        TOTAL FREE ENERGY PREDICTED BY IDOCK:   -9.20 KCAL/MOL
REMARK 923 INTER-LIGAND FREE ENERGY PREDICTED BY IDOCK:   -8.39 KCAL/MOL
REMARK 924 INTRA-LIGAND FREE ENERGY PREDICTED BY IDOCK:   -0.81 KCAL/MOL
REMARK 927      BINDING AFFINITY PREDICTED BY RF-SCORE:    0.00 PKD
ROOT
HETATM    1  O   UNL     1     -11.392  12.590  65.900  1.00  0.00    -0.308 OA 
HETATM    2  C   UNL     1     -11.654  12.394  67.222  1.00  0.00    -0.365 A  
HETATM    3  H   UNL     1     -11.268  13.501  65.661  1.00  0.00     0.000 HD 
HETATM    4  N   UNL     1     -11.830  11.105  67.560  1.00  0.00    -0.558 NA 
HETATM    5  N   UNL     1     -12.107  10.797  68.852  1.00  0.00    -0.421 NA 
HETATM    6  C   UNL     1     -12.198  11.779  69.786  1.00  0.00    -0.203 A  
HETATM    7  C   UNL     1     -11.998  13.144  69.462  1.00  0.00    -0.354 A  
HETATM    8  C   UNL     1     -11.599  15.836  68.655  1.00  0.00    -0.392 A  
HETATM    9  C   UNL     1     -12.050  14.218  70.387  1.00  0.00    -0.409 A  
HETATM   10  C   UNL     1     -11.724  13.459  68.114  1.00  0.00    -0.397 A  
HETATM   11  C   UNL     1     -11.848  15.543  69.989  1.00  0.00    -0.379 A  
HETATM   12  C   UNL     1     -11.537  14.802  67.724  1.00  0.00    -0.378 A  
ENDROOT
BRANCH   6  13
HETATM   13  C   UNL     1     -12.545  11.365  71.200  1.00  0.00    -0.490 C  
BRANCH  13  14
HETATM   14  C   UNL     1     -12.446   9.892  71.547  1.00  0.00    -0.506 A  
HETATM   15  C   UNL     1     -12.196   7.127  71.902  1.00  0.00    -0.323 A  
HETATM   16  C   UNL     1     -13.569   9.061  71.436  1.00  0.00    -0.331 A  
HETATM   17  C   UNL     1     -11.219   9.325  71.937  1.00  0.00    -0.331 A  
HETATM   18  F   UNL     1     -12.102   5.790  71.927  1.00  0.00    -0.282 F  
HETATM   19  C   UNL     1     -11.090   7.937  72.146  1.00  0.00    -0.351 A  
HETATM   20  C   UNL     1     -13.439   7.683  71.602  1.00  0.00    -0.415 A  
BRANCH  19  21
HETATM   21  C   UNL     1      -9.745   7.417  72.503  1.00  0.00    -0.160 C  
HETATM   22  N   UNL     1      -8.925   6.768  71.579  1.00  0.00    -0.138 N  
HETATM   23  C   UNL     1      -7.614   6.267  72.030  1.00  0.00    -0.096 C  
HETATM   24  O   UNL     1      -9.418   7.533  73.687  1.00  0.00    -0.245 OA 
HETATM   25  C   UNL     1      -7.442   4.778  71.693  1.00  0.00    -0.071 C  
HETATM   26  N   UNL     1      -7.704   4.524  70.269  1.00  0.00    -0.056 N  
HETATM   27  C   UNL     1      -8.997   5.022  69.798  1.00  0.00    -0.106 C  
HETATM   28  C   UNL     1      -6.781   3.802  69.527  1.00  0.00    -0.037 C  
HETATM   29  C   UNL     1      -9.204   6.498  70.163  1.00  0.00    -0.158 C  
HETATM   30  O   UNL     1      -5.723   3.398  70.001  1.00  0.00    -0.016 OA 
BRANCH  28  31
HETATM   31  C   UNL     1      -7.070   3.545  68.082  1.00  0.00    -0.051 C  
HETATM   32  C   UNL     1      -6.208   4.213  67.032  1.00  0.00    -0.036 C  
HETATM   33  C   UNL     1      -6.113   2.731  67.239  1.00  0.00    -0.028 C  
ENDBRANCH  28  31
ENDBRANCH  19  21
ENDBRANCH  13  14
ENDBRANCH   6  13
TORSDOF 4
ENDMDL
MODEL       80
REMARK 921   NORMALIZED FREE ENERGY PREDICTED BY IDOCK:   -6.84 KCAL/MOL
REMARK 922        TOTAL FREE ENERGY PREDICTED BY IDOCK:   -9.19 KCAL/MOL
REMARK 923 INTER-LIGAND FREE ENERGY PREDICTED BY IDOCK:   -8.05 KCAL/MOL
REMARK 924 INTRA-LIGAND FREE ENERGY PREDICTED BY IDOCK:   -1.14 KCAL/MOL
REMARK 927      BINDING AFFINITY PREDICTED BY RF-SCORE:    0.00 PKD
ROOT
HETATM    1  O   UNL     1     -13.273  12.938  64.845  1.00  0.00    -0.782 OA 
HETATM    2  C   UNL     1     -12.028  12.387  64.840  1.00  0.00    -0.398 A  
HETATM    3  H   UNL     1     -13.538  13.289  65.687  1.00  0.00     0.000 HD 
HETATM    4  N   UNL     1     -11.654  11.890  63.649  1.00  0.00    -0.454 NA 
HETATM    5  N   UNL     1     -10.435  11.308  63.534  1.00  0.00    -0.389 NA 
HETATM    6  C   UNL     1      -9.607  11.235  64.608  1.00  0.00    -0.231 A  
HETATM    7  C   UNL     1      -9.967  11.767  65.871  1.00  0.00    -0.266 A  
HETATM    8  C   UNL     1     -10.840  12.854  68.344  1.00  0.00    -0.276 A  
HETATM    9  C   UNL     1      -9.145  11.752  67.027  1.00  0.00    -0.187 A  
HETATM   10  C   UNL     1     -11.242  12.359  65.988  1.00  0.00    -0.374 A  
HETATM   11  C   UNL     1      -9.575  12.292  68.243  1.00  0.00    -0.212 A  
HETATM   12  C   UNL     1     -11.668  12.887  67.224  1.00  0.00    -0.431 A  
ENDROOT
BRANCH   6  13
HETATM   13  C   UNL     1      -8.276  10.539  64.416  1.00  0.00    -0.068 C  
BRANCH  13  14
HETATM   14  C   UNL     1      -8.230   9.038  64.628  1.00  0.00    -0.160 A  
HETATM   15  C   UNL     1      -7.848   6.296  65.041  1.00  0.00    -0.111 A  
HETATM   16  C   UNL     1      -8.089   8.173  63.536  1.00  0.00    -0.113 A  
HETATM   17  C   UNL     1      -8.276   8.492  65.924  1.00  0.00    -0.125 A  
HETATM   18  F   UNL     1      -7.528   5.003  65.189  1.00  0.00    -0.070 F  
HETATM   19  C   UNL     1      -8.114   7.108  66.139  1.00  0.00    -0.121 A  
HETATM   20  C   UNL     1      -7.887   6.808  63.744  1.00  0.00    -0.107 A  
BRANCH  19  21
HETATM   21  C   UNL     1      -8.122   6.625  67.545  1.00  0.00    -0.118 C  
HETATM   22  N   UNL     1      -9.177   6.889  68.419  1.00  0.00    -0.126 N  
HETATM   23  C   UNL     1      -9.088   6.388  69.802  1.00  0.00    -0.141 C  
HETATM   24  O   UNL     1      -7.107   6.031  67.917  1.00  0.00    -0.070 OA 
HETATM   25  C   UNL     1      -9.307   7.518  70.819  1.00  0.00    -0.162 C  
HETATM   26  N   UNL     1     -10.555   8.244  70.543  1.00  0.00    -0.215 N  
HETATM   27  C   UNL     1     -10.668   8.742  69.171  1.00  0.00    -0.131 C  
HETATM   28  C   UNL     1     -11.460   8.455  71.572  1.00  0.00    -0.278 C  
HETATM   29  C   UNL     1     -10.411   7.635  68.140  1.00  0.00    -0.204 C  
HETATM   30  O   UNL     1     -11.284   8.020  72.706  1.00  0.00    -0.384 OA 
BRANCH  28  31
HETATM   31  C   UNL     1     -12.720   9.204  71.273  1.00  0.00    -0.340 C  
HETATM   32  C   UNL     1     -13.648   9.561  72.413  1.00  0.00    -0.459 C  
HETATM   33  C   UNL     1     -12.882  10.642  71.712  1.00  0.00    -0.549 C  
ENDBRANCH  28  31
ENDBRANCH  19  21
ENDBRANCH  13  14
ENDBRANCH   6  13
TORSDOF 4
ENDMDL
MODEL       81
REMARK 921   NORMALIZED FREE ENERGY PREDICTED BY IDOCK:   -6.82 KCAL/MOL
REMARK 922        TOTAL FREE ENERGY PREDICTED BY IDOCK:   -9.17 KCAL/MOL
REMARK 923 INTER-LIGAND FREE ENERGY PREDICTED BY IDOCK:   -8.49 KCAL/MOL
REMARK 924 INTRA-LIGAND FREE ENERGY PREDICTED BY IDOCK:   -0.67 KCAL/MOL
REMARK 927      BINDING AFFINITY PREDICTED BY RF-SCORE:    0.00 PKD
ROOT
HETATM    1  O   UNL     1      -8.895   4.287  67.032  1.00  0.00    -0.111 OA 
HETATM    2  C   UNL     1      -9.058   5.045  68.152  1.00  0.00    -0.115 A  
HETATM    3  H   UNL     1      -8.968   3.352  67.184  1.00  0.00     0.000 HD 
HETATM    4  N   UNL     1      -8.954   6.367  67.938  1.00  0.00    -0.116 NA 
HETATM    5  N   UNL     1      -9.090   7.215  68.988  1.00  0.00    -0.133 NA 
HETATM    6  C   UNL     1      -9.332   6.729  70.233  1.00  0.00    -0.159 A  
HETATM    7  C   UNL     1      -9.465   5.341  70.485  1.00  0.00    -0.222 A  
HETATM    8  C   UNL     1      -9.679   2.533  70.838  1.00  0.00    -0.128 A  
HETATM    9  C   UNL     1      -9.744   4.765  71.750  1.00  0.00    -0.225 A  
HETATM   10  C   UNL     1      -9.309   4.464  69.391  1.00  0.00    -0.225 A  
HETATM   11  C   UNL     1      -9.854   3.382  71.922  1.00  0.00    -0.238 A  
HETATM   12  C   UNL     1      -9.408   3.070  69.581  1.00  0.00    -0.214 A  
ENDROOT
BRANCH   6  13
HETATM   13  C   UNL     1      -9.435   7.731  71.363  1.00  0.00    -0.173 C  
BRANCH  13  14
HETATM   14  C   UNL     1     -10.691   8.578  71.440  1.00  0.00    -0.317 A  
HETATM   15  C   UNL     1     -12.876  10.290  71.803  1.00  0.00    -0.460 A  
HETATM   16  C   UNL     1     -11.736   8.217  72.302  1.00  0.00    -0.439 A  
HETATM   17  C   UNL     1     -10.810   9.762  70.690  1.00  0.00    -0.396 A  
HETATM   18  F   UNL     1     -13.871  11.133  72.113  1.00  0.00    -0.312 F  
HETATM   19  C   UNL     1     -11.920  10.616  70.845  1.00  0.00    -0.469 A  
HETATM   20  C   UNL     1     -12.817   9.077  72.489  1.00  0.00    -0.408 A  
BRANCH  19  21
HETATM   21  C   UNL     1     -11.936  11.873  70.053  1.00  0.00    -0.332 C  
HETATM   22  N   UNL     1     -11.835  11.881  68.661  1.00  0.00    -0.320 N  
HETATM   23  C   UNL     1     -11.838  13.179  67.962  1.00  0.00    -0.358 C  
HETATM   24  O   UNL     1     -11.978  12.921  70.704  1.00  0.00    -0.299 OA 
HETATM   25  C   UNL     1     -10.622  13.313  67.032  1.00  0.00    -0.259 C  
HETATM   26  N   UNL     1     -10.522  12.162  66.124  1.00  0.00    -0.242 N  
HETATM   27  C   UNL     1     -10.526  10.863  66.798  1.00  0.00    -0.251 C  
HETATM   28  C   UNL     1     -10.366  12.383  64.764  1.00  0.00    -0.299 C  
HETATM   29  C   UNL     1     -11.712  10.727  67.762  1.00  0.00     0.111 C  
HETATM   30  O   UNL     1     -10.352  13.508  64.274  1.00  0.00    -0.406 OA 
BRANCH  28  31
HETATM   31  C   UNL     1     -10.256  11.198  63.856  1.00  0.00    -0.420 C  
HETATM   32  C   UNL     1      -9.409  11.308  62.606  1.00  0.00    -0.313 C  
HETATM   33  C   UNL     1      -8.953  10.438  63.739  1.00  0.00    -0.247 C  
ENDBRANCH  28  31
ENDBRANCH  19  21
ENDBRANCH  13  14
ENDBRANCH   6  13
TORSDOF 4
ENDMDL
MODEL       82
REMARK 921   NORMALIZED FREE ENERGY PREDICTED BY IDOCK:   -6.82 KCAL/MOL
REMARK 922        TOTAL FREE ENERGY PREDICTED BY IDOCK:   -9.16 KCAL/MOL
REMARK 923 INTER-LIGAND FREE ENERGY PREDICTED BY IDOCK:   -8.28 KCAL/MOL
REMARK 924 INTRA-LIGAND FREE ENERGY PREDICTED BY IDOCK:   -0.88 KCAL/MOL
REMARK 927      BINDING AFFINITY PREDICTED BY RF-SCORE:    0.00 PKD
ROOT
HETATM    1  O   UNL     1     -10.102  20.123  69.844  1.00  0.00    -0.348 OA 
HETATM    2  C   UNL     1      -9.814  19.287  68.809  1.00  0.00    -0.447 A  
HETATM    3  H   UNL     1      -9.339  20.528  70.239  1.00  0.00     0.000 HD 
HETATM    4  N   UNL     1     -10.894  18.713  68.251  1.00  0.00    -0.032 NA 
HETATM    5  N   UNL     1     -10.720  17.853  67.217  1.00  0.00    -0.321 NA 
HETATM    6  C   UNL     1      -9.472  17.584  66.753  1.00  0.00    -0.275 A  
HETATM    7  C   UNL     1      -8.318  18.188  67.308  1.00  0.00    -0.244 A  
HETATM    8  C   UNL     1      -6.098  19.456  68.543  1.00  0.00    -0.257 A  
HETATM    9  C   UNL     1      -6.990  17.977  66.859  1.00  0.00    -0.218 A  
HETATM   10  C   UNL     1      -8.504  19.071  68.393  1.00  0.00    -0.383 A  
HETATM   11  C   UNL     1      -5.898  18.606  67.464  1.00  0.00    -0.170 A  
HETATM   12  C   UNL     1      -7.392  19.688  69.004  1.00  0.00    -0.363 A  
ENDROOT
BRANCH   6  13
HETATM   13  C   UNL     1      -9.351  16.587  65.620  1.00  0.00     0.057 C  
BRANCH  13  14
HETATM   14  C   UNL     1     -10.407  15.503  65.520  1.00  0.00    -0.419 A  
HETATM   15  C   UNL     1     -12.169  13.358  65.155  1.00  0.00    -0.434 A  
HETATM   16  C   UNL     1     -11.371  15.546  64.504  1.00  0.00    -0.322 A  
HETATM   17  C   UNL     1     -10.409  14.413  66.410  1.00  0.00    -0.289 A  
HETATM   18  F   UNL     1     -12.940  12.303  64.855  1.00  0.00    -0.514 F  
HETATM   19  C   UNL     1     -11.311  13.342  66.251  1.00  0.00    -0.336 A  
HETATM   20  C   UNL     1     -12.240  14.471  64.317  1.00  0.00    -0.441 A  
BRANCH  19  21
HETATM   21  C   UNL     1     -11.205  12.207  67.204  1.00  0.00    -0.314 C  
HETATM   22  N   UNL     1     -10.342  11.131  66.991  1.00  0.00    -0.214 N  
HETATM   23  C   UNL     1     -10.322  10.039  67.981  1.00  0.00    -0.198 C  
HETATM   24  O   UNL     1     -11.976  12.236  68.166  1.00  0.00    -0.386 OA 
HETATM   25  C   UNL     1     -10.543   8.675  67.310  1.00  0.00    -0.238 C  
HETATM   26  N   UNL     1      -9.602   8.472  66.199  1.00  0.00    -0.228 N  
HETATM   27  C   UNL     1      -9.601   9.550  65.209  1.00  0.00    -0.243 C  
HETATM   28  C   UNL     1      -8.870   7.296  66.136  1.00  0.00    -0.158 C  
HETATM   29  C   UNL     1      -9.421  10.925  65.866  1.00  0.00    -0.207 C  
HETATM   30  O   UNL     1      -8.941   6.426  66.999  1.00  0.00    -0.116 OA 
BRANCH  28  31
HETATM   31  C   UNL     1      -7.924   7.104  64.993  1.00  0.00    -0.129 C  
HETATM   32  C   UNL     1      -6.489   7.561  65.145  1.00  0.00    -0.041 C  
HETATM   33  C   UNL     1      -6.800   6.095  65.086  1.00  0.00    -0.051 C  
ENDBRANCH  28  31
ENDBRANCH  19  21
ENDBRANCH  13  14
ENDBRANCH   6  13
TORSDOF 4
ENDMDL
MODEL       83
REMARK 921   NORMALIZED FREE ENERGY PREDICTED BY IDOCK:   -6.76 KCAL/MOL
REMARK 922        TOTAL FREE ENERGY PREDICTED BY IDOCK:   -9.09 KCAL/MOL
REMARK 923 INTER-LIGAND FREE ENERGY PREDICTED BY IDOCK:   -8.49 KCAL/MOL
REMARK 924 INTRA-LIGAND FREE ENERGY PREDICTED BY IDOCK:   -0.61 KCAL/MOL
REMARK 927      BINDING AFFINITY PREDICTED BY RF-SCORE:    0.00 PKD
ROOT
HETATM    1  O   UNL     1      -8.585   7.838  64.672  1.00  0.00    -0.374 OA 
HETATM    2  C   UNL     1      -8.844   7.762  66.007  1.00  0.00    -0.157 A  
HETATM    3  H   UNL     1      -8.647   7.006  64.217  1.00  0.00     0.000 HD 
HETATM    4  N   UNL     1      -8.754   8.939  66.650  1.00  0.00    -0.125 NA 
HETATM    5  N   UNL     1      -8.983   8.976  67.986  1.00  0.00    -0.133 NA 
HETATM    6  C   UNL     1      -9.302   7.839  68.658  1.00  0.00    -0.148 A  
HETATM    7  C   UNL     1      -9.422   6.589  68.003  1.00  0.00    -0.120 A  
HETATM    8  C   UNL     1      -9.598   4.152  66.557  1.00  0.00    -0.220 A  
HETATM    9  C   UNL     1      -9.777   5.369  68.633  1.00  0.00    -0.187 A  
HETATM   10  C   UNL     1      -9.169   6.554  66.615  1.00  0.00    -0.172 A  
HETATM   11  C   UNL     1      -9.869   4.170  67.919  1.00  0.00    -0.098 A  
HETATM   12  C   UNL     1      -9.251   5.335  65.909  1.00  0.00    -0.166 A  
ENDROOT
BRANCH   6  13
HETATM   13  C   UNL     1      -9.508   7.949  70.153  1.00  0.00    -0.160 C  
BRANCH  13  14
HETATM   14  C   UNL     1     -10.882   8.358  70.647  1.00  0.00    -0.256 A  
HETATM   15  C   UNL     1     -13.299   9.130  71.829  1.00  0.00    -0.406 A  
HETATM   16  C   UNL     1     -11.791   7.390  71.093  1.00  0.00    -0.330 A  
HETATM   17  C   UNL     1     -11.250   9.714  70.713  1.00  0.00    -0.403 A  
HETATM   18  F   UNL     1     -14.402   9.449  72.522  1.00  0.00    -0.429 F  
HETATM   19  C   UNL     1     -12.478  10.111  71.280  1.00  0.00    -0.510 A  
HETATM   20  C   UNL     1     -12.990   7.777  71.692  1.00  0.00    -0.374 A  
BRANCH  19  21
HETATM   21  C   UNL     1     -12.761  11.568  71.358  1.00  0.00    -0.364 C  
HETATM   22  N   UNL     1     -12.536  12.431  70.285  1.00  0.00    -0.143 N  
HETATM   23  C   UNL     1     -12.825  13.865  70.463  1.00  0.00    -0.184 C  
HETATM   24  O   UNL     1     -13.145  11.985  72.454  1.00  0.00    -0.285 OA 
HETATM   25  C   UNL     1     -11.610  14.729  70.090  1.00  0.00    -0.290 C  
HETATM   26  N   UNL     1     -11.118  14.396  68.746  1.00  0.00    -0.246 N  
HETATM   27  C   UNL     1     -10.833  12.975  68.546  1.00  0.00    -0.258 C  
HETATM   28  C   UNL     1     -10.902  15.416  67.831  1.00  0.00    -0.300 C  
HETATM   29  C   UNL     1     -12.021  12.094  68.952  1.00  0.00    -0.242 C  
HETATM   30  O   UNL     1     -11.148  16.592  68.081  1.00  0.00    -0.354 OA 
BRANCH  28  31
HETATM   31  C   UNL     1     -10.391  15.058  66.471  1.00  0.00    -0.287 C  
HETATM   32  C   UNL     1     -11.383  14.683  65.391  1.00  0.00    -0.344 C  
HETATM   33  C   UNL     1     -10.632  15.978  65.293  1.00  0.00    -0.424 C  
ENDBRANCH  28  31
ENDBRANCH  19  21
ENDBRANCH  13  14
ENDBRANCH   6  13
TORSDOF 4
ENDMDL
MODEL       84
REMARK 921   NORMALIZED FREE ENERGY PREDICTED BY IDOCK:   -6.76 KCAL/MOL
REMARK 922        TOTAL FREE ENERGY PREDICTED BY IDOCK:   -9.09 KCAL/MOL
REMARK 923 INTER-LIGAND FREE ENERGY PREDICTED BY IDOCK:   -8.30 KCAL/MOL
REMARK 924 INTRA-LIGAND FREE ENERGY PREDICTED BY IDOCK:   -0.80 KCAL/MOL
REMARK 927      BINDING AFFINITY PREDICTED BY RF-SCORE:    0.00 PKD
ROOT
HETATM    1  O   UNL     1      -5.980  18.756  70.670  1.00  0.00    -0.117 OA 
HETATM    2  C   UNL     1      -6.647  18.341  69.558  1.00  0.00    -0.155 A  
HETATM    3  H   UNL     1      -5.379  18.112  71.025  1.00  0.00     0.000 HD 
HETATM    4  N   UNL     1      -7.498  19.252  69.057  1.00  0.00    -0.355 NA 
HETATM    5  N   UNL     1      -8.222  18.938  67.954  1.00  0.00    -0.271 NA 
HETATM    6  C   UNL     1      -8.080  17.722  67.366  1.00  0.00    -0.209 A  
HETATM    7  C   UNL     1      -7.177  16.749  67.860  1.00  0.00    -0.159 A  
HETATM    8  C   UNL     1      -5.346  14.893  68.984  1.00  0.00    -0.094 A  
HETATM    9  C   UNL     1      -6.956  15.472  67.284  1.00  0.00    -0.206 A  
HETATM   10  C   UNL     1      -6.437  17.076  69.016  1.00  0.00    -0.202 A  
HETATM   11  C   UNL     1      -6.051  14.561  67.835  1.00  0.00    -0.161 A  
HETATM   12  C   UNL     1      -5.537  16.142  69.570  1.00  0.00    -0.133 A  
ENDROOT
BRANCH   6  13
HETATM   13  C   UNL     1      -8.946  17.427  66.160  1.00  0.00    -0.174 C  
BRANCH  13  14
HETATM   14  C   UNL     1     -10.055  16.405  66.322  1.00  0.00    -0.346 A  
HETATM   15  C   UNL     1     -11.887  14.315  66.658  1.00  0.00    -0.421 A  
HETATM   16  C   UNL     1     -10.546  15.710  65.209  1.00  0.00    -0.448 A  
HETATM   17  C   UNL     1     -10.574  16.100  67.594  1.00  0.00    -0.315 A  
HETATM   18  F   UNL     1     -12.656  13.224  66.778  1.00  0.00    -0.335 F  
HETATM   19  C   UNL     1     -11.518  15.068  67.769  1.00  0.00    -0.347 A  
HETATM   20  C   UNL     1     -11.450  14.662  65.380  1.00  0.00    -0.352 A  
BRANCH  19  21
HETATM   21  C   UNL     1     -11.971  14.778  69.154  1.00  0.00    -0.282 C  
HETATM   22  N   UNL     1     -11.764  13.540  69.764  1.00  0.00    -0.302 N  
HETATM   23  C   UNL     1     -12.268  13.337  71.134  1.00  0.00    -0.113 C  
HETATM   24  O   UNL     1     -12.602  15.677  69.715  1.00  0.00    -0.238 OA 
HETATM   25  C   UNL     1     -13.155  12.086  71.222  1.00  0.00    -0.115 C  
HETATM   26  N   UNL     1     -12.465  10.909  70.675  1.00  0.00    -0.350 N  
HETATM   27  C   UNL     1     -11.950  11.093  69.318  1.00  0.00    -0.351 C  
HETATM   28  C   UNL     1     -12.418   9.742  71.422  1.00  0.00    -0.387 C  
HETATM   29  C   UNL     1     -11.094  12.361  69.201  1.00  0.00    -0.203 C  
HETATM   30  O   UNL     1     -12.894   9.660  72.551  1.00  0.00    -0.302 OA 
BRANCH  28  31
HETATM   31  C   UNL     1     -11.720   8.551  70.844  1.00  0.00    -0.274 C  
HETATM   32  C   UNL     1     -10.455   8.051  71.506  1.00  0.00    -0.265 C  
HETATM   33  C   UNL     1     -11.708   7.232  71.585  1.00  0.00    -0.316 C  
ENDBRANCH  28  31
ENDBRANCH  19  21
ENDBRANCH  13  14
ENDBRANCH   6  13
TORSDOF 4
ENDMDL
MODEL       85
REMARK 921   NORMALIZED FREE ENERGY PREDICTED BY IDOCK:   -6.76 KCAL/MOL
REMARK 922        TOTAL FREE ENERGY PREDICTED BY IDOCK:   -9.09 KCAL/MOL
REMARK 923 INTER-LIGAND FREE ENERGY PREDICTED BY IDOCK:   -7.98 KCAL/MOL
REMARK 924 INTRA-LIGAND FREE ENERGY PREDICTED BY IDOCK:   -1.11 KCAL/MOL
REMARK 927      BINDING AFFINITY PREDICTED BY RF-SCORE:    0.00 PKD
ROOT
HETATM    1  O   UNL     1     -13.559   7.278  72.358  1.00  0.00    -0.465 OA 
HETATM    2  C   UNL     1     -12.942   8.354  71.798  1.00  0.00    -0.344 A  
HETATM    3  H   UNL     1     -12.964   6.592  72.637  1.00  0.00     0.000 HD 
HETATM    4  N   UNL     1     -13.783   9.324  71.402  1.00  0.00    -0.331 NA 
HETATM    5  N   UNL     1     -13.274  10.439  70.821  1.00  0.00    -0.311 NA 
HETATM    6  C   UNL     1     -11.934  10.570  70.649  1.00  0.00    -0.357 A  
HETATM    7  C   UNL     1     -11.021   9.572  71.074  1.00  0.00    -0.424 A  
HETATM    8  C   UNL     1      -9.321   7.476  71.951  1.00  0.00    -0.171 A  
HETATM    9  C   UNL     1      -9.610   9.652  70.952  1.00  0.00    -0.085 A  
HETATM   10  C   UNL     1     -11.558   8.409  71.665  1.00  0.00    -0.348 A  
HETATM   11  C   UNL     1      -8.774   8.621  71.390  1.00  0.00    -0.262 A  
HETATM   12  C   UNL     1     -10.703   7.370  72.089  1.00  0.00    -0.262 A  
ENDROOT
BRANCH   6  13
HETATM   13  C   UNL     1     -11.439  11.824  69.961  1.00  0.00    -0.234 C  
BRANCH  13  14
HETATM   14  C   UNL     1     -11.301  11.790  68.451  1.00  0.00    -0.328 A  
HETATM   15  C   UNL     1     -10.819  11.918  65.696  1.00  0.00    -0.286 A  
HETATM   16  C   UNL     1     -11.986  12.720  67.656  1.00  0.00    -0.331 A  
HETATM   17  C   UNL     1     -10.448  10.862  67.825  1.00  0.00    -0.238 A  
HETATM   18  F   UNL     1     -10.524  12.109  64.402  1.00  0.00    -0.279 F  
HETATM   19  C   UNL     1     -10.222  10.901  66.434  1.00  0.00    -0.289 A  
HETATM   20  C   UNL     1     -11.735  12.789  66.286  1.00  0.00    -0.460 A  
BRANCH  19  21
HETATM   21  C   UNL     1      -9.263   9.918  65.866  1.00  0.00    -0.176 C  
HETATM   22  N   UNL     1      -9.329   8.555  66.159  1.00  0.00    -0.213 N  
HETATM   23  C   UNL     1      -8.321   7.658  65.567  1.00  0.00    -0.135 C  
HETATM   24  O   UNL     1      -8.359  10.386  65.169  1.00  0.00    -0.160 OA 
HETATM   25  C   UNL     1      -7.623   6.815  66.645  1.00  0.00    -0.086 C  
HETATM   26  N   UNL     1      -8.604   6.114  67.486  1.00  0.00    -0.107 N  
HETATM   27  C   UNL     1      -9.619   6.986  68.078  1.00  0.00    -0.128 C  
HETATM   28  C   UNL     1      -8.460   4.752  67.705  1.00  0.00    -0.104 C  
HETATM   29  C   UNL     1     -10.299   7.866  67.020  1.00  0.00    -0.341 C  
HETATM   30  O   UNL     1      -7.566   4.090  67.186  1.00  0.00    -0.075 OA 
BRANCH  28  31
HETATM   31  C   UNL     1      -9.463   4.058  68.572  1.00  0.00    -0.215 C  
HETATM   32  C   UNL     1      -9.063   2.781  69.278  1.00  0.00    -0.193 C  
HETATM   33  C   UNL     1      -9.291   4.031  70.075  1.00  0.00    -0.242 C  
ENDBRANCH  28  31
ENDBRANCH  19  21
ENDBRANCH  13  14
ENDBRANCH   6  13
TORSDOF 4
ENDMDL
MODEL       86
REMARK 921   NORMALIZED FREE ENERGY PREDICTED BY IDOCK:   -6.75 KCAL/MOL
REMARK 922        TOTAL FREE ENERGY PREDICTED BY IDOCK:   -9.08 KCAL/MOL
REMARK 923 INTER-LIGAND FREE ENERGY PREDICTED BY IDOCK:   -8.95 KCAL/MOL
REMARK 924 INTRA-LIGAND FREE ENERGY PREDICTED BY IDOCK:   -0.13 KCAL/MOL
REMARK 927      BINDING AFFINITY PREDICTED BY RF-SCORE:    0.00 PKD
ROOT
HETATM    1  O   UNL     1      -7.542   7.565  65.935  1.00  0.00    -0.083 OA 
HETATM    2  C   UNL     1      -8.452   8.578  65.940  1.00  0.00    -0.152 A  
HETATM    3  H   UNL     1      -7.190   7.365  65.075  1.00  0.00     0.000 HD 
HETATM    4  N   UNL     1      -8.950   8.860  67.155  1.00  0.00    -0.126 NA 
HETATM    5  N   UNL     1      -9.874   9.846  67.274  1.00  0.00    -0.174 NA 
HETATM    6  C   UNL     1     -10.281  10.538  66.178  1.00  0.00    -0.236 A  
HETATM    7  C   UNL     1      -9.759  10.275  64.888  1.00  0.00    -0.385 A  
HETATM    8  C   UNL     1      -8.642   9.615  62.363  1.00  0.00    -0.213 A  
HETATM    9  C   UNL     1     -10.116  10.973  63.706  1.00  0.00    -0.420 A  
HETATM   10  C   UNL     1      -8.809   9.238  64.769  1.00  0.00    -0.225 A  
HETATM   11  C   UNL     1      -9.561  10.650  62.464  1.00  0.00    -0.246 A  
HETATM   12  C   UNL     1      -8.268   8.914  63.507  1.00  0.00    -0.177 A  
ENDROOT
BRANCH   6  13
HETATM   13  C   UNL     1     -11.341  11.600  66.380  1.00  0.00    -0.312 C  
BRANCH  13  14
HETATM   14  C   UNL     1     -11.516  12.164  67.776  1.00  0.00    -0.398 A  
HETATM   15  C   UNL     1     -12.127  13.234  70.290  1.00  0.00    -0.335 A  
HETATM   16  C   UNL     1     -11.418  13.544  67.999  1.00  0.00    -0.342 A  
HETATM   17  C   UNL     1     -11.827  11.323  68.860  1.00  0.00    -0.413 A  
HETATM   18  F   UNL     1     -12.539  13.806  71.430  1.00  0.00    -0.385 F  
HETATM   19  C   UNL     1     -12.108  11.851  70.137  1.00  0.00    -0.382 A  
HETATM   20  C   UNL     1     -11.735  14.076  69.249  1.00  0.00    -0.372 A  
BRANCH  19  21
HETATM   21  C   UNL     1     -12.481  10.893  71.210  1.00  0.00    -0.388 C  
HETATM   22  N   UNL     1     -11.766   9.718  71.445  1.00  0.00    -0.390 N  
HETATM   23  C   UNL     1     -12.223   8.818  72.518  1.00  0.00    -0.277 C  
HETATM   24  O   UNL     1     -13.505  11.163  71.843  1.00  0.00    -0.345 OA 
HETATM   25  C   UNL     1     -12.420   7.386  71.996  1.00  0.00    -0.247 C  
HETATM   26  N   UNL     1     -11.216   6.904  71.306  1.00  0.00    -0.257 N  
HETATM   27  C   UNL     1     -10.739   7.789  70.242  1.00  0.00    -0.236 C  
HETATM   28  C   UNL     1     -10.685   5.669  71.649  1.00  0.00    -0.251 C  
HETATM   29  C   UNL     1     -10.576   9.233  70.734  1.00  0.00    -0.285 C  
HETATM   30  O   UNL     1     -11.155   4.973  72.543  1.00  0.00    -0.215 OA 
BRANCH  28  31
HETATM   31  C   UNL     1      -9.463   5.192  70.928  1.00  0.00    -0.223 C  
HETATM   32  C   UNL     1      -9.089   3.728  71.011  1.00  0.00    -0.180 C  
HETATM   33  C   UNL     1      -9.588   4.295  69.716  1.00  0.00    -0.279 C  
ENDBRANCH  28  31
ENDBRANCH  19  21
ENDBRANCH  13  14
ENDBRANCH   6  13
TORSDOF 4
ENDMDL
MODEL       87
REMARK 921   NORMALIZED FREE ENERGY PREDICTED BY IDOCK:   -6.72 KCAL/MOL
REMARK 922        TOTAL FREE ENERGY PREDICTED BY IDOCK:   -9.04 KCAL/MOL
REMARK 923 INTER-LIGAND FREE ENERGY PREDICTED BY IDOCK:   -8.88 KCAL/MOL
REMARK 924 INTRA-LIGAND FREE ENERGY PREDICTED BY IDOCK:   -0.17 KCAL/MOL
REMARK 927      BINDING AFFINITY PREDICTED BY RF-SCORE:    0.00 PKD
ROOT
HETATM    1  O   UNL     1      -9.631   7.970  66.163  1.00  0.00    -0.372 OA 
HETATM    2  C   UNL     1     -10.045   9.239  65.894  1.00  0.00    -0.118 A  
HETATM    3  H   UNL     1      -9.093   7.585  65.481  1.00  0.00     0.000 HD 
HETATM    4  N   UNL     1     -10.806   9.783  66.858  1.00  0.00    -0.119 NA 
HETATM    5  N   UNL     1     -11.282  11.041  66.687  1.00  0.00    -0.253 NA 
HETATM    6  C   UNL     1     -10.986  11.738  65.559  1.00  0.00    -0.290 A  
HETATM    7  C   UNL     1     -10.171  11.197  64.535  1.00  0.00    -0.383 A  
HETATM    8  C   UNL     1      -8.546   9.968  62.558  1.00  0.00    -0.202 A  
HETATM    9  C   UNL     1      -9.798  11.874  63.346  1.00  0.00    -0.374 A  
HETATM   10  C   UNL     1      -9.690   9.882  64.712  1.00  0.00    -0.305 A  
HETATM   11  C   UNL     1      -8.994  11.269  62.375  1.00  0.00    -0.245 A  
HETATM   12  C   UNL     1      -8.891   9.279  63.718  1.00  0.00    -0.150 A  
ENDROOT
BRANCH   6  13
HETATM   13  C   UNL     1     -11.581  13.123  65.420  1.00  0.00    -0.362 C  
BRANCH  13  14
HETATM   14  C   UNL     1     -11.417  14.080  66.585  1.00  0.00    -0.377 A  
HETATM   15  C   UNL     1     -11.381  15.956  68.662  1.00  0.00    -0.376 A  
HETATM   16  C   UNL     1     -10.830  15.337  66.391  1.00  0.00    -0.317 A  
HETATM   17  C   UNL     1     -11.894  13.745  67.866  1.00  0.00    -0.413 A  
HETATM   18  F   UNL     1     -11.461  16.932  69.578  1.00  0.00    -0.081 F  
HETATM   19  C   UNL     1     -11.854  14.674  68.926  1.00  0.00    -0.344 A  
HETATM   20  C   UNL     1     -10.824  16.274  67.424  1.00  0.00    -0.242 A  
BRANCH  19  21
HETATM   21  C   UNL     1     -12.429  14.254  70.230  1.00  0.00    -0.361 C  
HETATM   22  N   UNL     1     -12.213  12.985  70.768  1.00  0.00    -0.342 N  
HETATM   23  C   UNL     1     -12.844  12.651  72.058  1.00  0.00    -0.163 C  
HETATM   24  O   UNL     1     -13.169  15.073  70.782  1.00  0.00    -0.382 OA 
HETATM   25  C   UNL     1     -13.659  11.352  71.959  1.00  0.00    -0.024 C  
HETATM   26  N   UNL     1     -12.847  10.258  71.407  1.00  0.00    -0.404 N  
HETATM   27  C   UNL     1     -12.205  10.573  70.130  1.00  0.00    -0.280 C  
HETATM   28  C   UNL     1     -12.808   9.041  72.069  1.00  0.00    -0.401 C  
HETATM   29  C   UNL     1     -11.419  11.890  70.198  1.00  0.00    -0.049 C  
HETATM   30  O   UNL     1     -13.392   8.847  73.131  1.00  0.00    -0.229 OA 
BRANCH  28  31
HETATM   31  C   UNL     1     -11.983   7.937  71.486  1.00  0.00    -0.333 C  
HETATM   32  C   UNL     1     -10.647   7.609  72.116  1.00  0.00    -0.281 C  
HETATM   33  C   UNL     1     -11.786   6.642  72.245  1.00  0.00    -0.305 C  
ENDBRANCH  28  31
ENDBRANCH  19  21
ENDBRANCH  13  14
ENDBRANCH   6  13
TORSDOF 4
ENDMDL
MODEL       88
REMARK 921   NORMALIZED FREE ENERGY PREDICTED BY IDOCK:   -6.69 KCAL/MOL
REMARK 922        TOTAL FREE ENERGY PREDICTED BY IDOCK:   -9.00 KCAL/MOL
REMARK 923 INTER-LIGAND FREE ENERGY PREDICTED BY IDOCK:   -7.83 KCAL/MOL
REMARK 924 INTRA-LIGAND FREE ENERGY PREDICTED BY IDOCK:   -1.17 KCAL/MOL
REMARK 927      BINDING AFFINITY PREDICTED BY RF-SCORE:    0.00 PKD
ROOT
HETATM    1  O   UNL     1     -12.720   6.421  72.081  1.00  0.00    -0.526 OA 
HETATM    2  C   UNL     1     -11.667   6.668  71.253  1.00  0.00    -0.334 A  
HETATM    3  H   UNL     1     -12.548   6.618  72.994  1.00  0.00     0.000 HD 
HETATM    4  N   UNL     1     -11.910   6.388  69.961  1.00  0.00    -0.309 NA 
HETATM    5  N   UNL     1     -10.926   6.587  69.050  1.00  0.00    -0.307 NA 
HETATM    6  C   UNL     1      -9.717   7.067  69.441  1.00  0.00    -0.159 A  
HETATM    7  C   UNL     1      -9.439   7.389  70.793  1.00  0.00    -0.167 A  
HETATM    8  C   UNL     1      -9.023   7.961  73.542  1.00  0.00    -0.343 A  
HETATM    9  C   UNL     1      -8.213   7.919  71.270  1.00  0.00    -0.107 A  
HETATM   10  C   UNL     1     -10.463   7.166  71.738  1.00  0.00    -0.219 A  
HETATM   11  C   UNL     1      -8.011   8.205  72.624  1.00  0.00    -0.199 A  
HETATM   12  C   UNL     1     -10.241   7.446  73.103  1.00  0.00    -0.363 A  
ENDROOT
BRANCH   6  13
HETATM   13  C   UNL     1      -8.654   7.231  68.376  1.00  0.00    -0.124 C  
BRANCH  13  14
HETATM   14  C   UNL     1      -8.785   8.405  67.425  1.00  0.00    -0.136 A  
HETATM   15  C   UNL     1      -9.311  10.591  65.757  1.00  0.00    -0.188 A  
HETATM   16  C   UNL     1      -9.195   8.200  66.100  1.00  0.00    -0.230 A  
HETATM   17  C   UNL     1      -8.548   9.720  67.865  1.00  0.00    -0.125 A  
HETATM   18  F   UNL     1      -9.704  11.599  64.966  1.00  0.00    -0.243 F  
HETATM   19  C   UNL     1      -8.782  10.826  67.023  1.00  0.00    -0.136 A  
HETATM   20  C   UNL     1      -9.467   9.292  65.275  1.00  0.00    -0.234 A  
BRANCH  19  21
HETATM   21  C   UNL     1      -8.557  12.181  67.589  1.00  0.00    -0.166 C  
HETATM   22  N   UNL     1      -9.403  12.741  68.547  1.00  0.00    -0.135 N  
HETATM   23  C   UNL     1      -9.113  14.101  69.035  1.00  0.00     0.110 C  
HETATM   24  O   UNL     1      -7.611  12.814  67.114  1.00  0.00    -0.132 OA 
HETATM   25  C   UNL     1     -10.339  15.016  68.897  1.00  0.00    -0.244 C  
HETATM   26  N   UNL     1     -11.523  14.412  69.526  1.00  0.00    -0.274 N  
HETATM   27  C   UNL     1     -11.824  13.058  69.061  1.00  0.00    -0.316 C  
HETATM   28  C   UNL     1     -12.274  15.162  70.418  1.00  0.00    -0.344 C  
HETATM   29  C   UNL     1     -10.598  12.139  69.153  1.00  0.00    -0.004 C  
HETATM   30  O   UNL     1     -11.966  16.305  70.744  1.00  0.00    -0.265 OA 
BRANCH  28  31
HETATM   31  C   UNL     1     -13.480  14.533  71.041  1.00  0.00    -0.345 C  
HETATM   32  C   UNL     1     -13.331  13.812  72.362  1.00  0.00    -0.635 C  
HETATM   33  C   UNL     1     -14.081  15.109  72.305  1.00  0.00    -0.633 C  
ENDBRANCH  28  31
ENDBRANCH  19  21
ENDBRANCH  13  14
ENDBRANCH   6  13
TORSDOF 4
ENDMDL
MODEL       89
REMARK 921   NORMALIZED FREE ENERGY PREDICTED BY IDOCK:   -6.67 KCAL/MOL
REMARK 922        TOTAL FREE ENERGY PREDICTED BY IDOCK:   -8.97 KCAL/MOL
REMARK 923 INTER-LIGAND FREE ENERGY PREDICTED BY IDOCK:   -8.08 KCAL/MOL
REMARK 924 INTRA-LIGAND FREE ENERGY PREDICTED BY IDOCK:   -0.89 KCAL/MOL
REMARK 927      BINDING AFFINITY PREDICTED BY RF-SCORE:    0.00 PKD
ROOT
HETATM    1  O   UNL     1      -5.228   8.652  67.584  1.00  0.00    -0.033 OA 
HETATM    2  C   UNL     1      -6.586   8.739  67.609  1.00  0.00    -0.062 A  
HETATM    3  H   UNL     1      -4.871   7.992  68.167  1.00  0.00     0.000 HD 
HETATM    4  N   UNL     1      -7.091   9.672  66.785  1.00  0.00    -0.085 NA 
HETATM    5  N   UNL     1      -8.435   9.851  66.739  1.00  0.00    -0.124 NA 
HETATM    6  C   UNL     1      -9.253   9.091  67.512  1.00  0.00    -0.135 A  
HETATM    7  C   UNL     1      -8.751   8.086  68.375  1.00  0.00    -0.130 A  
HETATM    8  C   UNL     1      -7.594   6.131  70.077  1.00  0.00    -0.095 A  
HETATM    9  C   UNL     1      -9.544   7.238  69.189  1.00  0.00    -0.155 A  
HETATM   10  C   UNL     1      -7.351   7.915  68.429  1.00  0.00    -0.101 A  
HETATM   11  C   UNL     1      -8.973   6.272  70.023  1.00  0.00    -0.149 A  
HETATM   12  C   UNL     1      -6.787   6.946  69.286  1.00  0.00    -0.058 A  
ENDROOT
BRANCH   6  13
HETATM   13  C   UNL     1     -10.739   9.369  67.436  1.00  0.00    -0.280 C  
BRANCH  13  14
HETATM   14  C   UNL     1     -11.222  10.738  67.873  1.00  0.00    -0.386 A  
HETATM   15  C   UNL     1     -11.830  13.330  68.738  1.00  0.00    -0.334 A  
HETATM   16  C   UNL     1     -11.565  10.974  69.211  1.00  0.00    -0.384 A  
HETATM   17  C   UNL     1     -11.288  11.806  66.959  1.00  0.00    -0.387 A  
HETATM   18  F   UNL     1     -11.994  14.568  69.228  1.00  0.00    -0.309 F  
HETATM   19  C   UNL     1     -11.621  13.109  67.380  1.00  0.00    -0.403 A  
HETATM   20  C   UNL     1     -11.856  12.268  69.642  1.00  0.00    -0.393 A  
BRANCH  19  21
HETATM   21  C   UNL     1     -11.612  14.186  66.356  1.00  0.00    -0.369 C  
HETATM   22  N   UNL     1     -10.623  15.169  66.314  1.00  0.00    -0.302 N  
HETATM   23  C   UNL     1     -10.709  16.211  65.275  1.00  0.00    -0.368 C  
HETATM   24  O   UNL     1     -12.572  14.201  65.581  1.00  0.00    -0.487 OA 
HETATM   25  C   UNL     1     -10.647  17.617  65.890  1.00  0.00    -0.203 C  
HETATM   26  N   UNL     1      -9.473  17.761  66.763  1.00  0.00    -0.276 N  
HETATM   27  C   UNL     1      -9.364  16.731  67.797  1.00  0.00    -0.233 C  
HETATM   28  C   UNL     1      -8.633  18.852  66.596  1.00  0.00    -0.307 C  
HETATM   29  C   UNL     1      -9.465  15.319  67.205  1.00  0.00    -0.208 C  
HETATM   30  O   UNL     1      -8.803  19.688  65.714  1.00  0.00    -0.393 OA 
BRANCH  28  31
HETATM   31  C   UNL     1      -7.448  18.986  67.501  1.00  0.00    -0.251 C  
HETATM   32  C   UNL     1      -6.835  20.354  67.707  1.00  0.00    -0.338 C  
HETATM   33  C   UNL     1      -7.574  19.694  68.832  1.00  0.00    -0.344 C  
ENDBRANCH  28  31
ENDBRANCH  19  21
ENDBRANCH  13  14
ENDBRANCH   6  13
TORSDOF 4
ENDMDL
MODEL       90
REMARK 921   NORMALIZED FREE ENERGY PREDICTED BY IDOCK:   -6.66 KCAL/MOL
REMARK 922        TOTAL FREE ENERGY PREDICTED BY IDOCK:   -8.96 KCAL/MOL
REMARK 923 INTER-LIGAND FREE ENERGY PREDICTED BY IDOCK:   -8.19 KCAL/MOL
REMARK 924 INTRA-LIGAND FREE ENERGY PREDICTED BY IDOCK:   -0.77 KCAL/MOL
REMARK 927      BINDING AFFINITY PREDICTED BY RF-SCORE:    0.00 PKD
ROOT
HETATM    1  O   UNL     1     -10.733   3.504  64.830  1.00  0.00    -0.459 OA 
HETATM    2  C   UNL     1     -10.176   4.617  65.383  1.00  0.00    -0.148 A  
HETATM    3  H   UNL     1     -10.260   3.167  64.078  1.00  0.00     0.000 HD 
HETATM    4  N   UNL     1     -10.845   5.093  66.446  1.00  0.00    -0.221 NA 
HETATM    5  N   UNL     1     -10.383   6.206  67.069  1.00  0.00    -0.207 NA 
HETATM    6  C   UNL     1      -9.257   6.822  66.623  1.00  0.00    -0.159 A  
HETATM    7  C   UNL     1      -8.521   6.331  65.517  1.00  0.00    -0.145 A  
HETATM    8  C   UNL     1      -7.168   5.244  63.270  1.00  0.00    -0.048 A  
HETATM    9  C   UNL     1      -7.325   6.904  65.014  1.00  0.00    -0.086 A  
HETATM   10  C   UNL     1      -9.014   5.181  64.865  1.00  0.00    -0.085 A  
HETATM   11  C   UNL     1      -6.657   6.364  63.911  1.00  0.00    -0.033 A  
HETATM   12  C   UNL     1      -8.338   4.656  63.744  1.00  0.00    -0.117 A  
ENDROOT
BRANCH   6  13
HETATM   13  C   UNL     1      -8.820   8.079  67.343  1.00  0.00    -0.134 C  
BRANCH  13  14
HETATM   14  C   UNL     1      -9.849   9.177  67.531  1.00  0.00    -0.227 A  
HETATM   15  C   UNL     1     -11.530  11.367  67.997  1.00  0.00    -0.307 A  
HETATM   16  C   UNL     1     -10.587   9.260  68.719  1.00  0.00    -0.220 A  
HETATM   17  C   UNL     1     -10.045  10.158  66.541  1.00  0.00    -0.296 A  
HETATM   18  F   UNL     1     -12.239  12.456  68.325  1.00  0.00    -0.362 F  
HETATM   19  C   UNL     1     -10.911  11.249  66.756  1.00  0.00    -0.339 A  
HETATM   20  C   UNL     1     -11.415  10.358  68.953  1.00  0.00    -0.251 A  
BRANCH  19  21
HETATM   21  C   UNL     1     -11.015  12.267  65.678  1.00  0.00    -0.299 C  
HETATM   22  N   UNL     1     -10.519  13.563  65.824  1.00  0.00    -0.286 N  
HETATM   23  C   UNL     1     -10.688  14.511  64.708  1.00  0.00    -0.393 C  
HETATM   24  O   UNL     1     -11.629  11.919  64.665  1.00  0.00    -0.312 OA 
HETATM   25  C   UNL     1     -11.360  15.810  65.178  1.00  0.00    -0.154 C  
HETATM   26  N   UNL     1     -10.651  16.386  66.329  1.00  0.00    -0.281 N  
HETATM   27  C   UNL     1     -10.465  15.458  67.445  1.00  0.00    -0.277 C  
HETATM   28  C   UNL     1     -10.289  17.725  66.303  1.00  0.00    -0.358 C  
HETATM   29  C   UNL     1      -9.832  14.137  66.987  1.00  0.00    -0.258 C  
HETATM   30  O   UNL     1     -10.499  18.447  65.333  1.00  0.00    -0.554 OA 
BRANCH  28  31
HETATM   31  C   UNL     1      -9.576  18.295  67.489  1.00  0.00    -0.282 C  
HETATM   32  C   UNL     1      -8.747  19.548  67.312  1.00  0.00    -0.348 C  
HETATM   33  C   UNL     1     -10.023  19.607  68.096  1.00  0.00    -0.547 C  
ENDBRANCH  28  31
ENDBRANCH  19  21
ENDBRANCH  13  14
ENDBRANCH   6  13
TORSDOF 4
ENDMDL
MODEL       91
REMARK 921   NORMALIZED FREE ENERGY PREDICTED BY IDOCK:   -6.66 KCAL/MOL
REMARK 922        TOTAL FREE ENERGY PREDICTED BY IDOCK:   -8.96 KCAL/MOL
REMARK 923 INTER-LIGAND FREE ENERGY PREDICTED BY IDOCK:   -8.09 KCAL/MOL
REMARK 924 INTRA-LIGAND FREE ENERGY PREDICTED BY IDOCK:   -0.87 KCAL/MOL
REMARK 927      BINDING AFFINITY PREDICTED BY RF-SCORE:    0.00 PKD
ROOT
HETATM    1  O   UNL     1     -10.749  19.991  65.930  1.00  0.00    -0.424 OA 
HETATM    2  C   UNL     1     -10.478  18.658  65.850  1.00  0.00    -0.356 A  
HETATM    3  H   UNL     1     -10.315  20.432  66.651  1.00  0.00     0.000 HD 
HETATM    4  N   UNL     1     -11.093  18.035  64.831  1.00  0.00    -0.484 NA 
HETATM    5  N   UNL     1     -10.901  16.703  64.664  1.00  0.00    -0.822 NA 
HETATM    6  C   UNL     1     -10.095  16.016  65.514  1.00  0.00    -0.304 A  
HETATM    7  C   UNL     1      -9.419  16.650  66.586  1.00  0.00    -0.271 A  
HETATM    8  C   UNL     1      -8.155  18.056  68.703  1.00  0.00    -0.293 A  
HETATM    9  C   UNL     1      -8.542  16.004  67.494  1.00  0.00    -0.190 A  
HETATM   10  C   UNL     1      -9.634  18.034  66.762  1.00  0.00    -0.303 A  
HETATM   11  C   UNL     1      -7.916  16.699  68.534  1.00  0.00    -0.224 A  
HETATM   12  C   UNL     1      -9.007  18.719  67.824  1.00  0.00    -0.308 A  
ENDROOT
BRANCH   6  13
HETATM   13  C   UNL     1      -9.955  14.525  65.290  1.00  0.00    -0.322 C  
BRANCH  13  14
HETATM   14  C   UNL     1     -10.328  13.603  66.435  1.00  0.00    -0.286 A  
HETATM   15  C   UNL     1     -11.114  11.710  68.342  1.00  0.00    -0.234 A  
HETATM   16  C   UNL     1     -11.607  13.663  67.005  1.00  0.00    -0.389 A  
HETATM   17  C   UNL     1      -9.419  12.641  66.911  1.00  0.00    -0.229 A  
HETATM   18  F   UNL     1     -11.582  10.751  69.153  1.00  0.00    -0.276 F  
HETATM   19  C   UNL     1      -9.797  11.702  67.892  1.00  0.00    -0.189 A  
HETATM   20  C   UNL     1     -12.000  12.712  67.946  1.00  0.00    -0.307 A  
BRANCH  19  21
HETATM   21  C   UNL     1      -8.790  10.687  68.296  1.00  0.00    -0.139 C  
HETATM   22  N   UNL     1      -8.728   9.421  67.711  1.00  0.00    -0.117 N  
HETATM   23  C   UNL     1      -7.708   8.472  68.193  1.00  0.00    -0.102 C  
HETATM   24  O   UNL     1      -8.049  11.004  69.230  1.00  0.00    -0.110 OA 
HETATM   25  C   UNL     1      -8.342   7.132  68.598  1.00  0.00    -0.125 C  
HETATM   26  N   UNL     1      -9.174   6.592  67.514  1.00  0.00    -0.114 N  
HETATM   27  C   UNL     1     -10.188   7.522  67.016  1.00  0.00    -0.298 C  
HETATM   28  C   UNL     1      -8.995   5.277  67.112  1.00  0.00    -0.112 C  
HETATM   29  C   UNL     1      -9.580   8.881  66.644  1.00  0.00    -0.219 C  
HETATM   30  O   UNL     1      -8.132   4.550  67.594  1.00  0.00    -0.098 OA 
BRANCH  28  31
HETATM   31  C   UNL     1      -9.859   4.742  66.013  1.00  0.00    -0.229 C  
HETATM   32  C   UNL     1      -9.286   4.632  64.617  1.00  0.00    -0.119 C  
HETATM   33  C   UNL     1      -9.574   3.388  65.402  1.00  0.00    -0.101 C  
ENDBRANCH  28  31
ENDBRANCH  19  21
ENDBRANCH  13  14
ENDBRANCH   6  13
TORSDOF 4
ENDMDL
MODEL       92
REMARK 921   NORMALIZED FREE ENERGY PREDICTED BY IDOCK:   -6.62 KCAL/MOL
REMARK 922        TOTAL FREE ENERGY PREDICTED BY IDOCK:   -8.91 KCAL/MOL
REMARK 923 INTER-LIGAND FREE ENERGY PREDICTED BY IDOCK:   -7.86 KCAL/MOL
REMARK 924 INTRA-LIGAND FREE ENERGY PREDICTED BY IDOCK:   -1.06 KCAL/MOL
REMARK 927      BINDING AFFINITY PREDICTED BY RF-SCORE:    0.00 PKD
ROOT
HETATM    1  O   UNL     1      -7.191  13.481  66.834  1.00  0.00    -0.336 OA 
HETATM    2  C   UNL     1      -8.361  12.960  67.295  1.00  0.00    -0.185 A  
HETATM    3  H   UNL     1      -6.733  12.920  66.218  1.00  0.00     0.000 HD 
HETATM    4  N   UNL     1      -9.008  13.752  68.166  1.00  0.00    -0.185 NA 
HETATM    5  N   UNL     1     -10.181  13.326  68.697  1.00  0.00    -0.211 NA 
HETATM    6  C   UNL     1     -10.692  12.118  68.345  1.00  0.00    -0.228 A  
HETATM    7  C   UNL     1     -10.043  11.270  67.414  1.00  0.00    -0.214 A  
HETATM    8  C   UNL     1      -8.612   9.670  65.558  1.00  0.00    -0.162 A  
HETATM    9  C   UNL     1     -10.530  10.011  66.980  1.00  0.00    -0.302 A  
HETATM   10  C   UNL     1      -8.816  11.713  66.877  1.00  0.00    -0.190 A  
HETATM   11  C   UNL     1      -9.826   9.226  66.061  1.00  0.00    -0.363 A  
HETATM   12  C   UNL     1      -8.109  10.904  65.962  1.00  0.00    -0.142 A  
ENDROOT
BRANCH   6  13
HETATM   13  C   UNL     1     -11.987  11.692  69.004  1.00  0.00    -0.368 C  
BRANCH  13  14
HETATM   14  C   UNL     1     -11.895  10.775  70.208  1.00  0.00    -0.438 A  
HETATM   15  C   UNL     1     -11.825   8.865  72.255  1.00  0.00    -0.295 A  
HETATM   16  C   UNL     1     -12.997  10.608  71.057  1.00  0.00    -0.456 A  
HETATM   17  C   UNL     1     -10.723  10.039  70.467  1.00  0.00    -0.352 A  
HETATM   18  F   UNL     1     -11.891   7.876  73.156  1.00  0.00    -0.362 F  
HETATM   19  C   UNL     1     -10.669   9.096  71.513  1.00  0.00    -0.437 A  
HETATM   20  C   UNL     1     -12.964   9.648  72.068  1.00  0.00    -0.518 A  
BRANCH  19  21
HETATM   21  C   UNL     1      -9.410   8.326  71.680  1.00  0.00    -0.192 C  
HETATM   22  N   UNL     1      -9.111   7.206  70.903  1.00  0.00    -0.152 N  
HETATM   23  C   UNL     1      -7.847   6.491  71.155  1.00  0.00    -0.103 C  
HETATM   24  O   UNL     1      -8.669   8.694  72.595  1.00  0.00    -0.380 OA 
HETATM   25  C   UNL     1      -8.092   4.993  71.393  1.00  0.00    -0.112 C  
HETATM   26  N   UNL     1      -8.885   4.407  70.303  1.00  0.00    -0.077 N  
HETATM   27  C   UNL     1     -10.141   5.108  70.031  1.00  0.00    -0.275 C  
HETATM   28  C   UNL     1      -8.441   3.246  69.689  1.00  0.00    -0.061 C  
HETATM   29  C   UNL     1      -9.920   6.613  69.831  1.00  0.00    -0.171 C  
HETATM   30  O   UNL     1      -7.381   2.704  69.988  1.00  0.00    -0.043 OA 
BRANCH  28  31
HETATM   31  C   UNL     1      -9.267   2.659  68.588  1.00  0.00    -0.239 C  
HETATM   32  C   UNL     1      -9.110   3.203  67.185  1.00  0.00    -0.203 C  
HETATM   33  C   UNL     1      -8.621   1.822  67.505  1.00  0.00    -0.106 C  
ENDBRANCH  28  31
ENDBRANCH  19  21
ENDBRANCH  13  14
ENDBRANCH   6  13
TORSDOF 4
ENDMDL
MODEL       93
REMARK 921   NORMALIZED FREE ENERGY PREDICTED BY IDOCK:   -6.59 KCAL/MOL
REMARK 922        TOTAL FREE ENERGY PREDICTED BY IDOCK:   -8.88 KCAL/MOL
REMARK 923 INTER-LIGAND FREE ENERGY PREDICTED BY IDOCK:   -8.03 KCAL/MOL
REMARK 924 INTRA-LIGAND FREE ENERGY PREDICTED BY IDOCK:   -0.85 KCAL/MOL
REMARK 927      BINDING AFFINITY PREDICTED BY RF-SCORE:    0.00 PKD
ROOT
HETATM    1  O   UNL     1     -13.437  11.679  72.454  1.00  0.00    -0.602 OA 
HETATM    2  C   UNL     1     -12.907  11.984  71.237  1.00  0.00    -0.265 A  
HETATM    3  H   UNL     1     -13.517  12.424  73.038  1.00  0.00     0.000 HD 
HETATM    4  N   UNL     1     -12.793  10.931  70.410  1.00  0.00    -0.242 NA 
HETATM    5  N   UNL     1     -12.267  11.120  69.174  1.00  0.00    -0.442 NA 
HETATM    6  C   UNL     1     -11.869  12.358  68.782  1.00  0.00    -0.311 A  
HETATM    7  C   UNL     1     -11.996  13.490  69.625  1.00  0.00    -0.397 A  
HETATM    8  C   UNL     1     -12.287  15.656  71.436  1.00  0.00    -0.485 A  
HETATM    9  C   UNL     1     -11.629  14.814  69.273  1.00  0.00    -0.331 A  
HETATM   10  C   UNL     1     -12.530  13.284  70.914  1.00  0.00    -0.424 A  
HETATM   11  C   UNL     1     -11.778  15.881  70.165  1.00  0.00    -0.342 A  
HETATM   12  C   UNL     1     -12.662  14.367  71.808  1.00  0.00    -0.427 A  
ENDROOT
BRANCH   6  13
HETATM   13  C   UNL     1     -11.259  12.488  67.403  1.00  0.00    -0.344 C  
BRANCH  13  14
HETATM   14  C   UNL     1     -10.444  11.321  66.880  1.00  0.00    -0.286 A  
HETATM   15  C   UNL     1      -8.734   9.365  65.838  1.00  0.00    -0.154 A  
HETATM   16  C   UNL     1     -10.570  10.911  65.546  1.00  0.00    -0.240 A  
HETATM   17  C   UNL     1      -9.515  10.663  67.706  1.00  0.00    -0.165 A  
HETATM   18  F   UNL     1      -7.855   8.536  65.258  1.00  0.00    -0.087 F  
HETATM   19  C   UNL     1      -8.669   9.656  67.197  1.00  0.00    -0.137 A  
HETATM   20  C   UNL     1      -9.709   9.944  65.026  1.00  0.00    -0.359 A  
BRANCH  19  21
HETATM   21  C   UNL     1      -7.680   9.054  68.128  1.00  0.00    -0.096 C  
HETATM   22  N   UNL     1      -7.972   7.932  68.905  1.00  0.00    -0.121 N  
HETATM   23  C   UNL     1      -6.935   7.418  69.816  1.00  0.00    -0.056 C  
HETATM   24  O   UNL     1      -6.601   9.644  68.225  1.00  0.00    -0.056 OA 
HETATM   25  C   UNL     1      -7.469   7.286  71.251  1.00  0.00    -0.079 C  
HETATM   26  N   UNL     1      -8.712   6.502  71.282  1.00  0.00    -0.130 N  
HETATM   27  C   UNL     1      -9.753   6.992  70.377  1.00  0.00    -0.176 C  
HETATM   28  C   UNL     1      -8.829   5.449  72.177  1.00  0.00    -0.130 C  
HETATM   29  C   UNL     1      -9.226   7.169  68.947  1.00  0.00    -0.137 C  
HETATM   30  O   UNL     1      -7.914   5.110  72.921  1.00  0.00    -0.100 OA 
BRANCH  28  31
HETATM   31  C   UNL     1     -10.106   4.669  72.200  1.00  0.00    -0.256 C  
HETATM   32  C   UNL     1     -10.311   3.632  73.282  1.00  0.00    -0.241 C  
HETATM   33  C   UNL     1     -11.123   4.893  73.298  1.00  0.00    -0.410 C  
ENDBRANCH  28  31
ENDBRANCH  19  21
ENDBRANCH  13  14
ENDBRANCH   6  13
TORSDOF 4
ENDMDL
MODEL       94
REMARK 921   NORMALIZED FREE ENERGY PREDICTED BY IDOCK:   -6.58 KCAL/MOL
REMARK 922        TOTAL FREE ENERGY PREDICTED BY IDOCK:   -8.87 KCAL/MOL
REMARK 923 INTER-LIGAND FREE ENERGY PREDICTED BY IDOCK:   -8.12 KCAL/MOL
REMARK 924 INTRA-LIGAND FREE ENERGY PREDICTED BY IDOCK:   -0.75 KCAL/MOL
REMARK 927      BINDING AFFINITY PREDICTED BY RF-SCORE:    0.00 PKD
ROOT
HETATM    1  O   UNL     1     -13.294   9.791  72.637  1.00  0.00    -0.583 OA 
HETATM    2  C   UNL     1     -12.755  10.244  71.471  1.00  0.00    -0.452 A  
HETATM    3  H   UNL     1     -13.630  10.478  73.201  1.00  0.00     0.000 HD 
HETATM    4  N   UNL     1     -12.279   9.272  70.674  1.00  0.00    -0.127 NA 
HETATM    5  N   UNL     1     -11.711   9.613  69.491  1.00  0.00     0.128 NA 
HETATM    6  C   UNL     1     -11.632  10.917  69.120  1.00  0.00    -0.319 A  
HETATM    7  C   UNL     1     -12.142  11.961  69.931  1.00  0.00    -0.344 A  
HETATM    8  C   UNL     1     -13.185  13.943  71.675  1.00  0.00    -0.446 A  
HETATM    9  C   UNL     1     -12.120  13.339  69.596  1.00  0.00    -0.331 A  
HETATM   10  C   UNL     1     -12.720  11.601  71.167  1.00  0.00    -0.426 A  
HETATM   11  C   UNL     1     -12.638  14.314  70.454  1.00  0.00    -0.405 A  
HETATM   12  C   UNL     1     -13.226  12.596  72.029  1.00  0.00    -0.531 A  
ENDROOT
BRANCH   6  13
HETATM   13  C   UNL     1     -10.952  11.226  67.803  1.00  0.00    -0.305 C  
BRANCH  13  14
HETATM   14  C   UNL     1      -9.441  11.351  67.803  1.00  0.00    -0.167 A  
HETATM   15  C   UNL     1      -6.681  11.753  67.560  1.00  0.00    -0.107 A  
HETATM   16  C   UNL     1      -8.655  10.440  67.085  1.00  0.00    -0.130 A  
HETATM   17  C   UNL     1      -8.805  12.409  68.479  1.00  0.00    -0.056 A  
HETATM   18  F   UNL     1      -5.385  11.974  67.302  1.00  0.00    -0.071 F  
HETATM   19  C   UNL     1      -7.412  12.602  68.386  1.00  0.00    -0.127 A  
HETATM   20  C   UNL     1      -7.282  10.649  66.956  1.00  0.00    -0.101 A  
BRANCH  19  21
HETATM   21  C   UNL     1      -6.833  13.777  69.088  1.00  0.00    -0.102 C  
HETATM   22  N   UNL     1      -7.351  15.064  68.944  1.00  0.00    -0.128 N  
HETATM   23  C   UNL     1      -6.697  16.172  69.663  1.00  0.00    -0.165 C  
HETATM   24  O   UNL     1      -5.819  13.560  69.757  1.00  0.00    -0.102 OA 
HETATM   25  C   UNL     1      -6.328  17.316  68.706  1.00  0.00    -0.181 C  
HETATM   26  N   UNL     1      -7.493  17.742  67.917  1.00  0.00    -0.206 N  
HETATM   27  C   UNL     1      -8.163  16.655  67.202  1.00  0.00    -0.179 C  
HETATM   28  C   UNL     1      -7.814  19.089  67.854  1.00  0.00    -0.271 C  
HETATM   29  C   UNL     1      -8.503  15.485  68.135  1.00  0.00    -0.147 C  
HETATM   30  O   UNL     1      -7.188  19.947  68.469  1.00  0.00    -0.314 OA 
BRANCH  28  31
HETATM   31  C   UNL     1      -8.998  19.504  67.038  1.00  0.00    -0.365 C  
HETATM   32  C   UNL     1     -10.362  19.538  67.691  1.00  0.00    -0.574 C  
HETATM   33  C   UNL     1      -9.691  20.822  67.305  1.00  0.00    -0.487 C  
ENDBRANCH  28  31
ENDBRANCH  19  21
ENDBRANCH  13  14
ENDBRANCH   6  13
TORSDOF 4
ENDMDL
MODEL       95
REMARK 921   NORMALIZED FREE ENERGY PREDICTED BY IDOCK:   -6.57 KCAL/MOL
REMARK 922        TOTAL FREE ENERGY PREDICTED BY IDOCK:   -8.85 KCAL/MOL
REMARK 923 INTER-LIGAND FREE ENERGY PREDICTED BY IDOCK:   -7.83 KCAL/MOL
REMARK 924 INTRA-LIGAND FREE ENERGY PREDICTED BY IDOCK:   -1.02 KCAL/MOL
REMARK 927      BINDING AFFINITY PREDICTED BY RF-SCORE:    0.00 PKD
ROOT
HETATM    1  O   UNL     1     -11.313  16.549  63.749  1.00  0.00    -1.553 OA 
HETATM    2  C   UNL     1     -11.153  15.684  64.789  1.00  0.00    -0.412 A  
HETATM    3  H   UNL     1     -11.658  16.147  62.960  1.00  0.00     0.000 HD 
HETATM    4  N   UNL     1     -10.665  16.253  65.904  1.00  0.00    -0.273 NA 
HETATM    5  N   UNL     1     -10.456  15.480  66.998  1.00  0.00    -0.298 NA 
HETATM    6  C   UNL     1     -10.743  14.153  66.964  1.00  0.00    -0.285 A  
HETATM    7  C   UNL     1     -11.278  13.530  65.809  1.00  0.00    -0.308 A  
HETATM    8  C   UNL     1     -12.317  12.420  63.412  1.00  0.00    -0.603 A  
HETATM    9  C   UNL     1     -11.627  12.159  65.708  1.00  0.00    -0.414 A  
HETATM   10  C   UNL     1     -11.479  14.337  64.669  1.00  0.00    -0.389 A  
HETATM   11  C   UNL     1     -12.143  11.615  64.529  1.00  0.00    -0.028 A  
HETATM   12  C   UNL     1     -11.988  13.772  63.481  1.00  0.00    -0.197 A  
ENDROOT
BRANCH   6  13
HETATM   13  C   UNL     1     -10.451  13.345  68.210  1.00  0.00    -0.256 C  
BRANCH  13  14
HETATM   14  C   UNL     1      -9.301  12.357  68.155  1.00  0.00    -0.209 A  
HETATM   15  C   UNL     1      -7.100  10.636  68.323  1.00  0.00    -0.081 A  
HETATM   16  C   UNL     1      -8.061  12.743  67.629  1.00  0.00    -0.175 A  
HETATM   17  C   UNL     1      -9.442  11.058  68.675  1.00  0.00    -0.197 A  
HETATM   18  F   UNL     1      -5.989   9.907  68.500  1.00  0.00    -0.042 F  
HETATM   19  C   UNL     1      -8.346  10.174  68.737  1.00  0.00    -0.122 A  
HETATM   20  C   UNL     1      -6.964  11.888  67.724  1.00  0.00    -0.102 A  
BRANCH  19  21
HETATM   21  C   UNL     1      -8.572   8.840  69.352  1.00  0.00    -0.133 C  
HETATM   22  N   UNL     1      -8.481   7.655  68.621  1.00  0.00    -0.129 N  
HETATM   23  C   UNL     1      -8.744   6.380  69.311  1.00  0.00    -0.125 C  
HETATM   24  O   UNL     1      -8.912   8.843  70.538  1.00  0.00    -0.158 OA 
HETATM   25  C   UNL     1      -9.811   5.556  68.573  1.00  0.00    -0.146 C  
HETATM   26  N   UNL     1      -9.462   5.389  67.155  1.00  0.00    -0.119 N  
HETATM   27  C   UNL     1      -9.189   6.644  66.453  1.00  0.00    -0.151 C  
HETATM   28  C   UNL     1      -9.487   4.121  66.595  1.00  0.00    -0.191 C  
HETATM   29  C   UNL     1      -8.155   7.499  67.198  1.00  0.00    -0.118 C  
HETATM   30  O   UNL     1      -9.747   3.115  67.248  1.00  0.00    -0.105 OA 
BRANCH  28  31
HETATM   31  C   UNL     1      -9.139   3.973  65.147  1.00  0.00    -0.139 C  
HETATM   32  C   UNL     1      -9.210   2.602  64.513  1.00  0.00    -0.134 C  
HETATM   33  C   UNL     1     -10.210   3.651  64.128  1.00  0.00    -0.232 C  
ENDBRANCH  28  31
ENDBRANCH  19  21
ENDBRANCH  13  14
ENDBRANCH   6  13
TORSDOF 4
ENDMDL
MODEL       96
REMARK 921   NORMALIZED FREE ENERGY PREDICTED BY IDOCK:   -6.56 KCAL/MOL
REMARK 922        TOTAL FREE ENERGY PREDICTED BY IDOCK:   -8.85 KCAL/MOL
REMARK 923 INTER-LIGAND FREE ENERGY PREDICTED BY IDOCK:   -7.98 KCAL/MOL
REMARK 924 INTRA-LIGAND FREE ENERGY PREDICTED BY IDOCK:   -0.86 KCAL/MOL
REMARK 927      BINDING AFFINITY PREDICTED BY RF-SCORE:    0.00 PKD
ROOT
HETATM    1  O   UNL     1     -11.534  17.121  64.089  1.00  0.00    -1.034 OA 
HETATM    2  C   UNL     1     -11.428  15.826  64.496  1.00  0.00    -0.289 A  
HETATM    3  H   UNL     1     -10.872  17.697  64.453  1.00  0.00     0.000 HD 
HETATM    4  N   UNL     1     -12.365  15.012  63.982  1.00  0.00    -0.732 NA 
HETATM    5  N   UNL     1     -12.359  13.701  64.330  1.00  0.00    -0.592 NA 
HETATM    6  C   UNL     1     -11.415  13.223  65.181  1.00  0.00    -0.295 A  
HETATM    7  C   UNL     1     -10.403  14.054  65.723  1.00  0.00    -0.330 A  
HETATM    8  C   UNL     1      -8.457  15.847  66.750  1.00  0.00    -0.297 A  
HETATM    9  C   UNL     1      -9.371  13.620  66.594  1.00  0.00    -0.265 A  
HETATM   10  C   UNL     1     -10.423  15.420  65.369  1.00  0.00    -0.426 A  
HETATM   11  C   UNL     1      -8.410  14.504  67.095  1.00  0.00    -0.226 A  
HETATM   12  C   UNL     1      -9.456  16.303  65.893  1.00  0.00    -0.318 A  
ENDROOT
BRANCH   6  13
HETATM   13  C   UNL     1     -11.491  11.758  65.553  1.00  0.00    -0.241 C  
BRANCH  13  14
HETATM   14  C   UNL     1     -10.322  10.872  65.168  1.00  0.00    -0.344 A  
HETATM   15  C   UNL     1      -7.996   9.483  64.462  1.00  0.00    -0.133 A  
HETATM   16  C   UNL     1     -10.004  10.666  63.819  1.00  0.00    -0.379 A  
HETATM   17  C   UNL     1      -9.507  10.285  66.153  1.00  0.00    -0.229 A  
HETATM   18  F   UNL     1      -6.830   8.946  64.075  1.00  0.00    -0.084 F  
HETATM   19  C   UNL     1      -8.349   9.559  65.806  1.00  0.00    -0.132 A  
HETATM   20  C   UNL     1      -8.839   9.983  63.470  1.00  0.00    -0.251 A  
BRANCH  19  21
HETATM   21  C   UNL     1      -7.518   9.020  66.914  1.00  0.00    -0.090 C  
HETATM   22  N   UNL     1      -7.607   7.693  67.337  1.00  0.00    -0.106 N  
HETATM   23  C   UNL     1      -6.758   7.254  68.459  1.00  0.00    -0.057 C  
HETATM   24  O   UNL     1      -6.788   9.833  67.486  1.00  0.00    -0.080 OA 
HETATM   25  C   UNL     1      -7.595   6.593  69.565  1.00  0.00    -0.095 C  
HETATM   26  N   UNL     1      -8.440   5.522  69.021  1.00  0.00    -0.101 N  
HETATM   27  C   UNL     1      -9.285   5.935  67.899  1.00  0.00    -0.108 C  
HETATM   28  C   UNL     1      -8.429   4.274  69.626  1.00  0.00    -0.068 C  
HETATM   29  C   UNL     1      -8.472   6.634  66.802  1.00  0.00    -0.117 C  
HETATM   30  O   UNL     1      -7.703   4.009  70.580  1.00  0.00    -0.047 OA 
BRANCH  28  31
HETATM   31  C   UNL     1      -9.304   3.199  69.062  1.00  0.00    -0.230 C  
HETATM   32  C   UNL     1      -8.670   2.086  68.256  1.00  0.00    -0.120 C  
HETATM   33  C   UNL     1      -9.240   1.790  69.611  1.00  0.00    -0.166 C  
ENDBRANCH  28  31
ENDBRANCH  19  21
ENDBRANCH  13  14
ENDBRANCH   6  13
TORSDOF 4
ENDMDL
MODEL       97
REMARK 921   NORMALIZED FREE ENERGY PREDICTED BY IDOCK:   -6.54 KCAL/MOL
REMARK 922        TOTAL FREE ENERGY PREDICTED BY IDOCK:   -8.82 KCAL/MOL
REMARK 923 INTER-LIGAND FREE ENERGY PREDICTED BY IDOCK:   -7.86 KCAL/MOL
REMARK 924 INTRA-LIGAND FREE ENERGY PREDICTED BY IDOCK:   -0.96 KCAL/MOL
REMARK 927      BINDING AFFINITY PREDICTED BY RF-SCORE:    0.00 PKD
ROOT
HETATM    1  O   UNL     1      -9.040   8.675  72.527  1.00  0.00    -0.322 OA 
HETATM    2  C   UNL     1      -8.940   8.911  71.190  1.00  0.00    -0.241 A  
HETATM    3  H   UNL     1      -9.631   7.967  72.753  1.00  0.00     0.000 HD 
HETATM    4  N   UNL     1      -8.104   9.913  70.871  1.00  0.00    -0.026 NA 
HETATM    5  N   UNL     1      -7.939  10.240  69.565  1.00  0.00    -0.162 NA 
HETATM    6  C   UNL     1      -8.606   9.557  68.599  1.00  0.00    -0.119 A  
HETATM    7  C   UNL     1      -9.478   8.484  68.904  1.00  0.00    -0.147 A  
HETATM    8  C   UNL     1     -11.215   6.374  69.674  1.00  0.00    -0.483 A  
HETATM    9  C   UNL     1     -10.185   7.710  67.949  1.00  0.00    -0.250 A  
HETATM   10  C   UNL     1      -9.658   8.158  70.265  1.00  0.00    -0.171 A  
HETATM   11  C   UNL     1     -11.036   6.668  68.329  1.00  0.00    -0.283 A  
HETATM   12  C   UNL     1     -10.530   7.114  70.636  1.00  0.00    -0.226 A  
ENDROOT
BRANCH   6  13
HETATM   13  C   UNL     1      -8.400  10.000  67.166  1.00  0.00    -0.121 C  
BRANCH  13  14
HETATM   14  C   UNL     1      -9.270  11.128  66.646  1.00  0.00    -0.188 A  
HETATM   15  C   UNL     1     -11.095  13.094  65.847  1.00  0.00    -0.278 A  
HETATM   16  C   UNL     1     -10.020  10.961  65.474  1.00  0.00    -0.315 A  
HETATM   17  C   UNL     1      -9.378  12.340  67.353  1.00  0.00    -0.183 A  
HETATM   18  F   UNL     1     -12.076  13.940  65.499  1.00  0.00    -0.335 F  
HETATM   19  C   UNL     1     -10.274  13.348  66.942  1.00  0.00    -0.252 A  
HETATM   20  C   UNL     1     -10.937  11.937  65.085  1.00  0.00    -0.365 A  
BRANCH  19  21
HETATM   21  C   UNL     1     -10.362  14.572  67.779  1.00  0.00    -0.237 C  
HETATM   22  N   UNL     1      -9.935  15.820  67.325  1.00  0.00    -0.235 N  
HETATM   23  C   UNL     1     -10.041  16.975  68.235  1.00  0.00    -0.306 C  
HETATM   24  O   UNL     1     -10.776  14.410  68.930  1.00  0.00    -0.242 OA 
HETATM   25  C   UNL     1      -8.694  17.701  68.374  1.00  0.00    -0.284 C  
HETATM   26  N   UNL     1      -8.141  18.046  67.057  1.00  0.00    -0.220 N  
HETATM   27  C   UNL     1      -8.035  16.915  66.135  1.00  0.00    -0.255 C  
HETATM   28  C   UNL     1      -7.714  19.344  66.819  1.00  0.00    -0.256 C  
HETATM   29  C   UNL     1      -9.362  16.153  66.015  1.00  0.00    -0.333 C  
HETATM   30  O   UNL     1      -7.819  20.238  67.654  1.00  0.00    -0.299 OA 
BRANCH  28  31
HETATM   31  C   UNL     1      -7.146  19.674  65.475  1.00  0.00    -0.288 C  
HETATM   32  C   UNL     1      -6.301  20.920  65.323  1.00  0.00    -0.232 C  
HETATM   33  C   UNL     1      -5.657  19.570  65.224  1.00  0.00    -0.203 C  
ENDBRANCH  28  31
ENDBRANCH  19  21
ENDBRANCH  13  14
ENDBRANCH   6  13
TORSDOF 4
ENDMDL
MODEL       98
REMARK 921   NORMALIZED FREE ENERGY PREDICTED BY IDOCK:   -6.49 KCAL/MOL
REMARK 922        TOTAL FREE ENERGY PREDICTED BY IDOCK:   -8.76 KCAL/MOL
REMARK 923 INTER-LIGAND FREE ENERGY PREDICTED BY IDOCK:   -7.80 KCAL/MOL
REMARK 924 INTRA-LIGAND FREE ENERGY PREDICTED BY IDOCK:   -0.96 KCAL/MOL
REMARK 927      BINDING AFFINITY PREDICTED BY RF-SCORE:    0.00 PKD
ROOT
HETATM    1  O   UNL     1      -9.871   3.196  65.471  1.00  0.00    -0.382 OA 
HETATM    2  C   UNL     1      -9.690   4.476  65.898  1.00  0.00    -0.205 A  
HETATM    3  H   UNL     1      -9.068   2.750  65.233  1.00  0.00     0.000 HD 
HETATM    4  N   UNL     1     -10.827   5.108  66.235  1.00  0.00    -0.233 NA 
HETATM    5  N   UNL     1     -10.762   6.393  66.665  1.00  0.00    -0.242 NA 
HETATM    6  C   UNL     1      -9.563   7.024  66.757  1.00  0.00    -0.171 A  
HETATM    7  C   UNL     1      -8.346   6.377  66.428  1.00  0.00    -0.119 A  
HETATM    8  C   UNL     1      -5.997   4.957  65.706  1.00  0.00    -0.023 A  
HETATM    9  C   UNL     1      -7.058   6.962  66.526  1.00  0.00    -0.067 A  
HETATM   10  C   UNL     1      -8.422   5.045  65.968  1.00  0.00    -0.116 A  
HETATM   11  C   UNL     1      -5.901   6.260  66.174  1.00  0.00    -0.024 A  
HETATM   12  C   UNL     1      -7.248   4.353  65.603  1.00  0.00    -0.072 A  
ENDROOT
BRANCH   6  13
HETATM   13  C   UNL     1      -9.569   8.468  67.210  1.00  0.00    -0.220 C  
BRANCH  13  14
HETATM   14  C   UNL     1      -9.741   9.538  66.149  1.00  0.00    -0.324 A  
HETATM   15  C   UNL     1     -10.314  11.379  64.119  1.00  0.00    -0.344 A  
HETATM   16  C   UNL     1      -9.256   9.332  64.850  1.00  0.00    -0.206 A  
HETATM   17  C   UNL     1     -10.431  10.731  66.432  1.00  0.00    -0.293 A  
HETATM   18  F   UNL     1     -10.674  12.156  63.088  1.00  0.00    -0.431 F  
HETATM   19  C   UNL     1     -10.699  11.677  65.422  1.00  0.00    -0.341 A  
HETATM   20  C   UNL     1      -9.552  10.245  63.838  1.00  0.00    -0.354 A  
BRANCH  19  21
HETATM   21  C   UNL     1     -11.482  12.882  65.800  1.00  0.00    -0.337 C  
HETATM   22  N   UNL     1     -10.874  14.076  66.191  1.00  0.00    -0.289 N  
HETATM   23  C   UNL     1     -11.732  15.213  66.569  1.00  0.00    -0.029 C  
HETATM   24  O   UNL     1     -12.708  12.748  65.813  1.00  0.00    -0.493 OA 
HETATM   25  C   UNL     1     -11.357  15.756  67.957  1.00  0.00    -0.310 C  
HETATM   26  N   UNL     1      -9.921  16.059  68.036  1.00  0.00    -0.227 N  
HETATM   27  C   UNL     1      -9.051  14.946  67.656  1.00  0.00    -0.183 C  
HETATM   28  C   UNL     1      -9.514  17.297  68.511  1.00  0.00    -0.285 C  
HETATM   29  C   UNL     1      -9.437  14.363  66.290  1.00  0.00    -0.271 C  
HETATM   30  O   UNL     1     -10.308  18.176  68.831  1.00  0.00    -0.356 OA 
BRANCH  28  31
HETATM   31  C   UNL     1      -8.047  17.583  68.593  1.00  0.00    -0.263 C  
HETATM   32  C   UNL     1      -7.381  18.326  67.456  1.00  0.00    -0.212 C  
HETATM   33  C   UNL     1      -7.551  18.999  68.785  1.00  0.00    -0.375 C  
ENDBRANCH  28  31
ENDBRANCH  19  21
ENDBRANCH  13  14
ENDBRANCH   6  13
TORSDOF 4
ENDMDL
MODEL       99
REMARK 921   NORMALIZED FREE ENERGY PREDICTED BY IDOCK:   -6.48 KCAL/MOL
REMARK 922        TOTAL FREE ENERGY PREDICTED BY IDOCK:   -8.74 KCAL/MOL
REMARK 923 INTER-LIGAND FREE ENERGY PREDICTED BY IDOCK:   -8.34 KCAL/MOL
REMARK 924 INTRA-LIGAND FREE ENERGY PREDICTED BY IDOCK:   -0.40 KCAL/MOL
REMARK 927      BINDING AFFINITY PREDICTED BY RF-SCORE:    0.00 PKD
ROOT
HETATM    1  O   UNL     1     -10.253  16.527  69.490  1.00  0.00    -0.263 OA 
HETATM    2  C   UNL     1     -10.905  15.341  69.642  1.00  0.00    -0.286 A  
HETATM    3  H   UNL     1     -10.455  17.169  70.161  1.00  0.00     0.000 HD 
HETATM    4  N   UNL     1     -10.620  14.434  68.693  1.00  0.00    -0.245 NA 
HETATM    5  N   UNL     1     -11.222  13.220  68.742  1.00  0.00    -0.262 NA 
HETATM    6  C   UNL     1     -12.094  12.929  69.742  1.00  0.00    -0.245 A  
HETATM    7  C   UNL     1     -12.399  13.858  70.767  1.00  0.00    -0.449 A  
HETATM    8  C   UNL     1     -12.930  15.834  72.735  1.00  0.00    -0.585 A  
HETATM    9  C   UNL     1     -13.277  13.615  71.854  1.00  0.00    -0.497 A  
HETATM   10  C   UNL     1     -11.780  15.125  70.702  1.00  0.00    -0.356 A  
HETATM   11  C   UNL     1     -13.533  14.587  72.825  1.00  0.00    -0.575 A  
HETATM   12  C   UNL     1     -12.059  16.101  71.681  1.00  0.00    -0.479 A  
ENDROOT
BRANCH   6  13
HETATM   13  C   UNL     1     -12.756  11.568  69.714  1.00  0.00     0.143 C  
BRANCH  13  14
HETATM   14  C   UNL     1     -12.314  10.548  70.745  1.00  0.00    -0.474 A  
HETATM   15  C   UNL     1     -11.576   8.457  72.454  1.00  0.00    -0.380 A  
HETATM   16  C   UNL     1     -13.229  10.041  71.677  1.00  0.00    -0.518 A  
HETATM   17  C   UNL     1     -10.995  10.058  70.755  1.00  0.00    -0.375 A  
HETATM   18  F   UNL     1     -11.315   7.371  73.194  1.00  0.00    -0.348 F  
HETATM   19  C   UNL     1     -10.607   9.025  71.632  1.00  0.00    -0.434 A  
HETATM   20  C   UNL     1     -12.862   8.991  72.519  1.00  0.00    -0.408 A  
BRANCH  19  21
HETATM   21  C   UNL     1      -9.208   8.531  71.535  1.00  0.00    -0.221 C  
HETATM   22  N   UNL     1      -8.573   8.321  70.311  1.00  0.00    -0.125 N  
HETATM   23  C   UNL     1      -7.191   7.808  70.314  1.00  0.00    -0.062 C  
HETATM   24  O   UNL     1      -8.659   8.253  72.605  1.00  0.00    -0.176 OA 
HETATM   25  C   UNL     1      -7.061   6.552  69.438  1.00  0.00    -0.077 C  
HETATM   26  N   UNL     1      -7.591   6.792  68.088  1.00  0.00    -0.105 N  
HETATM   27  C   UNL     1      -8.959   7.310  68.063  1.00  0.00    -0.131 C  
HETATM   28  C   UNL     1      -6.817   6.458  66.987  1.00  0.00    -0.066 C  
HETATM   29  C   UNL     1      -9.118   8.541  68.965  1.00  0.00    -0.146 C  
HETATM   30  O   UNL     1      -5.680   6.007  67.090  1.00  0.00    -0.015 OA 
BRANCH  28  31
HETATM   31  C   UNL     1      -7.377   6.701  65.620  1.00  0.00    -0.075 C  
HETATM   32  C   UNL     1      -7.079   8.013  64.929  1.00  0.00    -0.071 C  
HETATM   33  C   UNL     1      -6.466   6.746  64.413  1.00  0.00    -0.038 C  
ENDBRANCH  28  31
ENDBRANCH  19  21
ENDBRANCH  13  14
ENDBRANCH   6  13
TORSDOF 4
ENDMDL
MODEL      100
REMARK 921   NORMALIZED FREE ENERGY PREDICTED BY IDOCK:   -6.48 KCAL/MOL
REMARK 922        TOTAL FREE ENERGY PREDICTED BY IDOCK:   -8.74 KCAL/MOL
REMARK 923 INTER-LIGAND FREE ENERGY PREDICTED BY IDOCK:   -7.65 KCAL/MOL
REMARK 924 INTRA-LIGAND FREE ENERGY PREDICTED BY IDOCK:   -1.09 KCAL/MOL
REMARK 927      BINDING AFFINITY PREDICTED BY RF-SCORE:    0.00 PKD
ROOT
HETATM    1  O   UNL     1     -11.367  16.498  71.185  1.00  0.00    -0.477 OA 
HETATM    2  C   UNL     1     -11.395  15.788  70.023  1.00  0.00    -0.351 A  
HETATM    3  H   UNL     1     -10.808  17.266  71.155  1.00  0.00     0.000 HD 
HETATM    4  N   UNL     1     -12.185  14.702  70.065  1.00  0.00    -0.323 NA 
HETATM    5  N   UNL     1     -12.278  13.915  68.964  1.00  0.00    -0.318 NA 
HETATM    6  C   UNL     1     -11.587  14.229  67.838  1.00  0.00    -0.336 A  
HETATM    7  C   UNL     1     -10.762  15.378  67.759  1.00  0.00    -0.289 A  
HETATM    8  C   UNL     1      -9.128  17.699  67.762  1.00  0.00    -0.247 A  
HETATM    9  C   UNL     1     -10.034  15.783  66.611  1.00  0.00    -0.268 A  
HETATM   10  C   UNL     1     -10.658  16.185  68.912  1.00  0.00    -0.275 A  
HETATM   11  C   UNL     1      -9.234  16.929  66.612  1.00  0.00    -0.278 A  
HETATM   12  C   UNL     1      -9.835  17.330  68.904  1.00  0.00    -0.286 A  
ENDROOT
BRANCH   6  13
HETATM   13  C   UNL     1     -11.711  13.287  66.659  1.00  0.00    -0.425 C  
BRANCH  13  14
HETATM   14  C   UNL     1     -10.811  12.066  66.636  1.00  0.00    -0.311 A  
HETATM   15  C   UNL     1      -8.928   9.997  66.527  1.00  0.00    -0.143 A  
HETATM   16  C   UNL     1     -10.606  11.360  65.443  1.00  0.00    -0.333 A  
HETATM   17  C   UNL     1     -10.131  11.650  67.795  1.00  0.00    -0.200 A  
HETATM   18  F   UNL     1      -7.946   9.096  66.389  1.00  0.00    -0.096 F  
HETATM   19  C   UNL     1      -9.202  10.591  67.756  1.00  0.00    -0.151 A  
HETATM   20  C   UNL     1      -9.659  10.338  65.388  1.00  0.00    -0.310 A  
BRANCH  19  21
HETATM   21  C   UNL     1      -8.488  10.255  69.015  1.00  0.00    -0.150 C  
HETATM   22  N   UNL     1      -8.797   9.123  69.770  1.00  0.00    -0.149 N  
HETATM   23  C   UNL     1      -8.051   8.883  71.018  1.00  0.00    -0.170 C  
HETATM   24  O   UNL     1      -7.646  11.073  69.393  1.00  0.00    -0.128 OA 
HETATM   25  C   UNL     1      -9.003   8.683  72.207  1.00  0.00    -0.175 C  
HETATM   26  N   UNL     1     -10.000   7.643  71.917  1.00  0.00    -0.173 N  
HETATM   27  C   UNL     1     -10.748   7.858  70.677  1.00  0.00    -0.228 C  
HETATM   28  C   UNL     1     -10.202   6.621  72.832  1.00  0.00    -0.195 C  
HETATM   29  C   UNL     1      -9.813   8.101  69.484  1.00  0.00    -0.181 C  
HETATM   30  O   UNL     1      -9.546   6.520  73.864  1.00  0.00    -0.165 OA 
BRANCH  28  31
HETATM   31  C   UNL     1     -11.229   5.578  72.523  1.00  0.00    -0.330 C  
HETATM   32  C   UNL     1     -10.780   4.264  71.922  1.00  0.00     0.140 C  
HETATM   33  C   UNL     1     -11.293   4.300  73.330  1.00  0.00    -0.324 C  
ENDBRANCH  28  31
ENDBRANCH  19  21
ENDBRANCH  13  14
ENDBRANCH   6  13
TORSDOF 4
ENDMDL
MODEL      101
REMARK 921   NORMALIZED FREE ENERGY PREDICTED BY IDOCK:   -6.46 KCAL/MOL
REMARK 922        TOTAL FREE ENERGY PREDICTED BY IDOCK:   -8.71 KCAL/MOL
REMARK 923 INTER-LIGAND FREE ENERGY PREDICTED BY IDOCK:   -7.84 KCAL/MOL
REMARK 924 INTRA-LIGAND FREE ENERGY PREDICTED BY IDOCK:   -0.87 KCAL/MOL
REMARK 927      BINDING AFFINITY PREDICTED BY RF-SCORE:    0.00 PKD
ROOT
HETATM    1  O   UNL     1     -11.300  16.700  64.189  1.00  0.00    -1.419 OA 
HETATM    2  C   UNL     1     -11.187  15.707  65.113  1.00  0.00    -0.282 A  
HETATM    3  H   UNL     1     -11.668  16.418  63.360  1.00  0.00     0.000 HD 
HETATM    4  N   UNL     1     -10.666  16.106  66.286  1.00  0.00    -0.261 NA 
HETATM    5  N   UNL     1     -10.499  15.193  67.275  1.00  0.00    -0.267 NA 
HETATM    6  C   UNL     1     -10.859  13.898  67.079  1.00  0.00    -0.285 A  
HETATM    7  C   UNL     1     -11.428  13.453  65.861  1.00  0.00    -0.344 A  
HETATM    8  C   UNL     1     -12.531  12.706  63.354  1.00  0.00    -0.474 A  
HETATM    9  C   UNL     1     -11.853  12.126  65.595  1.00  0.00    -0.343 A  
HETATM   10  C   UNL     1     -11.587  14.404  64.831  1.00  0.00    -0.395 A  
HETATM   11  C   UNL     1     -12.401  11.760  64.362  1.00  0.00    -0.119 A  
HETATM   12  C   UNL     1     -12.127  14.019  63.586  1.00  0.00    -0.156 A  
ENDROOT
BRANCH   6  13
HETATM   13  C   UNL     1     -10.611  12.927  68.214  1.00  0.00    -0.259 C  
BRANCH  13  14
HETATM   14  C   UNL     1      -9.496  11.914  68.042  1.00  0.00    -0.197 A  
HETATM   15  C   UNL     1      -7.464   9.989  68.015  1.00  0.00    -0.088 A  
HETATM   16  C   UNL     1      -8.159  12.296  68.211  1.00  0.00    -0.166 A  
HETATM   17  C   UNL     1      -9.785  10.566  67.759  1.00  0.00    -0.180 A  
HETATM   18  F   UNL     1      -6.475   9.093  68.147  1.00  0.00    -0.055 F  
HETATM   19  C   UNL     1      -8.764   9.594  67.716  1.00  0.00    -0.122 A  
HETATM   20  C   UNL     1      -7.149  11.333  68.209  1.00  0.00    -0.074 A  
BRANCH  19  21
HETATM   21  C   UNL     1      -9.167   8.186  67.465  1.00  0.00    -0.137 C  
HETATM   22  N   UNL     1      -9.572   7.330  68.491  1.00  0.00    -0.140 N  
HETATM   23  C   UNL     1      -9.932   5.943  68.149  1.00  0.00    -0.145 C  
HETATM   24  O   UNL     1      -9.058   7.792  66.301  1.00  0.00    -0.172 OA 
HETATM   25  C   UNL     1      -9.146   4.937  69.006  1.00  0.00    -0.111 C  
HETATM   26  N   UNL     1      -9.285   5.239  70.437  1.00  0.00    -0.144 N  
HETATM   27  C   UNL     1      -8.941   6.616  70.796  1.00  0.00    -0.151 C  
HETATM   28  C   UNL     1      -9.646   4.227  71.313  1.00  0.00    -0.172 C  
HETATM   29  C   UNL     1      -9.686   7.635  69.923  1.00  0.00    -0.175 C  
HETATM   30  O   UNL     1      -9.901   3.087  70.936  1.00  0.00    -0.140 OA 
BRANCH  28  31
HETATM   31  C   UNL     1      -9.773   4.552  72.768  1.00  0.00    -0.180 C  
HETATM   32  C   UNL     1     -11.094   5.074  73.289  1.00  0.00    -0.406 C  
HETATM   33  C   UNL     1     -10.636   3.699  73.673  1.00  0.00    -0.281 C  
ENDBRANCH  28  31
ENDBRANCH  19  21
ENDBRANCH  13  14
ENDBRANCH   6  13
TORSDOF 4
ENDMDL
MODEL      102
REMARK 921   NORMALIZED FREE ENERGY PREDICTED BY IDOCK:   -6.44 KCAL/MOL
REMARK 922        TOTAL FREE ENERGY PREDICTED BY IDOCK:   -8.69 KCAL/MOL
REMARK 923 INTER-LIGAND FREE ENERGY PREDICTED BY IDOCK:   -8.42 KCAL/MOL
REMARK 924 INTRA-LIGAND FREE ENERGY PREDICTED BY IDOCK:   -0.27 KCAL/MOL
REMARK 927      BINDING AFFINITY PREDICTED BY RF-SCORE:    0.00 PKD
ROOT
HETATM    1  O   UNL     1     -11.097  17.141  64.444  1.00  0.00    -1.100 OA 
HETATM    2  C   UNL     1     -11.279  15.926  65.031  1.00  0.00    -0.290 A  
HETATM    3  H   UNL     1     -10.866  17.834  65.051  1.00  0.00     0.000 HD 
HETATM    4  N   UNL     1     -11.607  14.946  64.172  1.00  0.00    -0.145 NA 
HETATM    5  N   UNL     1     -11.821  13.696  64.652  1.00  0.00    -0.379 NA 
HETATM    6  C   UNL     1     -11.699  13.443  65.981  1.00  0.00    -0.362 A  
HETATM    7  C   UNL     1     -11.335  14.451  66.907  1.00  0.00    -0.357 A  
HETATM    8  C   UNL     1     -10.626  16.582  68.643  1.00  0.00    -0.316 A  
HETATM    9  C   UNL     1     -11.161  14.255  68.301  1.00  0.00    -0.298 A  
HETATM   10  C   UNL     1     -11.127  15.753  66.403  1.00  0.00    -0.070 A  
HETATM   11  C   UNL     1     -10.807  15.304  69.154  1.00  0.00    -0.250 A  
HETATM   12  C   UNL     1     -10.784  16.805  67.278  1.00  0.00    -0.213 A  
ENDROOT
BRANCH   6  13
HETATM   13  C   UNL     1     -11.988  12.033  66.450  1.00  0.00    -0.096 C  
BRANCH  13  14
HETATM   14  C   UNL     1     -10.961  11.364  67.344  1.00  0.00    -0.326 A  
HETATM   15  C   UNL     1      -9.034  10.393  69.127  1.00  0.00    -0.179 A  
HETATM   16  C   UNL     1      -9.606  11.365  66.988  1.00  0.00    -0.192 A  
HETATM   17  C   UNL     1     -11.341  10.778  68.565  1.00  0.00    -0.360 A  
HETATM   18  F   UNL     1      -8.066  10.068  69.996  1.00  0.00    -0.154 F  
HETATM   19  C   UNL     1     -10.380  10.260  69.457  1.00  0.00    -0.267 A  
HETATM   20  C   UNL     1      -8.647  10.891  67.884  1.00  0.00    -0.130 A  
BRANCH  19  21
HETATM   21  C   UNL     1     -10.866   9.709  70.748  1.00  0.00    -0.330 C  
HETATM   22  N   UNL     1     -10.470   8.458  71.223  1.00  0.00    -0.207 N  
HETATM   23  C   UNL     1     -11.023   7.985  72.505  1.00  0.00    -0.364 C  
HETATM   24  O   UNL     1     -11.698  10.395  71.349  1.00  0.00    -0.308 OA 
HETATM   25  C   UNL     1     -11.658   6.593  72.357  1.00  0.00    -0.245 C  
HETATM   26  N   UNL     1     -10.718   5.645  71.743  1.00  0.00    -0.241 N  
HETATM   27  C   UNL     1     -10.150   6.101  70.473  1.00  0.00    -0.189 C  
HETATM   28  C   UNL     1     -10.501   4.416  72.347  1.00  0.00    -0.149 C  
HETATM   29  C   UNL     1      -9.548   7.507  70.591  1.00  0.00    -0.171 C  
HETATM   30  O   UNL     1     -11.032   4.098  73.407  1.00  0.00    -0.218 OA 
BRANCH  28  31
HETATM   31  C   UNL     1      -9.548   3.461  71.701  1.00  0.00    -0.229 C  
HETATM   32  C   UNL     1      -8.584   2.685  72.572  1.00  0.00    -0.081 C  
HETATM   33  C   UNL     1      -9.710   1.968  71.889  1.00  0.00    -0.205 C  
ENDBRANCH  28  31
ENDBRANCH  19  21
ENDBRANCH  13  14
ENDBRANCH   6  13
TORSDOF 4
ENDMDL
MODEL      103
REMARK 921   NORMALIZED FREE ENERGY PREDICTED BY IDOCK:   -6.43 KCAL/MOL
REMARK 922        TOTAL FREE ENERGY PREDICTED BY IDOCK:   -8.69 KCAL/MOL
REMARK 923 INTER-LIGAND FREE ENERGY PREDICTED BY IDOCK:   -7.77 KCAL/MOL
REMARK 924 INTRA-LIGAND FREE ENERGY PREDICTED BY IDOCK:   -0.92 KCAL/MOL
REMARK 927      BINDING AFFINITY PREDICTED BY RF-SCORE:    0.00 PKD
ROOT
HETATM    1  O   UNL     1     -12.558  14.378  63.211  1.00  0.00    -1.043 OA 
HETATM    2  C   UNL     1     -12.239  13.953  64.465  1.00  0.00    -0.417 A  
HETATM    3  H   UNL     1     -12.218  15.239  62.996  1.00  0.00     0.000 HD 
HETATM    4  N   UNL     1     -12.721  12.736  64.770  1.00  0.00    -0.706 NA 
HETATM    5  N   UNL     1     -12.471  12.220  65.999  1.00  0.00    -0.328 NA 
HETATM    6  C   UNL     1     -11.740  12.923  66.901  1.00  0.00    -0.382 A  
HETATM    7  C   UNL     1     -11.203  14.200  66.601  1.00  0.00    -0.330 A  
HETATM    8  C   UNL     1     -10.217  16.757  65.863  1.00  0.00    -0.345 A  
HETATM    9  C   UNL     1     -10.410  14.979  67.482  1.00  0.00    -0.241 A  
HETATM   10  C   UNL     1     -11.478  14.738  65.326  1.00  0.00    -0.352 A  
HETATM   11  C   UNL     1      -9.920  16.236  67.115  1.00  0.00    -0.257 A  
HETATM   12  C   UNL     1     -10.991  16.014  64.975  1.00  0.00    -0.393 A  
ENDROOT
BRANCH   6  13
HETATM   13  C   UNL     1     -11.531  12.301  68.265  1.00  0.00    -0.367 C  
BRANCH  13  14
HETATM   14  C   UNL     1     -10.418  11.282  68.411  1.00  0.00    -0.219 A  
HETATM   15  C   UNL     1      -8.416   9.407  68.973  1.00  0.00    -0.129 A  
HETATM   16  C   UNL     1      -9.099  11.701  68.631  1.00  0.00    -0.103 A  
HETATM   17  C   UNL     1     -10.693   9.903  68.379  1.00  0.00    -0.271 A  
HETATM   18  F   UNL     1      -7.455   8.565  69.379  1.00  0.00    -0.078 F  
HETATM   19  C   UNL     1      -9.686   8.950  68.633  1.00  0.00    -0.169 A  
HETATM   20  C   UNL     1      -8.106  10.766  68.922  1.00  0.00    -0.145 A  
BRANCH  19  21
HETATM   21  C   UNL     1     -10.079   7.517  68.633  1.00  0.00    -0.184 C  
HETATM   22  N   UNL     1      -9.519   6.589  67.754  1.00  0.00    -0.120 N  
HETATM   23  C   UNL     1      -9.987   5.193  67.813  1.00  0.00    -0.156 C  
HETATM   24  O   UNL     1     -10.982   7.205  69.414  1.00  0.00    -0.225 OA 
HETATM   25  C   UNL     1     -10.441   4.699  66.431  1.00  0.00    -0.163 C  
HETATM   26  N   UNL     1      -9.397   4.921  65.421  1.00  0.00    -0.156 N  
HETATM   27  C   UNL     1      -8.911   6.300  65.352  1.00  0.00     0.096 C  
HETATM   28  C   UNL     1      -9.016   3.873  64.596  1.00  0.00    -0.131 C  
HETATM   29  C   UNL     1      -8.492   6.824  66.732  1.00  0.00    -0.117 C  
HETATM   30  O   UNL     1      -9.486   2.744  64.703  1.00  0.00    -0.151 OA 
BRANCH  28  31
HETATM   31  C   UNL     1      -7.958   4.121  63.568  1.00  0.00    -0.084 C  
HETATM   32  C   UNL     1      -6.819   3.134  63.434  1.00  0.00    -0.036 C  
HETATM   33  C   UNL     1      -7.848   3.232  62.348  1.00  0.00    -0.062 C  
ENDBRANCH  28  31
ENDBRANCH  19  21
ENDBRANCH  13  14
ENDBRANCH   6  13
TORSDOF 4
ENDMDL
MODEL      104
REMARK 921   NORMALIZED FREE ENERGY PREDICTED BY IDOCK:   -6.38 KCAL/MOL
REMARK 922        TOTAL FREE ENERGY PREDICTED BY IDOCK:   -8.62 KCAL/MOL
REMARK 923 INTER-LIGAND FREE ENERGY PREDICTED BY IDOCK:   -7.90 KCAL/MOL
REMARK 924 INTRA-LIGAND FREE ENERGY PREDICTED BY IDOCK:   -0.72 KCAL/MOL
REMARK 927      BINDING AFFINITY PREDICTED BY RF-SCORE:    0.00 PKD
ROOT
HETATM    1  O   UNL     1     -11.785  12.686  68.326  1.00  0.00    -0.308 OA 
HETATM    2  C   UNL     1     -10.919  12.067  67.478  1.00  0.00    -0.253 A  
HETATM    3  H   UNL     1     -12.535  13.080  67.895  1.00  0.00     0.000 HD 
HETATM    4  N   UNL     1      -9.858  11.511  68.088  1.00  0.00    -0.188 NA 
HETATM    5  N   UNL     1      -8.926  10.877  67.336  1.00  0.00    -0.136 NA 
HETATM    6  C   UNL     1      -9.069  10.802  65.987  1.00  0.00    -0.185 A  
HETATM    7  C   UNL     1     -10.186  11.362  65.319  1.00  0.00    -0.320 A  
HETATM    8  C   UNL     1     -12.465  12.556  64.120  1.00  0.00    -0.518 A  
HETATM    9  C   UNL     1     -10.416  11.299  63.921  1.00  0.00    -0.452 A  
HETATM   10  C   UNL     1     -11.146  12.033  66.106  1.00  0.00    -0.367 A  
HETATM   11  C   UNL     1     -11.542  11.884  63.332  1.00  0.00    -0.477 A  
HETATM   12  C   UNL     1     -12.269  12.631  65.498  1.00  0.00    -0.501 A  
ENDROOT
BRANCH   6  13
HETATM   13  C   UNL     1      -7.972  10.110  65.207  1.00  0.00    -0.145 C  
BRANCH  13  14
HETATM   14  C   UNL     1      -8.120   8.623  64.951  1.00  0.00    -0.146 A  
HETATM   15  C   UNL     1      -8.107   5.852  64.552  1.00  0.00    -0.132 A  
HETATM   16  C   UNL     1      -7.854   8.093  63.681  1.00  0.00    -0.151 A  
HETATM   17  C   UNL     1      -8.477   7.744  65.990  1.00  0.00    -0.146 A  
HETATM   18  F   UNL     1      -7.956   4.537  64.343  1.00  0.00    -0.085 F  
HETATM   19  C   UNL     1      -8.502   6.349  65.791  1.00  0.00    -0.148 A  
HETATM   20  C   UNL     1      -7.837   6.712  63.488  1.00  0.00    -0.109 A  
BRANCH  19  21
HETATM   21  C   UNL     1      -8.837   5.494  66.959  1.00  0.00    -0.110 C  
HETATM   22  N   UNL     1      -9.890   5.790  67.825  1.00  0.00    -0.120 N  
HETATM   23  C   UNL     1     -10.133   4.895  68.970  1.00  0.00    -0.140 C  
HETATM   24  O   UNL     1      -8.085   4.536  67.160  1.00  0.00    -0.101 OA 
HETATM   25  C   UNL     1     -10.174   5.679  70.291  1.00  0.00    -0.243 C  
HETATM   26  N   UNL     1     -11.124   6.797  70.214  1.00  0.00    -0.288 N  
HETATM   27  C   UNL     1     -10.905   7.694  69.078  1.00  0.00    -0.040 C  
HETATM   28  C   UNL     1     -12.070   6.954  71.215  1.00  0.00    -0.373 C  
HETATM   29  C   UNL     1     -10.821   6.924  67.753  1.00  0.00    -0.241 C  
HETATM   30  O   UNL     1     -12.179   6.168  72.151  1.00  0.00    -0.319 OA 
BRANCH  28  31
HETATM   31  C   UNL     1     -13.023   8.105  71.124  1.00  0.00    -0.082 C  
HETATM   32  C   UNL     1     -14.318   8.048  71.905  1.00  0.00    -0.559 C  
HETATM   33  C   UNL     1     -13.246   9.014  72.312  1.00  0.00    -0.519 C  
ENDBRANCH  28  31
ENDBRANCH  19  21
ENDBRANCH  13  14
ENDBRANCH   6  13
TORSDOF 4
ENDMDL
MODEL      105
REMARK 921   NORMALIZED FREE ENERGY PREDICTED BY IDOCK:   -6.37 KCAL/MOL
REMARK 922        TOTAL FREE ENERGY PREDICTED BY IDOCK:   -8.61 KCAL/MOL
REMARK 923 INTER-LIGAND FREE ENERGY PREDICTED BY IDOCK:   -7.90 KCAL/MOL
REMARK 924 INTRA-LIGAND FREE ENERGY PREDICTED BY IDOCK:   -0.71 KCAL/MOL
REMARK 927      BINDING AFFINITY PREDICTED BY RF-SCORE:    0.00 PKD
ROOT
HETATM    1  O   UNL     1     -10.925   6.373  70.783  1.00  0.00    -0.256 OA 
HETATM    2  C   UNL     1     -10.838   7.546  70.097  1.00  0.00    -0.249 A  
HETATM    3  H   UNL     1     -11.467   6.418  71.561  1.00  0.00     0.000 HD 
HETATM    4  N   UNL     1     -10.070   7.481  68.997  1.00  0.00    -0.187 NA 
HETATM    5  N   UNL     1      -9.906   8.597  68.243  1.00  0.00    -0.160 NA 
HETATM    6  C   UNL     1     -10.517   9.757  68.597  1.00  0.00    -0.208 A  
HETATM    7  C   UNL     1     -11.348   9.850  69.741  1.00  0.00    -0.241 A  
HETATM    8  C   UNL     1     -12.962   9.887  72.076  1.00  0.00    -0.518 A  
HETATM    9  C   UNL     1     -12.038  11.017  70.156  1.00  0.00    -0.438 A  
HETATM   10  C   UNL     1     -11.503   8.689  70.528  1.00  0.00    -0.208 A  
HETATM   11  C   UNL     1     -12.837  11.033  71.303  1.00  0.00    -0.528 A  
HETATM   12  C   UNL     1     -12.300   8.723  71.692  1.00  0.00    -0.394 A  
ENDROOT
BRANCH   6  13
HETATM   13  C   UNL     1     -10.261  10.971  67.730  1.00  0.00    -0.210 C  
BRANCH  13  14
HETATM   14  C   UNL     1      -9.289  12.014  68.248  1.00  0.00    -0.197 A  
HETATM   15  C   UNL     1      -7.426  13.992  68.920  1.00  0.00    -0.095 A  
HETATM   16  C   UNL     1      -7.958  11.668  68.520  1.00  0.00    -0.144 A  
HETATM   17  C   UNL     1      -9.689  13.352  68.417  1.00  0.00    -0.201 A  
HETATM   18  F   UNL     1      -6.471  14.915  69.110  1.00  0.00    -0.096 F  
HETATM   19  C   UNL     1      -8.764  14.350  68.783  1.00  0.00    -0.129 A  
HETATM   20  C   UNL     1      -7.030  12.658  68.843  1.00  0.00    -0.086 A  
BRANCH  19  21
HETATM   21  C   UNL     1      -9.263  15.746  68.886  1.00  0.00    -0.227 C  
HETATM   22  N   UNL     1      -8.759  16.780  68.096  1.00  0.00    -0.212 N  
HETATM   23  C   UNL     1      -9.301  18.138  68.283  1.00  0.00    -0.303 C  
HETATM   24  O   UNL     1     -10.107  15.955  69.761  1.00  0.00    -0.273 OA 
HETATM   25  C   UNL     1      -8.178  19.156  68.535  1.00  0.00    -0.364 C  
HETATM   26  N   UNL     1      -7.149  19.078  67.488  1.00  0.00    -0.209 N  
HETATM   27  C   UNL     1      -6.604  17.736  67.280  1.00  0.00    -0.164 C  
HETATM   28  C   UNL     1      -6.738  20.241  66.854  1.00  0.00    -0.232 C  
HETATM   29  C   UNL     1      -7.714  16.698  67.067  1.00  0.00    -0.200 C  
HETATM   30  O   UNL     1      -7.232  21.338  67.098  1.00  0.00    -0.475 OA 
BRANCH  28  31
HETATM   31  C   UNL     1      -5.683  20.143  65.797  1.00  0.00    -0.198 C  
HETATM   32  C   UNL     1      -6.102  20.131  64.343  1.00  0.00    -0.319 C  
HETATM   33  C   UNL     1      -5.384  21.323  64.899  1.00  0.00    -0.181 C  
ENDBRANCH  28  31
ENDBRANCH  19  21
ENDBRANCH  13  14
ENDBRANCH   6  13
TORSDOF 4
ENDMDL
MODEL      106
REMARK 921   NORMALIZED FREE ENERGY PREDICTED BY IDOCK:   -6.31 KCAL/MOL
REMARK 922        TOTAL FREE ENERGY PREDICTED BY IDOCK:   -8.54 KCAL/MOL
REMARK 923 INTER-LIGAND FREE ENERGY PREDICTED BY IDOCK:   -7.73 KCAL/MOL
REMARK 924 INTRA-LIGAND FREE ENERGY PREDICTED BY IDOCK:   -0.81 KCAL/MOL
REMARK 927      BINDING AFFINITY PREDICTED BY RF-SCORE:    0.00 PKD
ROOT
HETATM    1  O   UNL     1      -9.901   3.728  70.985  1.00  0.00    -0.183 OA 
HETATM    2  C   UNL     1     -10.153   5.058  70.840  1.00  0.00    -0.232 A  
HETATM    3  H   UNL     1      -9.382   3.514  71.751  1.00  0.00     0.000 HD 
HETATM    4  N   UNL     1     -10.887   5.362  69.756  1.00  0.00    -0.230 NA 
HETATM    5  N   UNL     1     -11.188   6.661  69.509  1.00  0.00    -0.329 NA 
HETATM    6  C   UNL     1     -10.758   7.635  70.352  1.00  0.00    -0.236 A  
HETATM    7  C   UNL     1     -10.000   7.343  71.513  1.00  0.00    -0.193 A  
HETATM    8  C   UNL     1      -8.466   6.605  73.784  1.00  0.00    -0.136 A  
HETATM    9  C   UNL     1      -9.541   8.303  72.450  1.00  0.00    -0.364 A  
HETATM   10  C   UNL     1      -9.677   5.991  71.756  1.00  0.00    -0.171 A  
HETATM   11  C   UNL     1      -8.789   7.938  73.572  1.00  0.00    -0.333 A  
HETATM   12  C   UNL     1      -8.906   5.638  72.883  1.00  0.00    -0.124 A  
ENDROOT
BRANCH   6  13
HETATM   13  C   UNL     1     -11.101   9.066  69.995  1.00  0.00    -0.197 C  
BRANCH  13  14
HETATM   14  C   UNL     1     -10.411   9.676  68.791  1.00  0.00    -0.238 A  
HETATM   15  C   UNL     1      -9.359  11.001  66.561  1.00  0.00    -0.180 A  
HETATM   16  C   UNL     1     -10.740   9.251  67.496  1.00  0.00    -0.272 A  
HETATM   17  C   UNL     1      -9.469  10.709  68.946  1.00  0.00    -0.199 A  
HETATM   18  F   UNL     1      -8.991  11.686  65.468  1.00  0.00    -0.189 F  
HETATM   19  C   UNL     1      -8.912  11.364  67.828  1.00  0.00    -0.147 A  
HETATM   20  C   UNL     1     -10.223   9.921  66.387  1.00  0.00    -0.292 A  
BRANCH  19  21
HETATM   21  C   UNL     1      -7.967  12.481  68.086  1.00  0.00    -0.157 C  
HETATM   22  N   UNL     1      -8.354  13.819  68.013  1.00  0.00    -0.159 N  
HETATM   23  C   UNL     1      -7.341  14.860  68.263  1.00  0.00    -0.109 C  
HETATM   24  O   UNL     1      -6.796  12.158  68.305  1.00  0.00    -0.060 OA 
HETATM   25  C   UNL     1      -7.286  15.873  67.109  1.00  0.00    -0.223 C  
HETATM   26  N   UNL     1      -8.620  16.417  66.819  1.00  0.00    -0.210 N  
HETATM   27  C   UNL     1      -9.643  15.399  66.576  1.00  0.00    -0.275 C  
HETATM   28  C   UNL     1      -8.789  17.790  66.730  1.00  0.00    -0.260 C  
HETATM   29  C   UNL     1      -9.685  14.354  67.699  1.00  0.00    -0.219 C  
HETATM   30  O   UNL     1      -7.873  18.583  66.929  1.00  0.00    -0.222 OA 
BRANCH  28  31
HETATM   31  C   UNL     1     -10.153  18.324  66.424  1.00  0.00    -0.406 C  
HETATM   32  C   UNL     1     -10.745  19.383  67.329  1.00  0.00    -0.603 C  
HETATM   33  C   UNL     1     -10.329  19.745  65.935  1.00  0.00    -0.582 C  
ENDBRANCH  28  31
ENDBRANCH  19  21
ENDBRANCH  13  14
ENDBRANCH   6  13
TORSDOF 4
ENDMDL
MODEL      107
REMARK 921   NORMALIZED FREE ENERGY PREDICTED BY IDOCK:   -6.28 KCAL/MOL
REMARK 922        TOTAL FREE ENERGY PREDICTED BY IDOCK:   -8.49 KCAL/MOL
REMARK 923 INTER-LIGAND FREE ENERGY PREDICTED BY IDOCK:   -7.86 KCAL/MOL
REMARK 924 INTRA-LIGAND FREE ENERGY PREDICTED BY IDOCK:   -0.63 KCAL/MOL
REMARK 927      BINDING AFFINITY PREDICTED BY RF-SCORE:    0.00 PKD
ROOT
HETATM    1  O   UNL     1     -10.320  19.972  69.470  1.00  0.00    -0.602 OA 
HETATM    2  C   UNL     1      -9.978  18.971  68.612  1.00  0.00    -0.418 A  
HETATM    3  H   UNL     1      -9.768  20.742  69.406  1.00  0.00     0.000 HD 
HETATM    4  N   UNL     1     -10.757  17.881  68.704  1.00  0.00    -0.136 NA 
HETATM    5  N   UNL     1     -10.498  16.819  67.901  1.00  0.00    -0.322 NA 
HETATM    6  C   UNL     1      -9.469  16.864  67.016  1.00  0.00    -0.244 A  
HETATM    7  C   UNL     1      -8.642  18.008  66.885  1.00  0.00    -0.262 A  
HETATM    8  C   UNL     1      -7.057  20.358  66.755  1.00  0.00    -0.319 A  
HETATM    9  C   UNL     1      -7.569  18.137  65.966  1.00  0.00    -0.233 A  
HETATM   10  C   UNL     1      -8.908  19.104  67.732  1.00  0.00    -0.339 A  
HETATM   11  C   UNL     1      -6.792  19.298  65.900  1.00  0.00    -0.289 A  
HETATM   12  C   UNL     1      -8.107  20.263  67.665  1.00  0.00    -0.313 A  
ENDROOT
BRANCH   6  13
HETATM   13  C   UNL     1      -9.216  15.630  66.178  1.00  0.00    -0.378 C  
BRANCH  13  14
HETATM   14  C   UNL     1      -8.572  14.437  66.858  1.00  0.00    -0.191 A  
HETATM   15  C   UNL     1      -7.582  12.272  68.331  1.00  0.00    -0.128 A  
HETATM   16  C   UNL     1      -7.522  14.622  67.768  1.00  0.00    -0.180 A  
HETATM   17  C   UNL     1      -9.045  13.132  66.627  1.00  0.00    -0.180 A  
HETATM   18  F   UNL     1      -7.169  11.298  69.154  1.00  0.00    -0.093 F  
HETATM   19  C   UNL     1      -8.533  12.032  67.344  1.00  0.00    -0.170 A  
HETATM   20  C   UNL     1      -7.039  13.544  68.509  1.00  0.00    -0.108 A  
BRANCH  19  21
HETATM   21  C   UNL     1      -9.131  10.698  67.075  1.00  0.00    -0.144 C  
HETATM   22  N   UNL     1      -9.817   9.976  68.052  1.00  0.00    -0.140 N  
HETATM   23  C   UNL     1     -10.357   8.651  67.699  1.00  0.00    -0.254 C  
HETATM   24  O   UNL     1      -8.928  10.232  65.950  1.00  0.00    -0.150 OA 
HETATM   25  C   UNL     1      -9.884   7.575  68.689  1.00  0.00    -0.165 C  
HETATM   26  N   UNL     1     -10.170   7.970  70.075  1.00  0.00    -0.201 N  
HETATM   27  C   UNL     1      -9.649   9.288  70.444  1.00  0.00    -0.244 C  
HETATM   28  C   UNL     1     -10.818   7.078  70.915  1.00  0.00    -0.241 C  
HETATM   29  C   UNL     1     -10.078  10.369  69.443  1.00  0.00    -0.229 C  
HETATM   30  O   UNL     1     -11.209   5.977  70.536  1.00  0.00    -0.323 OA 
BRANCH  28  31
HETATM   31  C   UNL     1     -11.092   7.494  72.326  1.00  0.00    -0.319 C  
HETATM   32  C   UNL     1     -11.027   6.454  73.423  1.00  0.00    -0.168 C  
HETATM   33  C   UNL     1      -9.977   7.521  73.349  1.00  0.00    -0.378 C  
ENDBRANCH  28  31
ENDBRANCH  19  21
ENDBRANCH  13  14
ENDBRANCH   6  13
TORSDOF 4
ENDMDL
MODEL      108
REMARK 921   NORMALIZED FREE ENERGY PREDICTED BY IDOCK:   -6.26 KCAL/MOL
REMARK 922        TOTAL FREE ENERGY PREDICTED BY IDOCK:   -8.47 KCAL/MOL
REMARK 923 INTER-LIGAND FREE ENERGY PREDICTED BY IDOCK:   -7.85 KCAL/MOL
REMARK 924 INTRA-LIGAND FREE ENERGY PREDICTED BY IDOCK:   -0.62 KCAL/MOL
REMARK 927      BINDING AFFINITY PREDICTED BY RF-SCORE:    0.00 PKD
ROOT
HETATM    1  O   UNL     1     -13.356  10.530  72.208  1.00  0.00    -0.601 OA 
HETATM    2  C   UNL     1     -12.940  11.385  71.234  1.00  0.00    -0.316 A  
HETATM    3  H   UNL     1     -13.632  10.960  73.009  1.00  0.00     0.000 HD 
HETATM    4  N   UNL     1     -12.548  10.776  70.102  1.00  0.00    -0.299 NA 
HETATM    5  N   UNL     1     -12.104  11.534  69.068  1.00  0.00    -0.382 NA 
HETATM    6  C   UNL     1     -12.064  12.887  69.179  1.00  0.00    -0.168 A  
HETATM    7  C   UNL     1     -12.488  13.557  70.353  1.00  0.00    -0.345 A  
HETATM    8  C   UNL     1     -13.347  14.754  72.780  1.00  0.00    -0.581 A  
HETATM    9  C   UNL     1     -12.500  14.964  70.531  1.00  0.00    -0.419 A  
HETATM   10  C   UNL     1     -12.936  12.762  71.430  1.00  0.00    -0.359 A  
HETATM   11  C   UNL     1     -12.928  15.552  71.724  1.00  0.00    -0.528 A  
HETATM   12  C   UNL     1     -13.351  13.369  72.634  1.00  0.00    -0.501 A  
ENDROOT
BRANCH   6  13
HETATM   13  C   UNL     1     -11.523  13.666  68.000  1.00  0.00    -0.345 C  
BRANCH  13  14
HETATM   14  C   UNL     1     -10.019  13.703  67.810  1.00  0.00    -0.235 A  
HETATM   15  C   UNL     1      -7.227  13.892  67.731  1.00  0.00    -0.164 A  
HETATM   16  C   UNL     1      -9.403  14.833  67.256  1.00  0.00    -0.211 A  
HETATM   17  C   UNL     1      -9.212  12.630  68.230  1.00  0.00    -0.184 A  
HETATM   18  F   UNL     1      -5.902  14.088  67.794  1.00  0.00    -0.120 F  
HETATM   19  C   UNL     1      -7.806  12.704  68.167  1.00  0.00    -0.145 A  
HETATM   20  C   UNL     1      -8.012  14.929  67.228  1.00  0.00    -0.237 A  
BRANCH  19  21
HETATM   21  C   UNL     1      -7.033  11.545  68.684  1.00  0.00    -0.089 C  
HETATM   22  N   UNL     1      -7.178  10.258  68.165  1.00  0.00    -0.083 N  
HETATM   23  C   UNL     1      -6.384   9.166  68.756  1.00  0.00    -0.048 C  
HETATM   24  O   UNL     1      -6.298  11.773  69.649  1.00  0.00    -0.112 OA 
HETATM   25  C   UNL     1      -7.281   7.993  69.181  1.00  0.00    -0.077 C  
HETATM   26  N   UNL     1      -8.140   7.554  68.073  1.00  0.00    -0.122 N  
HETATM   27  C   UNL     1      -8.931   8.626  67.465  1.00  0.00    -0.134 C  
HETATM   28  C   UNL     1      -8.189   6.208  67.745  1.00  0.00    -0.117 C  
HETATM   29  C   UNL     1      -8.057   9.824  67.071  1.00  0.00    -0.113 C  
HETATM   30  O   UNL     1      -7.507   5.363  68.316  1.00  0.00    -0.071 OA 
BRANCH  28  31
HETATM   31  C   UNL     1      -9.077   5.780  66.618  1.00  0.00    -0.133 C  
HETATM   32  C   UNL     1      -9.785   4.446  66.711  1.00  0.00    -0.235 C  
HETATM   33  C   UNL     1     -10.577   5.715  66.805  1.00  0.00    -0.372 C  
ENDBRANCH  28  31
ENDBRANCH  19  21
ENDBRANCH  13  14
ENDBRANCH   6  13
TORSDOF 4
ENDMDL
MODEL      109
REMARK 921   NORMALIZED FREE ENERGY PREDICTED BY IDOCK:   -6.25 KCAL/MOL
REMARK 922        TOTAL FREE ENERGY PREDICTED BY IDOCK:   -8.45 KCAL/MOL
REMARK 923 INTER-LIGAND FREE ENERGY PREDICTED BY IDOCK:   -7.43 KCAL/MOL
REMARK 924 INTRA-LIGAND FREE ENERGY PREDICTED BY IDOCK:   -1.03 KCAL/MOL
REMARK 927      BINDING AFFINITY PREDICTED BY RF-SCORE:    0.00 PKD
ROOT
HETATM    1  O   UNL     1     -12.052   6.006  72.435  1.00  0.00    -0.474 OA 
HETATM    2  C   UNL     1     -11.079   6.328  71.537  1.00  0.00    -0.281 A  
HETATM    3  H   UNL     1     -11.821   6.188  73.338  1.00  0.00     0.000 HD 
HETATM    4  N   UNL     1     -11.405   6.070  70.260  1.00  0.00    -0.330 NA 
HETATM    5  N   UNL     1     -10.505   6.344  69.284  1.00  0.00    -0.208 NA 
HETATM    6  C   UNL     1      -9.295   6.876  69.598  1.00  0.00    -0.145 A  
HETATM    7  C   UNL     1      -8.932   7.176  70.934  1.00  0.00    -0.151 A  
HETATM    8  C   UNL     1      -8.336   7.698  73.660  1.00  0.00    -0.230 A  
HETATM    9  C   UNL     1      -7.701   7.757  71.333  1.00  0.00    -0.082 A  
HETATM   10  C   UNL     1      -9.867   6.876  71.946  1.00  0.00    -0.173 A  
HETATM   11  C   UNL     1      -7.411   8.018  72.676  1.00  0.00    -0.130 A  
HETATM   12  C   UNL     1      -9.556   7.132  73.298  1.00  0.00    -0.236 A  
ENDROOT
BRANCH   6  13
HETATM   13  C   UNL     1      -8.326   7.122  68.461  1.00  0.00    -0.125 C  
BRANCH  13  14
HETATM   14  C   UNL     1      -8.722   8.136  67.406  1.00  0.00    -0.124 A  
HETATM   15  C   UNL     1      -9.699   9.846  65.417  1.00  0.00    -0.306 A  
HETATM   16  C   UNL     1      -8.359   7.942  66.066  1.00  0.00    -0.128 A  
HETATM   17  C   UNL     1      -9.500   9.259  67.741  1.00  0.00    -0.160 A  
HETATM   18  F   UNL     1     -10.248  10.552  64.417  1.00  0.00    -0.374 F  
HETATM   19  C   UNL     1      -9.973  10.142  66.749  1.00  0.00    -0.266 A  
HETATM   20  C   UNL     1      -8.857   8.789  65.076  1.00  0.00    -0.151 A  
BRANCH  19  21
HETATM   21  C   UNL     1     -10.834  11.271  67.187  1.00  0.00    -0.270 C  
HETATM   22  N   UNL     1     -10.396  12.596  67.167  1.00  0.00    -0.231 N  
HETATM   23  C   UNL     1     -11.313  13.648  67.642  1.00  0.00    -0.300 C  
HETATM   24  O   UNL     1     -11.941  10.963  67.636  1.00  0.00    -0.512 OA 
HETATM   25  C   UNL     1     -10.651  14.517  68.722  1.00  0.00    -0.248 C  
HETATM   26  N   UNL     1      -9.356  15.038  68.262  1.00  0.00    -0.187 N  
HETATM   27  C   UNL     1      -8.434  14.010  67.778  1.00  0.00    -0.184 C  
HETATM   28  C   UNL     1      -9.089  16.393  68.382  1.00  0.00    -0.214 C  
HETATM   29  C   UNL     1      -9.091  13.106  66.727  1.00  0.00    -0.209 C  
HETATM   30  O   UNL     1      -9.911  17.194  68.818  1.00  0.00    -0.269 OA 
BRANCH  28  31
HETATM   31  C   UNL     1      -7.761  16.903  67.916  1.00  0.00    -0.179 C  
HETATM   32  C   UNL     1      -7.639  17.456  66.513  1.00  0.00    -0.317 C  
HETATM   33  C   UNL     1      -7.543  18.383  67.688  1.00  0.00    -0.234 C  
ENDBRANCH  28  31
ENDBRANCH  19  21
ENDBRANCH  13  14
ENDBRANCH   6  13
TORSDOF 4
ENDMDL
MODEL      110
REMARK 921   NORMALIZED FREE ENERGY PREDICTED BY IDOCK:   -6.23 KCAL/MOL
REMARK 922        TOTAL FREE ENERGY PREDICTED BY IDOCK:   -8.44 KCAL/MOL
REMARK 923 INTER-LIGAND FREE ENERGY PREDICTED BY IDOCK:   -7.64 KCAL/MOL
REMARK 924 INTRA-LIGAND FREE ENERGY PREDICTED BY IDOCK:   -0.80 KCAL/MOL
REMARK 927      BINDING AFFINITY PREDICTED BY RF-SCORE:    0.00 PKD
ROOT
HETATM    1  O   UNL     1      -5.541  16.758  68.038  1.00  0.00    -0.110 OA 
HETATM    2  C   UNL     1      -6.772  16.183  68.133  1.00  0.00    -0.126 A  
HETATM    3  H   UNL     1      -5.560  17.707  67.988  1.00  0.00     0.000 HD 
HETATM    4  N   UNL     1      -6.745  14.841  68.204  1.00  0.00    -0.115 NA 
HETATM    5  N   UNL     1      -7.918  14.165  68.291  1.00  0.00    -0.131 NA 
HETATM    6  C   UNL     1      -9.097  14.838  68.312  1.00  0.00    -0.183 A  
HETATM    7  C   UNL     1      -9.154  16.253  68.259  1.00  0.00    -0.197 A  
HETATM    8  C   UNL     1      -9.110  19.088  68.116  1.00  0.00    -0.364 A  
HETATM    9  C   UNL     1     -10.344  17.023  68.304  1.00  0.00    -0.347 A  
HETATM   10  C   UNL     1      -7.932  16.951  68.154  1.00  0.00    -0.195 A  
HETATM   11  C   UNL     1     -10.321  18.420  68.239  1.00  0.00    -0.384 A  
HETATM   12  C   UNL     1      -7.924  18.359  68.074  1.00  0.00    -0.289 A  
ENDROOT
BRANCH   6  13
HETATM   13  C   UNL     1     -10.367  14.017  68.374  1.00  0.00    -0.251 C  
BRANCH  13  14
HETATM   14  C   UNL     1     -10.997  13.594  67.061  1.00  0.00    -0.298 A  
HETATM   15  C   UNL     1     -12.019  13.045  64.513  1.00  0.00    -0.394 A  
HETATM   16  C   UNL     1     -12.234  14.121  66.668  1.00  0.00    -0.450 A  
HETATM   17  C   UNL     1     -10.331  12.708  66.194  1.00  0.00    -0.273 A  
HETATM   18  F   UNL     1     -12.483  12.923  63.262  1.00  0.00    -0.555 F  
HETATM   19  C   UNL     1     -10.853  12.403  64.920  1.00  0.00    -0.333 A  
HETATM   20  C   UNL     1     -12.736  13.855  65.394  1.00  0.00    -0.525 A  
BRANCH  19  21
HETATM   21  C   UNL     1     -10.056  11.501  64.050  1.00  0.00    -0.321 C  
HETATM   22  N   UNL     1      -9.673  10.220  64.451  1.00  0.00    -0.316 N  
HETATM   23  C   UNL     1      -8.864   9.405  63.528  1.00  0.00    -0.172 C  
HETATM   24  O   UNL     1      -9.692  11.975  62.970  1.00  0.00    -0.383 OA 
HETATM   25  C   UNL     1      -7.586   8.893  64.211  1.00  0.00    -0.115 C  
HETATM   26  N   UNL     1      -7.899   8.207  65.472  1.00  0.00    -0.098 N  
HETATM   27  C   UNL     1      -8.709   8.997  66.400  1.00  0.00    -0.132 C  
HETATM   28  C   UNL     1      -7.368   6.948  65.709  1.00  0.00    -0.079 C  
HETATM   29  C   UNL     1      -9.970   9.551  65.724  1.00  0.00    -0.245 C  
HETATM   30  O   UNL     1      -6.677   6.356  64.885  1.00  0.00    -0.038 OA 
BRANCH  28  31
HETATM   31  C   UNL     1      -7.691   6.269  67.003  1.00  0.00    -0.100 C  
HETATM   32  C   UNL     1      -7.120   4.893  67.271  1.00  0.00    -0.066 C  
HETATM   33  C   UNL     1      -6.620   6.070  68.054  1.00  0.00    -0.055 C  
ENDBRANCH  28  31
ENDBRANCH  19  21
ENDBRANCH  13  14
ENDBRANCH   6  13
TORSDOF 4
ENDMDL
MODEL      111
REMARK 921   NORMALIZED FREE ENERGY PREDICTED BY IDOCK:   -6.23 KCAL/MOL
REMARK 922        TOTAL FREE ENERGY PREDICTED BY IDOCK:   -8.43 KCAL/MOL
REMARK 923 INTER-LIGAND FREE ENERGY PREDICTED BY IDOCK:   -7.54 KCAL/MOL
REMARK 924 INTRA-LIGAND FREE ENERGY PREDICTED BY IDOCK:   -0.89 KCAL/MOL
REMARK 927      BINDING AFFINITY PREDICTED BY RF-SCORE:    0.00 PKD
ROOT
HETATM    1  O   UNL     1     -11.091   6.188  71.475  1.00  0.00    -0.266 OA 
HETATM    2  C   UNL     1     -10.968   7.206  70.578  1.00  0.00    -0.262 A  
HETATM    3  H   UNL     1     -11.621   6.403  72.233  1.00  0.00     0.000 HD 
HETATM    4  N   UNL     1     -10.217   6.902  69.505  1.00  0.00    -0.180 NA 
HETATM    5  N   UNL     1     -10.020   7.848  68.553  1.00  0.00    -0.181 NA 
HETATM    6  C   UNL     1     -10.579   9.078  68.684  1.00  0.00    -0.160 A  
HETATM    7  C   UNL     1     -11.391   9.420  69.794  1.00  0.00    -0.071 A  
HETATM    8  C   UNL     1     -12.971   9.964  72.089  1.00  0.00    -0.471 A  
HETATM    9  C   UNL     1     -12.029  10.672  69.984  1.00  0.00    -0.408 A  
HETATM   10  C   UNL     1     -11.581   8.437  70.788  1.00  0.00    -0.252 A  
HETATM   11  C   UNL     1     -12.811  10.938  71.112  1.00  0.00    -0.508 A  
HETATM   12  C   UNL     1     -12.361   8.722  71.929  1.00  0.00    -0.429 A  
ENDROOT
BRANCH   6  13
HETATM   13  C   UNL     1     -10.287  10.095  67.602  1.00  0.00    -0.265 C  
BRANCH  13  14
HETATM   14  C   UNL     1      -8.859  10.585  67.463  1.00  0.00    -0.131 A  
HETATM   15  C   UNL     1      -6.326  11.688  67.011  1.00  0.00    -0.149 A  
HETATM   16  C   UNL     1      -8.017  10.042  66.483  1.00  0.00    -0.115 A  
HETATM   17  C   UNL     1      -8.370  11.622  68.277  1.00  0.00    -0.159 A  
HETATM   18  F   UNL     1      -5.166  12.264  66.666  1.00  0.00    -0.062 F  
HETATM   19  C   UNL     1      -7.085  12.165  68.076  1.00  0.00    -0.096 A  
HETATM   20  C   UNL     1      -6.760  10.602  66.252  1.00  0.00    -0.129 A  
BRANCH  19  21
HETATM   21  C   UNL     1      -6.671  13.295  68.947  1.00  0.00    -0.110 C  
HETATM   22  N   UNL     1      -7.273  14.553  68.877  1.00  0.00    -0.119 N  
HETATM   23  C   UNL     1      -6.781  15.620  69.766  1.00  0.00    -0.147 C  
HETATM   24  O   UNL     1      -5.715  13.078  69.696  1.00  0.00    -0.088 OA 
HETATM   25  C   UNL     1      -6.411  16.881  68.970  1.00  0.00    -0.202 C  
HETATM   26  N   UNL     1      -7.522  17.308  68.108  1.00  0.00    -0.201 N  
HETATM   27  C   UNL     1      -8.031  16.259  67.223  1.00  0.00    -0.167 C  
HETATM   28  C   UNL     1      -7.940  18.629  68.144  1.00  0.00    -0.289 C  
HETATM   29  C   UNL     1      -8.368  14.977  67.995  1.00  0.00    -0.148 C  
HETATM   30  O   UNL     1      -7.447  19.458  68.903  1.00  0.00    -0.348 OA 
BRANCH  28  31
HETATM   31  C   UNL     1      -9.067  19.046  67.251  1.00  0.00    -0.313 C  
HETATM   32  C   UNL     1     -10.444  19.233  67.849  1.00  0.00    -0.514 C  
HETATM   33  C   UNL     1      -9.673  20.427  67.374  1.00  0.00    -0.597 C  
ENDBRANCH  28  31
ENDBRANCH  19  21
ENDBRANCH  13  14
ENDBRANCH   6  13
TORSDOF 4
ENDMDL
MODEL      112
REMARK 921   NORMALIZED FREE ENERGY PREDICTED BY IDOCK:   -6.18 KCAL/MOL
REMARK 922        TOTAL FREE ENERGY PREDICTED BY IDOCK:   -8.37 KCAL/MOL
REMARK 923 INTER-LIGAND FREE ENERGY PREDICTED BY IDOCK:   -8.50 KCAL/MOL
REMARK 924 INTRA-LIGAND FREE ENERGY PREDICTED BY IDOCK:    0.13 KCAL/MOL
REMARK 927      BINDING AFFINITY PREDICTED BY RF-SCORE:    0.00 PKD
ROOT
HETATM    1  O   UNL     1     -10.391   9.773  63.865  1.00  0.00    -0.123 OA 
HETATM    2  C   UNL     1     -10.113  10.802  64.713  1.00  0.00    -0.331 A  
HETATM    3  H   UNL     1     -11.072   9.967  63.232  1.00  0.00     0.000 HD 
HETATM    4  N   UNL     1      -9.150  10.528  65.609  1.00  0.00    -0.174 NA 
HETATM    5  N   UNL     1      -8.801  11.479  66.510  1.00  0.00    -0.187 NA 
HETATM    6  C   UNL     1      -9.416  12.691  66.499  1.00  0.00    -0.247 A  
HETATM    7  C   UNL     1     -10.421  13.014  65.554  1.00  0.00    -0.297 A  
HETATM    8  C   UNL     1     -12.436  13.505  63.617  1.00  0.00    -0.278 A  
HETATM    9  C   UNL     1     -11.085  14.264  65.465  1.00  0.00    -0.323 A  
HETATM   10  C   UNL     1     -10.789  12.015  64.628  1.00  0.00    -0.357 A  
HETATM   11  C   UNL     1     -12.074  14.506  64.507  1.00  0.00    -0.501 A  
HETATM   12  C   UNL     1     -11.798  12.268  63.676  1.00  0.00    -0.610 A  
ENDROOT
BRANCH   6  13
HETATM   13  C   UNL     1      -9.001  13.691  67.557  1.00  0.00    -0.209 C  
BRANCH  13  14
HETATM   14  C   UNL     1     -10.080  14.234  68.474  1.00  0.00    -0.246 A  
HETATM   15  C   UNL     1     -12.263  15.185  69.946  1.00  0.00    -0.314 A  
HETATM   16  C   UNL     1     -10.399  15.598  68.463  1.00  0.00    -0.219 A  
HETATM   17  C   UNL     1     -10.812  13.374  69.313  1.00  0.00    -0.085 A  
HETATM   18  F   UNL     1     -13.375  15.665  70.521  1.00  0.00    -0.468 F  
HETATM   19  C   UNL     1     -11.895  13.849  70.080  1.00  0.00    -0.384 A  
HETATM   20  C   UNL     1     -11.494  16.067  69.188  1.00  0.00    -0.347 A  
BRANCH  19  21
HETATM   21  C   UNL     1     -12.647  12.860  70.896  1.00  0.00    -0.270 C  
HETATM   22  N   UNL     1     -12.205  11.549  71.075  1.00  0.00    -0.316 N  
HETATM   23  C   UNL     1     -13.028  10.632  71.883  1.00  0.00    -0.437 C  
HETATM   24  O   UNL     1     -13.725  13.247  71.354  1.00  0.00    -0.103 OA 
HETATM   25  C   UNL     1     -13.341   9.340  71.113  1.00  0.00    -0.173 C  
HETATM   26  N   UNL     1     -12.112   8.719  70.600  1.00  0.00    -0.079 N  
HETATM   27  C   UNL     1     -11.275   9.615  69.802  1.00  0.00    -0.174 C  
HETATM   28  C   UNL     1     -11.880   7.372  70.839  1.00  0.00    -0.290 C  
HETATM   29  C   UNL     1     -10.986  10.930  70.539  1.00  0.00     0.304 C  
HETATM   30  O   UNL     1     -12.643   6.679  71.505  1.00  0.00    -0.336 OA 
BRANCH  28  31
HETATM   31  C   UNL     1     -10.628   6.756  70.300  1.00  0.00    -0.251 C  
HETATM   32  C   UNL     1     -10.326   5.309  70.622  1.00  0.00    -0.324 C  
HETATM   33  C   UNL     1     -10.695   5.698  69.222  1.00  0.00    -0.350 C  
ENDBRANCH  28  31
ENDBRANCH  19  21
ENDBRANCH  13  14
ENDBRANCH   6  13
TORSDOF 4
ENDMDL
MODEL      113
REMARK 921   NORMALIZED FREE ENERGY PREDICTED BY IDOCK:   -6.18 KCAL/MOL
REMARK 922        TOTAL FREE ENERGY PREDICTED BY IDOCK:   -8.37 KCAL/MOL
REMARK 923 INTER-LIGAND FREE ENERGY PREDICTED BY IDOCK:   -8.21 KCAL/MOL
REMARK 924 INTRA-LIGAND FREE ENERGY PREDICTED BY IDOCK:   -0.16 KCAL/MOL
REMARK 927      BINDING AFFINITY PREDICTED BY RF-SCORE:    0.00 PKD
ROOT
HETATM    1  O   UNL     1      -5.151  12.801  72.336  1.00  0.00    -0.345 OA 
HETATM    2  C   UNL     1      -5.246  13.530  71.190  1.00  0.00    -0.164 A  
HETATM    3  H   UNL     1      -5.095  11.863  72.195  1.00  0.00     0.000 HD 
HETATM    4  N   UNL     1      -5.325  14.857  71.390  1.00  0.00    -0.120 NA 
HETATM    5  N   UNL     1      -5.433  15.677  70.316  1.00  0.00    -0.145 NA 
HETATM    6  C   UNL     1      -5.456  15.161  69.059  1.00  0.00    -0.097 A  
HETATM    7  C   UNL     1      -5.355  13.769  68.818  1.00  0.00    -0.078 A  
HETATM    8  C   UNL     1      -5.172  10.955  68.494  1.00  0.00    -0.040 A  
HETATM    9  C   UNL     1      -5.344  13.162  67.536  1.00  0.00     0.001 A  
HETATM   10  C   UNL     1      -5.257  12.919  69.940  1.00  0.00    -0.086 A  
HETATM   11  C   UNL     1      -5.249  11.776  67.378  1.00  0.00    -0.081 A  
HETATM   12  C   UNL     1      -5.175  11.522  69.766  1.00  0.00    -0.061 A  
ENDROOT
BRANCH   6  13
HETATM   13  C   UNL     1      -5.616  16.133  67.910  1.00  0.00    -0.142 C  
BRANCH  13  14
HETATM   14  C   UNL     1      -7.024  16.437  67.435  1.00  0.00    -0.196 A  
HETATM   15  C   UNL     1      -9.554  16.846  66.310  1.00  0.00    -0.276 A  
HETATM   16  C   UNL     1      -7.283  17.589  66.681  1.00  0.00    -0.269 A  
HETATM   17  C   UNL     1      -8.081  15.547  67.698  1.00  0.00    -0.162 A  
HETATM   18  F   UNL     1     -10.703  17.019  65.641  1.00  0.00    -0.349 F  
HETATM   19  C   UNL     1      -9.366  15.760  67.160  1.00  0.00    -0.224 A  
HETATM   20  C   UNL     1      -8.542  17.784  66.112  1.00  0.00    -0.139 A  
BRANCH  19  21
HETATM   21  C   UNL     1     -10.409  14.740  67.445  1.00  0.00    -0.242 C  
HETATM   22  N   UNL     1     -11.292  14.854  68.519  1.00  0.00    -0.283 N  
HETATM   23  C   UNL     1     -12.279  13.782  68.736  1.00  0.00    -0.186 C  
HETATM   24  O   UNL     1     -10.407  13.747  66.713  1.00  0.00    -0.266 OA 
HETATM   25  C   UNL     1     -12.208  13.242  70.173  1.00  0.00    -0.306 C  
HETATM   26  N   UNL     1     -12.308  14.332  71.153  1.00  0.00    -0.348 N  
HETATM   27  C   UNL     1     -11.342  15.412  70.950  1.00  0.00    -0.359 C  
HETATM   28  C   UNL     1     -13.220  14.229  72.193  1.00  0.00    -0.402 C  
HETATM   29  C   UNL     1     -11.370  15.937  69.508  1.00  0.00    -0.335 C  
HETATM   30  O   UNL     1     -13.987  13.277  72.307  1.00  0.00    -0.532 OA 
BRANCH  28  31
HETATM   31  C   UNL     1     -13.300  15.345  73.186  1.00  0.00    -0.608 C  
HETATM   32  C   UNL     1     -12.306  15.384  74.326  1.00  0.00    -0.807 C  
HETATM   33  C   UNL     1     -12.226  16.409  73.234  1.00  0.00    -0.558 C  
ENDBRANCH  28  31
ENDBRANCH  19  21
ENDBRANCH  13  14
ENDBRANCH   6  13
TORSDOF 4
ENDMDL
MODEL      114
REMARK 921   NORMALIZED FREE ENERGY PREDICTED BY IDOCK:   -6.16 KCAL/MOL
REMARK 922        TOTAL FREE ENERGY PREDICTED BY IDOCK:   -8.35 KCAL/MOL
REMARK 923 INTER-LIGAND FREE ENERGY PREDICTED BY IDOCK:   -7.42 KCAL/MOL
REMARK 924 INTRA-LIGAND FREE ENERGY PREDICTED BY IDOCK:   -0.92 KCAL/MOL
REMARK 927      BINDING AFFINITY PREDICTED BY RF-SCORE:    0.00 PKD
ROOT
HETATM    1  O   UNL     1      -6.981  20.343  65.016  1.00  0.00    -0.406 OA 
HETATM    2  C   UNL     1      -7.167  19.370  65.950  1.00  0.00    -0.290 A  
HETATM    3  H   UNL     1      -7.764  20.842  64.815  1.00  0.00     0.000 HD 
HETATM    4  N   UNL     1      -6.060  18.664  66.234  1.00  0.00    -0.164 NA 
HETATM    5  N   UNL     1      -6.135  17.662  67.144  1.00  0.00    -0.135 NA 
HETATM    6  C   UNL     1      -7.313  17.385  67.761  1.00  0.00    -0.177 A  
HETATM    7  C   UNL     1      -8.492  18.125  67.497  1.00  0.00    -0.248 A  
HETATM    8  C   UNL     1     -10.775  19.679  66.841  1.00  0.00    -0.570 A  
HETATM    9  C   UNL     1      -9.747  17.911  68.121  1.00  0.00    -0.320 A  
HETATM   10  C   UNL     1      -8.410  19.157  66.538  1.00  0.00    -0.324 A  
HETATM   11  C   UNL     1     -10.870  18.680  67.801  1.00  0.00    -0.313 A  
HETATM   12  C   UNL     1      -9.554  19.916  66.214  1.00  0.00    -0.526 A  
ENDROOT
BRANCH   6  13
HETATM   13  C   UNL     1      -7.332  16.229  68.739  1.00  0.00    -0.191 C  
BRANCH  13  14
HETATM   14  C   UNL     1      -7.013  14.847  68.203  1.00  0.00    -0.132 A  
HETATM   15  C   UNL     1      -6.448  12.199  67.493  1.00  0.00    -0.134 A  
HETATM   16  C   UNL     1      -5.686  14.399  68.146  1.00  0.00    -0.130 A  
HETATM   17  C   UNL     1      -8.040  13.975  67.800  1.00  0.00    -0.170 A  
HETATM   18  F   UNL     1      -6.136  10.911  67.293  1.00  0.00    -0.053 F  
HETATM   19  C   UNL     1      -7.763  12.648  67.414  1.00  0.00    -0.161 A  
HETATM   20  C   UNL     1      -5.409  13.075  67.804  1.00  0.00    -0.111 A  
BRANCH  19  21
HETATM   21  C   UNL     1      -8.915  11.781  67.057  1.00  0.00    -0.186 C  
HETATM   22  N   UNL     1      -9.474  10.872  67.957  1.00  0.00    -0.159 N  
HETATM   23  C   UNL     1     -10.601  10.037  67.506  1.00  0.00    -0.280 C  
HETATM   24  O   UNL     1      -9.311  11.861  65.891  1.00  0.00    -0.231 OA 
HETATM   25  C   UNL     1     -10.322   8.546  67.750  1.00  0.00    -0.237 C  
HETATM   26  N   UNL     1      -9.939   8.301  69.147  1.00  0.00    -0.190 N  
HETATM   27  C   UNL     1      -8.826   9.127  69.618  1.00  0.00    -0.151 C  
HETATM   28  C   UNL     1     -10.583   7.303  69.863  1.00  0.00    -0.231 C  
HETATM   29  C   UNL     1      -9.069  10.617  69.345  1.00  0.00    -0.043 C  
HETATM   30  O   UNL     1     -11.498   6.636  69.390  1.00  0.00    -0.299 OA 
BRANCH  28  31
HETATM   31  C   UNL     1     -10.172   7.063  71.282  1.00  0.00    -0.203 C  
HETATM   32  C   UNL     1     -11.000   7.663  72.396  1.00  0.00    -0.353 C  
HETATM   33  C   UNL     1     -11.005   6.178  72.184  1.00  0.00    -0.307 C  
ENDBRANCH  28  31
ENDBRANCH  19  21
ENDBRANCH  13  14
ENDBRANCH   6  13
TORSDOF 4
ENDMDL
MODEL      115
REMARK 921   NORMALIZED FREE ENERGY PREDICTED BY IDOCK:   -6.14 KCAL/MOL
REMARK 922        TOTAL FREE ENERGY PREDICTED BY IDOCK:   -8.32 KCAL/MOL
REMARK 923 INTER-LIGAND FREE ENERGY PREDICTED BY IDOCK:   -8.17 KCAL/MOL
REMARK 924 INTRA-LIGAND FREE ENERGY PREDICTED BY IDOCK:   -0.15 KCAL/MOL
REMARK 927      BINDING AFFINITY PREDICTED BY RF-SCORE:    0.00 PKD
ROOT
HETATM    1  O   UNL     1     -12.114  14.266  63.359  1.00  0.00    -0.916 OA 
HETATM    2  C   UNL     1     -11.640  13.183  64.035  1.00  0.00    -0.428 A  
HETATM    3  H   UNL     1     -12.510  14.927  63.915  1.00  0.00     0.000 HD 
HETATM    4  N   UNL     1     -11.080  12.248  63.249  1.00  0.00    -0.395 NA 
HETATM    5  N   UNL     1     -10.584  11.122  63.819  1.00  0.00    -0.372 NA 
HETATM    6  C   UNL     1     -10.650  10.949  65.165  1.00  0.00    -0.198 A  
HETATM    7  C   UNL     1     -11.217  11.927  66.020  1.00  0.00    -0.377 A  
HETATM    8  C   UNL     1     -12.408  13.962  67.601  1.00  0.00    -0.069 A  
HETATM    9  C   UNL     1     -11.296  11.828  67.433  1.00  0.00    -0.376 A  
HETATM   10  C   UNL     1     -11.744  13.090  65.420  1.00  0.00    -0.401 A  
HETATM   11  C   UNL     1     -11.878  12.833  68.210  1.00  0.00    -0.357 A  
HETATM   12  C   UNL     1     -12.342  14.090  66.215  1.00  0.00    -0.482 A  
ENDROOT
BRANCH   6  13
HETATM   13  C   UNL     1     -10.110   9.653  65.728  1.00  0.00    -0.274 C  
BRANCH  13  14
HETATM   14  C   UNL     1      -9.317   9.722  67.019  1.00  0.00    -0.178 A  
HETATM   15  C   UNL     1      -7.950  10.129  69.428  1.00  0.00    -0.154 A  
HETATM   16  C   UNL     1      -7.989  10.169  67.010  1.00  0.00    -0.110 A  
HETATM   17  C   UNL     1      -9.911   9.388  68.249  1.00  0.00    -0.197 A  
HETATM   18  F   UNL     1      -7.302  10.468  70.551  1.00  0.00    -0.121 F  
HETATM   19  C   UNL     1      -9.221   9.563  69.465  1.00  0.00    -0.198 A  
HETATM   20  C   UNL     1      -7.314  10.382  68.212  1.00  0.00    -0.088 A  
BRANCH  19  21
HETATM   21  C   UNL     1      -9.945   9.236  70.721  1.00  0.00    -0.290 C  
HETATM   22  N   UNL     1      -9.742   8.041  71.412  1.00  0.00    -0.160 N  
HETATM   23  C   UNL     1     -10.523   7.794  72.637  1.00  0.00    -0.302 C  
HETATM   24  O   UNL     1     -10.792  10.057  71.085  1.00  0.00    -0.260 OA 
HETATM   25  C   UNL     1     -11.252   6.443  72.570  1.00  0.00    -0.272 C  
HETATM   26  N   UNL     1     -10.320   5.355  72.244  1.00  0.00    -0.202 N  
HETATM   27  C   UNL     1      -9.528   5.584  71.035  1.00  0.00    -0.163 C  
HETATM   28  C   UNL     1     -10.311   4.211  73.029  1.00  0.00    -0.171 C  
HETATM   29  C   UNL     1      -8.825   6.947  71.066  1.00  0.00    -0.140 C  
HETATM   30  O   UNL     1     -11.023   4.085  74.021  1.00  0.00    -0.223 OA 
BRANCH  28  31
HETATM   31  C   UNL     1      -9.362   3.110  72.676  1.00  0.00    -0.148 C  
HETATM   32  C   UNL     1      -8.166   2.858  73.569  1.00  0.00    -0.072 C  
HETATM   33  C   UNL     1      -9.285   1.860  73.526  1.00  0.00    -0.075 C  
ENDBRANCH  28  31
ENDBRANCH  19  21
ENDBRANCH  13  14
ENDBRANCH   6  13
TORSDOF 4
ENDMDL
MODEL      116
REMARK 921   NORMALIZED FREE ENERGY PREDICTED BY IDOCK:   -6.14 KCAL/MOL
REMARK 922        TOTAL FREE ENERGY PREDICTED BY IDOCK:   -8.32 KCAL/MOL
REMARK 923 INTER-LIGAND FREE ENERGY PREDICTED BY IDOCK:   -7.40 KCAL/MOL
REMARK 924 INTRA-LIGAND FREE ENERGY PREDICTED BY IDOCK:   -0.92 KCAL/MOL
REMARK 927      BINDING AFFINITY PREDICTED BY RF-SCORE:    0.00 PKD
ROOT
HETATM    1  O   UNL     1     -10.720   6.789  70.997  1.00  0.00    -0.223 OA 
HETATM    2  C   UNL     1     -10.180   7.326  69.869  1.00  0.00    -0.205 A  
HETATM    3  H   UNL     1     -10.199   6.925  71.780  1.00  0.00     0.000 HD 
HETATM    4  N   UNL     1     -10.916   7.132  68.762  1.00  0.00    -0.109 NA 
HETATM    5  N   UNL     1     -10.465   7.617  67.579  1.00  0.00    -0.255 NA 
HETATM    6  C   UNL     1      -9.288   8.293  67.521  1.00  0.00    -0.140 A  
HETATM    7  C   UNL     1      -8.500   8.530  68.674  1.00  0.00    -0.131 A  
HETATM    8  C   UNL     1      -7.018   8.901  71.067  1.00  0.00    -0.085 A  
HETATM    9  C   UNL     1      -7.278   9.249  68.694  1.00  0.00    -0.075 A  
HETATM   10  C   UNL     1      -8.968   8.010  69.900  1.00  0.00    -0.145 A  
HETATM   11  C   UNL     1      -6.552   9.436  69.874  1.00  0.00    -0.055 A  
HETATM   12  C   UNL     1      -8.218   8.193  71.080  1.00  0.00    -0.123 A  
ENDROOT
BRANCH   6  13
HETATM   13  C   UNL     1      -8.829   8.775  66.161  1.00  0.00    -0.201 C  
BRANCH  13  14
HETATM   14  C   UNL     1      -9.315  10.134  65.695  1.00  0.00    -0.250 A  
HETATM   15  C   UNL     1     -10.452  12.596  65.001  1.00  0.00    -0.308 A  
HETATM   16  C   UNL     1     -10.115  10.245  64.550  1.00  0.00    -0.286 A  
HETATM   17  C   UNL     1      -9.014  11.297  66.426  1.00  0.00    -0.194 A  
HETATM   18  F   UNL     1     -11.127  13.716  64.706  1.00  0.00    -0.313 F  
HETATM   19  C   UNL     1      -9.559  12.547  66.068  1.00  0.00    -0.205 A  
HETATM   20  C   UNL     1     -10.690  11.470  64.213  1.00  0.00    -0.416 A  
BRANCH  19  21
HETATM   21  C   UNL     1      -9.232  13.712  66.930  1.00  0.00    -0.250 C  
HETATM   22  N   UNL     1      -9.885  13.954  68.139  1.00  0.00    -0.233 N  
HETATM   23  C   UNL     1      -9.508  15.148  68.916  1.00  0.00    -0.213 C  
HETATM   24  O   UNL     1      -8.392  14.497  66.481  1.00  0.00     0.001 OA 
HETATM   25  C   UNL     1     -10.739  16.003  69.255  1.00  0.00    -0.275 C  
HETATM   26  N   UNL     1     -11.784  15.195  69.899  1.00  0.00    -0.292 N  
HETATM   27  C   UNL     1     -12.166  13.999  69.148  1.00  0.00    -0.262 C  
HETATM   28  C   UNL     1     -12.354  15.641  71.081  1.00  0.00    -0.427 C  
HETATM   29  C   UNL     1     -10.944  13.153  68.765  1.00  0.00    -0.262 C  
HETATM   30  O   UNL     1     -11.992  16.671  71.643  1.00  0.00    -0.192 OA 
BRANCH  28  31
HETATM   31  C   UNL     1     -13.423  14.809  71.718  1.00  0.00    -0.470 C  
HETATM   32  C   UNL     1     -13.093  13.396  72.147  1.00  0.00    -0.487 C  
HETATM   33  C   UNL     1     -13.344  14.448  73.185  1.00  0.00    -0.322 C  
ENDBRANCH  28  31
ENDBRANCH  19  21
ENDBRANCH  13  14
ENDBRANCH   6  13
TORSDOF 4
ENDMDL
MODEL      117
REMARK 921   NORMALIZED FREE ENERGY PREDICTED BY IDOCK:   -6.11 KCAL/MOL
REMARK 922        TOTAL FREE ENERGY PREDICTED BY IDOCK:   -8.29 KCAL/MOL
REMARK 923 INTER-LIGAND FREE ENERGY PREDICTED BY IDOCK:   -7.68 KCAL/MOL
REMARK 924 INTRA-LIGAND FREE ENERGY PREDICTED BY IDOCK:   -0.61 KCAL/MOL
REMARK 927      BINDING AFFINITY PREDICTED BY RF-SCORE:    0.00 PKD
ROOT
HETATM    1  O   UNL     1      -9.633   8.659  65.264  1.00  0.00    -0.406 OA 
HETATM    2  C   UNL     1      -9.774   9.984  65.546  1.00  0.00    -0.289 A  
HETATM    3  H   UNL     1      -8.949   8.228  65.762  1.00  0.00     0.000 HD 
HETATM    4  N   UNL     1     -10.741  10.594  64.841  1.00  0.00    -0.128 NA 
HETATM    5  N   UNL     1     -10.960  11.918  65.036  1.00  0.00    -0.306 NA 
HETATM    6  C   UNL     1     -10.214  12.610  65.936  1.00  0.00    -0.274 A  
HETATM    7  C   UNL     1      -9.201  11.989  66.707  1.00  0.00    -0.201 A  
HETATM    8  C   UNL     1      -7.187  10.612  68.158  1.00  0.00    -0.086 A  
HETATM    9  C   UNL     1      -8.403  12.640  67.682  1.00  0.00    -0.174 A  
HETATM   10  C   UNL     1      -8.968  10.615  66.489  1.00  0.00    -0.169 A  
HETATM   11  C   UNL     1      -7.415  11.960  68.399  1.00  0.00    -0.102 A  
HETATM   12  C   UNL     1      -7.958   9.943  67.210  1.00  0.00    -0.109 A  
ENDROOT
BRANCH   6  13
HETATM   13  C   UNL     1     -10.490  14.092  66.075  1.00  0.00    -0.308 C  
BRANCH  13  14
HETATM   14  C   UNL     1     -10.787  14.625  67.463  1.00  0.00    -0.286 A  
HETATM   15  C   UNL     1     -11.597  15.702  69.917  1.00  0.00    -0.347 A  
HETATM   16  C   UNL     1     -10.446  15.941  67.805  1.00  0.00    -0.287 A  
HETATM   17  C   UNL     1     -11.453  13.830  68.414  1.00  0.00    -0.351 A  
HETATM   18  F   UNL     1     -12.076  16.304  71.015  1.00  0.00    -0.415 F  
HETATM   19  C   UNL     1     -11.839  14.355  69.664  1.00  0.00    -0.372 A  
HETATM   20  C   UNL     1     -10.861  16.478  69.023  1.00  0.00    -0.329 A  
BRANCH  19  21
HETATM   21  C   UNL     1     -12.587  13.460  70.584  1.00  0.00    -0.253 C  
HETATM   22  N   UNL     1     -12.194  12.143  70.829  1.00  0.00    -0.351 N  
HETATM   23  C   UNL     1     -13.010  11.323  71.741  1.00  0.00    -0.414 C  
HETATM   24  O   UNL     1     -13.619  13.927  71.073  1.00  0.00    -0.180 OA 
HETATM   25  C   UNL     1     -13.423   9.999  71.080  1.00  0.00    -0.230 C  
HETATM   26  N   UNL     1     -12.254   9.287  70.546  1.00  0.00    -0.045 N  
HETATM   27  C   UNL     1     -11.424  10.087  69.644  1.00  0.00    -0.155 C  
HETATM   28  C   UNL     1     -12.070   7.950  70.864  1.00  0.00    -0.165 C  
HETATM   29  C   UNL     1     -11.036  11.432  70.272  1.00  0.00     0.483 C  
HETATM   30  O   UNL     1     -12.824   7.339  71.615  1.00  0.00    -0.352 OA 
BRANCH  28  31
HETATM   31  C   UNL     1     -10.878   7.240  70.302  1.00  0.00    -0.264 C  
HETATM   32  C   UNL     1     -10.668   5.780  70.641  1.00  0.00    -0.351 C  
HETATM   33  C   UNL     1     -11.048   6.171  69.244  1.00  0.00    -0.463 C  
ENDBRANCH  28  31
ENDBRANCH  19  21
ENDBRANCH  13  14
ENDBRANCH   6  13
TORSDOF 4
ENDMDL
MODEL      118
REMARK 921   NORMALIZED FREE ENERGY PREDICTED BY IDOCK:   -6.11 KCAL/MOL
REMARK 922        TOTAL FREE ENERGY PREDICTED BY IDOCK:   -8.28 KCAL/MOL
REMARK 923 INTER-LIGAND FREE ENERGY PREDICTED BY IDOCK:   -7.52 KCAL/MOL
REMARK 924 INTRA-LIGAND FREE ENERGY PREDICTED BY IDOCK:   -0.77 KCAL/MOL
REMARK 927      BINDING AFFINITY PREDICTED BY RF-SCORE:    0.00 PKD
ROOT
HETATM    1  O   UNL     1     -12.833   9.049  72.135  1.00  0.00    -0.361 OA 
HETATM    2  C   UNL     1     -12.274   9.980  71.313  1.00  0.00    -0.402 A  
HETATM    3  H   UNL     1     -12.302   8.271  72.256  1.00  0.00     0.000 HD 
HETATM    4  N   UNL     1     -13.026  11.080  71.141  1.00  0.00    -0.362 NA 
HETATM    5  N   UNL     1     -12.569  12.068  70.332  1.00  0.00    -0.114 NA 
HETATM    6  C   UNL     1     -11.366  11.945  69.714  1.00  0.00    -0.147 A  
HETATM    7  C   UNL     1     -10.543  10.805  69.893  1.00  0.00    -0.130 A  
HETATM    8  C   UNL     1      -9.020   8.450  70.326  1.00  0.00    -0.147 A  
HETATM    9  C   UNL     1      -9.267  10.620  69.303  1.00  0.00    -0.121 A  
HETATM   10  C   UNL     1     -11.031   9.775  70.723  1.00  0.00    -0.406 A  
HETATM   11  C   UNL     1      -8.515   9.462  69.521  1.00  0.00    -0.152 A  
HETATM   12  C   UNL     1     -10.269   8.605  70.924  1.00  0.00    -0.261 A  
ENDROOT
BRANCH   6  13
HETATM   13  C   UNL     1     -10.936  13.070  68.798  1.00  0.00    -0.295 C  
BRANCH  13  14
HETATM   14  C   UNL     1     -11.368  13.002  67.346  1.00  0.00    -0.347 A  
HETATM   15  C   UNL     1     -11.999  13.115  64.621  1.00  0.00    -0.388 A  
HETATM   16  C   UNL     1     -12.506  13.695  66.913  1.00  0.00    -0.189 A  
HETATM   17  C   UNL     1     -10.611  12.285  66.402  1.00  0.00    -0.272 A  
HETATM   18  F   UNL     1     -12.265  13.313  63.322  1.00  0.00    -0.580 F  
HETATM   19  C   UNL     1     -10.938  12.313  65.031  1.00  0.00    -0.344 A  
HETATM   20  C   UNL     1     -12.811  13.760  65.553  1.00  0.00    -0.464 A  
BRANCH  19  21
HETATM   21  C   UNL     1     -10.051  11.571  64.097  1.00  0.00    -0.307 C  
HETATM   22  N   UNL     1      -9.637  10.261  64.342  1.00  0.00    -0.298 N  
HETATM   23  C   UNL     1      -8.739   9.613  63.369  1.00  0.00    -0.226 C  
HETATM   24  O   UNL     1      -9.645  12.205  63.120  1.00  0.00    -0.339 OA 
HETATM   25  C   UNL     1      -7.483   9.055  64.057  1.00  0.00    -0.110 C  
HETATM   26  N   UNL     1      -7.841   8.187  65.187  1.00  0.00    -0.110 N  
HETATM   27  C   UNL     1      -8.740   8.809  66.161  1.00  0.00    -0.160 C  
HETATM   28  C   UNL     1      -7.271   6.926  65.282  1.00  0.00    -0.074 C  
HETATM   29  C   UNL     1      -9.981   9.408  65.487  1.00  0.00    -0.059 C  
HETATM   30  O   UNL     1      -6.506   6.481  64.431  1.00  0.00    -0.039 OA 
BRANCH  28  31
HETATM   31  C   UNL     1      -7.640   6.061  66.446  1.00  0.00    -0.094 C  
HETATM   32  C   UNL     1      -8.994   5.385  66.456  1.00  0.00    -0.120 C  
HETATM   33  C   UNL     1      -7.753   4.561  66.282  1.00  0.00    -0.094 C  
ENDBRANCH  28  31
ENDBRANCH  19  21
ENDBRANCH  13  14
ENDBRANCH   6  13
TORSDOF 4
ENDMDL
MODEL      119
REMARK 921   NORMALIZED FREE ENERGY PREDICTED BY IDOCK:   -6.09 KCAL/MOL
REMARK 922        TOTAL FREE ENERGY PREDICTED BY IDOCK:   -8.26 KCAL/MOL
REMARK 923 INTER-LIGAND FREE ENERGY PREDICTED BY IDOCK:   -7.15 KCAL/MOL
REMARK 924 INTRA-LIGAND FREE ENERGY PREDICTED BY IDOCK:   -1.11 KCAL/MOL
REMARK 927      BINDING AFFINITY PREDICTED BY RF-SCORE:    0.00 PKD
ROOT
HETATM    1  O   UNL     1     -10.937  16.864  69.669  1.00  0.00    -0.374 OA 
HETATM    2  C   UNL     1     -11.355  15.569  69.606  1.00  0.00    -0.315 A  
HETATM    3  H   UNL     1     -10.634  17.214  68.840  1.00  0.00     0.000 HD 
HETATM    4  N   UNL     1     -11.781  15.073  70.779  1.00  0.00    -0.299 NA 
HETATM    5  N   UNL     1     -12.211  13.788  70.832  1.00  0.00    -0.359 NA 
HETATM    6  C   UNL     1     -12.212  13.020  69.711  1.00  0.00    -0.177 A  
HETATM    7  C   UNL     1     -11.786  13.522  68.457  1.00  0.00    -0.398 A  
HETATM    8  C   UNL     1     -10.877  14.660  66.021  1.00  0.00    -0.318 A  
HETATM    9  C   UNL     1     -11.786  12.790  67.242  1.00  0.00    -0.440 A  
HETATM   10  C   UNL     1     -11.327  14.856  68.411  1.00  0.00    -0.320 A  
HETATM   11  C   UNL     1     -11.342  13.353  66.042  1.00  0.00    -0.329 A  
HETATM   12  C   UNL     1     -10.869  15.407  67.197  1.00  0.00    -0.321 A  
ENDROOT
BRANCH   6  13
HETATM   13  C   UNL     1     -12.671  11.585  69.851  1.00  0.00     0.089 C  
BRANCH  13  14
HETATM   14  C   UNL     1     -11.644  10.557  70.288  1.00  0.00    -0.417 A  
HETATM   15  C   UNL     1      -9.916   8.458  70.952  1.00  0.00    -0.191 A  
HETATM   16  C   UNL     1     -11.803   9.867  71.497  1.00  0.00    -0.445 A  
HETATM   17  C   UNL     1     -10.545  10.243  69.468  1.00  0.00    -0.270 A  
HETATM   18  F   UNL     1      -9.202   7.362  71.250  1.00  0.00    -0.147 F  
HETATM   19  C   UNL     1      -9.653   9.206  69.808  1.00  0.00    -0.191 A  
HETATM   20  C   UNL     1     -10.948   8.814  71.820  1.00  0.00    -0.415 A  
BRANCH  19  21
HETATM   21  C   UNL     1      -8.552   8.907  68.857  1.00  0.00    -0.135 C  
HETATM   22  N   UNL     1      -8.665   7.931  67.866  1.00  0.00    -0.125 N  
HETATM   23  C   UNL     1      -7.511   7.688  66.981  1.00  0.00    -0.095 C  
HETATM   24  O   UNL     1      -7.500   9.528  69.035  1.00  0.00    -0.071 OA 
HETATM   25  C   UNL     1      -7.122   6.202  66.969  1.00  0.00    -0.073 C  
HETATM   26  N   UNL     1      -8.282   5.354  66.659  1.00  0.00    -0.108 N  
HETATM   27  C   UNL     1      -9.442   5.585  67.521  1.00  0.00    -0.117 C  
HETATM   28  C   UNL     1      -8.173   4.392  65.667  1.00  0.00    -0.109 C  
HETATM   29  C   UNL     1      -9.820   7.071  67.578  1.00  0.00    -0.148 C  
HETATM   30  O   UNL     1      -7.155   4.244  64.997  1.00  0.00    -0.060 OA 
BRANCH  28  31
HETATM   31  C   UNL     1      -9.362   3.532  65.373  1.00  0.00    -0.158 C  
HETATM   32  C   UNL     1     -10.006   3.614  64.006  1.00  0.00    -0.190 C  
HETATM   33  C   UNL     1      -9.254   2.378  64.400  1.00  0.00    -0.130 C  
ENDBRANCH  28  31
ENDBRANCH  19  21
ENDBRANCH  13  14
ENDBRANCH   6  13
TORSDOF 4
ENDMDL
MODEL      120
REMARK 921   NORMALIZED FREE ENERGY PREDICTED BY IDOCK:   -6.08 KCAL/MOL
REMARK 922        TOTAL FREE ENERGY PREDICTED BY IDOCK:   -8.25 KCAL/MOL
REMARK 923 INTER-LIGAND FREE ENERGY PREDICTED BY IDOCK:   -7.25 KCAL/MOL
REMARK 924 INTRA-LIGAND FREE ENERGY PREDICTED BY IDOCK:   -1.00 KCAL/MOL
REMARK 927      BINDING AFFINITY PREDICTED BY RF-SCORE:    0.00 PKD
ROOT
HETATM    1  O   UNL     1     -12.818  11.819  71.875  1.00  0.00    -0.344 OA 
HETATM    2  C   UNL     1     -12.496  12.259  70.627  1.00  0.00    -0.236 A  
HETATM    3  H   UNL     1     -12.750  12.485  72.550  1.00  0.00     0.000 HD 
HETATM    4  N   UNL     1     -12.592  11.318  69.673  1.00  0.00    -0.124 NA 
HETATM    5  N   UNL     1     -12.283  11.646  68.394  1.00  0.00    -0.434 NA 
HETATM    6  C   UNL     1     -11.890  12.909  68.087  1.00  0.00    -0.336 A  
HETATM    7  C   UNL     1     -11.799  13.926  69.068  1.00  0.00    -0.397 A  
HETATM    8  C   UNL     1     -11.638  15.850  71.149  1.00  0.00    -0.481 A  
HETATM    9  C   UNL     1     -11.423  15.271  68.817  1.00  0.00    -0.345 A  
HETATM   10  C   UNL     1     -12.107  13.576  70.400  1.00  0.00    -0.415 A  
HETATM   11  C   UNL     1     -11.349  16.219  69.842  1.00  0.00    -0.265 A  
HETATM   12  C   UNL     1     -12.015  14.538  71.426  1.00  0.00    -0.382 A  
ENDROOT
BRANCH   6  13
HETATM   13  C   UNL     1     -11.527  13.194  66.645  1.00  0.00    -0.389 C  
BRANCH  13  14
HETATM   14  C   UNL     1     -10.517  12.279  65.979  1.00  0.00    -0.284 A  
HETATM   15  C   UNL     1      -8.515  10.838  64.657  1.00  0.00    -0.020 A  
HETATM   16  C   UNL     1     -10.704  11.864  64.654  1.00  0.00    -0.356 A  
HETATM   17  C   UNL     1      -9.354  11.873  66.659  1.00  0.00    -0.210 A  
HETATM   18  F   UNL     1      -7.536  10.267  63.941  1.00  0.00    -0.143 F  
HETATM   19  C   UNL     1      -8.353  11.123  66.009  1.00  0.00    -0.115 A  
HETATM   20  C   UNL     1      -9.700  11.155  63.994  1.00  0.00    -0.323 A  
BRANCH  19  21
HETATM   21  C   UNL     1      -7.134  10.785  66.788  1.00  0.00    -0.127 C  
HETATM   22  N   UNL     1      -7.172   9.972  67.922  1.00  0.00    -0.086 N  
HETATM   23  C   UNL     1      -5.914   9.710  68.642  1.00  0.00    -0.042 C  
HETATM   24  O   UNL     1      -6.087  11.320  66.412  1.00  0.00    -0.140 OA 
HETATM   25  C   UNL     1      -6.045  10.052  70.135  1.00  0.00    -0.070 C  
HETATM   26  N   UNL     1      -7.208   9.380  70.731  1.00  0.00    -0.122 N  
HETATM   27  C   UNL     1      -8.468   9.621  70.024  1.00  0.00    -0.204 C  
HETATM   28  C   UNL     1      -7.049   8.660  71.905  1.00  0.00    -0.068 C  
HETATM   29  C   UNL     1      -8.344   9.324  68.524  1.00  0.00    -0.119 C  
HETATM   30  O   UNL     1      -5.958   8.519  72.451  1.00  0.00    -0.058 OA 
BRANCH  28  31
HETATM   31  C   UNL     1      -8.247   7.991  72.501  1.00  0.00    -0.198 C  
HETATM   32  C   UNL     1      -8.078   6.646  73.173  1.00  0.00    -0.108 C  
HETATM   33  C   UNL     1      -8.384   7.857  74.002  1.00  0.00    -0.310 C  
ENDBRANCH  28  31
ENDBRANCH  19  21
ENDBRANCH  13  14
ENDBRANCH   6  13
TORSDOF 4
ENDMDL
MODEL      121
REMARK 921   NORMALIZED FREE ENERGY PREDICTED BY IDOCK:   -6.08 KCAL/MOL
REMARK 922        TOTAL FREE ENERGY PREDICTED BY IDOCK:   -8.25 KCAL/MOL
REMARK 923 INTER-LIGAND FREE ENERGY PREDICTED BY IDOCK:   -7.92 KCAL/MOL
REMARK 924 INTRA-LIGAND FREE ENERGY PREDICTED BY IDOCK:   -0.33 KCAL/MOL
REMARK 927      BINDING AFFINITY PREDICTED BY RF-SCORE:    0.00 PKD
ROOT
HETATM    1  O   UNL     1     -10.766  16.313  66.180  1.00  0.00    -0.285 OA 
HETATM    2  C   UNL     1     -10.279  15.042  66.235  1.00  0.00    -0.294 A  
HETATM    3  H   UNL     1     -11.419  16.448  65.503  1.00  0.00     0.000 HD 
HETATM    4  N   UNL     1      -9.355  14.851  67.192  1.00  0.00    -0.210 NA 
HETATM    5  N   UNL     1      -8.795  13.623  67.328  1.00  0.00    -0.214 NA 
HETATM    6  C   UNL     1      -9.170  12.605  66.511  1.00  0.00    -0.200 A  
HETATM    7  C   UNL     1     -10.155  12.773  65.507  1.00  0.00    -0.278 A  
HETATM    8  C   UNL     1     -12.122  13.269  63.522  1.00  0.00    -0.550 A  
HETATM    9  C   UNL     1     -10.616  11.751  64.637  1.00  0.00    -0.359 A  
HETATM   10  C   UNL     1     -10.724  14.056  65.360  1.00  0.00    -0.344 A  
HETATM   11  C   UNL     1     -11.588  11.996  63.663  1.00  0.00    -0.578 A  
HETATM   12  C   UNL     1     -11.694  14.292  64.364  1.00  0.00    -0.405 A  
ENDROOT
BRANCH   6  13
HETATM   13  C   UNL     1      -8.478  11.272  66.697  1.00  0.00    -0.168 C  
BRANCH  13  14
HETATM   14  C   UNL     1      -9.338  10.076  67.057  1.00  0.00    -0.180 A  
HETATM   15  C   UNL     1     -10.673   7.729  67.796  1.00  0.00    -0.127 A  
HETATM   16  C   UNL     1      -9.615   9.090  66.101  1.00  0.00    -0.341 A  
HETATM   17  C   UNL     1      -9.829   9.909  68.365  1.00  0.00    -0.166 A  
HETATM   18  F   UNL     1     -11.185   6.535  68.127  1.00  0.00    -0.322 F  
HETATM   19  C   UNL     1     -10.528   8.743  68.739  1.00  0.00    -0.214 A  
HETATM   20  C   UNL     1     -10.270   7.917  66.474  1.00  0.00    -0.212 A  
BRANCH  19  21
HETATM   21  C   UNL     1     -10.963   8.627  70.155  1.00  0.00    -0.226 C  
HETATM   22  N   UNL     1     -10.504   7.613  70.997  1.00  0.00    -0.210 N  
HETATM   23  C   UNL     1     -11.008   7.565  72.381  1.00  0.00    -0.286 C  
HETATM   24  O   UNL     1     -11.809   9.443  70.529  1.00  0.00    -0.243 OA 
HETATM   25  C   UNL     1     -11.586   6.181  72.715  1.00  0.00    -0.132 C  
HETATM   26  N   UNL     1     -10.620   5.116  72.410  1.00  0.00    -0.216 N  
HETATM   27  C   UNL     1     -10.100   5.151  71.042  1.00  0.00    -0.227 C  
HETATM   28  C   UNL     1     -10.339   4.158  73.372  1.00  0.00    -0.164 C  
HETATM   29  C   UNL     1      -9.555   6.538  70.676  1.00  0.00    -0.172 C  
HETATM   30  O   UNL     1     -10.833   4.185  74.496  1.00  0.00    -0.213 OA 
BRANCH  28  31
HETATM   31  C   UNL     1      -9.360   3.077  73.039  1.00  0.00    -0.122 C  
HETATM   32  C   UNL     1      -9.277   1.861  73.937  1.00  0.00    -0.078 C  
HETATM   33  C   UNL     1      -9.842   1.727  72.554  1.00  0.00    -0.184 C  
ENDBRANCH  28  31
ENDBRANCH  19  21
ENDBRANCH  13  14
ENDBRANCH   6  13
TORSDOF 4
ENDMDL
MODEL      122
REMARK 921   NORMALIZED FREE ENERGY PREDICTED BY IDOCK:   -6.06 KCAL/MOL
REMARK 922        TOTAL FREE ENERGY PREDICTED BY IDOCK:   -8.23 KCAL/MOL
REMARK 923 INTER-LIGAND FREE ENERGY PREDICTED BY IDOCK:   -8.12 KCAL/MOL
REMARK 924 INTRA-LIGAND FREE ENERGY PREDICTED BY IDOCK:   -0.11 KCAL/MOL
REMARK 927      BINDING AFFINITY PREDICTED BY RF-SCORE:    0.00 PKD
ROOT
HETATM    1  O   UNL     1     -10.846  17.414  69.506  1.00  0.00    -0.337 OA 
HETATM    2  C   UNL     1     -11.141  16.124  69.186  1.00  0.00    -0.329 A  
HETATM    3  H   UNL     1     -10.505  17.925  68.781  1.00  0.00     0.000 HD 
HETATM    4  N   UNL     1     -11.622  15.402  70.212  1.00  0.00    -0.291 NA 
HETATM    5  N   UNL     1     -11.939  14.099  70.007  1.00  0.00    -0.319 NA 
HETATM    6  C   UNL     1     -11.777  13.540  68.780  1.00  0.00    -0.337 A  
HETATM    7  C   UNL     1     -11.291  14.283  67.675  1.00  0.00    -0.344 A  
HETATM    8  C   UNL     1     -10.279  15.890  65.566  1.00  0.00    -0.394 A  
HETATM    9  C   UNL     1     -11.122  13.775  66.362  1.00  0.00    -0.309 A  
HETATM   10  C   UNL     1     -10.949  15.633  67.899  1.00  0.00    -0.319 A  
HETATM   11  C   UNL     1     -10.628  14.569  65.323  1.00  0.00    -0.400 A  
HETATM   12  C   UNL     1     -10.438  16.419  66.845  1.00  0.00    -0.289 A  
ENDROOT
BRANCH   6  13
HETATM   13  C   UNL     1     -12.118  12.073  68.633  1.00  0.00    -0.145 C  
BRANCH  13  14
HETATM   14  C   UNL     1     -11.952  11.186  69.851  1.00  0.00    -0.439 A  
HETATM   15  C   UNL     1     -11.754   9.326  71.935  1.00  0.00    -0.350 A  
HETATM   16  C   UNL     1     -13.003  11.034  70.765  1.00  0.00    -0.263 A  
HETATM   17  C   UNL     1     -10.763  10.463  70.060  1.00  0.00    -0.321 A  
HETATM   18  F   UNL     1     -11.762   8.358  72.862  1.00  0.00    -0.448 F  
HETATM   19  C   UNL     1     -10.644   9.545  71.124  1.00  0.00    -0.388 A  
HETATM   20  C   UNL     1     -12.906  10.099  71.795  1.00  0.00    -0.554 A  
BRANCH  19  21
HETATM   21  C   UNL     1      -9.372   8.785  71.236  1.00  0.00    -0.250 C  
HETATM   22  N   UNL     1      -8.724   8.242  70.126  1.00  0.00    -0.131 N  
HETATM   23  C   UNL     1      -7.479   7.485  70.337  1.00  0.00    -0.081 C  
HETATM   24  O   UNL     1      -8.952   8.602  72.382  1.00  0.00    -0.310 OA 
HETATM   25  C   UNL     1      -7.558   6.091  69.694  1.00  0.00    -0.089 C  
HETATM   26  N   UNL     1      -7.951   6.183  68.281  1.00  0.00    -0.106 N  
HETATM   27  C   UNL     1      -9.182   6.939  68.048  1.00  0.00    -0.121 C  
HETATM   28  C   UNL     1      -7.201   5.517  67.324  1.00  0.00    -0.075 C  
HETATM   29  C   UNL     1      -9.137   8.319  68.718  1.00  0.00    -0.144 C  
HETATM   30  O   UNL     1      -6.187   4.883  67.601  1.00  0.00    -0.036 OA 
BRANCH  28  31
HETATM   31  C   UNL     1      -7.622   5.614  65.891  1.00  0.00    -0.086 C  
HETATM   32  C   UNL     1      -6.558   5.673  64.817  1.00  0.00    -0.042 C  
HETATM   33  C   UNL     1      -7.414   4.449  64.948  1.00  0.00    -0.073 C  
ENDBRANCH  28  31
ENDBRANCH  19  21
ENDBRANCH  13  14
ENDBRANCH   6  13
TORSDOF 4
ENDMDL
MODEL      123
REMARK 921   NORMALIZED FREE ENERGY PREDICTED BY IDOCK:   -6.06 KCAL/MOL
REMARK 922        TOTAL FREE ENERGY PREDICTED BY IDOCK:   -8.23 KCAL/MOL
REMARK 923 INTER-LIGAND FREE ENERGY PREDICTED BY IDOCK:   -7.34 KCAL/MOL
REMARK 924 INTRA-LIGAND FREE ENERGY PREDICTED BY IDOCK:   -0.89 KCAL/MOL
REMARK 927      BINDING AFFINITY PREDICTED BY RF-SCORE:    0.00 PKD
ROOT
HETATM    1  O   UNL     1     -10.424   4.277  63.945  1.00  0.00    -0.417 OA 
HETATM    2  C   UNL     1     -10.191   4.338  65.285  1.00  0.00    -0.217 A  
HETATM    3  H   UNL     1      -9.954   3.580  63.502  1.00  0.00     0.000 HD 
HETATM    4  N   UNL     1     -10.855   5.324  65.912  1.00  0.00    -0.058 NA 
HETATM    5  N   UNL     1     -10.688   5.482  67.248  1.00  0.00    -0.217 NA 
HETATM    6  C   UNL     1      -9.866   4.650  67.939  1.00  0.00    -0.119 A  
HETATM    7  C   UNL     1      -9.169   3.590  67.308  1.00  0.00    -0.221 A  
HETATM    8  C   UNL     1      -7.818   1.528  65.900  1.00  0.00    -0.068 A  
HETATM    9  C   UNL     1      -8.317   2.667  67.967  1.00  0.00    -0.091 A  
HETATM   10  C   UNL     1      -9.336   3.440  65.915  1.00  0.00    -0.145 A  
HETATM   11  C   UNL     1      -7.656   1.649  67.274  1.00  0.00    -0.059 A  
HETATM   12  C   UNL     1      -8.652   2.417  65.225  1.00  0.00    -0.111 A  
ENDROOT
BRANCH   6  13
HETATM   13  C   UNL     1      -9.699   4.908  69.421  1.00  0.00    -0.261 C  
BRANCH  13  14
HETATM   14  C   UNL     1      -9.223   6.283  69.847  1.00  0.00    -0.155 A  
HETATM   15  C   UNL     1      -8.289   8.875  70.347  1.00  0.00    -0.149 A  
HETATM   16  C   UNL     1      -7.873   6.501  70.154  1.00  0.00    -0.107 A  
HETATM   17  C   UNL     1     -10.112   7.372  69.894  1.00  0.00    -0.195 A  
HETATM   18  F   UNL     1      -7.770  10.106  70.458  1.00  0.00    -0.179 F  
HETATM   19  C   UNL     1      -9.656   8.676  70.173  1.00  0.00    -0.181 A  
HETATM   20  C   UNL     1      -7.408   7.794  70.391  1.00  0.00    -0.069 A  
BRANCH  19  21
HETATM   21  C   UNL     1     -10.656   9.775  70.148  1.00  0.00    -0.285 C  
HETATM   22  N   UNL     1     -11.086  10.367  68.960  1.00  0.00    -0.237 N  
HETATM   23  C   UNL     1     -12.065  11.466  69.035  1.00  0.00    -0.249 C  
HETATM   24  O   UNL     1     -11.039  10.182  71.248  1.00  0.00    -0.240 OA 
HETATM   25  C   UNL     1     -11.568  12.708  68.280  1.00  0.00    -0.332 C  
HETATM   26  N   UNL     1     -11.177  12.369  66.904  1.00  0.00    -0.287 N  
HETATM   27  C   UNL     1     -10.211  11.274  66.807  1.00  0.00    -0.226 C  
HETATM   28  C   UNL     1     -11.674  13.124  65.852  1.00  0.00    -0.384 C  
HETATM   29  C   UNL     1     -10.673  10.037  67.590  1.00  0.00    -0.284 C  
HETATM   30  O   UNL     1     -12.469  14.044  66.016  1.00  0.00    -0.468 OA 
BRANCH  28  31
HETATM   31  C   UNL     1     -11.257  12.769  64.459  1.00  0.00    -0.373 C  
HETATM   32  C   UNL     1     -12.133  11.842  63.645  1.00  0.00    -0.580 C  
HETATM   33  C   UNL     1     -12.032  13.290  63.269  1.00  0.00    -0.376 C  
ENDBRANCH  28  31
ENDBRANCH  19  21
ENDBRANCH  13  14
ENDBRANCH   6  13
TORSDOF 4
ENDMDL
MODEL      124
REMARK 921   NORMALIZED FREE ENERGY PREDICTED BY IDOCK:   -6.05 KCAL/MOL
REMARK 922        TOTAL FREE ENERGY PREDICTED BY IDOCK:   -8.22 KCAL/MOL
REMARK 923 INTER-LIGAND FREE ENERGY PREDICTED BY IDOCK:   -7.03 KCAL/MOL
REMARK 924 INTRA-LIGAND FREE ENERGY PREDICTED BY IDOCK:   -1.19 KCAL/MOL
REMARK 927      BINDING AFFINITY PREDICTED BY RF-SCORE:    0.00 PKD
ROOT
HETATM    1  O   UNL     1     -12.973   7.319  72.339  1.00  0.00    -0.490 OA 
HETATM    2  C   UNL     1     -11.869   6.957  71.629  1.00  0.00    -0.324 A  
HETATM    3  H   UNL     1     -12.786   7.607  73.225  1.00  0.00     0.000 HD 
HETATM    4  N   UNL     1     -12.133   6.550  70.376  1.00  0.00    -0.267 NA 
HETATM    5  N   UNL     1     -11.106   6.157  69.583  1.00  0.00    -0.391 NA 
HETATM    6  C   UNL     1      -9.831   6.180  70.051  1.00  0.00    -0.170 A  
HETATM    7  C   UNL     1      -9.521   6.623  71.361  1.00  0.00    -0.161 A  
HETATM    8  C   UNL     1      -9.059   7.508  74.018  1.00  0.00    -0.295 A  
HETATM    9  C   UNL     1      -8.215   6.701  71.908  1.00  0.00    -0.103 A  
HETATM   10  C   UNL     1     -10.595   7.018  72.186  1.00  0.00    -0.240 A  
HETATM   11  C   UNL     1      -7.988   7.142  73.215  1.00  0.00    -0.114 A  
HETATM   12  C   UNL     1     -10.354   7.447  73.508  1.00  0.00    -0.405 A  
ENDROOT
BRANCH   6  13
HETATM   13  C   UNL     1      -8.739   5.693  69.123  1.00  0.00    -0.108 C  
BRANCH  13  14
HETATM   14  C   UNL     1      -7.920   6.737  68.390  1.00  0.00    -0.115 A  
HETATM   15  C   UNL     1      -6.384   8.468  66.815  1.00  0.00    -0.056 A  
HETATM   16  C   UNL     1      -6.526   6.772  68.532  1.00  0.00    -0.039 A  
HETATM   17  C   UNL     1      -8.535   7.655  67.519  1.00  0.00    -0.116 A  
HETATM   18  F   UNL     1      -5.598   9.177  65.992  1.00  0.00    -0.042 F  
HETATM   19  C   UNL     1      -7.771   8.550  66.743  1.00  0.00    -0.091 A  
HETATM   20  C   UNL     1      -5.763   7.627  67.737  1.00  0.00    -0.036 A  
BRANCH  19  21
HETATM   21  C   UNL     1      -8.501   9.447  65.810  1.00  0.00    -0.132 C  
HETATM   22  N   UNL     1      -9.038  10.670  66.214  1.00  0.00    -0.163 N  
HETATM   23  C   UNL     1      -9.766  11.482  65.223  1.00  0.00    -0.238 C  
HETATM   24  O   UNL     1      -8.665   9.016  64.665  1.00  0.00    -0.179 OA 
HETATM   25  C   UNL     1     -11.165  11.860  65.732  1.00  0.00    -0.312 C  
HETATM   26  N   UNL     1     -11.094  12.487  67.058  1.00  0.00    -0.267 N  
HETATM   27  C   UNL     1     -10.368  11.700  68.056  1.00  0.00    -0.192 C  
HETATM   28  C   UNL     1     -11.751  13.689  67.277  1.00  0.00    -0.380 C  
HETATM   29  C   UNL     1      -8.982  11.279  67.549  1.00  0.00    -0.140 C  
HETATM   30  O   UNL     1     -12.359  14.281  66.391  1.00  0.00    -0.448 OA 
BRANCH  28  31
HETATM   31  C   UNL     1     -11.674  14.307  68.638  1.00  0.00    -0.380 C  
HETATM   32  C   UNL     1     -10.456  15.127  69.003  1.00  0.00    -0.248 C  
HETATM   33  C   UNL     1     -11.778  15.807  68.807  1.00  0.00    -0.387 C  
ENDBRANCH  28  31
ENDBRANCH  19  21
ENDBRANCH  13  14
ENDBRANCH   6  13
TORSDOF 4
ENDMDL
MODEL      125
REMARK 921   NORMALIZED FREE ENERGY PREDICTED BY IDOCK:   -5.99 KCAL/MOL
REMARK 922        TOTAL FREE ENERGY PREDICTED BY IDOCK:   -8.14 KCAL/MOL
REMARK 923 INTER-LIGAND FREE ENERGY PREDICTED BY IDOCK:   -7.86 KCAL/MOL
REMARK 924 INTRA-LIGAND FREE ENERGY PREDICTED BY IDOCK:   -0.28 KCAL/MOL
REMARK 927      BINDING AFFINITY PREDICTED BY RF-SCORE:    0.00 PKD
ROOT
HETATM    1  O   UNL     1     -12.524  14.842  63.934  1.00  0.00    -0.997 OA 
HETATM    2  C   UNL     1     -11.860  13.679  64.183  1.00  0.00    -0.422 A  
HETATM    3  H   UNL     1     -12.858  15.272  64.713  1.00  0.00     0.000 HD 
HETATM    4  N   UNL     1     -11.389  13.071  63.082  1.00  0.00    -0.011 NA 
HETATM    5  N   UNL     1     -10.720  11.898  63.215  1.00  0.00    -0.385 NA 
HETATM    6  C   UNL     1     -10.527  11.356  64.445  1.00  0.00    -0.330 A  
HETATM    7  C   UNL     1     -10.995  11.985  65.625  1.00  0.00    -0.343 A  
HETATM    8  C   UNL     1     -12.017  13.349  67.895  1.00  0.00    -0.360 A  
HETATM    9  C   UNL     1     -10.807  11.492  66.941  1.00  0.00    -0.331 A  
HETATM   10  C   UNL     1     -11.703  13.197  65.479  1.00  0.00    -0.393 A  
HETATM   11  C   UNL     1     -11.307  12.168  68.059  1.00  0.00    -0.353 A  
HETATM   12  C   UNL     1     -12.214  13.861  66.614  1.00  0.00    -0.465 A  
ENDROOT
BRANCH   6  13
HETATM   13  C   UNL     1      -9.803  10.028  64.514  1.00  0.00    -0.244 C  
BRANCH  13  14
HETATM   14  C   UNL     1      -8.601   9.929  65.434  1.00  0.00    -0.164 A  
HETATM   15  C   UNL     1      -6.506   9.964  67.290  1.00  0.00    -0.069 A  
HETATM   16  C   UNL     1      -7.464  10.714  65.201  1.00  0.00     0.041 A  
HETATM   17  C   UNL     1      -8.624   9.088  66.562  1.00  0.00    -0.129 A  
HETATM   18  F   UNL     1      -5.543  10.120  68.210  1.00  0.00    -0.042 F  
HETATM   19  C   UNL     1      -7.561   9.078  67.487  1.00  0.00    -0.089 A  
HETATM   20  C   UNL     1      -6.427  10.738  66.133  1.00  0.00    -0.129 A  
BRANCH  19  21
HETATM   21  C   UNL     1      -7.694   8.199  68.678  1.00  0.00    -0.112 C  
HETATM   22  N   UNL     1      -8.884   8.092  69.399  1.00  0.00    -0.143 N  
HETATM   23  C   UNL     1      -8.915   7.212  70.580  1.00  0.00    -0.155 C  
HETATM   24  O   UNL     1      -6.667   7.615  69.036  1.00  0.00    -0.047 OA 
HETATM   25  C   UNL     1      -9.423   7.962  71.821  1.00  0.00    -0.158 C  
HETATM   26  N   UNL     1     -10.709   8.620  71.551  1.00  0.00    -0.257 N  
HETATM   27  C   UNL     1     -10.702   9.493  70.376  1.00  0.00    -0.284 C  
HETATM   28  C   UNL     1     -11.766   8.431  72.429  1.00  0.00    -0.382 C  
HETATM   29  C   UNL     1     -10.159   8.772  69.135  1.00  0.00    -0.198 C  
HETATM   30  O   UNL     1     -11.688   7.695  73.409  1.00  0.00    -0.043 OA 
BRANCH  28  31
HETATM   31  C   UNL     1     -13.064   9.117  72.142  1.00  0.00    -0.516 C  
HETATM   32  C   UNL     1     -14.085   8.419  71.270  1.00  0.00    -0.276 C  
HETATM   33  C   UNL     1     -14.356   8.596  72.734  1.00  0.00    -0.076 C  
ENDBRANCH  28  31
ENDBRANCH  19  21
ENDBRANCH  13  14
ENDBRANCH   6  13
TORSDOF 4
ENDMDL
MODEL      126
REMARK 921   NORMALIZED FREE ENERGY PREDICTED BY IDOCK:   -5.99 KCAL/MOL
REMARK 922        TOTAL FREE ENERGY PREDICTED BY IDOCK:   -8.14 KCAL/MOL
REMARK 923 INTER-LIGAND FREE ENERGY PREDICTED BY IDOCK:   -7.10 KCAL/MOL
REMARK 924 INTRA-LIGAND FREE ENERGY PREDICTED BY IDOCK:   -1.04 KCAL/MOL
REMARK 927      BINDING AFFINITY PREDICTED BY RF-SCORE:    0.00 PKD
ROOT
HETATM    1  O   UNL     1     -13.852   8.581  72.722  1.00  0.00    -0.654 OA 
HETATM    2  C   UNL     1     -12.890   9.116  71.921  1.00  0.00    -0.393 A  
HETATM    3  H   UNL     1     -13.527   7.934  73.338  1.00  0.00     0.000 HD 
HETATM    4  N   UNL     1     -13.349  10.030  71.050  1.00  0.00    -0.346 NA 
HETATM    5  N   UNL     1     -12.476  10.620  70.195  1.00  0.00    -0.312 NA 
HETATM    6  C   UNL     1     -11.159  10.291  70.228  1.00  0.00    -0.319 A  
HETATM    7  C   UNL     1     -10.643   9.345  71.148  1.00  0.00    -0.403 A  
HETATM    8  C   UNL     1      -9.764   7.411  73.030  1.00  0.00    -0.255 A  
HETATM    9  C   UNL     1      -9.279   8.974  71.258  1.00  0.00    -0.314 A  
HETATM   10  C   UNL     1     -11.558   8.725  72.025  1.00  0.00    -0.436 A  
HETATM   11  C   UNL     1      -8.847   8.025  72.189  1.00  0.00    -0.215 A  
HETATM   12  C   UNL     1     -11.111   7.759  72.949  1.00  0.00    -0.457 A  
ENDROOT
BRANCH   6  13
HETATM   13  C   UNL     1     -10.249  10.962  69.221  1.00  0.00    -0.190 C  
BRANCH  13  14
HETATM   14  C   UNL     1      -9.928  10.204  67.947  1.00  0.00    -0.190 A  
HETATM   15  C   UNL     1      -9.099   8.984  65.568  1.00  0.00    -0.214 A  
HETATM   16  C   UNL     1     -10.429  10.645  66.716  1.00  0.00    -0.303 A  
HETATM   17  C   UNL     1      -9.084   9.079  67.972  1.00  0.00    -0.140 A  
HETATM   18  F   UNL     1      -8.630   8.525  64.399  1.00  0.00    -0.176 F  
HETATM   19  C   UNL     1      -8.684   8.440  66.780  1.00  0.00    -0.138 A  
HETATM   20  C   UNL     1     -10.005  10.043  65.531  1.00  0.00    -0.367 A  
BRANCH  19  21
HETATM   21  C   UNL     1      -7.747   7.293  66.897  1.00  0.00    -0.110 C  
HETATM   22  N   UNL     1      -8.061   6.142  67.620  1.00  0.00    -0.112 N  
HETATM   23  C   UNL     1      -7.059   5.064  67.698  1.00  0.00    -0.066 C  
HETATM   24  O   UNL     1      -6.641   7.443  66.369  1.00  0.00    -0.050 OA 
HETATM   25  C   UNL     1      -6.777   4.670  69.156  1.00  0.00    -0.046 C  
HETATM   26  N   UNL     1      -8.022   4.360  69.872  1.00  0.00    -0.056 N  
HETATM   27  C   UNL     1      -9.034   5.415  69.799  1.00  0.00    -0.124 C  
HETATM   28  C   UNL     1      -8.117   3.177  70.589  1.00  0.00    -0.049 C  
HETATM   29  C   UNL     1      -9.300   5.850  68.352  1.00  0.00    -0.120 C  
HETATM   30  O   UNL     1      -7.213   2.348  70.617  1.00  0.00    -0.033 OA 
BRANCH  28  31
HETATM   31  C   UNL     1      -9.390   2.884  71.318  1.00  0.00    -0.208 C  
HETATM   32  C   UNL     1      -9.371   1.881  72.451  1.00  0.00    -0.129 C  
HETATM   33  C   UNL     1      -9.577   3.336  72.750  1.00  0.00    -0.173 C  
ENDBRANCH  28  31
ENDBRANCH  19  21
ENDBRANCH  13  14
ENDBRANCH   6  13
TORSDOF 4
ENDMDL
MODEL      127
REMARK 921   NORMALIZED FREE ENERGY PREDICTED BY IDOCK:   -5.97 KCAL/MOL
REMARK 922        TOTAL FREE ENERGY PREDICTED BY IDOCK:   -8.11 KCAL/MOL
REMARK 923 INTER-LIGAND FREE ENERGY PREDICTED BY IDOCK:   -7.58 KCAL/MOL
REMARK 924 INTRA-LIGAND FREE ENERGY PREDICTED BY IDOCK:   -0.53 KCAL/MOL
REMARK 927      BINDING AFFINITY PREDICTED BY RF-SCORE:    0.00 PKD
ROOT
HETATM    1  O   UNL     1      -8.358  10.754  64.983  1.00  0.00    -0.301 OA 
HETATM    2  C   UNL     1      -8.810  10.299  66.184  1.00  0.00    -0.151 A  
HETATM    3  H   UNL     1      -7.443  11.012  64.986  1.00  0.00     0.000 HD 
HETATM    4  N   UNL     1     -10.104   9.936  66.180  1.00  0.00    -0.255 NA 
HETATM    5  N   UNL     1     -10.661   9.477  67.329  1.00  0.00    -0.264 NA 
HETATM    6  C   UNL     1      -9.916   9.384  68.461  1.00  0.00    -0.173 A  
HETATM    7  C   UNL     1      -8.546   9.741  68.490  1.00  0.00    -0.120 A  
HETATM    8  C   UNL     1      -5.818  10.522  68.399  1.00  0.00    -0.043 A  
HETATM    9  C   UNL     1      -7.701   9.644  69.625  1.00  0.00    -0.124 A  
HETATM   10  C   UNL     1      -7.976  10.231  67.296  1.00  0.00    -0.107 A  
HETATM   11  C   UNL     1      -6.356  10.024  69.577  1.00  0.00    -0.049 A  
HETATM   12  C   UNL     1      -6.621  10.625  67.265  1.00  0.00    -0.073 A  
ENDROOT
BRANCH   6  13
HETATM   13  C   UNL     1     -10.612   8.898  69.714  1.00  0.00    -0.230 C  
BRANCH  13  14
HETATM   14  C   UNL     1     -11.589   9.842  70.388  1.00  0.00    -0.356 A  
HETATM   15  C   UNL     1     -13.200  11.595  71.861  1.00  0.00    -0.369 A  
HETATM   16  C   UNL     1     -12.592   9.342  71.229  1.00  0.00    -0.403 A  
HETATM   17  C   UNL     1     -11.475  11.235  70.224  1.00  0.00    -0.286 A  
HETATM   18  F   UNL     1     -13.902  12.385  72.686  1.00  0.00    -0.513 F  
HETATM   19  C   UNL     1     -12.301  12.125  70.939  1.00  0.00    -0.370 A  
HETATM   20  C   UNL     1     -13.385  10.217  71.970  1.00  0.00    -0.466 A  
BRANCH  19  21
HETATM   21  C   UNL     1     -12.075  13.581  70.745  1.00  0.00    -0.271 C  
HETATM   22  N   UNL     1     -12.019  14.166  69.479  1.00  0.00    -0.321 N  
HETATM   23  C   UNL     1     -11.768  15.615  69.384  1.00  0.00    -0.383 C  
HETATM   24  O   UNL     1     -11.872  14.237  71.770  1.00  0.00    -0.172 OA 
HETATM   25  C   UNL     1     -10.583  15.915  68.453  1.00  0.00    -0.266 C  
HETATM   26  N   UNL     1     -10.759  15.267  67.146  1.00  0.00    -0.310 N  
HETATM   27  C   UNL     1     -11.018  13.828  67.219  1.00  0.00    -0.292 C  
HETATM   28  C   UNL     1     -10.604  16.017  65.990  1.00  0.00    -0.316 C  
HETATM   29  C   UNL     1     -12.174  13.506  68.176  1.00  0.00    -0.106 C  
HETATM   30  O   UNL     1     -10.366  17.221  66.011  1.00  0.00    -0.370 OA 
BRANCH  28  31
HETATM   31  C   UNL     1     -10.778  15.338  64.669  1.00  0.00    -0.226 C  
HETATM   32  C   UNL     1     -12.012  14.493  64.437  1.00  0.00    -0.467 C  
HETATM   33  C   UNL     1     -11.854  15.793  63.707  1.00  0.00     0.573 C  
ENDBRANCH  28  31
ENDBRANCH  19  21
ENDBRANCH  13  14
ENDBRANCH   6  13
TORSDOF 4
ENDMDL
MODEL      128
REMARK 921   NORMALIZED FREE ENERGY PREDICTED BY IDOCK:   -5.97 KCAL/MOL
REMARK 922        TOTAL FREE ENERGY PREDICTED BY IDOCK:   -8.11 KCAL/MOL
REMARK 923 INTER-LIGAND FREE ENERGY PREDICTED BY IDOCK:   -7.22 KCAL/MOL
REMARK 924 INTRA-LIGAND FREE ENERGY PREDICTED BY IDOCK:   -0.89 KCAL/MOL
REMARK 927      BINDING AFFINITY PREDICTED BY RF-SCORE:    0.00 PKD
ROOT
HETATM    1  O   UNL     1     -10.253  19.742  69.476  1.00  0.00    -0.633 OA 
HETATM    2  C   UNL     1      -9.893  18.718  68.655  1.00  0.00    -0.392 A  
HETATM    3  H   UNL     1      -9.733  20.529  69.364  1.00  0.00     0.000 HD 
HETATM    4  N   UNL     1     -10.628  17.604  68.814  1.00  0.00    -0.271 NA 
HETATM    5  N   UNL     1     -10.348  16.518  68.052  1.00  0.00    -0.282 NA 
HETATM    6  C   UNL     1      -9.342  16.562  67.141  1.00  0.00    -0.233 A  
HETATM    7  C   UNL     1      -8.563  17.728  66.938  1.00  0.00    -0.260 A  
HETATM    8  C   UNL     1      -7.072  20.128  66.665  1.00  0.00    -0.280 A  
HETATM    9  C   UNL     1      -7.518  17.856  65.988  1.00  0.00    -0.279 A  
HETATM   10  C   UNL     1      -8.850  18.850  67.743  1.00  0.00    -0.318 A  
HETATM   11  C   UNL     1      -6.787  19.041  65.851  1.00  0.00    -0.296 A  
HETATM   12  C   UNL     1      -8.096  20.035  67.604  1.00  0.00    -0.341 A  
ENDROOT
BRANCH   6  13
HETATM   13  C   UNL     1      -9.061  15.301  66.351  1.00  0.00    -0.347 C  
BRANCH  13  14
HETATM   14  C   UNL     1      -8.435  14.133  67.089  1.00  0.00    -0.214 A  
HETATM   15  C   UNL     1      -7.361  12.114  68.702  1.00  0.00    -0.109 A  
HETATM   16  C   UNL     1      -7.090  14.181  67.478  1.00  0.00    -0.184 A  
HETATM   17  C   UNL     1      -9.202  13.007  67.439  1.00  0.00    -0.208 A  
HETATM   18  F   UNL     1      -6.839  11.247  69.582  1.00  0.00    -0.105 F  
HETATM   19  C   UNL     1      -8.661  11.971  68.227  1.00  0.00    -0.178 A  
HETATM   20  C   UNL     1      -6.560  13.179  68.291  1.00  0.00    -0.097 A  
BRANCH  19  21
HETATM   21  C   UNL     1      -9.560  10.846  68.596  1.00  0.00    -0.190 C  
HETATM   22  N   UNL     1      -9.314   9.532  68.196  1.00  0.00    -0.133 N  
HETATM   23  C   UNL     1     -10.273   8.485  68.591  1.00  0.00    -0.197 C  
HETATM   24  O   UNL     1     -10.578  11.151  69.223  1.00  0.00    -0.217 OA 
HETATM   25  C   UNL     1     -10.757   7.686  67.371  1.00  0.00    -0.248 C  
HETATM   26  N   UNL     1      -9.623   7.172  66.591  1.00  0.00    -0.176 N  
HETATM   27  C   UNL     1      -8.654   8.195  66.196  1.00  0.00    -0.139 C  
HETATM   28  C   UNL     1      -9.592   5.830  66.241  1.00  0.00    -0.134 C  
HETATM   29  C   UNL     1      -8.189   9.031  67.396  1.00  0.00    -0.108 C  
HETATM   30  O   UNL     1     -10.457   5.035  66.595  1.00  0.00    -0.264 OA 
BRANCH  28  31
HETATM   31  C   UNL     1      -8.433   5.328  65.438  1.00  0.00    -0.145 C  
HETATM   32  C   UNL     1      -8.105   3.851  65.470  1.00  0.00    -0.101 C  
HETATM   33  C   UNL     1      -8.661   4.462  64.219  1.00  0.00    -0.142 C  
ENDBRANCH  28  31
ENDBRANCH  19  21
ENDBRANCH  13  14
ENDBRANCH   6  13
TORSDOF 4
ENDMDL
MODEL      129
REMARK 921   NORMALIZED FREE ENERGY PREDICTED BY IDOCK:   -5.96 KCAL/MOL
REMARK 922        TOTAL FREE ENERGY PREDICTED BY IDOCK:   -8.10 KCAL/MOL
REMARK 923 INTER-LIGAND FREE ENERGY PREDICTED BY IDOCK:   -6.93 KCAL/MOL
REMARK 924 INTRA-LIGAND FREE ENERGY PREDICTED BY IDOCK:   -1.17 KCAL/MOL
REMARK 927      BINDING AFFINITY PREDICTED BY RF-SCORE:    0.00 PKD
ROOT
HETATM    1  O   UNL     1     -10.706   7.862  71.421  1.00  0.00    -0.221 OA 
HETATM    2  C   UNL     1     -10.226   7.870  70.147  1.00  0.00    -0.202 A  
HETATM    3  H   UNL     1     -10.162   8.331  72.043  1.00  0.00     0.000 HD 
HETATM    4  N   UNL     1     -10.995   7.207  69.267  1.00  0.00    -0.180 NA 
HETATM    5  N   UNL     1     -10.604   7.143  67.970  1.00  0.00    -0.204 NA 
HETATM    6  C   UNL     1      -9.455   7.746  67.571  1.00  0.00    -0.141 A  
HETATM    7  C   UNL     1      -8.634   8.469  68.472  1.00  0.00    -0.138 A  
HETATM    8  C   UNL     1      -7.080   9.857  70.400  1.00  0.00    -0.146 A  
HETATM    9  C   UNL     1      -7.438   9.146  68.123  1.00  0.00    -0.083 A  
HETATM   10  C   UNL     1      -9.039   8.520  69.823  1.00  0.00    -0.153 A  
HETATM   11  C   UNL     1      -6.676   9.834  69.072  1.00  0.00    -0.049 A  
HETATM   12  C   UNL     1      -8.253   9.205  70.773  1.00  0.00    -0.226 A  
ENDROOT
BRANCH   6  13
HETATM   13  C   UNL     1      -9.062   7.603  66.117  1.00  0.00    -0.189 C  
BRANCH  13  14
HETATM   14  C   UNL     1      -9.147   8.837  65.239  1.00  0.00    -0.156 A  
HETATM   15  C   UNL     1      -9.523  10.978  63.474  1.00  0.00    -0.292 A  
HETATM   16  C   UNL     1      -8.394   8.922  64.061  1.00  0.00    -0.168 A  
HETATM   17  C   UNL     1     -10.016   9.895  65.565  1.00  0.00    -0.363 A  
HETATM   18  F   UNL     1      -9.763  11.905  62.537  1.00  0.00    -0.243 F  
HETATM   19  C   UNL     1     -10.191  10.991  64.696  1.00  0.00    -0.392 A  
HETATM   20  C   UNL     1      -8.592   9.983  63.178  1.00  0.00    -0.197 A  
BRANCH  19  21
HETATM   21  C   UNL     1     -11.171  12.034  65.094  1.00  0.00    -0.315 C  
HETATM   22  N   UNL     1     -10.783  13.329  65.444  1.00  0.00    -0.290 N  
HETATM   23  C   UNL     1     -11.824  14.291  65.846  1.00  0.00    -0.380 C  
HETATM   24  O   UNL     1     -12.348  11.672  65.162  1.00  0.00    -0.074 OA 
HETATM   25  C   UNL     1     -11.502  14.922  67.210  1.00  0.00    -0.340 C  
HETATM   26  N   UNL     1     -10.147  15.491  67.222  1.00  0.00    -0.246 N  
HETATM   27  C   UNL     1      -9.099  14.553  66.817  1.00  0.00    -0.261 C  
HETATM   28  C   UNL     1      -9.961  16.792  67.665  1.00  0.00    -0.262 C  
HETATM   29  C   UNL     1      -9.423  13.882  65.476  1.00  0.00     0.164 C  
HETATM   30  O   UNL     1     -10.893  17.512  68.009  1.00  0.00    -0.378 OA 
BRANCH  28  31
HETATM   31  C   UNL     1      -8.573  17.350  67.679  1.00  0.00    -0.217 C  
HETATM   32  C   UNL     1      -8.291  18.593  68.494  1.00  0.00    -0.369 C  
HETATM   33  C   UNL     1      -7.728  17.275  68.932  1.00  0.00    -0.221 C  
ENDBRANCH  28  31
ENDBRANCH  19  21
ENDBRANCH  13  14
ENDBRANCH   6  13
TORSDOF 4
ENDMDL
MODEL      130
REMARK 921   NORMALIZED FREE ENERGY PREDICTED BY IDOCK:   -5.93 KCAL/MOL
REMARK 922        TOTAL FREE ENERGY PREDICTED BY IDOCK:   -8.07 KCAL/MOL
REMARK 923 INTER-LIGAND FREE ENERGY PREDICTED BY IDOCK:   -6.97 KCAL/MOL
REMARK 924 INTRA-LIGAND FREE ENERGY PREDICTED BY IDOCK:   -1.10 KCAL/MOL
REMARK 927      BINDING AFFINITY PREDICTED BY RF-SCORE:    0.00 PKD
ROOT
HETATM    1  O   UNL     1      -7.314   6.750  66.119  1.00  0.00    -0.070 OA 
HETATM    2  C   UNL     1      -8.076   7.861  66.322  1.00  0.00    -0.110 A  
HETATM    3  H   UNL     1      -6.379   6.913  66.144  1.00  0.00     0.000 HD 
HETATM    4  N   UNL     1      -9.399   7.631  66.286  1.00  0.00    -0.162 NA 
HETATM    5  N   UNL     1     -10.251   8.671  66.465  1.00  0.00    -0.273 NA 
HETATM    6  C   UNL     1      -9.769   9.921  66.684  1.00  0.00    -0.198 A  
HETATM    7  C   UNL     1      -8.379  10.190  66.747  1.00  0.00    -0.122 A  
HETATM    8  C   UNL     1      -5.568  10.576  66.818  1.00  0.00    -0.051 A  
HETATM    9  C   UNL     1      -7.804  11.462  66.998  1.00  0.00    -0.158 A  
HETATM   10  C   UNL     1      -7.498   9.107  66.545  1.00  0.00    -0.093 A  
HETATM   11  C   UNL     1      -6.420  11.650  67.037  1.00  0.00    -0.148 A  
HETATM   12  C   UNL     1      -6.103   9.313  66.573  1.00  0.00    -0.064 A  
ENDROOT
BRANCH   6  13
HETATM   13  C   UNL     1     -10.778  11.039  66.840  1.00  0.00    -0.325 C  
BRANCH  13  14
HETATM   14  C   UNL     1     -11.177  11.436  68.248  1.00  0.00    -0.326 A  
HETATM   15  C   UNL     1     -12.195  12.161  70.753  1.00  0.00    -0.271 A  
HETATM   16  C   UNL     1     -11.312  12.788  68.592  1.00  0.00    -0.333 A  
HETATM   17  C   UNL     1     -11.466  10.459  69.218  1.00  0.00    -0.281 A  
HETATM   18  F   UNL     1     -12.803  12.555  71.881  1.00  0.00    -0.426 F  
HETATM   19  C   UNL     1     -11.953  10.815  70.492  1.00  0.00    -0.456 A  
HETATM   20  C   UNL     1     -11.830  13.146  69.836  1.00  0.00    -0.378 A  
BRANCH  19  21
HETATM   21  C   UNL     1     -12.284   9.715  71.434  1.00  0.00    -0.385 C  
HETATM   22  N   UNL     1     -11.328   8.804  71.886  1.00  0.00    -0.339 N  
HETATM   23  C   UNL     1     -11.755   7.732  72.802  1.00  0.00    -0.258 C  
HETATM   24  O   UNL     1     -13.474   9.611  71.746  1.00  0.00    -0.391 OA 
HETATM   25  C   UNL     1     -11.339   6.350  72.275  1.00  0.00    -0.290 C  
HETATM   26  N   UNL     1      -9.903   6.313  71.964  1.00  0.00    -0.158 N  
HETATM   27  C   UNL     1      -9.457   7.375  71.061  1.00  0.00    -0.157 C  
HETATM   28  C   UNL     1      -9.126   5.281  72.468  1.00  0.00    -0.136 C  
HETATM   29  C   UNL     1      -9.899   8.761  71.551  1.00  0.00    -0.301 C  
HETATM   30  O   UNL     1      -9.579   4.412  73.206  1.00  0.00    -0.121 OA 
BRANCH  28  31
HETATM   31  C   UNL     1      -7.667   5.256  72.132  1.00  0.00    -0.100 C  
HETATM   32  C   UNL     1      -6.751   4.343  72.917  1.00  0.00    -0.052 C  
HETATM   33  C   UNL     1      -7.050   4.037  71.480  1.00  0.00    -0.038 C  
ENDBRANCH  28  31
ENDBRANCH  19  21
ENDBRANCH  13  14
ENDBRANCH   6  13
TORSDOF 4
ENDMDL
MODEL      131
REMARK 921   NORMALIZED FREE ENERGY PREDICTED BY IDOCK:   -5.92 KCAL/MOL
REMARK 922        TOTAL FREE ENERGY PREDICTED BY IDOCK:   -8.05 KCAL/MOL
REMARK 923 INTER-LIGAND FREE ENERGY PREDICTED BY IDOCK:   -8.29 KCAL/MOL
REMARK 924 INTRA-LIGAND FREE ENERGY PREDICTED BY IDOCK:    0.24 KCAL/MOL
REMARK 927      BINDING AFFINITY PREDICTED BY RF-SCORE:    0.00 PKD
ROOT
HETATM    1  O   UNL     1     -10.170  16.571  67.888  1.00  0.00    -0.256 OA 
HETATM    2  C   UNL     1     -10.651  15.297  67.872  1.00  0.00    -0.260 A  
HETATM    3  H   UNL     1     -10.119  16.976  67.030  1.00  0.00     0.000 HD 
HETATM    4  N   UNL     1     -10.722  14.723  69.085  1.00  0.00    -0.249 NA 
HETATM    5  N   UNL     1     -11.179  13.450  69.183  1.00  0.00    -0.259 NA 
HETATM    6  C   UNL     1     -11.562  12.772  68.071  1.00  0.00    -0.341 A  
HETATM    7  C   UNL     1     -11.517  13.358  66.782  1.00  0.00    -0.376 A  
HETATM    8  C   UNL     1     -11.343  14.658  64.264  1.00  0.00    -0.113 A  
HETATM    9  C   UNL     1     -11.926  12.723  65.582  1.00  0.00    -0.503 A  
HETATM   10  C   UNL     1     -11.028  14.678  66.684  1.00  0.00    -0.323 A  
HETATM   11  C   UNL     1     -11.845  13.366  64.343  1.00  0.00    -0.452 A  
HETATM   12  C   UNL     1     -10.938  15.310  65.426  1.00  0.00    -0.380 A  
ENDROOT
BRANCH   6  13
HETATM   13  C   UNL     1     -12.027  11.343  68.251  1.00  0.00    -0.234 C  
BRANCH  13  14
HETATM   14  C   UNL     1     -11.732  10.669  69.578  1.00  0.00    -0.356 A  
HETATM   15  C   UNL     1     -11.294   9.175  71.904  1.00  0.00    -0.346 A  
HETATM   16  C   UNL     1     -12.713  10.615  70.578  1.00  0.00    -0.395 A  
HETATM   17  C   UNL     1     -10.493  10.045  69.809  1.00  0.00    -0.291 A  
HETATM   18  F   UNL     1     -11.187   8.367  72.968  1.00  0.00    -0.393 F  
HETATM   19  C   UNL     1     -10.253   9.314  70.991  1.00  0.00    -0.384 A  
HETATM   20  C   UNL     1     -12.496   9.860  71.730  1.00  0.00    -0.487 A  
BRANCH  19  21
HETATM   21  C   UNL     1      -8.935   8.642  71.127  1.00  0.00    -0.201 C  
HETATM   22  N   UNL     1      -8.807   7.254  71.192  1.00  0.00    -0.139 N  
HETATM   23  C   UNL     1      -7.460   6.677  71.349  1.00  0.00    -0.088 C  
HETATM   24  O   UNL     1      -7.959   9.387  71.248  1.00  0.00    -0.328 OA 
HETATM   25  C   UNL     1      -7.403   5.716  72.547  1.00  0.00    -0.095 C  
HETATM   26  N   UNL     1      -8.464   4.702  72.463  1.00  0.00    -0.114 N  
HETATM   27  C   UNL     1      -9.809   5.254  72.297  1.00  0.00    -0.168 C  
HETATM   28  C   UNL     1      -8.136   3.363  72.611  1.00  0.00    -0.076 C  
HETATM   29  C   UNL     1      -9.876   6.248  71.130  1.00  0.00    -0.180 C  
HETATM   30  O   UNL     1      -6.981   2.978  72.768  1.00  0.00    -0.032 OA 
BRANCH  28  31
HETATM   31  C   UNL     1      -9.232   2.347  72.532  1.00  0.00    -0.124 C  
HETATM   32  C   UNL     1      -9.770   1.747  73.813  1.00  0.00    -0.102 C  
HETATM   33  C   UNL     1     -10.627   2.682  73.013  1.00  0.00    -0.247 C  
ENDBRANCH  28  31
ENDBRANCH  19  21
ENDBRANCH  13  14
ENDBRANCH   6  13
TORSDOF 4
ENDMDL
MODEL      132
REMARK 921   NORMALIZED FREE ENERGY PREDICTED BY IDOCK:   -5.90 KCAL/MOL
REMARK 922        TOTAL FREE ENERGY PREDICTED BY IDOCK:   -8.03 KCAL/MOL
REMARK 923 INTER-LIGAND FREE ENERGY PREDICTED BY IDOCK:   -7.52 KCAL/MOL
REMARK 924 INTRA-LIGAND FREE ENERGY PREDICTED BY IDOCK:   -0.51 KCAL/MOL
REMARK 927      BINDING AFFINITY PREDICTED BY RF-SCORE:    0.00 PKD
ROOT
HETATM    1  O   UNL     1      -8.778   3.479  68.249  1.00  0.00    -0.092 OA 
HETATM    2  C   UNL     1      -9.316   4.711  68.034  1.00  0.00    -0.135 A  
HETATM    3  H   UNL     1      -8.882   3.161  69.139  1.00  0.00     0.000 HD 
HETATM    4  N   UNL     1      -9.168   5.161  66.776  1.00  0.00    -0.120 NA 
HETATM    5  N   UNL     1      -9.657   6.384  66.454  1.00  0.00    -0.147 NA 
HETATM    6  C   UNL     1     -10.292   7.135  67.391  1.00  0.00    -0.254 A  
HETATM    7  C   UNL     1     -10.479   6.679  68.719  1.00  0.00    -0.241 A  
HETATM    8  C   UNL     1     -10.754   5.641  71.346  1.00  0.00    -0.310 A  
HETATM    9  C   UNL     1     -11.154   7.395  69.740  1.00  0.00    -0.169 A  
HETATM   10  C   UNL     1      -9.955   5.412  69.052  1.00  0.00    -0.260 A  
HETATM   11  C   UNL     1     -11.293   6.881  71.033  1.00  0.00    -0.342 A  
HETATM   12  C   UNL     1     -10.090   4.911  70.363  1.00  0.00    -0.316 A  
ENDROOT
BRANCH   6  13
HETATM   13  C   UNL     1     -10.781   8.505  66.970  1.00  0.00    -0.190 C  
BRANCH  13  14
HETATM   14  C   UNL     1     -10.056   9.714  67.530  1.00  0.00    -0.247 A  
HETATM   15  C   UNL     1      -8.723  12.056  68.287  1.00  0.00    -0.178 A  
HETATM   16  C   UNL     1      -8.656   9.756  67.544  1.00  0.00    -0.125 A  
HETATM   17  C   UNL     1     -10.772  10.831  67.998  1.00  0.00    -0.270 A  
HETATM   18  F   UNL     1      -8.043  13.190  68.509  1.00  0.00    -0.141 F  
HETATM   19  C   UNL     1     -10.109  12.005  68.408  1.00  0.00    -0.211 A  
HETATM   20  C   UNL     1      -7.994  10.928  67.910  1.00  0.00    -0.111 A  
BRANCH  19  21
HETATM   21  C   UNL     1     -10.946  13.155  68.835  1.00  0.00    -0.230 C  
HETATM   22  N   UNL     1     -10.856  14.410  68.232  1.00  0.00    -0.236 N  
HETATM   23  C   UNL     1     -11.712  15.498  68.737  1.00  0.00    -0.357 C  
HETATM   24  O   UNL     1     -11.684  12.956  69.804  1.00  0.00    -0.307 OA 
HETATM   25  C   UNL     1     -10.882  16.740  69.094  1.00  0.00    -0.287 C  
HETATM   26  N   UNL     1     -10.028  17.147  67.968  1.00  0.00    -0.282 N  
HETATM   27  C   UNL     1      -9.176  16.078  67.445  1.00  0.00    -0.208 C  
HETATM   28  C   UNL     1     -10.040  18.469  67.551  1.00  0.00    -0.357 C  
HETATM   29  C   UNL     1      -9.983  14.814  67.122  1.00  0.00    -0.236 C  
HETATM   30  O   UNL     1     -10.772  19.315  68.055  1.00  0.00    -0.365 OA 
BRANCH  28  31
HETATM   31  C   UNL     1      -9.157  18.865  66.409  1.00  0.00    -0.317 C  
HETATM   32  C   UNL     1      -9.118  20.316  65.982  1.00  0.00    -0.155 C  
HETATM   33  C   UNL     1      -7.922  19.706  66.649  1.00  0.00    -0.321 C  
ENDBRANCH  28  31
ENDBRANCH  19  21
ENDBRANCH  13  14
ENDBRANCH   6  13
TORSDOF 4
ENDMDL
MODEL      133
REMARK 921   NORMALIZED FREE ENERGY PREDICTED BY IDOCK:   -5.80 KCAL/MOL
REMARK 922        TOTAL FREE ENERGY PREDICTED BY IDOCK:   -7.91 KCAL/MOL
REMARK 923 INTER-LIGAND FREE ENERGY PREDICTED BY IDOCK:   -7.17 KCAL/MOL
REMARK 924 INTRA-LIGAND FREE ENERGY PREDICTED BY IDOCK:   -0.74 KCAL/MOL
REMARK 927      BINDING AFFINITY PREDICTED BY RF-SCORE:    0.00 PKD
ROOT
HETATM    1  O   UNL     1      -5.441  13.565  72.673  1.00  0.00    -0.409 OA 
HETATM    2  C   UNL     1      -5.397  14.493  71.678  1.00  0.00    -0.147 A  
HETATM    3  H   UNL     1      -5.582  12.677  72.368  1.00  0.00     0.000 HD 
HETATM    4  N   UNL     1      -5.197  15.750  72.110  1.00  0.00     0.001 NA 
HETATM    5  N   UNL     1      -5.147  16.756  71.202  1.00  0.00    -0.312 NA 
HETATM    6  C   UNL     1      -5.291  16.492  69.878  1.00  0.00    -0.176 A  
HETATM    7  C   UNL     1      -5.483  15.175  69.392  1.00  0.00    -0.092 A  
HETATM    8  C   UNL     1      -5.890  12.487  68.573  1.00  0.00    -0.055 A  
HETATM    9  C   UNL     1      -5.614  14.820  68.025  1.00  0.00    -0.140 A  
HETATM   10  C   UNL     1      -5.549  14.134  70.342  1.00  0.00    -0.132 A  
HETATM   11  C   UNL     1      -5.809  13.496  67.623  1.00  0.00    -0.075 A  
HETATM   12  C   UNL     1      -5.761  12.803  69.924  1.00  0.00    -0.125 A  
ENDROOT
BRANCH   6  13
HETATM   13  C   UNL     1      -5.260  17.667  68.925  1.00  0.00    -0.159 C  
BRANCH  13  14
HETATM   14  C   UNL     1      -6.586  18.281  68.520  1.00  0.00    -0.225 A  
HETATM   15  C   UNL     1      -8.990  19.293  67.503  1.00  0.00    -0.298 A  
HETATM   16  C   UNL     1      -6.631  19.563  67.958  1.00  0.00    -0.269 A  
HETATM   17  C   UNL     1      -7.786  17.558  68.654  1.00  0.00    -0.275 A  
HETATM   18  F   UNL     1     -10.081  19.764  66.883  1.00  0.00    -0.425 F  
HETATM   19  C   UNL     1      -9.006  18.071  68.171  1.00  0.00    -0.287 A  
HETATM   20  C   UNL     1      -7.827  20.060  67.442  1.00  0.00    -0.330 A  
BRANCH  19  21
HETATM   21  C   UNL     1     -10.213  17.216  68.305  1.00  0.00    -0.334 C  
HETATM   22  N   UNL     1     -10.208  15.858  67.981  1.00  0.00    -0.234 N  
HETATM   23  C   UNL     1     -11.460  15.095  68.125  1.00  0.00    -0.342 C  
HETATM   24  O   UNL     1     -11.246  17.791  68.659  1.00  0.00     0.254 OA 
HETATM   25  C   UNL     1     -11.816  14.358  66.825  1.00  0.00    -0.410 C  
HETATM   26  N   UNL     1     -10.688  13.543  66.352  1.00  0.00    -0.286 N  
HETATM   27  C   UNL     1      -9.433  14.282  66.210  1.00  0.00    -0.252 C  
HETATM   28  C   UNL     1     -10.903  12.214  66.022  1.00  0.00    -0.282 C  
HETATM   29  C   UNL     1      -9.081  15.057  67.486  1.00  0.00    -0.185 C  
HETATM   30  O   UNL     1     -11.995  11.669  66.151  1.00  0.00    -0.370 OA 
BRANCH  28  31
HETATM   31  C   UNL     1      -9.744  11.403  65.534  1.00  0.00    -0.263 C  
HETATM   32  C   UNL     1     -10.013  10.101  64.811  1.00  0.00    -0.334 C  
HETATM   33  C   UNL     1      -9.468  11.273  64.052  1.00  0.00    -0.202 C  
ENDBRANCH  28  31
ENDBRANCH  19  21
ENDBRANCH  13  14
ENDBRANCH   6  13
TORSDOF 4
ENDMDL
MODEL      134
REMARK 921   NORMALIZED FREE ENERGY PREDICTED BY IDOCK:   -5.80 KCAL/MOL
REMARK 922        TOTAL FREE ENERGY PREDICTED BY IDOCK:   -7.90 KCAL/MOL
REMARK 923 INTER-LIGAND FREE ENERGY PREDICTED BY IDOCK:   -8.15 KCAL/MOL
REMARK 924 INTRA-LIGAND FREE ENERGY PREDICTED BY IDOCK:    0.25 KCAL/MOL
REMARK 927      BINDING AFFINITY PREDICTED BY RF-SCORE:    0.00 PKD
ROOT
HETATM    1  O   UNL     1     -12.629  15.885  63.690  1.00  0.00    -0.775 OA 
HETATM    2  C   UNL     1     -12.145  14.858  64.441  1.00  0.00    -0.401 A  
HETATM    3  H   UNL     1     -12.196  16.716  63.844  1.00  0.00     0.000 HD 
HETATM    4  N   UNL     1     -12.759  13.683  64.222  1.00  0.00    -0.650 NA 
HETATM    5  N   UNL     1     -12.362  12.594  64.926  1.00  0.00    -0.483 NA 
HETATM    6  C   UNL     1     -11.356  12.694  65.832  1.00  0.00    -0.334 A  
HETATM    7  C   UNL     1     -10.677  13.915  66.069  1.00  0.00    -0.287 A  
HETATM    8  C   UNL     1      -9.433  16.436  66.455  1.00  0.00    -0.320 A  
HETATM    9  C   UNL     1      -9.602  14.088  66.978  1.00  0.00    -0.253 A  
HETATM   10  C   UNL     1     -11.104  15.047  65.345  1.00  0.00    -0.377 A  
HETATM   11  C   UNL     1      -8.986  15.329  67.163  1.00  0.00    -0.227 A  
HETATM   12  C   UNL     1     -10.484  16.297  65.552  1.00  0.00    -0.383 A  
ENDROOT
BRANCH   6  13
HETATM   13  C   UNL     1     -10.990  11.446  66.607  1.00  0.00    -0.341 C  
BRANCH  13  14
HETATM   14  C   UNL     1     -10.177  10.385  65.890  1.00  0.00    -0.302 A  
HETATM   15  C   UNL     1      -8.435   8.571  64.661  1.00  0.00    -0.108 A  
HETATM   16  C   UNL     1      -9.789  10.571  64.556  1.00  0.00    -0.401 A  
HETATM   17  C   UNL     1      -9.757   9.222  66.561  1.00  0.00    -0.305 A  
HETATM   18  F   UNL     1      -7.500   7.810  64.074  1.00  0.00    -0.077 F  
HETATM   19  C   UNL     1      -8.903   8.288  65.941  1.00  0.00    -0.197 A  
HETATM   20  C   UNL     1      -8.911   9.672  63.950  1.00  0.00    -0.254 A  
BRANCH  19  21
HETATM   21  C   UNL     1      -8.466   7.117  66.743  1.00  0.00    -0.121 C  
HETATM   22  N   UNL     1      -8.509   7.108  68.138  1.00  0.00    -0.123 N  
HETATM   23  C   UNL     1      -8.034   5.908  68.850  1.00  0.00    -0.102 C  
HETATM   24  O   UNL     1      -7.996   6.170  66.105  1.00  0.00    -0.102 OA 
HETATM   25  C   UNL     1      -6.975   6.269  69.903  1.00  0.00    -0.066 C  
HETATM   26  N   UNL     1      -7.461   7.325  70.802  1.00  0.00    -0.078 N  
HETATM   27  C   UNL     1      -7.946   8.522  70.114  1.00  0.00    -0.105 C  
HETATM   28  C   UNL     1      -7.363   7.147  72.173  1.00  0.00    -0.080 C  
HETATM   29  C   UNL     1      -8.976   8.177  69.030  1.00  0.00    -0.144 C  
HETATM   30  O   UNL     1      -6.924   6.117  72.677  1.00  0.00    -0.073 OA 
BRANCH  28  31
HETATM   31  C   UNL     1      -7.855   8.238  73.072  1.00  0.00    -0.188 C  
HETATM   32  C   UNL     1      -8.993   7.945  74.025  1.00  0.00    -0.218 C  
HETATM   33  C   UNL     1      -7.612   8.171  74.564  1.00  0.00    -0.272 C  
ENDBRANCH  28  31
ENDBRANCH  19  21
ENDBRANCH  13  14
ENDBRANCH   6  13
TORSDOF 4
ENDMDL
MODEL      135
REMARK 921   NORMALIZED FREE ENERGY PREDICTED BY IDOCK:   -5.79 KCAL/MOL
REMARK 922        TOTAL FREE ENERGY PREDICTED BY IDOCK:   -7.90 KCAL/MOL
REMARK 923 INTER-LIGAND FREE ENERGY PREDICTED BY IDOCK:   -7.11 KCAL/MOL
REMARK 924 INTRA-LIGAND FREE ENERGY PREDICTED BY IDOCK:   -0.79 KCAL/MOL
REMARK 927      BINDING AFFINITY PREDICTED BY RF-SCORE:    0.00 PKD
ROOT
HETATM    1  O   UNL     1      -9.741   3.300  68.430  1.00  0.00    -0.118 OA 
HETATM    2  C   UNL     1      -9.444   4.511  68.975  1.00  0.00    -0.162 A  
HETATM    3  H   UNL     1      -9.121   2.614  68.648  1.00  0.00     0.000 HD 
HETATM    4  N   UNL     1     -10.321   5.481  68.666  1.00  0.00    -0.192 NA 
HETATM    5  N   UNL     1     -10.114   6.732  69.148  1.00  0.00    -0.166 NA 
HETATM    6  C   UNL     1      -9.039   6.993  69.936  1.00  0.00    -0.141 A  
HETATM    7  C   UNL     1      -8.109   5.986  70.294  1.00  0.00    -0.111 A  
HETATM    8  C   UNL     1      -6.317   3.871  70.903  1.00  0.00    -0.019 A  
HETATM    9  C   UNL     1      -6.981   6.178  71.133  1.00  0.00    -0.068 A  
HETATM   10  C   UNL     1      -8.321   4.690  69.778  1.00  0.00    -0.081 A  
HETATM   11  C   UNL     1      -6.102   5.134  71.436  1.00  0.00    -0.029 A  
HETATM   12  C   UNL     1      -7.418   3.649  70.080  1.00  0.00    -0.045 A  
ENDROOT
BRANCH   6  13
HETATM   13  C   UNL     1      -8.852   8.418  70.409  1.00  0.00    -0.149 C  
BRANCH  13  14
HETATM   14  C   UNL     1     -10.019   9.373  70.245  1.00  0.00    -0.284 A  
HETATM   15  C   UNL     1     -11.998  11.344  70.064  1.00  0.00    -0.363 A  
HETATM   16  C   UNL     1     -10.958   9.527  71.273  1.00  0.00    -0.440 A  
HETATM   17  C   UNL     1     -10.152  10.156  69.083  1.00  0.00    -0.226 A  
HETATM   18  F   UNL     1     -12.875  12.358  70.087  1.00  0.00    -0.067 F  
HETATM   19  C   UNL     1     -11.163  11.132  68.972  1.00  0.00    -0.318 A  
HETATM   20  C   UNL     1     -11.936  10.518  71.186  1.00  0.00    -0.435 A  
BRANCH  19  21
HETATM   21  C   UNL     1     -11.195  11.950  67.732  1.00  0.00    -0.267 C  
HETATM   22  N   UNL     1     -10.551  13.184  67.634  1.00  0.00    -0.226 N  
HETATM   23  C   UNL     1     -10.657  13.936  66.371  1.00  0.00    -0.280 C  
HETATM   24  O   UNL     1     -11.883  11.506  66.809  1.00  0.00    -0.511 OA 
HETATM   25  C   UNL     1     -11.159  15.367  66.615  1.00  0.00    -0.236 C  
HETATM   26  N   UNL     1     -10.344  16.048  67.631  1.00  0.00    -0.277 N  
HETATM   27  C   UNL     1     -10.220  15.314  68.891  1.00  0.00    -0.232 C  
HETATM   28  C   UNL     1      -9.836  17.310  67.360  1.00  0.00    -0.272 C  
HETATM   29  C   UNL     1      -9.758  13.868  68.664  1.00  0.00    -0.160 C  
HETATM   30  O   UNL     1     -10.002  17.871  66.281  1.00  0.00    -0.334 OA 
BRANCH  28  31
HETATM   31  C   UNL     1      -9.017  17.990  68.411  1.00  0.00    -0.286 C  
HETATM   32  C   UNL     1      -7.509  17.892  68.342  1.00  0.00    -0.272 C  
HETATM   33  C   UNL     1      -8.181  19.204  68.067  1.00  0.00    -0.339 C  
ENDBRANCH  28  31
ENDBRANCH  19  21
ENDBRANCH  13  14
ENDBRANCH   6  13
TORSDOF 4
ENDMDL
MODEL      136
REMARK 921   NORMALIZED FREE ENERGY PREDICTED BY IDOCK:   -5.78 KCAL/MOL
REMARK 922        TOTAL FREE ENERGY PREDICTED BY IDOCK:   -7.88 KCAL/MOL
REMARK 923 INTER-LIGAND FREE ENERGY PREDICTED BY IDOCK:   -7.27 KCAL/MOL
REMARK 924 INTRA-LIGAND FREE ENERGY PREDICTED BY IDOCK:   -0.62 KCAL/MOL
REMARK 927      BINDING AFFINITY PREDICTED BY RF-SCORE:    0.00 PKD
ROOT
HETATM    1  O   UNL     1      -8.576  17.577  68.319  1.00  0.00    -0.250 OA 
HETATM    2  C   UNL     1      -8.971  16.299  68.063  1.00  0.00    -0.187 A  
HETATM    3  H   UNL     1      -8.877  18.211  67.680  1.00  0.00     0.000 HD 
HETATM    4  N   UNL     1      -8.544  15.402  68.967  1.00  0.00    -0.210 NA 
HETATM    5  N   UNL     1      -8.872  14.096  68.803  1.00  0.00    -0.116 NA 
HETATM    6  C   UNL     1      -9.627  13.708  67.742  1.00  0.00    -0.224 A  
HETATM    7  C   UNL     1     -10.107  14.635  66.784  1.00  0.00    -0.266 A  
HETATM    8  C   UNL     1     -10.974  16.604  64.932  1.00  0.00    -0.162 A  
HETATM    9  C   UNL     1     -10.920  14.308  65.669  1.00  0.00    -0.309 A  
HETATM   10  C   UNL     1      -9.750  15.989  66.953  1.00  0.00    -0.244 A  
HETATM   11  C   UNL     1     -11.351  15.279  64.760  1.00  0.00    -0.396 A  
HETATM   12  C   UNL     1     -10.179  16.957  66.021  1.00  0.00    -0.350 A  
ENDROOT
BRANCH   6  13
HETATM   13  C   UNL     1      -9.924  12.231  67.602  1.00  0.00    -0.199 C  
BRANCH  13  14
HETATM   14  C   UNL     1     -10.591  11.533  68.772  1.00  0.00    -0.241 A  
HETATM   15  C   UNL     1     -11.950  10.066  70.731  1.00  0.00    -0.335 A  
HETATM   16  C   UNL     1     -11.850  11.952  69.222  1.00  0.00    -0.379 A  
HETATM   17  C   UNL     1      -9.984  10.426  69.393  1.00  0.00    -0.240 A  
HETATM   18  F   UNL     1     -12.696   9.325  71.563  1.00  0.00    -0.329 F  
HETATM   19  C   UNL     1     -10.649   9.698  70.400  1.00  0.00    -0.354 A  
HETATM   20  C   UNL     1     -12.530  11.213  70.190  1.00  0.00    -0.316 A  
BRANCH  19  21
HETATM   21  C   UNL     1      -9.956   8.510  70.961  1.00  0.00    -0.203 C  
HETATM   22  N   UNL     1      -9.543   7.440  70.166  1.00  0.00    -0.165 N  
HETATM   23  C   UNL     1      -8.882   6.294  70.815  1.00  0.00    -0.144 C  
HETATM   24  O   UNL     1      -9.823   8.492  72.188  1.00  0.00    -0.268 OA 
HETATM   25  C   UNL     1      -9.574   4.972  70.449  1.00  0.00    -0.193 C  
HETATM   26  N   UNL     1      -9.697   4.825  68.992  1.00  0.00    -0.169 N  
HETATM   27  C   UNL     1     -10.344   5.957  68.327  1.00  0.00    -0.214 C  
HETATM   28  C   UNL     1      -9.277   3.648  68.391  1.00  0.00    -0.163 C  
HETATM   29  C   UNL     1      -9.691   7.291  68.713  1.00  0.00    -0.151 C  
HETATM   30  O   UNL     1      -8.760   2.731  69.022  1.00  0.00    -0.069 OA 
BRANCH  28  31
HETATM   31  C   UNL     1      -9.420   3.513  66.907  1.00  0.00    -0.198 C  
HETATM   32  C   UNL     1      -8.310   4.025  66.015  1.00  0.00    -0.109 C  
HETATM   33  C   UNL     1      -8.545   2.549  66.136  1.00  0.00    -0.113 C  
ENDBRANCH  28  31
ENDBRANCH  19  21
ENDBRANCH  13  14
ENDBRANCH   6  13
TORSDOF 4
ENDMDL
MODEL      137
REMARK 921   NORMALIZED FREE ENERGY PREDICTED BY IDOCK:   -5.76 KCAL/MOL
REMARK 922        TOTAL FREE ENERGY PREDICTED BY IDOCK:   -7.86 KCAL/MOL
REMARK 923 INTER-LIGAND FREE ENERGY PREDICTED BY IDOCK:   -7.08 KCAL/MOL
REMARK 924 INTRA-LIGAND FREE ENERGY PREDICTED BY IDOCK:   -0.78 KCAL/MOL
REMARK 927      BINDING AFFINITY PREDICTED BY RF-SCORE:    0.00 PKD
ROOT
HETATM    1  O   UNL     1      -9.916   3.191  64.891  1.00  0.00    -0.344 OA 
HETATM    2  C   UNL     1      -9.319   4.414  64.843  1.00  0.00    -0.163 A  
HETATM    3  H   UNL     1     -10.174   2.920  65.765  1.00  0.00     0.000 HD 
HETATM    4  N   UNL     1      -8.953   4.796  63.608  1.00  0.00    -0.115 NA 
HETATM    5  N   UNL     1      -8.339   5.994  63.446  1.00  0.00    -0.021 NA 
HETATM    6  C   UNL     1      -8.105   6.794  64.518  1.00  0.00    -0.070 A  
HETATM    7  C   UNL     1      -8.496   6.425  65.829  1.00  0.00    -0.148 A  
HETATM    8  C   UNL     1      -9.314   5.538  68.398  1.00  0.00    -0.130 A  
HETATM    9  C   UNL     1      -8.309   7.219  66.990  1.00  0.00    -0.118 A  
HETATM   10  C   UNL     1      -9.122   5.171  65.993  1.00  0.00    -0.149 A  
HETATM   11  C   UNL     1      -8.717   6.783  68.254  1.00  0.00    -0.123 A  
HETATM   12  C   UNL     1      -9.516   4.737  67.276  1.00  0.00    -0.163 A  
ENDROOT
BRANCH   6  13
HETATM   13  C   UNL     1      -7.383   8.101  64.268  1.00  0.00    -0.094 C  
BRANCH  13  14
HETATM   14  C   UNL     1      -8.225   9.317  63.935  1.00  0.00    -0.165 A  
HETATM   15  C   UNL     1     -10.016  11.397  63.384  1.00  0.00    -0.402 A  
HETATM   16  C   UNL     1      -8.699   9.514  62.631  1.00  0.00    -0.233 A  
HETATM   17  C   UNL     1      -8.585  10.241  64.933  1.00  0.00    -0.192 A  
HETATM   18  F   UNL     1     -10.976  12.288  63.099  1.00  0.00    -0.457 F  
HETATM   19  C   UNL     1      -9.464  11.308  64.658  1.00  0.00    -0.215 A  
HETATM   20  C   UNL     1      -9.601  10.544  62.362  1.00  0.00    -0.179 A  
BRANCH  19  21
HETATM   21  C   UNL     1      -9.833  12.202  65.786  1.00  0.00    -0.245 C  
HETATM   22  N   UNL     1     -10.113  11.717  67.064  1.00  0.00    -0.207 N  
HETATM   23  C   UNL     1     -10.492  12.678  68.115  1.00  0.00    -0.231 C  
HETATM   24  O   UNL     1      -9.944  13.400  65.511  1.00  0.00    -0.275 OA 
HETATM   25  C   UNL     1     -11.817  12.279  68.783  1.00  0.00    -0.306 C  
HETATM   26  N   UNL     1     -11.773  10.888  69.255  1.00  0.00    -0.306 N  
HETATM   27  C   UNL     1     -11.390   9.917  68.229  1.00  0.00     0.024 C  
HETATM   28  C   UNL     1     -12.149  10.601  70.559  1.00  0.00    -0.355 C  
HETATM   29  C   UNL     1     -10.089  10.322  67.521  1.00  0.00    -0.198 C  
HETATM   30  O   UNL     1     -12.479  11.472  71.358  1.00  0.00    -0.316 OA 
BRANCH  28  31
HETATM   31  C   UNL     1     -12.106   9.177  71.018  1.00  0.00    -0.324 C  
HETATM   32  C   UNL     1     -11.033   8.755  71.998  1.00  0.00    -0.438 C  
HETATM   33  C   UNL     1     -12.463   8.819  72.444  1.00  0.00    -0.421 C  
ENDBRANCH  28  31
ENDBRANCH  19  21
ENDBRANCH  13  14
ENDBRANCH   6  13
TORSDOF 4
ENDMDL
MODEL      138
REMARK 921   NORMALIZED FREE ENERGY PREDICTED BY IDOCK:   -5.76 KCAL/MOL
REMARK 922        TOTAL FREE ENERGY PREDICTED BY IDOCK:   -7.86 KCAL/MOL
REMARK 923 INTER-LIGAND FREE ENERGY PREDICTED BY IDOCK:   -7.51 KCAL/MOL
REMARK 924 INTRA-LIGAND FREE ENERGY PREDICTED BY IDOCK:   -0.35 KCAL/MOL
REMARK 927      BINDING AFFINITY PREDICTED BY RF-SCORE:    0.00 PKD
ROOT
HETATM    1  O   UNL     1     -12.032   7.620  73.370  1.00  0.00    -0.381 OA 
HETATM    2  C   UNL     1     -11.211   8.207  72.456  1.00  0.00    -0.391 A  
HETATM    3  H   UNL     1     -12.873   8.051  73.468  1.00  0.00     0.000 HD 
HETATM    4  N   UNL     1     -10.021   7.598  72.317  1.00  0.00    -0.180 NA 
HETATM    5  N   UNL     1      -9.121   8.106  71.439  1.00  0.00    -0.143 NA 
HETATM    6  C   UNL     1      -9.425   9.211  70.710  1.00  0.00    -0.272 A  
HETATM    7  C   UNL     1     -10.678   9.863  70.822  1.00  0.00    -0.350 A  
HETATM    8  C   UNL     1     -13.220  11.075  71.175  1.00  0.00    -0.176 A  
HETATM    9  C   UNL     1     -11.075  11.002  70.075  1.00  0.00    -0.236 A  
HETATM   10  C   UNL     1     -11.605   9.338  71.747  1.00  0.00    -0.458 A  
HETATM   11  C   UNL     1     -12.329  11.595  70.246  1.00  0.00    -0.339 A  
HETATM   12  C   UNL     1     -12.862   9.954  71.920  1.00  0.00    -0.524 A  
ENDROOT
BRANCH   6  13
HETATM   13  C   UNL     1      -8.359   9.744  69.777  1.00  0.00    -0.189 C  
BRANCH  13  14
HETATM   14  C   UNL     1      -8.429   9.332  68.319  1.00  0.00    -0.120 A  
HETATM   15  C   UNL     1      -8.828   8.460  65.689  1.00  0.00    -0.156 A  
HETATM   16  C   UNL     1      -7.985   8.064  67.920  1.00  0.00    -0.128 A  
HETATM   17  C   UNL     1      -8.985  10.190  67.353  1.00  0.00    -0.142 A  
HETATM   18  F   UNL     1      -9.117   7.946  64.485  1.00  0.00     0.210 F  
HETATM   19  C   UNL     1      -9.164   9.770  66.019  1.00  0.00    -0.226 A  
HETATM   20  C   UNL     1      -8.195   7.628  66.612  1.00  0.00    -0.124 A  
BRANCH  19  21
HETATM   21  C   UNL     1      -9.809  10.722  65.079  1.00  0.00    -0.288 C  
HETATM   22  N   UNL     1      -9.623  12.102  65.168  1.00  0.00    -0.106 N  
HETATM   23  C   UNL     1     -10.322  12.970  64.204  1.00  0.00    -0.321 C  
HETATM   24  O   UNL     1     -10.576  10.226  64.250  1.00  0.00     0.088 OA 
HETATM   25  C   UNL     1     -11.131  14.061  64.922  1.00  0.00    -0.375 C  
HETATM   26  N   UNL     1     -10.291  14.804  65.872  1.00  0.00    -0.302 N  
HETATM   27  C   UNL     1      -9.581  13.959  66.833  1.00  0.00    -0.269 C  
HETATM   28  C   UNL     1     -10.289  16.190  65.836  1.00  0.00    -0.367 C  
HETATM   29  C   UNL     1      -8.799  12.838  66.136  1.00  0.00     0.249 C  
HETATM   30  O   UNL     1     -10.930  16.831  65.009  1.00  0.00    -0.584 OA 
BRANCH  28  31
HETATM   31  C   UNL     1      -9.434  16.928  66.818  1.00  0.00    -0.269 C  
HETATM   32  C   UNL     1      -9.372  18.439  66.746  1.00  0.00    -0.296 C  
HETATM   33  C   UNL     1     -10.065  17.778  67.899  1.00  0.00    -0.342 C  
ENDBRANCH  28  31
ENDBRANCH  19  21
ENDBRANCH  13  14
ENDBRANCH   6  13
TORSDOF 4
ENDMDL
MODEL      139
REMARK 921   NORMALIZED FREE ENERGY PREDICTED BY IDOCK:   -5.74 KCAL/MOL
REMARK 922        TOTAL FREE ENERGY PREDICTED BY IDOCK:   -7.83 KCAL/MOL
REMARK 923 INTER-LIGAND FREE ENERGY PREDICTED BY IDOCK:   -7.77 KCAL/MOL
REMARK 924 INTRA-LIGAND FREE ENERGY PREDICTED BY IDOCK:   -0.05 KCAL/MOL
REMARK 927      BINDING AFFINITY PREDICTED BY RF-SCORE:    0.00 PKD
ROOT
HETATM    1  O   UNL     1     -11.388   6.492  70.957  1.00  0.00    -0.289 OA 
HETATM    2  C   UNL     1     -11.115   7.703  70.399  1.00  0.00    -0.258 A  
HETATM    3  H   UNL     1     -12.042   6.521  71.646  1.00  0.00     0.000 HD 
HETATM    4  N   UNL     1     -10.190   7.662  69.425  1.00  0.00    -0.201 NA 
HETATM    5  N   UNL     1      -9.834   8.815  68.808  1.00  0.00    -0.167 NA 
HETATM    6  C   UNL     1     -10.412   9.991  69.167  1.00  0.00    -0.219 A  
HETATM    7  C   UNL     1     -11.404  10.062  70.176  1.00  0.00    -0.357 A  
HETATM    8  C   UNL     1     -13.357  10.050  72.235  1.00  0.00    -0.387 A  
HETATM    9  C   UNL     1     -12.069  11.246  70.584  1.00  0.00    -0.480 A  
HETATM   10  C   UNL     1     -11.759   8.861  70.825  1.00  0.00    -0.269 A  
HETATM   11  C   UNL     1     -13.034  11.238  71.595  1.00  0.00    -0.537 A  
HETATM   12  C   UNL     1     -12.725   8.869  71.853  1.00  0.00    -0.436 A  
ENDROOT
BRANCH   6  13
HETATM   13  C   UNL     1      -9.940  11.243  68.460  1.00  0.00    -0.206 C  
BRANCH  13  14
HETATM   14  C   UNL     1     -10.475  11.508  67.066  1.00  0.00    -0.263 A  
HETATM   15  C   UNL     1     -11.297  12.246  64.493  1.00  0.00    -0.329 A  
HETATM   16  C   UNL     1     -11.641  12.264  66.887  1.00  0.00    -0.427 A  
HETATM   17  C   UNL     1      -9.786  11.046  65.929  1.00  0.00    -0.278 A  
HETATM   18  F   UNL     1     -11.655  12.737  63.299  1.00  0.00    -0.514 F  
HETATM   19  C   UNL     1     -10.209  11.388  64.629  1.00  0.00    -0.347 A  
HETATM   20  C   UNL     1     -12.042  12.639  65.605  1.00  0.00    -0.502 A  
BRANCH  19  21
HETATM   21  C   UNL     1      -9.390  10.901  63.489  1.00  0.00    -0.272 C  
HETATM   22  N   UNL     1      -8.757   9.657  63.501  1.00  0.00    -0.209 N  
HETATM   23  C   UNL     1      -7.947   9.269  62.333  1.00  0.00    -0.124 C  
HETATM   24  O   UNL     1      -9.246  11.691  62.552  1.00  0.00    -0.302 OA 
HETATM   25  C   UNL     1      -6.528   8.854  62.752  1.00  0.00    -0.094 C  
HETATM   26  N   UNL     1      -6.566   7.827  63.803  1.00  0.00    -0.061 N  
HETATM   27  C   UNL     1      -7.373   8.190  64.969  1.00  0.00    -0.082 C  
HETATM   28  C   UNL     1      -5.812   6.673  63.651  1.00  0.00    -0.031 C  
HETATM   29  C   UNL     1      -8.781   8.646  64.566  1.00  0.00     0.001 C  
HETATM   30  O   UNL     1      -5.142   6.448  62.648  1.00  0.00    -0.020 OA 
BRANCH  28  31
HETATM   31  C   UNL     1      -5.857   5.643  64.736  1.00  0.00    -0.021 C  
HETATM   32  C   UNL     1      -7.186   5.019  65.100  1.00  0.00    -0.067 C  
HETATM   33  C   UNL     1      -6.142   4.194  64.408  1.00  0.00    -0.025 C  
ENDBRANCH  28  31
ENDBRANCH  19  21
ENDBRANCH  13  14
ENDBRANCH   6  13
TORSDOF 4
ENDMDL
MODEL      140
REMARK 921   NORMALIZED FREE ENERGY PREDICTED BY IDOCK:   -5.72 KCAL/MOL
REMARK 922        TOTAL FREE ENERGY PREDICTED BY IDOCK:   -7.80 KCAL/MOL
REMARK 923 INTER-LIGAND FREE ENERGY PREDICTED BY IDOCK:   -6.72 KCAL/MOL
REMARK 924 INTRA-LIGAND FREE ENERGY PREDICTED BY IDOCK:   -1.08 KCAL/MOL
REMARK 927      BINDING AFFINITY PREDICTED BY RF-SCORE:    0.00 PKD
ROOT
HETATM    1  O   UNL     1      -7.421  20.061  69.875  1.00  0.00     0.002 OA 
HETATM    2  C   UNL     1      -7.694  19.206  68.850  1.00  0.00    -0.323 A  
HETATM    3  H   UNL     1      -6.765  19.740  70.483  1.00  0.00     0.000 HD 
HETATM    4  N   UNL     1      -8.621  19.660  67.991  1.00  0.00    -0.310 NA 
HETATM    5  N   UNL     1      -8.977  18.883  66.938  1.00  0.00    -0.288 NA 
HETATM    6  C   UNL     1      -8.397  17.668  66.757  1.00  0.00    -0.251 A  
HETATM    7  C   UNL     1      -7.403  17.172  67.636  1.00  0.00    -0.179 A  
HETATM    8  C   UNL     1      -5.445  16.303  69.498  1.00  0.00    -0.136 A  
HETATM    9  C   UNL     1      -6.736  15.929  67.495  1.00  0.00    -0.215 A  
HETATM   10  C   UNL     1      -7.047  17.979  68.737  1.00  0.00    -0.279 A  
HETATM   11  C   UNL     1      -5.768  15.504  68.410  1.00  0.00    -0.106 A  
HETATM   12  C   UNL     1      -6.079  17.532  69.661  1.00  0.00    -0.249 A  
ENDROOT
BRANCH   6  13
HETATM   13  C   UNL     1      -8.869  16.840  65.581  1.00  0.00     0.360 C  
BRANCH  13  14
HETATM   14  C   UNL     1     -10.155  16.054  65.744  1.00  0.00    -0.393 A  
HETATM   15  C   UNL     1     -12.384  14.370  65.934  1.00  0.00    -0.326 A  
HETATM   16  C   UNL     1     -11.084  15.991  64.697  1.00  0.00    -0.346 A  
HETATM   17  C   UNL     1     -10.417  15.336  66.926  1.00  0.00    -0.289 A  
HETATM   18  F   UNL     1     -13.387  13.481  65.920  1.00  0.00    -0.244 F  
HETATM   19  C   UNL     1     -11.551  14.507  67.041  1.00  0.00    -0.402 A  
HETATM   20  C   UNL     1     -12.187  15.142  64.790  1.00  0.00    -0.141 A  
BRANCH  19  21
HETATM   21  C   UNL     1     -11.719  13.743  68.304  1.00  0.00    -0.359 C  
HETATM   22  N   UNL     1     -11.100  12.511  68.520  1.00  0.00    -0.246 N  
HETATM   23  C   UNL     1     -11.343  11.815  69.796  1.00  0.00    -0.170 C  
HETATM   24  O   UNL     1     -12.495  14.230  69.131  1.00  0.00    -0.212 OA 
HETATM   25  C   UNL     1     -11.831  10.377  69.563  1.00  0.00    -0.147 C  
HETATM   26  N   UNL     1     -10.922   9.649  68.666  1.00  0.00    -0.160 N  
HETATM   27  C   UNL     1     -10.661  10.328  67.396  1.00  0.00    -0.270 C  
HETATM   28  C   UNL     1     -10.457   8.398  69.042  1.00  0.00    -0.201 C  
HETATM   29  C   UNL     1     -10.211  11.779  67.609  1.00  0.00    -0.199 C  
HETATM   30  O   UNL     1     -10.738   7.884  70.121  1.00  0.00    -0.237 OA 
BRANCH  28  31
HETATM   31  C   UNL     1      -9.540   7.668  68.111  1.00  0.00    -0.158 C  
HETATM   32  C   UNL     1      -8.107   8.136  67.978  1.00  0.00    -0.128 C  
HETATM   33  C   UNL     1      -8.402   6.831  68.654  1.00  0.00    -0.120 C  
ENDBRANCH  28  31
ENDBRANCH  19  21
ENDBRANCH  13  14
ENDBRANCH   6  13
TORSDOF 4
ENDMDL
MODEL      141
REMARK 921   NORMALIZED FREE ENERGY PREDICTED BY IDOCK:   -5.70 KCAL/MOL
REMARK 922        TOTAL FREE ENERGY PREDICTED BY IDOCK:   -7.79 KCAL/MOL
REMARK 923 INTER-LIGAND FREE ENERGY PREDICTED BY IDOCK:   -7.44 KCAL/MOL
REMARK 924 INTRA-LIGAND FREE ENERGY PREDICTED BY IDOCK:   -0.34 KCAL/MOL
REMARK 927      BINDING AFFINITY PREDICTED BY RF-SCORE:    0.00 PKD
ROOT
HETATM    1  O   UNL     1     -12.522  14.607  67.271  1.00  0.00    -0.530 OA 
HETATM    2  C   UNL     1     -11.603  13.615  67.108  1.00  0.00    -0.361 A  
HETATM    3  H   UNL     1     -13.070  14.756  66.509  1.00  0.00     0.000 HD 
HETATM    4  N   UNL     1     -10.828  13.405  68.185  1.00  0.00    -0.247 NA 
HETATM    5  N   UNL     1      -9.871  12.446  68.129  1.00  0.00    -0.209 NA 
HETATM    6  C   UNL     1      -9.706  11.709  67.000  1.00  0.00    -0.186 A  
HETATM    7  C   UNL     1     -10.521  11.896  65.856  1.00  0.00    -0.296 A  
HETATM    8  C   UNL     1     -12.213  12.405  63.634  1.00  0.00    -0.653 A  
HETATM    9  C   UNL     1     -10.425  11.147  64.655  1.00  0.00    -0.400 A  
HETATM   10  C   UNL     1     -11.506  12.904  65.916  1.00  0.00    -0.387 A  
HETATM   11  C   UNL     1     -11.263  11.395  63.563  1.00  0.00    -0.322 A  
HETATM   12  C   UNL     1     -12.334  13.154  64.802  1.00  0.00    -0.477 A  
ENDROOT
BRANCH   6  13
HETATM   13  C   UNL     1      -8.595  10.681  66.995  1.00  0.00    -0.128 C  
BRANCH  13  14
HETATM   14  C   UNL     1      -8.144  10.125  68.332  1.00  0.00    -0.104 A  
HETATM   15  C   UNL     1      -7.355   9.372  70.910  1.00  0.00    -0.075 A  
HETATM   16  C   UNL     1      -6.793  10.170  68.699  1.00  0.00    -0.057 A  
HETATM   17  C   UNL     1      -9.077   9.601  69.247  1.00  0.00    -0.174 A  
HETATM   18  F   UNL     1      -6.947   9.154  72.168  1.00  0.00    -0.044 F  
HETATM   19  C   UNL     1      -8.684   9.193  70.537  1.00  0.00    -0.258 A  
HETATM   20  C   UNL     1      -6.404   9.806  69.987  1.00  0.00    -0.064 A  
BRANCH  19  21
HETATM   21  C   UNL     1      -9.744   8.704  71.456  1.00  0.00    -0.263 C  
HETATM   22  N   UNL     1      -9.696   7.441  72.047  1.00  0.00    -0.153 N  
HETATM   23  C   UNL     1     -10.805   7.033  72.928  1.00  0.00    -0.301 C  
HETATM   24  O   UNL     1     -10.709   9.456  71.616  1.00  0.00    -0.356 OA 
HETATM   25  C   UNL     1     -11.396   5.683  72.492  1.00  0.00    -0.294 C  
HETATM   26  N   UNL     1     -10.346   4.662  72.367  1.00  0.00    -0.198 N  
HETATM   27  C   UNL     1      -9.231   5.051  71.503  1.00  0.00    -0.146 C  
HETATM   28  C   UNL     1     -10.515   3.435  72.990  1.00  0.00    -0.166 C  
HETATM   29  C   UNL     1      -8.654   6.417  71.898  1.00  0.00    -0.127 C  
HETATM   30  O   UNL     1     -11.493   3.176  73.686  1.00  0.00    -0.208 OA 
BRANCH  28  31
HETATM   31  C   UNL     1      -9.439   2.405  72.843  1.00  0.00    -0.130 C  
HETATM   32  C   UNL     1      -8.120   2.617  73.554  1.00  0.00    -0.063 C  
HETATM   33  C   UNL     1      -9.047   1.532  74.015  1.00  0.00    -0.063 C  
ENDBRANCH  28  31
ENDBRANCH  19  21
ENDBRANCH  13  14
ENDBRANCH   6  13
TORSDOF 4
ENDMDL
MODEL      142
REMARK 921   NORMALIZED FREE ENERGY PREDICTED BY IDOCK:   -5.70 KCAL/MOL
REMARK 922        TOTAL FREE ENERGY PREDICTED BY IDOCK:   -7.78 KCAL/MOL
REMARK 923 INTER-LIGAND FREE ENERGY PREDICTED BY IDOCK:   -7.23 KCAL/MOL
REMARK 924 INTRA-LIGAND FREE ENERGY PREDICTED BY IDOCK:   -0.55 KCAL/MOL
REMARK 927      BINDING AFFINITY PREDICTED BY RF-SCORE:    0.00 PKD
ROOT
HETATM    1  O   UNL     1      -8.628   1.608  67.167  1.00  0.00    -0.085 OA 
HETATM    2  C   UNL     1      -9.179   2.853  67.195  1.00  0.00    -0.159 A  
HETATM    3  H   UNL     1      -8.476   1.232  68.026  1.00  0.00     0.000 HD 
HETATM    4  N   UNL     1      -9.392   3.385  65.980  1.00  0.00    -0.160 NA 
HETATM    5  N   UNL     1      -9.929   4.627  65.892  1.00  0.00    -0.218 NA 
HETATM    6  C   UNL     1     -10.249   5.316  67.018  1.00  0.00    -0.234 A  
HETATM    7  C   UNL     1     -10.053   4.773  68.312  1.00  0.00    -0.109 A  
HETATM    8  C   UNL     1      -9.576   3.562  70.835  1.00  0.00    -0.242 A  
HETATM    9  C   UNL     1     -10.388   5.420  69.528  1.00  0.00    -0.350 A  
HETATM   10  C   UNL     1      -9.481   3.486  68.397  1.00  0.00    -0.209 A  
HETATM   11  C   UNL     1     -10.157   4.821  70.770  1.00  0.00    -0.286 A  
HETATM   12  C   UNL     1      -9.241   2.898  69.657  1.00  0.00    -0.217 A  
ENDROOT
BRANCH   6  13
HETATM   13  C   UNL     1     -10.810   6.711  66.845  1.00  0.00    -0.415 C  
BRANCH  13  14
HETATM   14  C   UNL     1     -10.014   7.867  67.419  1.00  0.00    -0.261 A  
HETATM   15  C   UNL     1      -8.572  10.131  68.214  1.00  0.00    -0.116 A  
HETATM   16  C   UNL     1      -8.618   7.894  67.298  1.00  0.00    -0.128 A  
HETATM   17  C   UNL     1     -10.661   8.952  68.038  1.00  0.00    -0.226 A  
HETATM   18  F   UNL     1      -7.854  11.238  68.451  1.00  0.00    -0.106 F  
HETATM   19  C   UNL     1      -9.940  10.085  68.467  1.00  0.00    -0.177 A  
HETATM   20  C   UNL     1      -7.903   9.028  67.684  1.00  0.00    -0.101 A  
BRANCH  19  21
HETATM   21  C   UNL     1     -10.712  11.207  69.060  1.00  0.00    -0.225 C  
HETATM   22  N   UNL     1     -10.787  12.463  68.456  1.00  0.00    -0.234 N  
HETATM   23  C   UNL     1     -11.559  13.523  69.129  1.00  0.00    -0.310 C  
HETATM   24  O   UNL     1     -11.231  10.986  70.157  1.00  0.00    -0.270 OA 
HETATM   25  C   UNL     1     -10.715  14.793  69.316  1.00  0.00    -0.256 C  
HETATM   26  N   UNL     1     -10.120  15.225  68.043  1.00  0.00    -0.227 N  
HETATM   27  C   UNL     1      -9.356  14.185  67.354  1.00  0.00    -0.215 C  
HETATM   28  C   UNL     1     -10.260  16.545  67.642  1.00  0.00    -0.279 C  
HETATM   29  C   UNL     1     -10.170  12.893  67.195  1.00  0.00    -0.239 C  
HETATM   30  O   UNL     1     -10.902  17.368  68.288  1.00  0.00    -0.355 OA 
BRANCH  28  31
HETATM   31  C   UNL     1      -9.639  16.968  66.348  1.00  0.00    -0.301 C  
HETATM   32  C   UNL     1      -8.993  18.333  66.256  1.00  0.00    -0.197 C  
HETATM   33  C   UNL     1      -8.137  17.103  66.224  1.00  0.00    -0.325 C  
ENDBRANCH  28  31
ENDBRANCH  19  21
ENDBRANCH  13  14
ENDBRANCH   6  13
TORSDOF 4
ENDMDL
MODEL      143
REMARK 921   NORMALIZED FREE ENERGY PREDICTED BY IDOCK:   -5.70 KCAL/MOL
REMARK 922        TOTAL FREE ENERGY PREDICTED BY IDOCK:   -7.78 KCAL/MOL
REMARK 923 INTER-LIGAND FREE ENERGY PREDICTED BY IDOCK:   -7.49 KCAL/MOL
REMARK 924 INTRA-LIGAND FREE ENERGY PREDICTED BY IDOCK:   -0.29 KCAL/MOL
REMARK 927      BINDING AFFINITY PREDICTED BY RF-SCORE:    0.00 PKD
ROOT
HETATM    1  O   UNL     1     -12.502  16.260  71.596  1.00  0.00    -0.575 OA 
HETATM    2  C   UNL     1     -11.974  15.365  70.716  1.00  0.00    -0.359 A  
HETATM    3  H   UNL     1     -12.159  17.141  71.505  1.00  0.00     0.000 HD 
HETATM    4  N   UNL     1     -12.457  14.119  70.846  1.00  0.00    -0.343 NA 
HETATM    5  N   UNL     1     -11.992  13.145  70.025  1.00  0.00    -0.339 NA 
HETATM    6  C   UNL     1     -11.056  13.432  69.084  1.00  0.00    -0.213 A  
HETATM    7  C   UNL     1     -10.542  14.741  68.911  1.00  0.00    -0.250 A  
HETATM    8  C   UNL     1      -9.588  17.407  68.704  1.00  0.00    -0.295 A  
HETATM    9  C   UNL     1      -9.586  15.120  67.935  1.00  0.00    -0.203 A  
HETATM   10  C   UNL     1     -11.019  15.747  69.778  1.00  0.00    -0.316 A  
HETATM   11  C   UNL     1      -9.120  16.435  67.831  1.00  0.00    -0.201 A  
HETATM   12  C   UNL     1     -10.531  17.066  69.671  1.00  0.00    -0.099 A  
ENDROOT
BRANCH   6  13
HETATM   13  C   UNL     1     -10.556  12.289  68.227  1.00  0.00    -0.243 C  
BRANCH  13  14
HETATM   14  C   UNL     1     -10.974  12.266  66.770  1.00  0.00    -0.321 A  
HETATM   15  C   UNL     1     -11.589  12.475  64.046  1.00  0.00    -0.413 A  
HETATM   16  C   UNL     1     -12.138  12.928  66.357  1.00  0.00    -0.400 A  
HETATM   17  C   UNL     1     -10.180  11.626  65.801  1.00  0.00    -0.281 A  
HETATM   18  F   UNL     1     -11.854  12.718  62.755  1.00  0.00    -0.399 F  
HETATM   19  C   UNL     1     -10.497  11.702  64.430  1.00  0.00    -0.374 A  
HETATM   20  C   UNL     1     -12.436  13.040  64.999  1.00  0.00    -0.534 A  
BRANCH  19  21
HETATM   21  C   UNL     1      -9.572  11.042  63.472  1.00  0.00    -0.313 C  
HETATM   22  N   UNL     1      -9.006   9.790  63.721  1.00  0.00    -0.237 N  
HETATM   23  C   UNL     1      -8.082   9.225  62.723  1.00  0.00    -0.152 C  
HETATM   24  O   UNL     1      -9.277  11.696  62.469  1.00  0.00    -0.302 OA 
HETATM   25  C   UNL     1      -6.746   8.822  63.367  1.00  0.00    -0.089 C  
HETATM   26  N   UNL     1      -6.960   7.944  64.525  1.00  0.00    -0.069 N  
HETATM   27  C   UNL     1      -7.883   8.484  65.525  1.00  0.00    -0.104 C  
HETATM   28  C   UNL     1      -6.251   6.756  64.617  1.00  0.00    -0.036 C  
HETATM   29  C   UNL     1      -9.208   8.929  64.893  1.00  0.00     0.100 C  
HETATM   30  O   UNL     1      -5.477   6.379  63.742  1.00  0.00    -0.018 OA 
BRANCH  28  31
HETATM   31  C   UNL     1      -6.477   5.879  65.809  1.00  0.00    -0.043 C  
HETATM   32  C   UNL     1      -6.832   4.425  65.592  1.00  0.00    -0.057 C  
HETATM   33  C   UNL     1      -5.491   4.785  66.155  1.00  0.00    -0.017 C  
ENDBRANCH  28  31
ENDBRANCH  19  21
ENDBRANCH  13  14
ENDBRANCH   6  13
TORSDOF 4
ENDMDL
MODEL      144
REMARK 921   NORMALIZED FREE ENERGY PREDICTED BY IDOCK:   -5.70 KCAL/MOL
REMARK 922        TOTAL FREE ENERGY PREDICTED BY IDOCK:   -7.78 KCAL/MOL
REMARK 923 INTER-LIGAND FREE ENERGY PREDICTED BY IDOCK:   -6.85 KCAL/MOL
REMARK 924 INTRA-LIGAND FREE ENERGY PREDICTED BY IDOCK:   -0.93 KCAL/MOL
REMARK 927      BINDING AFFINITY PREDICTED BY RF-SCORE:    0.00 PKD
ROOT
HETATM    1  O   UNL     1     -11.008  17.458  64.894  1.00  0.00    -0.862 OA 
HETATM    2  C   UNL     1     -11.013  16.199  65.411  1.00  0.00    -0.227 A  
HETATM    3  H   UNL     1     -10.879  18.142  65.541  1.00  0.00     0.000 HD 
HETATM    4  N   UNL     1     -11.197  15.232  64.496  1.00  0.00    -0.327 NA 
HETATM    5  N   UNL     1     -11.229  13.939  64.904  1.00  0.00    -0.340 NA 
HETATM    6  C   UNL     1     -11.072  13.632  66.218  1.00  0.00    -0.301 A  
HETATM    7  C   UNL     1     -10.857  14.628  67.202  1.00  0.00    -0.303 A  
HETATM    8  C   UNL     1     -10.463  16.738  69.060  1.00  0.00    -0.336 A  
HETATM    9  C   UNL     1     -10.658  14.381  68.584  1.00  0.00    -0.253 A  
HETATM   10  C   UNL     1     -10.839  15.972  66.773  1.00  0.00    -0.195 A  
HETATM   11  C   UNL     1     -10.459  15.420  69.497  1.00  0.00    -0.264 A  
HETATM   12  C   UNL     1     -10.651  17.012  67.707  1.00  0.00    -0.350 A  
ENDROOT
BRANCH   6  13
HETATM   13  C   UNL     1     -11.155  12.171  66.606  1.00  0.00    -0.353 C  
BRANCH  13  14
HETATM   14  C   UNL     1      -9.866  11.469  66.987  1.00  0.00    -0.212 A  
HETATM   15  C   UNL     1      -7.491  10.334  67.941  1.00  0.00    -0.088 A  
HETATM   16  C   UNL     1      -8.628  12.024  66.637  1.00  0.00    -0.143 A  
HETATM   17  C   UNL     1      -9.887  10.280  67.739  1.00  0.00    -0.195 A  
HETATM   18  F   UNL     1      -6.340   9.912  68.481  1.00  0.00    -0.049 F  
HETATM   19  C   UNL     1      -8.695   9.686  68.200  1.00  0.00    -0.119 A  
HETATM   20  C   UNL     1      -7.447  11.463  67.123  1.00  0.00    -0.138 A  
BRANCH  19  21
HETATM   21  C   UNL     1      -8.815   8.462  69.033  1.00  0.00    -0.146 C  
HETATM   22  N   UNL     1      -8.651   7.180  68.507  1.00  0.00    -0.124 N  
HETATM   23  C   UNL     1      -8.810   6.023  69.407  1.00  0.00    -0.120 C  
HETATM   24  O   UNL     1      -9.135   8.640  70.212  1.00  0.00    -0.149 OA 
HETATM   25  C   UNL     1      -9.826   5.017  68.845  1.00  0.00    -0.175 C  
HETATM   26  N   UNL     1      -9.489   4.639  67.466  1.00  0.00    -0.144 N  
HETATM   27  C   UNL     1      -9.318   5.774  66.557  1.00  0.00    -0.152 C  
HETATM   28  C   UNL     1      -9.431   3.296  67.124  1.00  0.00    -0.140 C  
HETATM   29  C   UNL     1      -8.337   6.810  67.121  1.00  0.00    -0.121 C  
HETATM   30  O   UNL     1      -9.607   2.398  67.942  1.00  0.00    -0.184 OA 
BRANCH  28  31
HETATM   31  C   UNL     1      -9.095   2.932  65.712  1.00  0.00    -0.137 C  
HETATM   32  C   UNL     1      -7.764   2.275  65.422  1.00  0.00    -0.076 C  
HETATM   33  C   UNL     1      -9.029   1.481  65.288  1.00  0.00    -0.124 C  
ENDBRANCH  28  31
ENDBRANCH  19  21
ENDBRANCH  13  14
ENDBRANCH   6  13
TORSDOF 4
ENDMDL
MODEL      145
REMARK 921   NORMALIZED FREE ENERGY PREDICTED BY IDOCK:   -5.69 KCAL/MOL
REMARK 922        TOTAL FREE ENERGY PREDICTED BY IDOCK:   -7.77 KCAL/MOL
REMARK 923 INTER-LIGAND FREE ENERGY PREDICTED BY IDOCK:   -6.89 KCAL/MOL
REMARK 924 INTRA-LIGAND FREE ENERGY PREDICTED BY IDOCK:   -0.88 KCAL/MOL
REMARK 927      BINDING AFFINITY PREDICTED BY RF-SCORE:    0.00 PKD
ROOT
HETATM    1  O   UNL     1      -6.014  13.892  71.755  1.00  0.00    -0.488 OA 
HETATM    2  C   UNL     1      -6.519  14.122  70.512  1.00  0.00    -0.004 A  
HETATM    3  H   UNL     1      -5.461  13.121  71.812  1.00  0.00     0.000 HD 
HETATM    4  N   UNL     1      -7.301  15.212  70.432  1.00  0.00     0.297 NA 
HETATM    5  N   UNL     1      -7.865  15.529  69.240  1.00  0.00    -0.213 NA 
HETATM    6  C   UNL     1      -7.636  14.756  68.147  1.00  0.00    -0.119 A  
HETATM    7  C   UNL     1      -6.801  13.613  68.197  1.00  0.00    -0.121 A  
HETATM    8  C   UNL     1      -5.127  11.336  68.461  1.00  0.00    -0.039 A  
HETATM    9  C   UNL     1      -6.495  12.777  67.093  1.00  0.00     0.059 A  
HETATM   10  C   UNL     1      -6.228  13.280  69.443  1.00  0.00    -0.110 A  
HETATM   11  C   UNL     1      -5.666  11.659  67.223  1.00  0.00    -0.106 A  
HETATM   12  C   UNL     1      -5.405  12.141  69.563  1.00  0.00    -0.070 A  
ENDROOT
BRANCH   6  13
HETATM   13  C   UNL     1      -8.328  15.150  66.859  1.00  0.00    -0.267 C  
BRANCH  13  14
HETATM   14  C   UNL     1      -9.587  14.396  66.478  1.00  0.00    -0.310 A  
HETATM   15  C   UNL     1     -11.804  12.996  65.497  1.00  0.00    -0.395 A  
HETATM   16  C   UNL     1     -10.718  15.090  66.027  1.00  0.00    -0.329 A  
HETATM   17  C   UNL     1      -9.628  12.990  66.522  1.00  0.00    -0.260 A  
HETATM   18  F   UNL     1     -12.830  12.377  64.895  1.00  0.00    -0.549 F  
HETATM   19  C   UNL     1     -10.751  12.277  66.057  1.00  0.00    -0.296 A  
HETATM   20  C   UNL     1     -11.817  14.390  65.528  1.00  0.00    -0.357 A  
BRANCH  19  21
HETATM   21  C   UNL     1     -10.686  10.793  66.090  1.00  0.00    -0.118 C  
HETATM   22  N   UNL     1     -10.853  10.064  67.267  1.00  0.00    -0.253 N  
HETATM   23  C   UNL     1     -10.749   8.595  67.207  1.00  0.00    -0.139 C  
HETATM   24  O   UNL     1     -10.407  10.241  65.022  1.00  0.00    -0.288 OA 
HETATM   25  C   UNL     1      -9.730   8.066  68.228  1.00  0.00    -0.164 C  
HETATM   26  N   UNL     1     -10.021   8.574  69.576  1.00  0.00    -0.189 N  
HETATM   27  C   UNL     1     -10.137  10.031  69.657  1.00  0.00    -0.236 C  
HETATM   28  C   UNL     1     -10.090   7.683  70.637  1.00  0.00    -0.187 C  
HETATM   29  C   UNL     1     -11.120  10.581  68.615  1.00  0.00    -0.267 C  
HETATM   30  O   UNL     1      -9.961   6.471  70.492  1.00  0.00    -0.182 OA 
BRANCH  28  31
HETATM   31  C   UNL     1     -10.377   8.221  72.004  1.00  0.00    -0.350 C  
HETATM   32  C   UNL     1     -11.817   8.412  72.428  1.00  0.00    -0.452 C  
HETATM   33  C   UNL     1     -10.992   7.334  73.064  1.00  0.00    -0.388 C  
ENDBRANCH  28  31
ENDBRANCH  19  21
ENDBRANCH  13  14
ENDBRANCH   6  13
TORSDOF 4
ENDMDL
MODEL      146
REMARK 921   NORMALIZED FREE ENERGY PREDICTED BY IDOCK:   -5.68 KCAL/MOL
REMARK 922        TOTAL FREE ENERGY PREDICTED BY IDOCK:   -7.75 KCAL/MOL
REMARK 923 INTER-LIGAND FREE ENERGY PREDICTED BY IDOCK:   -8.22 KCAL/MOL
REMARK 924 INTRA-LIGAND FREE ENERGY PREDICTED BY IDOCK:    0.47 KCAL/MOL
REMARK 927      BINDING AFFINITY PREDICTED BY RF-SCORE:    0.00 PKD
ROOT
HETATM    1  O   UNL     1     -13.199  10.577  72.143  1.00  0.00    -0.543 OA 
HETATM    2  C   UNL     1     -12.853  11.448  71.154  1.00  0.00    -0.341 A  
HETATM    3  H   UNL     1     -13.468  10.997  72.951  1.00  0.00     0.000 HD 
HETATM    4  N   UNL     1     -12.472  10.854  70.011  1.00  0.00    -0.307 NA 
HETATM    5  N   UNL     1     -12.096  11.628  68.963  1.00  0.00    -0.338 NA 
HETATM    6  C   UNL     1     -12.112  12.982  69.071  1.00  0.00    -0.177 A  
HETATM    7  C   UNL     1     -12.528  13.635  70.257  1.00  0.00    -0.335 A  
HETATM    8  C   UNL     1     -13.360  14.799  72.709  1.00  0.00    -0.581 A  
HETATM    9  C   UNL     1     -12.597  15.041  70.433  1.00  0.00    -0.399 A  
HETATM   10  C   UNL     1     -12.904  12.825  71.349  1.00  0.00    -0.371 A  
HETATM   11  C   UNL     1     -13.012  15.613  71.640  1.00  0.00    -0.551 A  
HETATM   12  C   UNL     1     -13.307  13.415  72.565  1.00  0.00    -0.588 A  
ENDROOT
BRANCH   6  13
HETATM   13  C   UNL     1     -11.645  13.782  67.874  1.00  0.00    -0.376 C  
BRANCH  13  14
HETATM   14  C   UNL     1     -10.154  13.846  67.607  1.00  0.00    -0.241 A  
HETATM   15  C   UNL     1      -7.375  14.098  67.379  1.00  0.00    -0.120 A  
HETATM   16  C   UNL     1      -9.596  14.958  66.964  1.00  0.00    -0.245 A  
HETATM   17  C   UNL     1      -9.299  12.817  68.044  1.00  0.00    -0.213 A  
HETATM   18  F   UNL     1      -6.055  14.331  67.366  1.00  0.00    -0.142 F  
HETATM   19  C   UNL     1      -7.900  12.922  67.907  1.00  0.00    -0.151 A  
HETATM   20  C   UNL     1      -8.211  15.087  66.862  1.00  0.00    -0.206 A  
BRANCH  19  21
HETATM   21  C   UNL     1      -7.071  11.813  68.446  1.00  0.00    -0.085 C  
HETATM   22  N   UNL     1      -7.630  10.638  68.948  1.00  0.00    -0.104 N  
HETATM   23  C   UNL     1      -6.729   9.601  69.482  1.00  0.00    -0.051 C  
HETATM   24  O   UNL     1      -5.855  12.018  68.486  1.00  0.00    -0.052 OA 
HETATM   25  C   UNL     1      -7.131   9.195  70.909  1.00  0.00    -0.105 C  
HETATM   26  N   UNL     1      -8.551   8.821  70.972  1.00  0.00    -0.175 N  
HETATM   27  C   UNL     1      -9.463   9.833  70.438  1.00  0.00    -0.143 C  
HETATM   28  C   UNL     1      -8.911   7.622  71.569  1.00  0.00    -0.131 C  
HETATM   29  C   UNL     1      -9.053  10.282  69.029  1.00  0.00    -0.183 C  
HETATM   30  O   UNL     1      -8.085   6.831  72.014  1.00  0.00    -0.101 OA 
BRANCH  28  31
HETATM   31  C   UNL     1     -10.363   7.264  71.632  1.00  0.00    -0.214 C  
HETATM   32  C   UNL     1     -11.079   6.883  70.355  1.00  0.00    -0.341 C  
HETATM   33  C   UNL     1     -10.813   5.838  71.397  1.00  0.00    -0.316 C  
ENDBRANCH  28  31
ENDBRANCH  19  21
ENDBRANCH  13  14
ENDBRANCH   6  13
TORSDOF 4
ENDMDL
MODEL      147
REMARK 921   NORMALIZED FREE ENERGY PREDICTED BY IDOCK:   -5.65 KCAL/MOL
REMARK 922        TOTAL FREE ENERGY PREDICTED BY IDOCK:   -7.71 KCAL/MOL
REMARK 923 INTER-LIGAND FREE ENERGY PREDICTED BY IDOCK:   -6.59 KCAL/MOL
REMARK 924 INTRA-LIGAND FREE ENERGY PREDICTED BY IDOCK:   -1.13 KCAL/MOL
REMARK 927      BINDING AFFINITY PREDICTED BY RF-SCORE:    0.00 PKD
ROOT
HETATM    1  O   UNL     1      -9.070  20.046  67.453  1.00  0.00    -0.329 OA 
HETATM    2  C   UNL     1      -9.335  18.811  67.964  1.00  0.00    -0.306 A  
HETATM    3  H   UNL     1      -8.164  20.317  67.548  1.00  0.00     0.000 HD 
HETATM    4  N   UNL     1     -10.616  18.428  67.831  1.00  0.00    -0.384 NA 
HETATM    5  N   UNL     1     -10.993  17.218  68.315  1.00  0.00    -0.280 NA 
HETATM    6  C   UNL     1     -10.084  16.409  68.919  1.00  0.00    -0.255 A  
HETATM    7  C   UNL     1      -8.724  16.779  69.056  1.00  0.00    -0.176 A  
HETATM    8  C   UNL     1      -6.038  17.671  69.280  1.00  0.00    -0.233 A  
HETATM    9  C   UNL     1      -7.716  15.977  69.648  1.00  0.00     0.062 A  
HETATM   10  C   UNL     1      -8.341  18.045  68.563  1.00  0.00    -0.313 A  
HETATM   11  C   UNL     1      -6.392  16.415  69.754  1.00  0.00    -0.186 A  
HETATM   12  C   UNL     1      -7.005  18.480  68.689  1.00  0.00    -0.289 A  
ENDROOT
BRANCH   6  13
HETATM   13  C   UNL     1     -10.583  15.089  69.467  1.00  0.00    -0.264 C  
BRANCH  13  14
HETATM   14  C   UNL     1     -10.702  13.926  68.502  1.00  0.00    -0.268 A  
HETATM   15  C   UNL     1     -10.783  11.949  66.521  1.00  0.00    -0.258 A  
HETATM   16  C   UNL     1     -11.814  13.818  67.656  1.00  0.00    -0.413 A  
HETATM   17  C   UNL     1      -9.680  12.964  68.403  1.00  0.00    -0.186 A  
HETATM   18  F   UNL     1     -10.807  11.112  65.475  1.00  0.00    -0.323 F  
HETATM   19  C   UNL     1      -9.726  11.948  67.427  1.00  0.00    -0.189 A  
HETATM   20  C   UNL     1     -11.846  12.840  66.663  1.00  0.00    -0.462 A  
BRANCH  19  21
HETATM   21  C   UNL     1      -8.577  11.008  67.358  1.00  0.00    -0.132 C  
HETATM   22  N   UNL     1      -8.540   9.818  68.086  1.00  0.00    -0.118 N  
HETATM   23  C   UNL     1      -7.348   8.959  67.971  1.00  0.00    -0.084 C  
HETATM   24  O   UNL     1      -7.621  11.373  66.668  1.00  0.00    -0.148 OA 
HETATM   25  C   UNL     1      -6.764   8.630  69.354  1.00  0.00    -0.049 C  
HETATM   26  N   UNL     1      -7.794   8.080  70.246  1.00  0.00    -0.086 N  
HETATM   27  C   UNL     1      -8.990   8.914  70.367  1.00  0.00    -0.182 C  
HETATM   28  C   UNL     1      -7.539   6.902  70.932  1.00  0.00    -0.087 C  
HETATM   29  C   UNL     1      -9.565   9.287  68.994  1.00  0.00    -0.159 C  
HETATM   30  O   UNL     1      -6.498   6.268  70.792  1.00  0.00    -0.039 OA 
BRANCH  28  31
HETATM   31  C   UNL     1      -8.597   6.364  71.843  1.00  0.00    -0.127 C  
HETATM   32  C   UNL     1      -9.418   5.176  71.391  1.00  0.00    -0.200 C  
HETATM   33  C   UNL     1      -8.427   5.013  72.504  1.00  0.00    -0.120 C  
ENDBRANCH  28  31
ENDBRANCH  19  21
ENDBRANCH  13  14
ENDBRANCH   6  13
TORSDOF 4
ENDMDL
MODEL      148
REMARK 921   NORMALIZED FREE ENERGY PREDICTED BY IDOCK:   -5.64 KCAL/MOL
REMARK 922        TOTAL FREE ENERGY PREDICTED BY IDOCK:   -7.71 KCAL/MOL
REMARK 923 INTER-LIGAND FREE ENERGY PREDICTED BY IDOCK:   -7.35 KCAL/MOL
REMARK 924 INTRA-LIGAND FREE ENERGY PREDICTED BY IDOCK:   -0.36 KCAL/MOL
REMARK 927      BINDING AFFINITY PREDICTED BY RF-SCORE:    0.00 PKD
ROOT
HETATM    1  O   UNL     1     -12.498  14.367  63.817  1.00  0.00    -1.002 OA 
HETATM    2  C   UNL     1     -11.854  13.268  64.299  1.00  0.00    -0.417 A  
HETATM    3  H   UNL     1     -12.853  14.934  64.492  1.00  0.00     0.000 HD 
HETATM    4  N   UNL     1     -11.353  12.465  63.345  1.00  0.00    -0.455 NA 
HETATM    5  N   UNL     1     -10.699  11.336  63.714  1.00  0.00    -0.385 NA 
HETATM    6  C   UNL     1     -10.552  11.028  65.028  1.00  0.00    -0.244 A  
HETATM    7  C   UNL     1     -11.053  11.865  66.056  1.00  0.00    -0.369 A  
HETATM    8  C   UNL     1     -12.136  13.628  68.000  1.00  0.00    -0.309 A  
HETATM    9  C   UNL     1     -10.913  11.624  67.446  1.00  0.00    -0.313 A  
HETATM   10  C   UNL     1     -11.744  13.032  65.666  1.00  0.00    -0.418 A  
HETATM   11  C   UNL     1     -11.442  12.495  68.403  1.00  0.00    -0.355 A  
HETATM   12  C   UNL     1     -12.285  13.896  66.641  1.00  0.00    -0.465 A  
ENDROOT
BRANCH   6  13
HETATM   13  C   UNL     1      -9.844   9.734  65.366  1.00  0.00    -0.365 C  
BRANCH  13  14
HETATM   14  C   UNL     1      -8.547   9.823  66.147  1.00  0.00    -0.138 A  
HETATM   15  C   UNL     1      -6.319  10.053  67.826  1.00  0.00    -0.058 A  
HETATM   16  C   UNL     1      -7.877  11.048  66.268  1.00  0.00    -0.141 A  
HETATM   17  C   UNL     1      -8.020   8.695  66.802  1.00  0.00    -0.094 A  
HETATM   18  F   UNL     1      -5.337  10.245  68.718  1.00  0.00    -0.039 F  
HETATM   19  C   UNL     1      -6.882   8.795  67.627  1.00  0.00    -0.071 A  
HETATM   20  C   UNL     1      -6.774  11.162  67.115  1.00  0.00    -0.106 A  
BRANCH  19  21
HETATM   21  C   UNL     1      -6.428   7.564  68.324  1.00  0.00    -0.049 C  
HETATM   22  N   UNL     1      -7.199   6.928  69.297  1.00  0.00    -0.087 N  
HETATM   23  C   UNL     1      -6.656   5.724  69.951  1.00  0.00    -0.046 C  
HETATM   24  O   UNL     1      -5.293   7.170  68.040  1.00  0.00    -0.018 OA 
HETATM   25  C   UNL     1      -6.679   5.862  71.481  1.00  0.00    -0.055 C  
HETATM   26  N   UNL     1      -8.019   6.230  71.959  1.00  0.00    -0.108 N  
HETATM   27  C   UNL     1      -8.581   7.419  71.316  1.00  0.00    -0.118 C  
HETATM   28  C   UNL     1      -8.597   5.499  72.986  1.00  0.00    -0.121 C  
HETATM   29  C   UNL     1      -8.529   7.316  69.786  1.00  0.00    -0.136 C  
HETATM   30  O   UNL     1      -8.053   4.522  73.490  1.00  0.00    -0.093 OA 
BRANCH  28  31
HETATM   31  C   UNL     1      -9.959   5.895  73.465  1.00  0.00    -0.187 C  
HETATM   32  C   UNL     1     -11.175   5.361  72.740  1.00  0.00    -0.358 C  
HETATM   33  C   UNL     1     -10.866   4.880  74.126  1.00  0.00    -0.226 C  
ENDBRANCH  28  31
ENDBRANCH  19  21
ENDBRANCH  13  14
ENDBRANCH   6  13
TORSDOF 4
ENDMDL
MODEL      149
REMARK 921   NORMALIZED FREE ENERGY PREDICTED BY IDOCK:   -5.64 KCAL/MOL
REMARK 922        TOTAL FREE ENERGY PREDICTED BY IDOCK:   -7.71 KCAL/MOL
REMARK 923 INTER-LIGAND FREE ENERGY PREDICTED BY IDOCK:   -6.56 KCAL/MOL
REMARK 924 INTRA-LIGAND FREE ENERGY PREDICTED BY IDOCK:   -1.14 KCAL/MOL
REMARK 927      BINDING AFFINITY PREDICTED BY RF-SCORE:    0.00 PKD
ROOT
HETATM    1  O   UNL     1      -5.211  11.385  65.933  1.00  0.00    -0.316 OA 
HETATM    2  C   UNL     1      -6.467  11.644  66.392  1.00  0.00     0.113 A  
HETATM    3  H   UNL     1      -5.181  10.762  65.217  1.00  0.00     0.000 HD 
HETATM    4  N   UNL     1      -6.510  12.524  67.406  1.00  0.00    -0.154 NA 
HETATM    5  N   UNL     1      -7.711  12.846  67.946  1.00  0.00    -0.128 NA 
HETATM    6  C   UNL     1      -8.851  12.289  67.462  1.00  0.00    -0.182 A  
HETATM    7  C   UNL     1      -8.839  11.373  66.381  1.00  0.00    -0.193 A  
HETATM    8  C   UNL     1      -8.651   9.532  64.229  1.00  0.00    -0.215 A  
HETATM    9  C   UNL     1      -9.988  10.774  65.806  1.00  0.00    -0.306 A  
HETATM   10  C   UNL     1      -7.585  11.031  65.833  1.00  0.00     0.007 A  
HETATM   11  C   UNL     1      -9.895   9.871  64.743  1.00  0.00    -0.239 A  
HETATM   12  C   UNL     1      -7.504  10.107  64.769  1.00  0.00    -0.136 A  
ENDROOT
BRANCH   6  13
HETATM   13  C   UNL     1     -10.152  12.668  68.136  1.00  0.00    -0.231 C  
BRANCH  13  14
HETATM   14  C   UNL     1     -10.709  11.715  69.176  1.00  0.00    -0.188 A  
HETATM   15  C   UNL     1     -11.888   9.827  70.874  1.00  0.00    -0.336 A  
HETATM   16  C   UNL     1     -11.909  12.011  69.837  1.00  0.00    -0.405 A  
HETATM   17  C   UNL     1     -10.062  10.499  69.460  1.00  0.00    -0.208 A  
HETATM   18  F   UNL     1     -12.558   8.909  71.585  1.00  0.00    -0.319 F  
HETATM   19  C   UNL     1     -10.633   9.554  70.336  1.00  0.00    -0.333 A  
HETATM   20  C   UNL     1     -12.500  11.063  70.673  1.00  0.00    -0.465 A  
BRANCH  19  21
HETATM   21  C   UNL     1      -9.907   8.273  70.535  1.00  0.00    -0.183 C  
HETATM   22  N   UNL     1      -9.632   7.398  69.483  1.00  0.00    -0.156 N  
HETATM   23  C   UNL     1      -8.925   6.140  69.780  1.00  0.00    -0.138 C  
HETATM   24  O   UNL     1      -9.617   7.992  71.701  1.00  0.00    -0.153 OA 
HETATM   25  C   UNL     1      -9.696   4.927  69.238  1.00  0.00    -0.188 C  
HETATM   26  N   UNL     1     -10.012   5.095  67.813  1.00  0.00    -0.159 N  
HETATM   27  C   UNL     1     -10.707   6.343  67.495  1.00  0.00    -0.319 C  
HETATM   28  C   UNL     1      -9.707   4.074  66.925  1.00  0.00    -0.185 C  
HETATM   29  C   UNL     1      -9.972   7.564  68.064  1.00  0.00    -0.172 C  
HETATM   30  O   UNL     1      -9.139   3.043  67.273  1.00  0.00    -0.148 OA 
BRANCH  28  31
HETATM   31  C   UNL     1     -10.045   4.260  65.479  1.00  0.00    -0.235 C  
HETATM   32  C   UNL     1      -8.960   4.712  64.526  1.00  0.00    -0.147 C  
HETATM   33  C   UNL     1      -9.495   3.314  64.434  1.00  0.00    -0.145 C  
ENDBRANCH  28  31
ENDBRANCH  19  21
ENDBRANCH  13  14
ENDBRANCH   6  13
TORSDOF 4
ENDMDL
MODEL      150
REMARK 921   NORMALIZED FREE ENERGY PREDICTED BY IDOCK:   -5.62 KCAL/MOL
REMARK 922        TOTAL FREE ENERGY PREDICTED BY IDOCK:   -7.69 KCAL/MOL
REMARK 923 INTER-LIGAND FREE ENERGY PREDICTED BY IDOCK:   -6.80 KCAL/MOL
REMARK 924 INTRA-LIGAND FREE ENERGY PREDICTED BY IDOCK:   -0.89 KCAL/MOL
REMARK 927      BINDING AFFINITY PREDICTED BY RF-SCORE:    0.00 PKD
ROOT
HETATM    1  O   UNL     1      -7.691  10.478  64.414  1.00  0.00    -0.316 OA 
HETATM    2  C   UNL     1      -7.752   9.737  65.555  1.00  0.00    -0.121 A  
HETATM    3  H   UNL     1      -7.424  11.379  64.551  1.00  0.00     0.000 HD 
HETATM    4  N   UNL     1      -8.131   8.463  65.361  1.00  0.00    -0.125 NA 
HETATM    5  N   UNL     1      -8.235   7.639  66.433  1.00  0.00    -0.119 NA 
HETATM    6  C   UNL     1      -7.955   8.098  67.680  1.00  0.00    -0.122 A  
HETATM    7  C   UNL     1      -7.535   9.431  67.912  1.00  0.00    -0.084 A  
HETATM    8  C   UNL     1      -6.732  12.136  68.222  1.00  0.00    -0.063 A  
HETATM    9  C   UNL     1      -7.199   9.972  69.179  1.00  0.00    -0.076 A  
HETATM   10  C   UNL     1      -7.442  10.288  66.795  1.00  0.00    -0.107 A  
HETATM   11  C   UNL     1      -6.799  11.303  69.330  1.00  0.00    -0.121 A  
HETATM   12  C   UNL     1      -7.050  11.633  66.963  1.00  0.00    -0.145 A  
ENDROOT
BRANCH   6  13
HETATM   13  C   UNL     1      -8.128   7.133  68.833  1.00  0.00    -0.121 C  
BRANCH  13  14
HETATM   14  C   UNL     1      -9.467   7.118  69.544  1.00  0.00    -0.151 A  
HETATM   15  C   UNL     1     -11.787   7.113  71.111  1.00  0.00    -0.325 A  
HETATM   16  C   UNL     1     -10.029   5.907  69.970  1.00  0.00    -0.239 A  
HETATM   17  C   UNL     1     -10.143   8.318  69.833  1.00  0.00    -0.195 A  
HETATM   18  F   UNL     1     -12.813   7.064  71.973  1.00  0.00    -0.339 F  
HETATM   19  C   UNL     1     -11.328   8.322  70.598  1.00  0.00    -0.257 A  
HETATM   20  C   UNL     1     -11.179   5.908  70.760  1.00  0.00    -0.281 A  
BRANCH  19  21
HETATM   21  C   UNL     1     -11.945   9.639  70.901  1.00  0.00    -0.309 C  
HETATM   22  N   UNL     1     -12.036  10.659  69.952  1.00  0.00    -0.309 N  
HETATM   23  C   UNL     1     -12.645  11.940  70.352  1.00  0.00    -0.073 C  
HETATM   24  O   UNL     1     -12.315   9.806  72.066  1.00  0.00    -0.354 OA 
HETATM   25  C   UNL     1     -11.715  13.121  70.035  1.00  0.00    -0.221 C  
HETATM   26  N   UNL     1     -11.284  13.094  68.631  1.00  0.00    -0.259 N  
HETATM   27  C   UNL     1     -10.684  11.826  68.211  1.00  0.00    -0.214 C  
HETATM   28  C   UNL     1     -11.406  14.241  67.861  1.00  0.00    -0.297 C  
HETATM   29  C   UNL     1     -11.582  10.631  68.556  1.00  0.00    -0.207 C  
HETATM   30  O   UNL     1     -11.904  15.276  68.292  1.00  0.00    -0.336 OA 
BRANCH  28  31
HETATM   31  C   UNL     1     -10.953  14.196  66.435  1.00  0.00    -0.311 C  
HETATM   32  C   UNL     1     -11.272  15.364  65.528  1.00  0.00    -0.234 C  
HETATM   33  C   UNL     1      -9.855  15.115  65.949  1.00  0.00    -0.372 C  
ENDBRANCH  28  31
ENDBRANCH  19  21
ENDBRANCH  13  14
ENDBRANCH   6  13
TORSDOF 4
ENDMDL
MODEL      151
REMARK 921   NORMALIZED FREE ENERGY PREDICTED BY IDOCK:   -5.62 KCAL/MOL
REMARK 922        TOTAL FREE ENERGY PREDICTED BY IDOCK:   -7.69 KCAL/MOL
REMARK 923 INTER-LIGAND FREE ENERGY PREDICTED BY IDOCK:   -6.71 KCAL/MOL
REMARK 924 INTRA-LIGAND FREE ENERGY PREDICTED BY IDOCK:   -0.98 KCAL/MOL
REMARK 927      BINDING AFFINITY PREDICTED BY RF-SCORE:    0.00 PKD
ROOT
HETATM    1  O   UNL     1      -7.373   6.170  71.819  1.00  0.00    -0.089 OA 
HETATM    2  C   UNL     1      -8.130   6.411  70.712  1.00  0.00    -0.120 A  
HETATM    3  H   UNL     1      -7.192   5.250  71.971  1.00  0.00     0.000 HD 
HETATM    4  N   UNL     1      -8.388   7.712  70.497  1.00  0.00    -0.125 NA 
HETATM    5  N   UNL     1      -9.143   8.064  69.427  1.00  0.00    -0.148 NA 
HETATM    6  C   UNL     1      -9.624   7.112  68.586  1.00  0.00    -0.140 A  
HETATM    7  C   UNL     1      -9.353   5.735  68.777  1.00  0.00    -0.135 A  
HETATM    8  C   UNL     1      -8.747   3.012  69.306  1.00  0.00    -0.134 A  
HETATM    9  C   UNL     1      -9.797   4.690  67.928  1.00  0.00    -0.177 A  
HETATM   10  C   UNL     1      -8.578   5.374  69.900  1.00  0.00    -0.108 A  
HETATM   11  C   UNL     1      -9.494   3.350  68.186  1.00  0.00    -0.211 A  
HETATM   12  C   UNL     1      -8.292   4.017  70.158  1.00  0.00    -0.081 A  
ENDROOT
BRANCH   6  13
HETATM   13  C   UNL     1     -10.490   7.574  67.434  1.00  0.00    -0.367 C  
BRANCH  13  14
HETATM   14  C   UNL     1      -9.867   8.514  66.419  1.00  0.00    -0.327 A  
HETATM   15  C   UNL     1      -8.893  10.118  64.342  1.00  0.00    -0.211 A  
HETATM   16  C   UNL     1      -8.724   8.129  65.706  1.00  0.00    -0.183 A  
HETATM   17  C   UNL     1     -10.452   9.763  66.139  1.00  0.00    -0.128 A  
HETATM   18  F   UNL     1      -8.470  10.780  63.255  1.00  0.00    -0.167 F  
HETATM   19  C   UNL     1      -9.950  10.590  65.114  1.00  0.00    -0.375 A  
HETATM   20  C   UNL     1      -8.247   8.925  64.664  1.00  0.00    -0.163 A  
BRANCH  19  21
HETATM   21  C   UNL     1     -10.663  11.867  64.851  1.00  0.00    -0.301 C  
HETATM   22  N   UNL     1     -10.235  13.085  65.380  1.00  0.00    -0.296 N  
HETATM   23  C   UNL     1     -11.019  14.297  65.082  1.00  0.00    -0.363 C  
HETATM   24  O   UNL     1     -11.700  11.780  64.188  1.00  0.00    -0.344 OA 
HETATM   25  C   UNL     1     -11.407  15.039  66.371  1.00  0.00    -0.275 C  
HETATM   26  N   UNL     1     -10.228  15.300  67.207  1.00  0.00    -0.245 N  
HETATM   27  C   UNL     1      -9.430  14.110  67.507  1.00  0.00    -0.210 C  
HETATM   28  C   UNL     1     -10.006  16.582  67.688  1.00  0.00    -0.254 C  
HETATM   29  C   UNL     1      -9.067  13.333  66.235  1.00  0.00     0.029 C  
HETATM   30  O   UNL     1     -10.735  17.528  67.407  1.00  0.00    -0.333 OA 
BRANCH  28  31
HETATM   31  C   UNL     1      -8.805  16.825  68.546  1.00  0.00    -0.248 C  
HETATM   32  C   UNL     1      -7.473  17.099  67.882  1.00  0.00    -0.183 C  
HETATM   33  C   UNL     1      -8.177  18.200  68.617  1.00  0.00    -0.295 C  
ENDBRANCH  28  31
ENDBRANCH  19  21
ENDBRANCH  13  14
ENDBRANCH   6  13
TORSDOF 4
ENDMDL
MODEL      152
REMARK 921   NORMALIZED FREE ENERGY PREDICTED BY IDOCK:   -5.61 KCAL/MOL
REMARK 922        TOTAL FREE ENERGY PREDICTED BY IDOCK:   -7.67 KCAL/MOL
REMARK 923 INTER-LIGAND FREE ENERGY PREDICTED BY IDOCK:   -7.79 KCAL/MOL
REMARK 924 INTRA-LIGAND FREE ENERGY PREDICTED BY IDOCK:    0.13 KCAL/MOL
REMARK 927      BINDING AFFINITY PREDICTED BY RF-SCORE:    0.00 PKD
ROOT
HETATM    1  O   UNL     1     -10.022   3.287  70.267  1.00  0.00    -0.001 OA 
HETATM    2  C   UNL     1     -10.275   4.624  70.222  1.00  0.00    -0.135 A  
HETATM    3  H   UNL     1      -9.903   2.944  71.145  1.00  0.00     0.000 HD 
HETATM    4  N   UNL     1     -10.441   5.109  68.980  1.00  0.00    -0.139 NA 
HETATM    5  N   UNL     1     -10.688   6.433  68.819  1.00  0.00    -0.256 NA 
HETATM    6  C   UNL     1     -10.770   7.250  69.900  1.00  0.00    -0.242 A  
HETATM    7  C   UNL     1     -10.618   6.764  71.222  1.00  0.00    -0.246 A  
HETATM    8  C   UNL     1     -10.264   5.648  73.808  1.00  0.00    -0.245 A  
HETATM    9  C   UNL     1     -10.718   7.551  72.398  1.00  0.00    -0.311 A  
HETATM   10  C   UNL     1     -10.348   5.388  71.383  1.00  0.00    -0.294 A  
HETATM   11  C   UNL     1     -10.549   6.999  73.671  1.00  0.00    -0.383 A  
HETATM   12  C   UNL     1     -10.164   4.847  72.672  1.00  0.00    -0.238 A  
ENDROOT
BRANCH   6  13
HETATM   13  C   UNL     1     -11.012   8.722  69.644  1.00  0.00    -0.114 C  
BRANCH  13  14
HETATM   14  C   UNL     1     -10.696   9.257  68.260  1.00  0.00    -0.195 A  
HETATM   15  C   UNL     1     -10.364  10.115  65.616  1.00  0.00    -0.140 A  
HETATM   16  C   UNL     1      -9.957   8.484  67.354  1.00  0.00    -0.275 A  
HETATM   17  C   UNL     1     -11.177  10.512  67.844  1.00  0.00    -0.358 A  
HETATM   18  F   UNL     1     -10.293  10.414  64.311  1.00  0.00    -0.413 F  
HETATM   19  C   UNL     1     -10.990  10.965  66.523  1.00  0.00    -0.187 A  
HETATM   20  C   UNL     1      -9.803   8.908  66.034  1.00  0.00    -0.277 A  
BRANCH  19  21
HETATM   21  C   UNL     1     -11.581  12.278  66.156  1.00  0.00    -0.390 C  
HETATM   22  N   UNL     1     -10.941  13.488  66.431  1.00  0.00    -0.292 N  
HETATM   23  C   UNL     1     -11.614  14.742  66.050  1.00  0.00    -0.286 C  
HETATM   24  O   UNL     1     -12.706  12.242  65.652  1.00  0.00    -0.368 OA 
HETATM   25  C   UNL     1     -11.722  15.702  67.245  1.00  0.00     0.184 C  
HETATM   26  N   UNL     1     -10.411  15.912  67.875  1.00  0.00    -0.279 N  
HETATM   27  C   UNL     1      -9.722  14.677  68.254  1.00  0.00    -0.215 C  
HETATM   28  C   UNL     1      -9.975  17.205  68.118  1.00  0.00    -0.297 C  
HETATM   29  C   UNL     1      -9.641  13.690  67.082  1.00  0.00    -0.241 C  
HETATM   30  O   UNL     1     -10.622  18.195  67.788  1.00  0.00    -0.400 OA 
BRANCH  28  31
HETATM   31  C   UNL     1      -8.641  17.399  68.769  1.00  0.00    -0.221 C  
HETATM   32  C   UNL     1      -7.437  17.687  67.900  1.00  0.00    -0.204 C  
HETATM   33  C   UNL     1      -7.986  18.763  68.788  1.00  0.00    -0.335 C  
ENDBRANCH  28  31
ENDBRANCH  19  21
ENDBRANCH  13  14
ENDBRANCH   6  13
TORSDOF 4
ENDMDL
MODEL      153
REMARK 921   NORMALIZED FREE ENERGY PREDICTED BY IDOCK:   -5.59 KCAL/MOL
REMARK 922        TOTAL FREE ENERGY PREDICTED BY IDOCK:   -7.64 KCAL/MOL
REMARK 923 INTER-LIGAND FREE ENERGY PREDICTED BY IDOCK:   -6.87 KCAL/MOL
REMARK 924 INTRA-LIGAND FREE ENERGY PREDICTED BY IDOCK:   -0.77 KCAL/MOL
REMARK 927      BINDING AFFINITY PREDICTED BY RF-SCORE:    0.00 PKD
ROOT
HETATM    1  O   UNL     1     -12.035  16.495  71.047  1.00  0.00    -0.511 OA 
HETATM    2  C   UNL     1     -11.832  15.553  70.084  1.00  0.00    -0.356 A  
HETATM    3  H   UNL     1     -11.774  17.372  70.791  1.00  0.00     0.000 HD 
HETATM    4  N   UNL     1     -12.200  14.312  70.446  1.00  0.00    -0.320 NA 
HETATM    5  N   UNL     1     -12.032  13.294  69.566  1.00  0.00    -0.317 NA 
HETATM    6  C   UNL     1     -11.505  13.532  68.337  1.00  0.00    -0.311 A  
HETATM    7  C   UNL     1     -11.126  14.832  67.921  1.00  0.00    -0.301 A  
HETATM    8  C   UNL     1     -10.389  17.488  67.242  1.00  0.00    -0.337 A  
HETATM    9  C   UNL     1     -10.596  15.159  66.647  1.00  0.00    -0.304 A  
HETATM   10  C   UNL     1     -11.290  15.885  68.846  1.00  0.00    -0.377 A  
HETATM   11  C   UNL     1     -10.238  16.468  66.312  1.00  0.00    -0.343 A  
HETATM   12  C   UNL     1     -10.911  17.199  68.500  1.00  0.00    -0.204 A  
ENDROOT
BRANCH   6  13
HETATM   13  C   UNL     1     -11.313  12.343  67.421  1.00  0.00    -0.381 C  
BRANCH  13  14
HETATM   14  C   UNL     1     -10.250  11.328  67.797  1.00  0.00    -0.203 A  
HETATM   15  C   UNL     1      -8.372   9.496  68.773  1.00  0.00    -0.117 A  
HETATM   16  C   UNL     1      -8.949  11.747  68.106  1.00  0.00    -0.181 A  
HETATM   17  C   UNL     1     -10.561   9.959  67.890  1.00  0.00    -0.303 A  
HETATM   18  F   UNL     1      -7.483   8.689  69.370  1.00  0.00    -0.072 F  
HETATM   19  C   UNL     1      -9.613   9.025  68.353  1.00  0.00    -0.163 A  
HETATM   20  C   UNL     1      -8.019  10.835  68.603  1.00  0.00    -0.133 A  
BRANCH  19  21
HETATM   21  C   UNL     1     -10.045   7.608  68.472  1.00  0.00    -0.190 C  
HETATM   22  N   UNL     1      -9.423   6.576  67.768  1.00  0.00    -0.120 N  
HETATM   23  C   UNL     1      -9.935   5.204  67.933  1.00  0.00    -0.152 C  
HETATM   24  O   UNL     1     -11.033   7.403  69.182  1.00  0.00    -0.155 OA 
HETATM   25  C   UNL     1     -10.256   4.563  66.573  1.00  0.00    -0.191 C  
HETATM   26  N   UNL     1      -9.106   4.650  65.663  1.00  0.00    -0.136 N  
HETATM   27  C   UNL     1      -8.576   6.004  65.493  1.00  0.00    -0.143 C  
HETATM   28  C   UNL     1      -8.671   3.508  65.007  1.00  0.00    -0.116 C  
HETATM   29  C   UNL     1      -8.288   6.676  66.842  1.00  0.00    -0.114 C  
HETATM   30  O   UNL     1      -9.182   2.407  65.188  1.00  0.00    -0.140 OA 
BRANCH  28  31
HETATM   31  C   UNL     1      -7.505   3.619  64.076  1.00  0.00    -0.066 C  
HETATM   32  C   UNL     1      -7.449   2.720  62.860  1.00  0.00    -0.053 C  
HETATM   33  C   UNL     1      -7.682   4.191  62.687  1.00  0.00    -0.061 C  
ENDBRANCH  28  31
ENDBRANCH  19  21
ENDBRANCH  13  14
ENDBRANCH   6  13
TORSDOF 4
ENDMDL
MODEL      154
REMARK 921   NORMALIZED FREE ENERGY PREDICTED BY IDOCK:   -5.56 KCAL/MOL
REMARK 922        TOTAL FREE ENERGY PREDICTED BY IDOCK:   -7.60 KCAL/MOL
REMARK 923 INTER-LIGAND FREE ENERGY PREDICTED BY IDOCK:   -7.44 KCAL/MOL
REMARK 924 INTRA-LIGAND FREE ENERGY PREDICTED BY IDOCK:   -0.16 KCAL/MOL
REMARK 927      BINDING AFFINITY PREDICTED BY RF-SCORE:    0.00 PKD
ROOT
HETATM    1  O   UNL     1     -11.002  18.894  65.272  1.00  0.00    -0.521 OA 
HETATM    2  C   UNL     1     -10.319  17.835  65.790  1.00  0.00    -0.186 A  
HETATM    3  H   UNL     1     -10.799  19.725  65.686  1.00  0.00     0.000 HD 
HETATM    4  N   UNL     1     -10.606  16.660  65.206  1.00  0.00    -0.633 NA 
HETATM    5  N   UNL     1      -9.990  15.537  65.651  1.00  0.00    -0.351 NA 
HETATM    6  C   UNL     1      -9.093  15.606  66.668  1.00  0.00    -0.282 A  
HETATM    7  C   UNL     1      -8.756  16.834  67.290  1.00  0.00    -0.214 A  
HETATM    8  C   UNL     1      -8.205  19.364  68.454  1.00  0.00    -0.382 A  
HETATM    9  C   UNL     1      -7.811  16.987  68.336  1.00  0.00    -0.233 A  
HETATM   10  C   UNL     1      -9.411  17.997  66.832  1.00  0.00    -0.288 A  
HETATM   11  C   UNL     1      -7.536  18.234  68.905  1.00  0.00    -0.239 A  
HETATM   12  C   UNL     1      -9.136  19.247  67.425  1.00  0.00    -0.345 A  
ENDROOT
BRANCH   6  13
HETATM   13  C   UNL     1      -8.470  14.309  67.138  1.00  0.00    -0.220 C  
BRANCH  13  14
HETATM   14  C   UNL     1      -9.321  13.055  67.070  1.00  0.00    -0.236 A  
HETATM   15  C   UNL     1     -10.639  10.592  66.887  1.00  0.00    -0.254 A  
HETATM   16  C   UNL     1      -9.869  12.636  65.850  1.00  0.00    -0.251 A  
HETATM   17  C   UNL     1      -9.533  12.265  68.215  1.00  0.00    -0.209 A  
HETATM   18  F   UNL     1     -11.157   9.367  66.718  1.00  0.00    -0.163 F  
HETATM   19  C   UNL     1     -10.221  11.037  68.138  1.00  0.00    -0.201 A  
HETATM   20  C   UNL     1     -10.515  11.403  65.759  1.00  0.00    -0.314 A  
BRANCH  19  21
HETATM   21  C   UNL     1     -10.352  10.243  69.386  1.00  0.00    -0.235 C  
HETATM   22  N   UNL     1      -9.686   9.031  69.574  1.00  0.00    -0.167 N  
HETATM   23  C   UNL     1      -9.894   8.301  70.838  1.00  0.00    -0.182 C  
HETATM   24  O   UNL     1     -11.139  10.684  70.228  1.00  0.00    -0.292 OA 
HETATM   25  C   UNL     1     -10.330   6.851  70.578  1.00  0.00    -0.204 C  
HETATM   26  N   UNL     1      -9.401   6.175  69.662  1.00  0.00    -0.145 N  
HETATM   27  C   UNL     1      -9.174   6.888  68.404  1.00  0.00    -0.124 C  
HETATM   28  C   UNL     1      -8.887   4.935  70.009  1.00  0.00    -0.094 C  
HETATM   29  C   UNL     1      -8.777   8.351  68.643  1.00  0.00    -0.133 C  
HETATM   30  O   UNL     1      -9.141   4.390  71.079  1.00  0.00    -0.118 OA 
BRANCH  28  31
HETATM   31  C   UNL     1      -7.949   4.258  69.059  1.00  0.00    -0.068 C  
HETATM   32  C   UNL     1      -7.828   2.751  69.098  1.00  0.00    -0.052 C  
HETATM   33  C   UNL     1      -8.484   3.412  67.924  1.00  0.00    -0.106 C  
ENDBRANCH  28  31
ENDBRANCH  19  21
ENDBRANCH  13  14
ENDBRANCH   6  13
TORSDOF 4
ENDMDL
MODEL      155
REMARK 921   NORMALIZED FREE ENERGY PREDICTED BY IDOCK:   -5.55 KCAL/MOL
REMARK 922        TOTAL FREE ENERGY PREDICTED BY IDOCK:   -7.60 KCAL/MOL
REMARK 923 INTER-LIGAND FREE ENERGY PREDICTED BY IDOCK:   -6.65 KCAL/MOL
REMARK 924 INTRA-LIGAND FREE ENERGY PREDICTED BY IDOCK:   -0.95 KCAL/MOL
REMARK 927      BINDING AFFINITY PREDICTED BY RF-SCORE:    0.00 PKD
ROOT
HETATM    1  O   UNL     1      -9.755   3.416  70.103  1.00  0.00    -0.168 OA 
HETATM    2  C   UNL     1     -10.000   4.611  69.498  1.00  0.00    -0.196 A  
HETATM    3  H   UNL     1      -9.889   3.423  71.043  1.00  0.00     0.000 HD 
HETATM    4  N   UNL     1      -9.809   4.601  68.168  1.00  0.00    -0.136 NA 
HETATM    5  N   UNL     1     -10.015   5.743  67.466  1.00  0.00    -0.136 NA 
HETATM    6  C   UNL     1     -10.414   6.875  68.103  1.00  0.00    -0.204 A  
HETATM    7  C   UNL     1     -10.642   6.909  69.500  1.00  0.00    -0.261 A  
HETATM    8  C   UNL     1     -11.031   6.831  72.311  1.00  0.00    -0.276 A  
HETATM    9  C   UNL     1     -11.085   8.044  70.227  1.00  0.00    -0.224 A  
HETATM   10  C   UNL     1     -10.412   5.722  70.227  1.00  0.00    -0.349 A  
HETATM   11  C   UNL     1     -11.281   8.003  71.611  1.00  0.00    -0.301 A  
HETATM   12  C   UNL     1     -10.600   5.698  71.625  1.00  0.00    -0.301 A  
ENDROOT
BRANCH   6  13
HETATM   13  C   UNL     1     -10.590   8.121  67.262  1.00  0.00    -0.344 C  
BRANCH  13  14
HETATM   14  C   UNL     1      -9.338   8.815  66.762  1.00  0.00    -0.229 A  
HETATM   15  C   UNL     1      -7.208  10.297  65.712  1.00  0.00    -0.133 A  
HETATM   16  C   UNL     1      -8.799   8.488  65.510  1.00  0.00    -0.196 A  
HETATM   17  C   UNL     1      -8.726   9.831  67.518  1.00  0.00    -0.125 A  
HETATM   18  F   UNL     1      -6.283  11.059  65.110  1.00  0.00    -0.060 F  
HETATM   19  C   UNL     1      -7.634  10.564  67.010  1.00  0.00    -0.107 A  
HETATM   20  C   UNL     1      -7.745   9.236  64.985  1.00  0.00    -0.109 A  
BRANCH  19  21
HETATM   21  C   UNL     1      -7.085  11.655  67.855  1.00  0.00    -0.081 C  
HETATM   22  N   UNL     1      -7.742  12.875  68.021  1.00  0.00    -0.129 N  
HETATM   23  C   UNL     1      -7.110  13.907  68.862  1.00  0.00    -0.110 C  
HETATM   24  O   UNL     1      -5.975  11.447  68.352  1.00  0.00    -0.046 OA 
HETATM   25  C   UNL     1      -6.986  15.240  68.108  1.00  0.00    -0.126 C  
HETATM   26  N   UNL     1      -8.281  15.655  67.552  1.00  0.00    -0.156 N  
HETATM   27  C   UNL     1      -8.931  14.641  66.720  1.00  0.00    -0.257 C  
HETATM   28  C   UNL     1      -8.739  16.944  67.785  1.00  0.00    -0.212 C  
HETATM   29  C   UNL     1      -9.027  13.290  67.443  1.00  0.00    -0.215 C  
HETATM   30  O   UNL     1      -8.124  17.747  68.480  1.00  0.00    -0.284 OA 
BRANCH  28  31
HETATM   31  C   UNL     1     -10.056  17.351  67.202  1.00  0.00    -0.307 C  
HETATM   32  C   UNL     1     -10.574  18.747  67.468  1.00  0.00    -0.497 C  
HETATM   33  C   UNL     1     -10.120  18.374  66.089  1.00  0.00    -0.376 C  
ENDBRANCH  28  31
ENDBRANCH  19  21
ENDBRANCH  13  14
ENDBRANCH   6  13
TORSDOF 4
ENDMDL
MODEL      156
REMARK 921   NORMALIZED FREE ENERGY PREDICTED BY IDOCK:   -5.55 KCAL/MOL
REMARK 922        TOTAL FREE ENERGY PREDICTED BY IDOCK:   -7.60 KCAL/MOL
REMARK 923 INTER-LIGAND FREE ENERGY PREDICTED BY IDOCK:   -6.57 KCAL/MOL
REMARK 924 INTRA-LIGAND FREE ENERGY PREDICTED BY IDOCK:   -1.03 KCAL/MOL
REMARK 927      BINDING AFFINITY PREDICTED BY RF-SCORE:    0.00 PKD
ROOT
HETATM    1  O   UNL     1     -12.536  14.822  67.543  1.00  0.00    -0.487 OA 
HETATM    2  C   UNL     1     -11.578  13.863  67.404  1.00  0.00    -0.368 A  
HETATM    3  H   UNL     1     -13.113  14.904  66.793  1.00  0.00     0.000 HD 
HETATM    4  N   UNL     1     -10.761  13.749  68.464  1.00  0.00    -0.256 NA 
HETATM    5  N   UNL     1      -9.764  12.830  68.428  1.00  0.00    -0.214 NA 
HETATM    6  C   UNL     1      -9.603  12.037  67.337  1.00  0.00    -0.176 A  
HETATM    7  C   UNL     1     -10.461  12.123  66.213  1.00  0.00    -0.270 A  
HETATM    8  C   UNL     1     -12.245  12.430  64.027  1.00  0.00    -0.579 A  
HETATM    9  C   UNL     1     -10.371  11.311  65.054  1.00  0.00    -0.359 A  
HETATM   10  C   UNL     1     -11.488  13.090  66.251  1.00  0.00    -0.379 A  
HETATM   11  C   UNL     1     -11.253  11.460  63.979  1.00  0.00    -0.350 A  
HETATM   12  C   UNL     1     -12.362  13.240  65.154  1.00  0.00    -0.516 A  
ENDROOT
BRANCH   6  13
HETATM   13  C   UNL     1      -8.447  11.060  67.351  1.00  0.00    -0.132 C  
BRANCH  13  14
HETATM   14  C   UNL     1      -8.562   9.847  68.255  1.00  0.00    -0.115 A  
HETATM   15  C   UNL     1      -9.043   7.709  69.996  1.00  0.00    -0.151 A  
HETATM   16  C   UNL     1      -8.153   9.920  69.593  1.00  0.00    -0.171 A  
HETATM   17  C   UNL     1      -9.124   8.647  67.783  1.00  0.00    -0.143 A  
HETATM   18  F   UNL     1      -9.372   6.772  70.897  1.00  0.00    -0.155 F  
HETATM   19  C   UNL     1      -9.344   7.554  68.646  1.00  0.00    -0.143 A  
HETATM   20  C   UNL     1      -8.404   8.858  70.461  1.00  0.00    -0.177 A  
BRANCH  19  21
HETATM   21  C   UNL     1      -9.993   6.346  68.075  1.00  0.00    -0.135 C  
HETATM   22  N   UNL     1      -9.285   5.395  67.338  1.00  0.00    -0.111 N  
HETATM   23  C   UNL     1     -10.019   4.240  66.791  1.00  0.00    -0.160 C  
HETATM   24  O   UNL     1     -11.214   6.264  68.232  1.00  0.00    -0.328 OA 
HETATM   25  C   UNL     1      -9.781   4.094  65.280  1.00  0.00    -0.199 C  
HETATM   26  N   UNL     1      -8.345   4.072  64.970  1.00  0.00    -0.104 N  
HETATM   27  C   UNL     1      -7.596   5.207  65.512  1.00  0.00    -0.086 C  
HETATM   28  C   UNL     1      -7.840   3.063  64.164  1.00  0.00    -0.081 C  
HETATM   29  C   UNL     1      -7.853   5.393  67.013  1.00  0.00    -0.101 C  
HETATM   30  O   UNL     1      -8.539   2.152  63.729  1.00  0.00    -0.084 OA 
BRANCH  28  31
HETATM   31  C   UNL     1      -6.377   3.063  63.852  1.00  0.00    -0.022 C  
HETATM   32  C   UNL     1      -5.469   2.108  64.596  1.00  0.00    -0.009 C  
HETATM   33  C   UNL     1      -5.743   1.889  63.138  1.00  0.00    -0.008 C  
ENDBRANCH  28  31
ENDBRANCH  19  21
ENDBRANCH  13  14
ENDBRANCH   6  13
TORSDOF 4
ENDMDL
MODEL      157
REMARK 921   NORMALIZED FREE ENERGY PREDICTED BY IDOCK:   -5.54 KCAL/MOL
REMARK 922        TOTAL FREE ENERGY PREDICTED BY IDOCK:   -7.58 KCAL/MOL
REMARK 923 INTER-LIGAND FREE ENERGY PREDICTED BY IDOCK:   -6.93 KCAL/MOL
REMARK 924 INTRA-LIGAND FREE ENERGY PREDICTED BY IDOCK:   -0.65 KCAL/MOL
REMARK 927      BINDING AFFINITY PREDICTED BY RF-SCORE:    0.00 PKD
ROOT
HETATM    1  O   UNL     1      -8.266   7.586  62.720  1.00  0.00    -0.284 OA 
HETATM    2  C   UNL     1      -8.243   7.331  64.058  1.00  0.00     0.065 A  
HETATM    3  H   UNL     1      -8.235   6.807  62.177  1.00  0.00     0.000 HD 
HETATM    4  N   UNL     1      -8.285   8.432  64.826  1.00  0.00    -0.161 NA 
HETATM    5  N   UNL     1      -8.256   8.294  66.175  1.00  0.00    -0.113 NA 
HETATM    6  C   UNL     1      -8.191   7.058  66.735  1.00  0.00    -0.111 A  
HETATM    7  C   UNL     1      -8.164   5.879  65.950  1.00  0.00    -0.127 A  
HETATM    8  C   UNL     1      -8.089   3.610  64.247  1.00  0.00    -0.086 A  
HETATM    9  C   UNL     1      -8.123   4.558  66.464  1.00  0.00    -0.103 A  
HETATM   10  C   UNL     1      -8.180   6.030  64.548  1.00  0.00    -0.095 A  
HETATM   11  C   UNL     1      -8.092   3.441  65.624  1.00  0.00    -0.093 A  
HETATM   12  C   UNL     1      -8.133   4.895  63.711  1.00  0.00    -0.112 A  
ENDROOT
BRANCH   6  13
HETATM   13  C   UNL     1      -8.125   6.981  68.245  1.00  0.00    -0.123 C  
BRANCH  13  14
HETATM   14  C   UNL     1      -9.424   7.122  69.014  1.00  0.00    -0.143 A  
HETATM   15  C   UNL     1     -11.657   7.387  70.682  1.00  0.00    -0.268 A  
HETATM   16  C   UNL     1     -10.106   5.985  69.467  1.00  0.00    -0.246 A  
HETATM   17  C   UNL     1      -9.941   8.392  69.330  1.00  0.00    -0.195 A  
HETATM   18  F   UNL     1     -12.643   7.457  71.588  1.00  0.00    -0.319 F  
HETATM   19  C   UNL     1     -11.082   8.535  70.145  1.00  0.00    -0.192 A  
HETATM   20  C   UNL     1     -11.212   6.120  70.307  1.00  0.00    -0.439 A  
BRANCH  19  21
HETATM   21  C   UNL     1     -11.525   9.915  70.472  1.00  0.00    -0.318 C  
HETATM   22  N   UNL     1     -11.677  10.902  69.497  1.00  0.00    -0.301 N  
HETATM   23  C   UNL     1     -12.100  12.249  69.919  1.00  0.00    -0.249 C  
HETATM   24  O   UNL     1     -11.690  10.160  71.670  1.00  0.00    -0.307 OA 
HETATM   25  C   UNL     1     -11.132  13.324  69.401  1.00  0.00    -0.090 C  
HETATM   26  N   UNL     1     -10.934  13.204  67.950  1.00  0.00    -0.241 N  
HETATM   27  C   UNL     1     -10.521  11.871  67.509  1.00  0.00    -0.209 C  
HETATM   28  C   UNL     1     -11.076  14.328  67.150  1.00  0.00    -0.311 C  
HETATM   29  C   UNL     1     -11.454  10.779  68.051  1.00  0.00    -0.256 C  
HETATM   30  O   UNL     1     -11.407  15.421  67.599  1.00  0.00    -0.331 OA 
BRANCH  28  31
HETATM   31  C   UNL     1     -10.861  14.187  65.676  1.00  0.00    -0.306 C  
HETATM   32  C   UNL     1     -12.041  14.356  64.744  1.00  0.00    -0.462 C  
HETATM   33  C   UNL     1     -10.958  15.392  64.767  1.00  0.00    -0.411 C  
ENDBRANCH  28  31
ENDBRANCH  19  21
ENDBRANCH  13  14
ENDBRANCH   6  13
TORSDOF 4
ENDMDL
MODEL      158
REMARK 921   NORMALIZED FREE ENERGY PREDICTED BY IDOCK:   -5.53 KCAL/MOL
REMARK 922        TOTAL FREE ENERGY PREDICTED BY IDOCK:   -7.57 KCAL/MOL
REMARK 923 INTER-LIGAND FREE ENERGY PREDICTED BY IDOCK:   -6.94 KCAL/MOL
REMARK 924 INTRA-LIGAND FREE ENERGY PREDICTED BY IDOCK:   -0.63 KCAL/MOL
REMARK 927      BINDING AFFINITY PREDICTED BY RF-SCORE:    0.00 PKD
ROOT
HETATM    1  O   UNL     1     -14.044   9.674  72.888  1.00  0.00    -0.779 OA 
HETATM    2  C   UNL     1     -13.242  10.115  71.880  1.00  0.00    -0.452 A  
HETATM    3  H   UNL     1     -14.443  10.368  73.399  1.00  0.00     0.000 HD 
HETATM    4  N   UNL     1     -12.678   9.132  71.158  1.00  0.00    -0.261 NA 
HETATM    5  N   UNL     1     -11.851   9.461  70.135  1.00  0.00    -0.029 NA 
HETATM    6  C   UNL     1     -11.604  10.765  69.846  1.00  0.00    -0.331 A  
HETATM    7  C   UNL     1     -12.200  11.822  70.577  1.00  0.00    -0.438 A  
HETATM    8  C   UNL     1     -13.445  13.829  72.151  1.00  0.00    -0.596 A  
HETATM    9  C   UNL     1     -12.011  13.203  70.315  1.00  0.00    -0.366 A  
HETATM   10  C   UNL     1     -13.048  11.474  71.649  1.00  0.00    -0.478 A  
HETATM   11  C   UNL     1     -12.629  14.190  71.088  1.00  0.00    -0.439 A  
HETATM   12  C   UNL     1     -13.654  12.480  72.430  1.00  0.00    -0.353 A  
ENDROOT
BRANCH   6  13
HETATM   13  C   UNL     1     -10.643  11.057  68.714  1.00  0.00    -0.232 C  
BRANCH  13  14
HETATM   14  C   UNL     1      -9.159  10.929  68.999  1.00  0.00    -0.110 A  
HETATM   15  C   UNL     1      -6.467  10.863  69.765  1.00  0.00    -0.128 A  
HETATM   16  C   UNL     1      -8.256  11.870  68.487  1.00  0.00    -0.126 A  
HETATM   17  C   UNL     1      -8.669   9.897  69.821  1.00  0.00    -0.229 A  
HETATM   18  F   UNL     1      -5.204  10.956  70.206  1.00  0.00    -0.046 F  
HETATM   19  C   UNL     1      -7.310   9.839  70.189  1.00  0.00    -0.159 A  
HETATM   20  C   UNL     1      -6.918  11.841  68.879  1.00  0.00    -0.109 A  
BRANCH  19  21
HETATM   21  C   UNL     1      -6.891   8.746  71.104  1.00  0.00    -0.078 C  
HETATM   22  N   UNL     1      -6.832   7.412  70.698  1.00  0.00    -0.048 N  
HETATM   23  C   UNL     1      -6.426   6.394  71.682  1.00  0.00    -0.050 C  
HETATM   24  O   UNL     1      -6.661   9.077  72.270  1.00  0.00    -0.270 OA 
HETATM   25  C   UNL     1      -7.458   5.258  71.766  1.00  0.00    -0.091 C  
HETATM   26  N   UNL     1      -7.741   4.702  70.436  1.00  0.00    -0.053 N  
HETATM   27  C   UNL     1      -8.138   5.699  69.440  1.00  0.00    -0.100 C  
HETATM   28  C   UNL     1      -7.684   3.329  70.248  1.00  0.00    -0.043 C  
HETATM   29  C   UNL     1      -7.139   6.862  69.371  1.00  0.00    -0.079 C  
HETATM   30  O   UNL     1      -7.361   2.553  71.142  1.00  0.00    -0.033 OA 
BRANCH  28  31
HETATM   31  C   UNL     1      -7.986   2.781  68.888  1.00  0.00    -0.062 C  
HETATM   32  C   UNL     1      -8.862   1.553  68.771  1.00  0.00    -0.116 C  
HETATM   33  C   UNL     1      -9.381   2.882  68.311  1.00  0.00    -0.253 C  
ENDBRANCH  28  31
ENDBRANCH  19  21
ENDBRANCH  13  14
ENDBRANCH   6  13
TORSDOF 4
ENDMDL
MODEL      159
REMARK 921   NORMALIZED FREE ENERGY PREDICTED BY IDOCK:   -5.50 KCAL/MOL
REMARK 922        TOTAL FREE ENERGY PREDICTED BY IDOCK:   -7.54 KCAL/MOL
REMARK 923 INTER-LIGAND FREE ENERGY PREDICTED BY IDOCK:   -6.34 KCAL/MOL
REMARK 924 INTRA-LIGAND FREE ENERGY PREDICTED BY IDOCK:   -1.20 KCAL/MOL
REMARK 927      BINDING AFFINITY PREDICTED BY RF-SCORE:    0.00 PKD
ROOT
HETATM    1  O   UNL     1     -12.417  15.803  68.508  1.00  0.00    -0.366 OA 
HETATM    2  C   UNL     1     -11.330  15.042  68.204  1.00  0.00    -0.330 A  
HETATM    3  H   UNL     1     -13.164  15.656  67.940  1.00  0.00     0.000 HD 
HETATM    4  N   UNL     1     -10.273  15.251  69.006  1.00  0.00    -0.228 NA 
HETATM    5  N   UNL     1      -9.132  14.552  68.785  1.00  0.00    -0.184 NA 
HETATM    6  C   UNL     1      -9.066  13.652  67.770  1.00  0.00    -0.199 A  
HETATM    7  C   UNL     1     -10.170  13.397  66.920  1.00  0.00    -0.252 A  
HETATM    8  C   UNL     1     -12.458  13.015  65.284  1.00  0.00    -0.555 A  
HETATM    9  C   UNL     1     -10.184  12.455  65.861  1.00  0.00    -0.273 A  
HETATM   10  C   UNL     1     -11.350  14.137  67.146  1.00  0.00    -0.348 A  
HETATM   11  C   UNL     1     -11.313  12.264  65.059  1.00  0.00    -0.376 A  
HETATM   12  C   UNL     1     -12.477  13.945  66.321  1.00  0.00    -0.454 A  
ENDROOT
BRANCH   6  13
HETATM   13  C   UNL     1      -7.750  12.935  67.560  1.00  0.00    -0.174 C  
BRANCH  13  14
HETATM   14  C   UNL     1      -7.450  11.739  68.443  1.00  0.00    -0.105 A  
HETATM   15  C   UNL     1      -7.061   9.665  70.283  1.00  0.00    -0.127 A  
HETATM   16  C   UNL     1      -6.334  11.747  69.291  1.00  0.00    -0.103 A  
HETATM   17  C   UNL     1      -8.310  10.626  68.465  1.00  0.00    -0.130 A  
HETATM   18  F   UNL     1      -6.906   8.771  71.269  1.00  0.00    -0.054 F  
HETATM   19  C   UNL     1      -8.106   9.563  69.368  1.00  0.00    -0.116 A  
HETATM   20  C   UNL     1      -6.150  10.718  70.214  1.00  0.00    -0.133 A  
BRANCH  19  21
HETATM   21  C   UNL     1      -9.094   8.454  69.360  1.00  0.00    -0.154 C  
HETATM   22  N   UNL     1      -8.993   7.369  68.488  1.00  0.00    -0.129 N  
HETATM   23  C   UNL     1     -10.034   6.327  68.537  1.00  0.00    -0.144 C  
HETATM   24  O   UNL     1     -10.053   8.580  70.126  1.00  0.00    -0.185 OA 
HETATM   25  C   UNL     1     -10.639   6.079  67.147  1.00  0.00    -0.302 C  
HETATM   26  N   UNL     1      -9.590   5.808  66.154  1.00  0.00    -0.136 N  
HETATM   27  C   UNL     1      -8.542   6.828  66.095  1.00  0.00    -0.143 C  
HETATM   28  C   UNL     1      -9.703   4.696  65.333  1.00  0.00    -0.162 C  
HETATM   29  C   UNL     1      -7.953   7.118  67.482  1.00  0.00    -0.113 C  
HETATM   30  O   UNL     1     -10.627   3.894  65.431  1.00  0.00    -0.021 OA 
BRANCH  28  31
HETATM   31  C   UNL     1      -8.630   4.443  64.322  1.00  0.00    -0.123 C  
HETATM   32  C   UNL     1      -8.798   3.299  63.346  1.00  0.00    -0.092 C  
HETATM   33  C   UNL     1      -8.879   4.713  62.854  1.00  0.00    -0.126 C  
ENDBRANCH  28  31
ENDBRANCH  19  21
ENDBRANCH  13  14
ENDBRANCH   6  13
TORSDOF 4
ENDMDL
MODEL      160
REMARK 921   NORMALIZED FREE ENERGY PREDICTED BY IDOCK:   -5.50 KCAL/MOL
REMARK 922        TOTAL FREE ENERGY PREDICTED BY IDOCK:   -7.54 KCAL/MOL
REMARK 923 INTER-LIGAND FREE ENERGY PREDICTED BY IDOCK:   -6.71 KCAL/MOL
REMARK 924 INTRA-LIGAND FREE ENERGY PREDICTED BY IDOCK:   -0.83 KCAL/MOL
REMARK 927      BINDING AFFINITY PREDICTED BY RF-SCORE:    0.00 PKD
ROOT
HETATM    1  O   UNL     1      -7.712  18.099  69.366  1.00  0.00     0.025 OA 
HETATM    2  C   UNL     1      -7.699  16.862  68.797  1.00  0.00    -0.247 A  
HETATM    3  H   UNL     1      -8.347  18.694  68.986  1.00  0.00     0.000 HD 
HETATM    4  N   UNL     1      -6.799  16.021  69.334  1.00  0.00    -0.207 NA 
HETATM    5  N   UNL     1      -6.695  14.765  68.835  1.00  0.00    -0.093 NA 
HETATM    6  C   UNL     1      -7.494  14.366  67.811  1.00  0.00    -0.170 A  
HETATM    7  C   UNL     1      -8.464  15.225  67.238  1.00  0.00    -0.216 A  
HETATM    8  C   UNL     1     -10.343  17.068  66.176  1.00  0.00    -0.326 A  
HETATM    9  C   UNL     1      -9.350  14.870  66.189  1.00  0.00    -0.307 A  
HETATM   10  C   UNL     1      -8.558  16.535  67.753  1.00  0.00    -0.180 A  
HETATM   11  C   UNL     1     -10.278  15.777  65.670  1.00  0.00    -0.407 A  
HETATM   12  C   UNL     1      -9.490  17.445  67.210  1.00  0.00    -0.251 A  
ENDROOT
BRANCH   6  13
HETATM   13  C   UNL     1      -7.297  12.962  67.280  1.00  0.00    -0.077 C  
BRANCH  13  14
HETATM   14  C   UNL     1      -8.497  12.034  67.283  1.00  0.00    -0.175 A  
HETATM   15  C   UNL     1     -10.518  10.098  67.321  1.00  0.00    -0.256 A  
HETATM   16  C   UNL     1      -8.959  11.472  66.085  1.00  0.00    -0.201 A  
HETATM   17  C   UNL     1      -9.134  11.683  68.487  1.00  0.00    -0.157 A  
HETATM   18  F   UNL     1     -11.383   9.074  67.298  1.00  0.00    -0.056 F  
HETATM   19  C   UNL     1     -10.172  10.730  68.512  1.00  0.00    -0.192 A  
HETATM   20  C   UNL     1      -9.959  10.499  66.108  1.00  0.00    -0.286 A  
BRANCH  19  21
HETATM   21  C   UNL     1     -10.751  10.378  69.835  1.00  0.00    -0.279 C  
HETATM   22  N   UNL     1     -10.328   9.266  70.564  1.00  0.00    -0.233 N  
HETATM   23  C   UNL     1     -10.976   8.984  71.857  1.00  0.00    -0.353 C  
HETATM   24  O   UNL     1     -11.678  11.092  70.226  1.00  0.00    -0.311 OA 
HETATM   25  C   UNL     1     -11.506   7.542  71.912  1.00  0.00    -0.270 C  
HETATM   26  N   UNL     1     -10.453   6.578  71.566  1.00  0.00    -0.212 N  
HETATM   27  C   UNL     1      -9.791   6.845  70.288  1.00  0.00    -0.178 C  
HETATM   28  C   UNL     1     -10.223   5.495  72.401  1.00  0.00    -0.196 C  
HETATM   29  C   UNL     1      -9.290   8.293  70.199  1.00  0.00    -0.159 C  
HETATM   30  O   UNL     1     -10.836   5.328  73.451  1.00  0.00    -0.255 OA 
BRANCH  28  31
HETATM   31  C   UNL     1      -9.153   4.518  72.026  1.00  0.00    -0.161 C  
HETATM   32  C   UNL     1      -9.017   3.239  72.822  1.00  0.00    -0.107 C  
HETATM   33  C   UNL     1      -9.512   3.185  71.408  1.00  0.00    -0.219 C  
ENDBRANCH  28  31
ENDBRANCH  19  21
ENDBRANCH  13  14
ENDBRANCH   6  13
TORSDOF 4
ENDMDL
MODEL      161
REMARK 921   NORMALIZED FREE ENERGY PREDICTED BY IDOCK:   -5.49 KCAL/MOL
REMARK 922        TOTAL FREE ENERGY PREDICTED BY IDOCK:   -7.53 KCAL/MOL
REMARK 923 INTER-LIGAND FREE ENERGY PREDICTED BY IDOCK:   -6.67 KCAL/MOL
REMARK 924 INTRA-LIGAND FREE ENERGY PREDICTED BY IDOCK:   -0.86 KCAL/MOL
REMARK 927      BINDING AFFINITY PREDICTED BY RF-SCORE:    0.00 PKD
ROOT
HETATM    1  O   UNL     1      -9.304   8.807  64.883  1.00  0.00    -0.418 OA 
HETATM    2  C   UNL     1      -9.013   8.095  66.007  1.00  0.00    -0.171 A  
HETATM    3  H   UNL     1      -8.895   9.664  64.851  1.00  0.00     0.000 HD 
HETATM    4  N   UNL     1      -9.592   6.884  66.053  1.00  0.00     0.060 NA 
HETATM    5  N   UNL     1      -9.378   6.094  67.135  1.00  0.00    -0.116 NA 
HETATM    6  C   UNL     1      -8.584   6.524  68.150  1.00  0.00    -0.118 A  
HETATM    7  C   UNL     1      -7.945   7.788  68.119  1.00  0.00    -0.122 A  
HETATM    8  C   UNL     1      -6.755  10.358  67.928  1.00  0.00    -0.066 A  
HETATM    9  C   UNL     1      -7.083   8.291  69.127  1.00  0.00    -0.064 A  
HETATM   10  C   UNL     1      -8.183   8.611  66.998  1.00  0.00    -0.106 A  
HETATM   11  C   UNL     1      -6.493   9.555  69.029  1.00  0.00    -0.046 A  
HETATM   12  C   UNL     1      -7.593   9.890  66.919  1.00  0.00    -0.095 A  
ENDROOT
BRANCH   6  13
HETATM   13  C   UNL     1      -8.419   5.605  69.341  1.00  0.00    -0.106 C  
BRANCH  13  14
HETATM   14  C   UNL     1      -9.170   5.956  70.611  1.00  0.00    -0.167 A  
HETATM   15  C   UNL     1     -10.345   6.807  73.005  1.00  0.00    -0.228 A  
HETATM   16  C   UNL     1      -8.861   5.313  71.817  1.00  0.00    -0.143 A  
HETATM   17  C   UNL     1     -10.151   6.965  70.613  1.00  0.00    -0.208 A  
HETATM   18  F   UNL     1     -10.774   7.264  74.190  1.00  0.00    -0.369 F  
HETATM   19  C   UNL     1     -10.769   7.380  71.810  1.00  0.00    -0.242 A  
HETATM   20  C   UNL     1      -9.439   5.746  73.010  1.00  0.00    -0.153 A  
BRANCH  19  21
HETATM   21  C   UNL     1     -11.754   8.490  71.726  1.00  0.00    -0.327 C  
HETATM   22  N   UNL     1     -11.770   9.396  70.665  1.00  0.00    -0.262 N  
HETATM   23  C   UNL     1     -12.770  10.478  70.679  1.00  0.00    -0.355 C  
HETATM   24  O   UNL     1     -12.519   8.606  72.687  1.00  0.00    -0.375 OA 
HETATM   25  C   UNL     1     -12.106  11.853  70.505  1.00  0.00    -0.331 C  
HETATM   26  N   UNL     1     -11.240  11.876  69.318  1.00  0.00    -0.251 N  
HETATM   27  C   UNL     1     -10.245  10.803  69.281  1.00  0.00    -0.194 C  
HETATM   28  C   UNL     1     -11.376  12.905  68.399  1.00  0.00    -0.294 C  
HETATM   29  C   UNL     1     -10.885   9.425  69.494  1.00  0.00    -0.213 C  
HETATM   30  O   UNL     1     -12.226  13.783  68.511  1.00  0.00    -0.348 OA 
BRANCH  28  31
HETATM   31  C   UNL     1     -10.478  12.916  67.202  1.00  0.00    -0.241 C  
HETATM   32  C   UNL     1     -10.865  12.099  65.988  1.00  0.00    -0.318 C  
HETATM   33  C   UNL     1     -10.913  13.596  65.922  1.00  0.00    -0.284 C  
ENDBRANCH  28  31
ENDBRANCH  19  21
ENDBRANCH  13  14
ENDBRANCH   6  13
TORSDOF 4
ENDMDL
MODEL      162
REMARK 921   NORMALIZED FREE ENERGY PREDICTED BY IDOCK:   -5.49 KCAL/MOL
REMARK 922        TOTAL FREE ENERGY PREDICTED BY IDOCK:   -7.52 KCAL/MOL
REMARK 923 INTER-LIGAND FREE ENERGY PREDICTED BY IDOCK:   -6.63 KCAL/MOL
REMARK 924 INTRA-LIGAND FREE ENERGY PREDICTED BY IDOCK:   -0.89 KCAL/MOL
REMARK 927      BINDING AFFINITY PREDICTED BY RF-SCORE:    0.00 PKD
ROOT
HETATM    1  O   UNL     1     -10.833  14.033  68.044  1.00  0.00    -0.239 OA 
HETATM    2  C   UNL     1     -10.380  13.159  67.103  1.00  0.00    -0.247 A  
HETATM    3  H   UNL     1     -11.631  14.487  67.799  1.00  0.00     0.000 HD 
HETATM    4  N   UNL     1      -9.251  12.518  67.449  1.00  0.00    -0.179 NA 
HETATM    5  N   UNL     1      -8.706  11.632  66.580  1.00  0.00    -0.187 NA 
HETATM    6  C   UNL     1      -9.299  11.396  65.381  1.00  0.00    -0.186 A  
HETATM    7  C   UNL     1     -10.500  12.043  64.997  1.00  0.00    -0.327 A  
HETATM    8  C   UNL     1     -12.888  13.436  64.358  1.00  0.00    -0.014 A  
HETATM    9  C   UNL     1     -11.189  11.826  63.777  1.00  0.00    -0.518 A  
HETATM   10  C   UNL     1     -11.054  12.974  65.900  1.00  0.00    -0.303 A  
HETATM   11  C   UNL     1     -12.368  12.509  63.465  1.00  0.00    -0.623 A  
HETATM   12  C   UNL     1     -12.237  13.667  65.567  1.00  0.00    -0.476 A  
ENDROOT
BRANCH   6  13
HETATM   13  C   UNL     1      -8.616  10.421  64.446  1.00  0.00    -0.185 C  
BRANCH  13  14
HETATM   14  C   UNL     1      -8.572   8.963  64.858  1.00  0.00    -0.198 A  
HETATM   15  C   UNL     1      -8.295   6.350  65.826  1.00  0.00    -0.146 A  
HETATM   16  C   UNL     1      -7.637   8.092  64.283  1.00  0.00    -0.118 A  
HETATM   17  C   UNL     1      -9.433   8.469  65.856  1.00  0.00    -0.207 A  
HETATM   18  F   UNL     1      -8.031   5.142  66.342  1.00  0.00    -0.100 F  
HETATM   19  C   UNL     1      -9.319   7.147  66.330  1.00  0.00    -0.154 A  
HETATM   20  C   UNL     1      -7.493   6.795  64.775  1.00  0.00    -0.096 A  
BRANCH  19  21
HETATM   21  C   UNL     1     -10.233   6.728  67.424  1.00  0.00    -0.197 C  
HETATM   22  N   UNL     1      -9.831   6.688  68.760  1.00  0.00    -0.136 N  
HETATM   23  C   UNL     1     -10.800   6.237  69.774  1.00  0.00    -0.336 C  
HETATM   24  O   UNL     1     -11.355   6.350  67.076  1.00  0.00    -0.314 OA 
HETATM   25  C   UNL     1     -10.223   5.098  70.629  1.00  0.00    -0.256 C  
HETATM   26  N   UNL     1      -8.919   5.470  71.195  1.00  0.00    -0.140 N  
HETATM   27  C   UNL     1      -7.944   5.929  70.205  1.00  0.00    -0.101 C  
HETATM   28  C   UNL     1      -8.695   5.299  72.553  1.00  0.00    -0.120 C  
HETATM   29  C   UNL     1      -8.517   7.039  69.314  1.00  0.00    -0.133 C  
HETATM   30  O   UNL     1      -9.561   4.889  73.319  1.00  0.00    -0.129 OA 
BRANCH  28  31
HETATM   31  C   UNL     1      -7.357   5.675  73.108  1.00  0.00    -0.095 C  
HETATM   32  C   UNL     1      -7.014   7.140  73.266  1.00  0.00    -0.072 C  
HETATM   33  C   UNL     1      -7.243   6.296  74.483  1.00  0.00    -0.093 C  
ENDBRANCH  28  31
ENDBRANCH  19  21
ENDBRANCH  13  14
ENDBRANCH   6  13
TORSDOF 4
ENDMDL
MODEL      163
REMARK 921   NORMALIZED FREE ENERGY PREDICTED BY IDOCK:   -5.47 KCAL/MOL
REMARK 922        TOTAL FREE ENERGY PREDICTED BY IDOCK:   -7.49 KCAL/MOL
REMARK 923 INTER-LIGAND FREE ENERGY PREDICTED BY IDOCK:   -6.42 KCAL/MOL
REMARK 924 INTRA-LIGAND FREE ENERGY PREDICTED BY IDOCK:   -1.07 KCAL/MOL
REMARK 927      BINDING AFFINITY PREDICTED BY RF-SCORE:    0.00 PKD
ROOT
HETATM    1  O   UNL     1      -7.223  18.943  65.175  1.00  0.00    -0.418 OA 
HETATM    2  C   UNL     1      -7.214  17.926  66.080  1.00  0.00    -0.303 A  
HETATM    3  H   UNL     1      -8.018  19.463  65.184  1.00  0.00     0.000 HD 
HETATM    4  N   UNL     1      -6.089  17.191  66.066  1.00  0.00    -0.165 NA 
HETATM    5  N   UNL     1      -5.978  16.144  66.921  1.00  0.00    -0.309 NA 
HETATM    6  C   UNL     1      -6.989  15.852  67.780  1.00  0.00    -0.149 A  
HETATM    7  C   UNL     1      -8.178  16.621  67.830  1.00  0.00    -0.183 A  
HETATM    8  C   UNL     1     -10.511  18.238  67.794  1.00  0.00    -0.430 A  
HETATM    9  C   UNL     1      -9.261  16.392  68.717  1.00  0.00    -0.239 A  
HETATM   10  C   UNL     1      -8.293  17.700  66.928  1.00  0.00    -0.258 A  
HETATM   11  C   UNL     1     -10.407  17.192  68.702  1.00  0.00    -0.359 A  
HETATM   12  C   UNL     1      -9.461  18.490  66.914  1.00  0.00    -0.300 A  
ENDROOT
BRANCH   6  13
HETATM   13  C   UNL     1      -6.812  14.648  68.680  1.00  0.00    -0.094 C  
BRANCH  13  14
HETATM   14  C   UNL     1      -7.290  13.305  68.163  1.00  0.00    -0.120 A  
HETATM   15  C   UNL     1      -8.037  10.705  67.443  1.00  0.00    -0.112 A  
HETATM   16  C   UNL     1      -6.485  12.553  67.296  1.00  0.00    -0.124 A  
HETATM   17  C   UNL     1      -8.521  12.768  68.580  1.00  0.00     0.050 A  
HETATM   18  F   UNL     1      -8.281   9.413  67.180  1.00  0.00    -0.109 F  
HETATM   19  C   UNL     1      -8.919  11.470  68.200  1.00  0.00    -0.172 A  
HETATM   20  C   UNL     1      -6.854  11.254  66.948  1.00  0.00    -0.134 A  
BRANCH  19  21
HETATM   21  C   UNL     1     -10.210  10.963  68.732  1.00  0.00    -0.196 C  
HETATM   22  N   UNL     1     -10.280  10.098  69.825  1.00  0.00    -0.246 N  
HETATM   23  C   UNL     1     -11.605   9.630  70.268  1.00  0.00    -0.198 C  
HETATM   24  O   UNL     1     -11.221  11.299  68.108  1.00  0.00    -0.239 OA 
HETATM   25  C   UNL     1     -11.655   8.096  70.350  1.00  0.00    -0.060 C  
HETATM   26  N   UNL     1     -10.550   7.574  71.166  1.00  0.00    -0.221 N  
HETATM   27  C   UNL     1      -9.225   8.035  70.747  1.00  0.00    -0.157 C  
HETATM   28  C   UNL     1     -10.824   6.669  72.180  1.00  0.00    -0.229 C  
HETATM   29  C   UNL     1      -9.168   9.563  70.620  1.00  0.00    -0.180 C  
HETATM   30  O   UNL     1     -11.965   6.315  72.459  1.00  0.00    -0.223 OA 
BRANCH  28  31
HETATM   31  C   UNL     1      -9.684   6.142  72.994  1.00  0.00    -0.160 C  
HETATM   32  C   UNL     1      -9.980   5.427  74.294  1.00  0.00    -0.240 C  
HETATM   33  C   UNL     1      -9.457   4.651  73.122  1.00  0.00    -0.140 C  
ENDBRANCH  28  31
ENDBRANCH  19  21
ENDBRANCH  13  14
ENDBRANCH   6  13
TORSDOF 4
ENDMDL
MODEL      164
REMARK 921   NORMALIZED FREE ENERGY PREDICTED BY IDOCK:   -5.43 KCAL/MOL
REMARK 922        TOTAL FREE ENERGY PREDICTED BY IDOCK:   -7.45 KCAL/MOL
REMARK 923 INTER-LIGAND FREE ENERGY PREDICTED BY IDOCK:   -6.27 KCAL/MOL
REMARK 924 INTRA-LIGAND FREE ENERGY PREDICTED BY IDOCK:   -1.17 KCAL/MOL
REMARK 927      BINDING AFFINITY PREDICTED BY RF-SCORE:    0.00 PKD
ROOT
HETATM    1  O   UNL     1     -10.715   4.837  65.138  1.00  0.00    -0.500 OA 
HETATM    2  C   UNL     1      -9.866   4.574  66.170  1.00  0.00    -0.230 A  
HETATM    3  H   UNL     1     -10.749   5.752  64.888  1.00  0.00     0.000 HD 
HETATM    4  N   UNL     1      -9.819   3.279  66.524  1.00  0.00     0.119 NA 
HETATM    5  N   UNL     1      -9.012   2.908  67.549  1.00  0.00    -0.147 NA 
HETATM    6  C   UNL     1      -8.262   3.834  68.200  1.00  0.00    -0.083 A  
HETATM    7  C   UNL     1      -8.277   5.203  67.836  1.00  0.00    -0.098 A  
HETATM    8  C   UNL     1      -8.435   7.914  67.009  1.00  0.00    -0.124 A  
HETATM    9  C   UNL     1      -7.502   6.219  68.450  1.00  0.00    -0.088 A  
HETATM   10  C   UNL     1      -9.129   5.586  66.778  1.00  0.00    -0.118 A  
HETATM   11  C   UNL     1      -7.577   7.554  68.039  1.00  0.00    -0.110 A  
HETATM   12  C   UNL     1      -9.205   6.937  66.382  1.00  0.00    -0.186 A  
ENDROOT
BRANCH   6  13
HETATM   13  C   UNL     1      -7.412   3.354  69.357  1.00  0.00    -0.048 C  
BRANCH  13  14
HETATM   14  C   UNL     1      -7.865   3.713  70.760  1.00  0.00    -0.050 A  
HETATM   15  C   UNL     1      -8.584   4.646  73.300  1.00  0.00    -0.102 A  
HETATM   16  C   UNL     1      -7.007   3.522  71.851  1.00  0.00    -0.030 A  
HETATM   17  C   UNL     1      -9.129   4.289  70.984  1.00  0.00    -0.181 A  
HETATM   18  F   UNL     1      -8.821   5.192  74.500  1.00  0.00    -0.110 F  
HETATM   19  C   UNL     1      -9.511   4.735  72.265  1.00  0.00    -0.174 A  
HETATM   20  C   UNL     1      -7.363   3.998  73.113  1.00  0.00    -0.069 A  
BRANCH  19  21
HETATM   21  C   UNL     1     -10.842   5.381  72.400  1.00  0.00    -0.241 C  
HETATM   22  N   UNL     1     -11.192   6.529  71.688  1.00  0.00    -0.257 N  
HETATM   23  C   UNL     1     -12.528   7.112  71.903  1.00  0.00    -0.306 C  
HETATM   24  O   UNL     1     -11.604   4.880  73.232  1.00  0.00    -0.336 OA 
HETATM   25  C   UNL     1     -12.434   8.602  72.266  1.00  0.00    -0.395 C  
HETATM   26  N   UNL     1     -11.630   9.337  71.280  1.00  0.00    -0.319 N  
HETATM   27  C   UNL     1     -10.302   8.770  71.046  1.00  0.00    -0.233 C  
HETATM   28  C   UNL     1     -12.138  10.501  70.723  1.00  0.00    -0.370 C  
HETATM   29  C   UNL     1     -10.373   7.271  70.721  1.00  0.00    -0.202 C  
HETATM   30  O   UNL     1     -13.259  10.926  70.987  1.00  0.00    -0.270 OA 
BRANCH  28  31
HETATM   31  C   UNL     1     -11.300  11.241  69.728  1.00  0.00    -0.348 C  
HETATM   32  C   UNL     1     -11.362  10.835  68.272  1.00  0.00    -0.376 C  
HETATM   33  C   UNL     1     -11.946  12.147  68.703  1.00  0.00    -0.290 C  
ENDBRANCH  28  31
ENDBRANCH  19  21
ENDBRANCH  13  14
ENDBRANCH   6  13
TORSDOF 4
ENDMDL
MODEL      165
REMARK 921   NORMALIZED FREE ENERGY PREDICTED BY IDOCK:   -5.41 KCAL/MOL
REMARK 922        TOTAL FREE ENERGY PREDICTED BY IDOCK:   -7.42 KCAL/MOL
REMARK 923 INTER-LIGAND FREE ENERGY PREDICTED BY IDOCK:   -6.87 KCAL/MOL
REMARK 924 INTRA-LIGAND FREE ENERGY PREDICTED BY IDOCK:   -0.55 KCAL/MOL
REMARK 927      BINDING AFFINITY PREDICTED BY RF-SCORE:    0.00 PKD
ROOT
HETATM    1  O   UNL     1      -6.830   7.909  65.248  1.00  0.00    -0.054 OA 
HETATM    2  C   UNL     1      -7.845   7.335  65.952  1.00  0.00    -0.106 A  
HETATM    3  H   UNL     1      -6.126   7.312  65.027  1.00  0.00     0.000 HD 
HETATM    4  N   UNL     1      -8.841   8.181  66.265  1.00  0.00    -0.155 NA 
HETATM    5  N   UNL     1      -9.898   7.716  66.976  1.00  0.00    -0.194 NA 
HETATM    6  C   UNL     1      -9.946   6.413  67.358  1.00  0.00    -0.138 A  
HETATM    7  C   UNL     1      -8.920   5.495  67.026  1.00  0.00    -0.113 A  
HETATM    8  C   UNL     1      -6.773   3.781  66.309  1.00  0.00    -0.049 A  
HETATM    9  C   UNL     1      -8.915   4.118  67.366  1.00  0.00    -0.140 A  
HETATM   10  C   UNL     1      -7.816   5.988  66.298  1.00  0.00    -0.104 A  
HETATM   11  C   UNL     1      -7.860   3.274  67.008  1.00  0.00    -0.079 A  
HETATM   12  C   UNL     1      -6.751   5.129  65.956  1.00  0.00    -0.053 A  
ENDROOT
BRANCH   6  13
HETATM   13  C   UNL     1     -11.138   5.972  68.180  1.00  0.00    -0.246 C  
BRANCH  13  14
HETATM   14  C   UNL     1     -11.124   6.281  69.664  1.00  0.00    -0.479 A  
HETATM   15  C   UNL     1     -10.874   7.041  72.347  1.00  0.00    -0.240 A  
HETATM   16  C   UNL     1     -10.295   5.555  70.530  1.00  0.00    -0.342 A  
HETATM   17  C   UNL     1     -11.899   7.330  70.190  1.00  0.00    -0.029 A  
HETATM   18  F   UNL     1     -10.618   7.446  73.599  1.00  0.00    -0.377 F  
HETATM   19  C   UNL     1     -11.802   7.702  71.547  1.00  0.00    -0.323 A  
HETATM   20  C   UNL     1     -10.164   5.943  71.863  1.00  0.00    -0.246 A  
BRANCH  19  21
HETATM   21  C   UNL     1     -12.618   8.857  72.003  1.00  0.00    -0.394 C  
HETATM   22  N   UNL     1     -12.721  10.037  71.266  1.00  0.00    -0.367 N  
HETATM   23  C   UNL     1     -13.536  11.138  71.810  1.00  0.00    -0.134 C  
HETATM   24  O   UNL     1     -13.148   8.738  73.111  1.00  0.00    -0.200 OA 
HETATM   25  C   UNL     1     -12.734  12.447  71.868  1.00  0.00    -0.089 C  
HETATM   26  N   UNL     1     -12.132  12.758  70.564  1.00  0.00    -0.349 N  
HETATM   27  C   UNL     1     -11.325  11.673  70.002  1.00  0.00    -0.091 C  
HETATM   28  C   UNL     1     -12.305  14.021  70.020  1.00  0.00    -0.337 C  
HETATM   29  C   UNL     1     -12.097  10.347  69.973  1.00  0.00    -0.222 C  
HETATM   30  O   UNL     1     -12.983  14.888  70.564  1.00  0.00    -0.347 OA 
BRANCH  28  31
HETATM   31  C   UNL     1     -11.676  14.321  68.696  1.00  0.00    -0.380 C  
HETATM   32  C   UNL     1     -11.655  15.751  68.202  1.00  0.00    -0.259 C  
HETATM   33  C   UNL     1     -10.375  15.091  68.620  1.00  0.00    -0.236 C  
ENDBRANCH  28  31
ENDBRANCH  19  21
ENDBRANCH  13  14
ENDBRANCH   6  13
TORSDOF 4
ENDMDL
MODEL      166
REMARK 921   NORMALIZED FREE ENERGY PREDICTED BY IDOCK:   -5.36 KCAL/MOL
REMARK 922        TOTAL FREE ENERGY PREDICTED BY IDOCK:   -7.36 KCAL/MOL
REMARK 923 INTER-LIGAND FREE ENERGY PREDICTED BY IDOCK:   -6.81 KCAL/MOL
REMARK 924 INTRA-LIGAND FREE ENERGY PREDICTED BY IDOCK:   -0.56 KCAL/MOL
REMARK 927      BINDING AFFINITY PREDICTED BY RF-SCORE:    0.00 PKD
ROOT
HETATM    1  O   UNL     1     -11.462  11.217  63.210  1.00  0.00    -0.807 OA 
HETATM    2  C   UNL     1     -11.222  11.382  64.541  1.00  0.00    -0.180 A  
HETATM    3  H   UNL     1     -10.835  10.654  62.771  1.00  0.00     0.000 HD 
HETATM    4  N   UNL     1     -12.107  12.178  65.163  1.00  0.00    -0.420 NA 
HETATM    5  N   UNL     1     -11.956  12.420  66.488  1.00  0.00    -0.605 NA 
HETATM    6  C   UNL     1     -10.927  11.857  67.173  1.00  0.00    -0.269 A  
HETATM    7  C   UNL     1      -9.989  10.998  66.548  1.00  0.00    -0.253 A  
HETATM    8  C   UNL     1      -8.175   9.320  65.152  1.00  0.00    -0.143 A  
HETATM    9  C   UNL     1      -8.908  10.355  67.204  1.00  0.00    -0.141 A  
HETATM   10  C   UNL     1     -10.144  10.763  65.166  1.00  0.00    -0.363 A  
HETATM   11  C   UNL     1      -8.018   9.525  66.516  1.00  0.00    -0.112 A  
HETATM   12  C   UNL     1      -9.230   9.934  64.481  1.00  0.00    -0.315 A  
ENDROOT
BRANCH   6  13
HETATM   13  C   UNL     1     -10.799  12.199  68.642  1.00  0.00    -0.268 C  
BRANCH  13  14
HETATM   14  C   UNL     1     -10.942  11.069  69.643  1.00  0.00    -0.286 A  
HETATM   15  C   UNL     1     -11.228   8.799  71.257  1.00  0.00    -0.284 A  
HETATM   16  C   UNL     1     -12.211  10.673  70.088  1.00  0.00    -0.398 A  
HETATM   17  C   UNL     1      -9.813  10.366  70.104  1.00  0.00     0.156 A  
HETATM   18  F   UNL     1     -11.429   7.648  71.914  1.00  0.00    -0.254 F  
HETATM   19  C   UNL     1      -9.946   9.239  70.941  1.00  0.00    -0.367 A  
HETATM   20  C   UNL     1     -12.351   9.535  70.882  1.00  0.00    -0.305 A  
BRANCH  19  21
HETATM   21  C   UNL     1      -8.703   8.526  71.335  1.00  0.00    -0.185 C  
HETATM   22  N   UNL     1      -8.022   7.675  70.464  1.00  0.00    -0.098 N  
HETATM   23  C   UNL     1      -6.809   6.993  70.950  1.00  0.00    -0.054 C  
HETATM   24  O   UNL     1      -8.342   8.677  72.505  1.00  0.00    -0.364 OA 
HETATM   25  C   UNL     1      -6.900   5.475  70.733  1.00  0.00    -0.052 C  
HETATM   26  N   UNL     1      -7.224   5.158  69.336  1.00  0.00    -0.056 N  
HETATM   27  C   UNL     1      -8.421   5.833  68.830  1.00  0.00    -0.107 C  
HETATM   28  C   UNL     1      -6.451   4.232  68.652  1.00  0.00    -0.037 C  
HETATM   29  C   UNL     1      -8.366   7.347  69.074  1.00  0.00    -0.126 C  
HETATM   30  O   UNL     1      -5.470   3.692  69.154  1.00  0.00    -0.012 OA 
BRANCH  28  31
HETATM   31  C   UNL     1      -6.803   3.917  67.232  1.00  0.00    -0.051 C  
HETATM   32  C   UNL     1      -6.108   4.671  66.120  1.00  0.00    -0.031 C  
HETATM   33  C   UNL     1      -5.808   3.217  66.331  1.00  0.00    -0.023 C  
ENDBRANCH  28  31
ENDBRANCH  19  21
ENDBRANCH  13  14
ENDBRANCH   6  13
TORSDOF 4
ENDMDL
MODEL      167
REMARK 921   NORMALIZED FREE ENERGY PREDICTED BY IDOCK:   -5.36 KCAL/MOL
REMARK 922        TOTAL FREE ENERGY PREDICTED BY IDOCK:   -7.36 KCAL/MOL
REMARK 923 INTER-LIGAND FREE ENERGY PREDICTED BY IDOCK:   -6.26 KCAL/MOL
REMARK 924 INTRA-LIGAND FREE ENERGY PREDICTED BY IDOCK:   -1.10 KCAL/MOL
REMARK 927      BINDING AFFINITY PREDICTED BY RF-SCORE:    0.00 PKD
ROOT
HETATM    1  O   UNL     1     -12.867  12.091  64.439  1.00  0.00    -0.506 OA 
HETATM    2  C   UNL     1     -12.347  13.095  65.198  1.00  0.00    -0.473 A  
HETATM    3  H   UNL     1     -12.918  11.254  64.886  1.00  0.00     0.000 HD 
HETATM    4  N   UNL     1     -12.275  14.278  64.565  1.00  0.00    -0.539 NA 
HETATM    5  N   UNL     1     -11.763  15.346  65.225  1.00  0.00    -0.061 NA 
HETATM    6  C   UNL     1     -11.336  15.217  66.508  1.00  0.00    -0.168 A  
HETATM    7  C   UNL     1     -11.418  13.987  67.207  1.00  0.00    -0.372 A  
HETATM    8  C   UNL     1     -11.620  11.451  68.465  1.00  0.00    -0.384 A  
HETATM    9  C   UNL     1     -11.018  13.785  68.552  1.00  0.00    -0.283 A  
HETATM   10  C   UNL     1     -11.938  12.877  66.510  1.00  0.00    -0.447 A  
HETATM   11  C   UNL     1     -11.123  12.537  69.173  1.00  0.00    -0.254 A  
HETATM   12  C   UNL     1     -12.026  11.619  67.143  1.00  0.00     0.108 A  
ENDROOT
BRANCH   6  13
HETATM   13  C   UNL     1     -10.743  16.442  67.171  1.00  0.00    -0.233 C  
BRANCH  13  14
HETATM   14  C   UNL     1      -9.239  16.626  67.092  1.00  0.00    -0.233 A  
HETATM   15  C   UNL     1      -6.488  17.132  67.193  1.00  0.00    -0.178 A  
HETATM   16  C   UNL     1      -8.695  17.714  66.396  1.00  0.00    -0.263 A  
HETATM   17  C   UNL     1      -8.369  15.742  67.755  1.00  0.00    -0.163 A  
HETATM   18  F   UNL     1      -5.203  17.493  67.322  1.00  0.00    -0.117 F  
HETATM   19  C   UNL     1      -6.979  15.972  67.787  1.00  0.00    -0.163 A  
HETATM   20  C   UNL     1      -7.325  17.970  66.458  1.00  0.00    -0.273 A  
BRANCH  19  21
HETATM   21  C   UNL     1      -6.141  15.016  68.556  1.00  0.00    -0.096 C  
HETATM   22  N   UNL     1      -6.178  13.640  68.331  1.00  0.00    -0.085 N  
HETATM   23  C   UNL     1      -5.327  12.767  69.159  1.00  0.00    -0.069 C  
HETATM   24  O   UNL     1      -5.454  15.505  69.458  1.00  0.00    -0.102 OA 
HETATM   25  C   UNL     1      -6.151  11.650  69.819  1.00  0.00    -0.131 C  
HETATM   26  N   UNL     1      -6.942  10.916  68.821  1.00  0.00    -0.072 N  
HETATM   27  C   UNL     1      -7.788  11.766  67.982  1.00  0.00    -0.134 C  
HETATM   28  C   UNL     1      -6.886   9.531  68.797  1.00  0.00    -0.052 C  
HETATM   29  C   UNL     1      -6.990  12.912  67.347  1.00  0.00    -0.124 C  
HETATM   30  O   UNL     1      -6.163   8.885  69.550  1.00  0.00    -0.042 OA 
BRANCH  28  31
HETATM   31  C   UNL     1      -7.706   8.801  67.780  1.00  0.00    -0.102 C  
HETATM   32  C   UNL     1      -7.970   7.324  67.975  1.00  0.00    -0.119 C  
HETATM   33  C   UNL     1      -9.093   8.306  68.124  1.00  0.00    -0.134 C  
ENDBRANCH  28  31
ENDBRANCH  19  21
ENDBRANCH  13  14
ENDBRANCH   6  13
TORSDOF 4
ENDMDL
MODEL      168
REMARK 921   NORMALIZED FREE ENERGY PREDICTED BY IDOCK:   -5.36 KCAL/MOL
REMARK 922        TOTAL FREE ENERGY PREDICTED BY IDOCK:   -7.36 KCAL/MOL
REMARK 923 INTER-LIGAND FREE ENERGY PREDICTED BY IDOCK:   -6.61 KCAL/MOL
REMARK 924 INTRA-LIGAND FREE ENERGY PREDICTED BY IDOCK:   -0.75 KCAL/MOL
REMARK 927      BINDING AFFINITY PREDICTED BY RF-SCORE:    0.00 PKD
ROOT
HETATM    1  O   UNL     1     -12.628  14.627  67.487  1.00  0.00    -0.464 OA 
HETATM    2  C   UNL     1     -11.564  13.823  67.212  1.00  0.00    -0.361 A  
HETATM    3  H   UNL     1     -13.287  14.645  66.803  1.00  0.00     0.000 HD 
HETATM    4  N   UNL     1     -10.632  13.798  68.180  1.00  0.00    -0.247 NA 
HETATM    5  N   UNL     1      -9.524  13.036  68.005  1.00  0.00    -0.211 NA 
HETATM    6  C   UNL     1      -9.366  12.307  66.870  1.00  0.00    -0.210 A  
HETATM    7  C   UNL     1     -10.341  12.299  65.842  1.00  0.00    -0.280 A  
HETATM    8  C   UNL     1     -12.369  12.406  63.858  1.00  0.00    -0.602 A  
HETATM    9  C   UNL     1     -10.258  11.543  64.644  1.00  0.00    -0.334 A  
HETATM   10  C   UNL     1     -11.485  13.105  66.023  1.00  0.00    -0.370 A  
HETATM   11  C   UNL     1     -11.260  11.593  63.670  1.00  0.00    -0.497 A  
HETATM   12  C   UNL     1     -12.482  13.157  65.026  1.00  0.00    -0.516 A  
ENDROOT
BRANCH   6  13
HETATM   13  C   UNL     1      -8.089  11.509  66.727  1.00  0.00    -0.158 C  
BRANCH  13  14
HETATM   14  C   UNL     1      -7.391  11.062  67.997  1.00  0.00    -0.088 A  
HETATM   15  C   UNL     1      -6.270  10.439  70.485  1.00  0.00    -0.113 A  
HETATM   16  C   UNL     1      -6.218  11.699  68.422  1.00  0.00    -0.050 A  
HETATM   17  C   UNL     1      -7.933  10.037  68.795  1.00  0.00    -0.096 A  
HETATM   18  F   UNL     1      -5.774  10.275  71.720  1.00  0.00    -0.039 F  
HETATM   19  C   UNL     1      -7.359   9.697  70.036  1.00  0.00    -0.130 A  
HETATM   20  C   UNL     1      -5.668  11.395  69.668  1.00  0.00    -0.074 A  
BRANCH  19  21
HETATM   21  C   UNL     1      -8.029   8.641  70.838  1.00  0.00    -0.122 C  
HETATM   22  N   UNL     1      -7.965   7.289  70.497  1.00  0.00    -0.102 N  
HETATM   23  C   UNL     1      -8.681   6.315  71.339  1.00  0.00    -0.135 C  
HETATM   24  O   UNL     1      -8.706   9.035  71.791  1.00  0.00    -0.350 OA 
HETATM   25  C   UNL     1      -9.616   5.433  70.499  1.00  0.00    -0.175 C  
HETATM   26  N   UNL     1      -8.894   4.814  69.378  1.00  0.00    -0.082 N  
HETATM   27  C   UNL     1      -8.169   5.764  68.533  1.00  0.00    -0.108 C  
HETATM   28  C   UNL     1      -9.006   3.447  69.171  1.00  0.00    -0.122 C  
HETATM   29  C   UNL     1      -7.260   6.682  69.361  1.00  0.00    -0.090 C  
HETATM   30  O   UNL     1      -9.652   2.716  69.916  1.00  0.00    -0.111 OA 
BRANCH  28  31
HETATM   31  C   UNL     1      -8.271   2.837  68.019  1.00  0.00    -0.085 C  
HETATM   32  C   UNL     1      -8.795   1.553  67.414  1.00  0.00    -0.136 C  
HETATM   33  C   UNL     1      -8.882   2.831  66.635  1.00  0.00    -0.154 C  
ENDBRANCH  28  31
ENDBRANCH  19  21
ENDBRANCH  13  14
ENDBRANCH   6  13
TORSDOF 4
ENDMDL
MODEL      169
REMARK 921   NORMALIZED FREE ENERGY PREDICTED BY IDOCK:   -5.32 KCAL/MOL
REMARK 922        TOTAL FREE ENERGY PREDICTED BY IDOCK:   -7.32 KCAL/MOL
REMARK 923 INTER-LIGAND FREE ENERGY PREDICTED BY IDOCK:   -6.91 KCAL/MOL
REMARK 924 INTRA-LIGAND FREE ENERGY PREDICTED BY IDOCK:   -0.41 KCAL/MOL
REMARK 927      BINDING AFFINITY PREDICTED BY RF-SCORE:    0.00 PKD
ROOT
HETATM    1  O   UNL     1     -12.444  16.160  71.560  1.00  0.00    -0.575 OA 
HETATM    2  C   UNL     1     -12.243  15.036  70.817  1.00  0.00    -0.329 A  
HETATM    3  H   UNL     1     -12.213  16.966  71.113  1.00  0.00     0.000 HD 
HETATM    4  N   UNL     1     -12.568  13.896  71.450  1.00  0.00    -0.360 NA 
HETATM    5  N   UNL     1     -12.397  12.715  70.805  1.00  0.00    -0.353 NA 
HETATM    6  C   UNL     1     -11.909  12.692  69.538  1.00  0.00    -0.312 A  
HETATM    7  C   UNL     1     -11.576  13.879  68.839  1.00  0.00    -0.353 A  
HETATM    8  C   UNL     1     -10.926  16.339  67.581  1.00  0.00    -0.245 A  
HETATM    9  C   UNL     1     -11.089  13.933  67.509  1.00  0.00    -0.302 A  
HETATM   10  C   UNL     1     -11.743  15.103  69.521  1.00  0.00    -0.351 A  
HETATM   11  C   UNL     1     -10.774  15.146  66.888  1.00  0.00    -0.308 A  
HETATM   12  C   UNL     1     -11.408  16.318  68.888  1.00  0.00    -0.317 A  
ENDROOT
BRANCH   6  13
HETATM   13  C   UNL     1     -11.711  11.337  68.893  1.00  0.00    -0.409 C  
BRANCH  13  14
HETATM   14  C   UNL     1     -10.393  10.627  69.137  1.00  0.00    -0.242 A  
HETATM   15  C   UNL     1      -7.943   9.471  69.842  1.00  0.00    -0.149 A  
HETATM   16  C   UNL     1      -9.191  11.195  68.694  1.00  0.00    -0.173 A  
HETATM   17  C   UNL     1     -10.347   9.417  69.853  1.00  0.00    -0.252 A  
HETATM   18  F   UNL     1      -6.747   9.036  70.264  1.00  0.00    -0.036 F  
HETATM   19  C   UNL     1      -9.119   8.812  70.188  1.00  0.00    -0.176 A  
HETATM   20  C   UNL     1      -7.971  10.623  69.056  1.00  0.00    -0.140 A  
BRANCH  19  21
HETATM   21  C   UNL     1      -9.164   7.564  70.993  1.00  0.00    -0.152 C  
HETATM   22  N   UNL     1      -8.802   6.323  70.468  1.00  0.00    -0.143 N  
HETATM   23  C   UNL     1      -8.900   5.136  71.336  1.00  0.00    -0.133 C  
HETATM   24  O   UNL     1      -9.605   7.677  72.140  1.00  0.00    -0.151 OA 
HETATM   25  C   UNL     1      -9.735   4.029  70.674  1.00  0.00    -0.196 C  
HETATM   26  N   UNL     1      -9.237   3.725  69.325  1.00  0.00    -0.145 N  
HETATM   27  C   UNL     1      -9.124   4.892  68.450  1.00  0.00    -0.114 C  
HETATM   28  C   UNL     1      -8.989   2.406  68.975  1.00  0.00    -0.113 C  
HETATM   29  C   UNL     1      -8.326   6.024  69.111  1.00  0.00    -0.114 C  
HETATM   30  O   UNL     1      -9.127   1.476  69.763  1.00  0.00    -0.072 OA 
BRANCH  28  31
HETATM   31  C   UNL     1      -8.491   2.116  67.594  1.00  0.00    -0.094 C  
HETATM   32  C   UNL     1      -7.362   2.952  67.031  1.00  0.00    -0.062 C  
HETATM   33  C   UNL     1      -7.118   1.516  67.383  1.00  0.00    -0.038 C  
ENDBRANCH  28  31
ENDBRANCH  19  21
ENDBRANCH  13  14
ENDBRANCH   6  13
TORSDOF 4
ENDMDL
MODEL      170
REMARK 921   NORMALIZED FREE ENERGY PREDICTED BY IDOCK:   -5.32 KCAL/MOL
REMARK 922        TOTAL FREE ENERGY PREDICTED BY IDOCK:   -7.31 KCAL/MOL
REMARK 923 INTER-LIGAND FREE ENERGY PREDICTED BY IDOCK:   -7.06 KCAL/MOL
REMARK 924 INTRA-LIGAND FREE ENERGY PREDICTED BY IDOCK:   -0.25 KCAL/MOL
REMARK 927      BINDING AFFINITY PREDICTED BY RF-SCORE:    0.00 PKD
ROOT
HETATM    1  O   UNL     1     -12.303  11.685  62.951  1.00  0.00    -0.923 OA 
HETATM    2  C   UNL     1     -12.128  12.544  63.993  1.00  0.00    -0.473 A  
HETATM    3  H   UNL     1     -11.922  10.826  63.090  1.00  0.00     0.000 HD 
HETATM    4  N   UNL     1     -12.667  13.760  63.796  1.00  0.00    -0.601 NA 
HETATM    5  N   UNL     1     -12.542  14.698  64.767  1.00  0.00    -0.515 NA 
HETATM    6  C   UNL     1     -11.887  14.407  65.921  1.00  0.00    -0.367 A  
HETATM    7  C   UNL     1     -11.326  13.128  66.163  1.00  0.00    -0.343 A  
HETATM    8  C   UNL     1     -10.231  10.530  66.493  1.00  0.00    -0.288 A  
HETATM    9  C   UNL     1     -10.653  12.745  67.351  1.00  0.00    -0.241 A  
HETATM   10  C   UNL     1     -11.446  12.161  65.144  1.00  0.00    -0.376 A  
HETATM   11  C   UNL     1     -10.119  11.463  67.514  1.00  0.00    -0.205 A  
HETATM   12  C   UNL     1     -10.890  10.876  65.315  1.00  0.00    -0.123 A  
ENDROOT
BRANCH   6  13
HETATM   13  C   UNL     1     -11.754  15.513  66.945  1.00  0.00     0.218 C  
BRANCH  13  14
HETATM   14  C   UNL     1     -10.494  16.356  66.912  1.00  0.00    -0.289 A  
HETATM   15  C   UNL     1      -8.278  18.058  67.086  1.00  0.00    -0.221 A  
HETATM   16  C   UNL     1     -10.458  17.547  66.174  1.00  0.00    -0.288 A  
HETATM   17  C   UNL     1      -9.360  15.987  67.658  1.00  0.00    -0.214 A  
HETATM   18  F   UNL     1      -7.305  18.967  67.241  1.00  0.00    -0.218 F  
HETATM   19  C   UNL     1      -8.228  16.825  67.729  1.00  0.00    -0.190 A  
HETATM   20  C   UNL     1      -9.358  18.398  66.271  1.00  0.00    -0.231 A  
BRANCH  19  21
HETATM   21  C   UNL     1      -7.097  16.381  68.584  1.00  0.00    -0.163 C  
HETATM   22  N   UNL     1      -6.708  15.044  68.675  1.00  0.00    -0.090 N  
HETATM   23  C   UNL     1      -5.588  14.696  69.567  1.00  0.00    -0.092 C  
HETATM   24  O   UNL     1      -6.560  17.258  69.267  1.00  0.00    -0.229 OA 
HETATM   25  C   UNL     1      -5.985  13.585  70.552  1.00  0.00    -0.133 C  
HETATM   26  N   UNL     1      -6.548  12.427  69.844  1.00  0.00     0.027 N  
HETATM   27  C   UNL     1      -7.656  12.752  68.945  1.00  0.00     0.057 C  
HETATM   28  C   UNL     1      -6.058  11.159  70.119  1.00  0.00    -0.146 C  
HETATM   29  C   UNL     1      -7.291  13.889  67.981  1.00  0.00    -0.141 C  
HETATM   30  O   UNL     1      -5.135  10.964  70.905  1.00  0.00    -0.082 OA 
BRANCH  28  31
HETATM   31  C   UNL     1      -6.650   9.991  69.395  1.00  0.00    -0.053 C  
HETATM   32  C   UNL     1      -6.399   8.596  69.925  1.00  0.00    -0.038 C  
HETATM   33  C   UNL     1      -7.772   9.190  70.017  1.00  0.00    -0.088 C  
ENDBRANCH  28  31
ENDBRANCH  19  21
ENDBRANCH  13  14
ENDBRANCH   6  13
TORSDOF 4
ENDMDL
MODEL      171
REMARK 921   NORMALIZED FREE ENERGY PREDICTED BY IDOCK:   -5.32 KCAL/MOL
REMARK 922        TOTAL FREE ENERGY PREDICTED BY IDOCK:   -7.31 KCAL/MOL
REMARK 923 INTER-LIGAND FREE ENERGY PREDICTED BY IDOCK:   -7.13 KCAL/MOL
REMARK 924 INTRA-LIGAND FREE ENERGY PREDICTED BY IDOCK:   -0.18 KCAL/MOL
REMARK 927      BINDING AFFINITY PREDICTED BY RF-SCORE:    0.00 PKD
ROOT
HETATM    1  O   UNL     1      -6.581  16.498  69.591  1.00  0.00    -0.218 OA 
HETATM    2  C   UNL     1      -6.640  15.217  69.134  1.00  0.00    -0.130 A  
HETATM    3  H   UNL     1      -7.244  17.072  69.224  1.00  0.00     0.000 HD 
HETATM    4  N   UNL     1      -5.703  14.406  69.653  1.00  0.00    -0.095 NA 
HETATM    5  N   UNL     1      -5.664  13.110  69.257  1.00  0.00    -0.079 NA 
HETATM    6  C   UNL     1      -6.564  12.642  68.355  1.00  0.00    -0.081 A  
HETATM    7  C   UNL     1      -7.576  13.469  67.806  1.00  0.00    -0.163 A  
HETATM    8  C   UNL     1      -9.526  15.253  66.773  1.00  0.00    -0.264 A  
HETATM    9  C   UNL     1      -8.564  13.044  66.882  1.00  0.00    -0.126 A  
HETATM   10  C   UNL     1      -7.602  14.820  68.210  1.00  0.00    -0.115 A  
HETATM   11  C   UNL     1      -9.528  13.923  66.378  1.00  0.00    -0.268 A  
HETATM   12  C   UNL     1      -8.571  15.699  67.683  1.00  0.00    -0.177 A  
ENDROOT
BRANCH   6  13
HETATM   13  C   UNL     1      -6.439  11.194  67.932  1.00  0.00    -0.058 C  
BRANCH  13  14
HETATM   14  C   UNL     1      -7.707  10.465  67.531  1.00  0.00    -0.094 A  
HETATM   15  C   UNL     1      -9.915   8.871  66.885  1.00  0.00    -0.247 A  
HETATM   16  C   UNL     1      -7.837   9.927  66.244  1.00  0.00    -0.108 A  
HETATM   17  C   UNL     1      -8.751  10.273  68.454  1.00  0.00    -0.129 A  
HETATM   18  F   UNL     1     -10.879   7.994  66.570  1.00  0.00    -0.322 F  
HETATM   19  C   UNL     1      -9.881   9.495  68.128  1.00  0.00    -0.177 A  
HETATM   20  C   UNL     1      -8.933   9.124  65.928  1.00  0.00    -0.231 A  
BRANCH  19  21
HETATM   21  C   UNL     1     -10.909   9.299  69.183  1.00  0.00    -0.133 C  
HETATM   22  N   UNL     1     -11.762  10.324  69.595  1.00  0.00    -0.200 N  
HETATM   23  C   UNL     1     -12.736  10.043  70.664  1.00  0.00    -0.206 C  
HETATM   24  O   UNL     1     -10.922   8.191  69.725  1.00  0.00    -0.225 OA 
HETATM   25  C   UNL     1     -12.621  11.065  71.806  1.00  0.00    -0.206 C  
HETATM   26  N   UNL     1     -12.699  12.440  71.294  1.00  0.00    -0.320 N  
HETATM   27  C   UNL     1     -11.745  12.738  70.225  1.00  0.00    -0.107 C  
HETATM   28  C   UNL     1     -13.580  13.334  71.883  1.00  0.00    -0.388 C  
HETATM   29  C   UNL     1     -11.817  11.703  69.094  1.00  0.00    -0.326 C  
HETATM   30  O   UNL     1     -14.338  13.013  72.793  1.00  0.00    -0.477 OA 
BRANCH  28  31
HETATM   31  C   UNL     1     -13.639  14.733  71.354  1.00  0.00    -0.493 C  
HETATM   32  C   UNL     1     -14.150  15.836  72.255  1.00  0.00    -0.453 C  
HETATM   33  C   UNL     1     -12.698  15.794  71.882  1.00  0.00    -0.516 C  
ENDBRANCH  28  31
ENDBRANCH  19  21
ENDBRANCH  13  14
ENDBRANCH   6  13
TORSDOF 4
ENDMDL
MODEL      172
REMARK 921   NORMALIZED FREE ENERGY PREDICTED BY IDOCK:   -5.26 KCAL/MOL
REMARK 922        TOTAL FREE ENERGY PREDICTED BY IDOCK:   -7.24 KCAL/MOL
REMARK 923 INTER-LIGAND FREE ENERGY PREDICTED BY IDOCK:   -6.35 KCAL/MOL
REMARK 924 INTRA-LIGAND FREE ENERGY PREDICTED BY IDOCK:   -0.89 KCAL/MOL
REMARK 927      BINDING AFFINITY PREDICTED BY RF-SCORE:    0.00 PKD
ROOT
HETATM    1  O   UNL     1     -11.643   8.497  71.325  1.00  0.00    -0.266 OA 
HETATM    2  C   UNL     1     -10.840   7.969  70.360  1.00  0.00    -0.247 A  
HETATM    3  H   UNL     1     -11.187   9.051  71.948  1.00  0.00     0.000 HD 
HETATM    4  N   UNL     1     -11.485   7.184  69.481  1.00  0.00    -0.021 NA 
HETATM    5  N   UNL     1     -10.778   6.597  68.483  1.00  0.00    -0.238 NA 
HETATM    6  C   UNL     1      -9.441   6.807  68.376  1.00  0.00    -0.126 A  
HETATM    7  C   UNL     1      -8.738   7.645  69.278  1.00  0.00    -0.136 A  
HETATM    8  C   UNL     1      -7.464   9.327  71.176  1.00  0.00    -0.045 A  
HETATM    9  C   UNL     1      -7.351   7.932  69.212  1.00  0.00    -0.082 A  
HETATM   10  C   UNL     1      -9.476   8.241  70.322  1.00  0.00    -0.164 A  
HETATM   11  C   UNL     1      -6.725   8.764  70.145  1.00  0.00    -0.040 A  
HETATM   12  C   UNL     1      -8.830   9.068  71.265  1.00  0.00    -0.259 A  
ENDROOT
BRANCH   6  13
HETATM   13  C   UNL     1      -8.710   6.092  67.260  1.00  0.00    -0.105 C  
BRANCH  13  14
HETATM   14  C   UNL     1      -8.012   6.943  66.217  1.00  0.00    -0.108 A  
HETATM   15  C   UNL     1      -6.798   8.304  64.093  1.00  0.00    -0.067 A  
HETATM   16  C   UNL     1      -6.654   6.744  65.935  1.00  0.00    -0.051 A  
HETATM   17  C   UNL     1      -8.723   7.909  65.480  1.00  0.00    -0.112 A  
HETATM   18  F   UNL     1      -6.209   8.826  63.008  1.00  0.00    -0.087 F  
HETATM   19  C   UNL     1      -8.112   8.620  64.428  1.00  0.00    -0.156 A  
HETATM   20  C   UNL     1      -6.055   7.415  64.869  1.00  0.00    -0.038 A  
BRANCH  19  21
HETATM   21  C   UNL     1      -8.953   9.581  63.668  1.00  0.00    -0.173 C  
HETATM   22  N   UNL     1      -9.443  10.757  64.237  1.00  0.00    -0.242 N  
HETATM   23  C   UNL     1     -10.288  11.639  63.413  1.00  0.00    -0.435 C  
HETATM   24  O   UNL     1      -9.251   9.246  62.519  1.00  0.00    -0.195 OA 
HETATM   25  C   UNL     1     -11.618  11.952  64.116  1.00  0.00    -0.351 C  
HETATM   26  N   UNL     1     -11.391  12.466  65.474  1.00  0.00    -0.332 N  
HETATM   27  C   UNL     1     -10.547  11.608  66.306  1.00  0.00    -0.258 C  
HETATM   28  C   UNL     1     -12.022  13.634  65.871  1.00  0.00    -0.405 C  
HETATM   29  C   UNL     1      -9.230  11.252  65.604  1.00  0.00    -0.213 C  
HETATM   30  O   UNL     1     -12.735  14.290  65.118  1.00  0.00    -0.596 OA 
BRANCH  28  31
HETATM   31  C   UNL     1     -11.786  14.136  67.261  1.00  0.00    -0.452 C  
HETATM   32  C   UNL     1     -10.400  14.607  67.644  1.00  0.00    -0.233 C  
HETATM   33  C   UNL     1     -11.513  15.603  67.512  1.00  0.00    -0.121 C  
ENDBRANCH  28  31
ENDBRANCH  19  21
ENDBRANCH  13  14
ENDBRANCH   6  13
TORSDOF 4
ENDMDL
MODEL      173
REMARK 921   NORMALIZED FREE ENERGY PREDICTED BY IDOCK:   -5.24 KCAL/MOL
REMARK 922        TOTAL FREE ENERGY PREDICTED BY IDOCK:   -7.22 KCAL/MOL
REMARK 923 INTER-LIGAND FREE ENERGY PREDICTED BY IDOCK:   -6.87 KCAL/MOL
REMARK 924 INTRA-LIGAND FREE ENERGY PREDICTED BY IDOCK:   -0.35 KCAL/MOL
REMARK 927      BINDING AFFINITY PREDICTED BY RF-SCORE:    0.00 PKD
ROOT
HETATM    1  O   UNL     1     -10.667  18.128  66.610  1.00  0.00    -0.307 OA 
HETATM    2  C   UNL     1     -10.127  16.905  66.871  1.00  0.00    -0.289 A  
HETATM    3  H   UNL     1     -11.376  18.371  67.194  1.00  0.00     0.000 HD 
HETATM    4  N   UNL     1      -9.126  16.561  66.044  1.00  0.00    -0.462 NA 
HETATM    5  N   UNL     1      -8.523  15.358  66.209  1.00  0.00    -0.144 NA 
HETATM    6  C   UNL     1      -8.925  14.520  67.200  1.00  0.00    -0.230 A  
HETATM    7  C   UNL     1      -9.964  14.865  68.098  1.00  0.00    -0.222 A  
HETATM    8  C   UNL     1     -12.081  15.684  69.803  1.00  0.00    -0.346 A  
HETATM    9  C   UNL     1     -10.418  14.055  69.171  1.00  0.00    -0.103 A  
HETATM   10  C   UNL     1     -10.598  16.112  67.913  1.00  0.00    -0.309 A  
HETATM   11  C   UNL     1     -11.457  14.462  70.013  1.00  0.00    -0.295 A  
HETATM   12  C   UNL     1     -11.654  16.504  68.761  1.00  0.00    -0.042 A  
ENDROOT
BRANCH   6  13
HETATM   13  C   UNL     1      -8.231  13.179  67.302  1.00  0.00    -0.172 C  
BRANCH  13  14
HETATM   14  C   UNL     1      -9.082  11.933  67.154  1.00  0.00    -0.178 A  
HETATM   15  C   UNL     1     -10.402   9.476  66.904  1.00  0.00    -0.237 A  
HETATM   16  C   UNL     1      -9.318  11.383  65.886  1.00  0.00    -0.247 A  
HETATM   17  C   UNL     1      -9.608  11.279  68.283  1.00  0.00    -0.193 A  
HETATM   18  F   UNL     1     -10.905   8.244  66.741  1.00  0.00    -0.372 F  
HETATM   19  C   UNL     1     -10.298  10.056  68.165  1.00  0.00    -0.228 A  
HETATM   20  C   UNL     1      -9.965  10.153  65.766  1.00  0.00    -0.339 A  
BRANCH  19  21
HETATM   21  C   UNL     1     -10.771   9.409  69.416  1.00  0.00    -0.217 C  
HETATM   22  N   UNL     1     -10.204   8.233  69.910  1.00  0.00    -0.197 N  
HETATM   23  C   UNL     1     -10.754   7.652  71.147  1.00  0.00    -0.227 C  
HETATM   24  O   UNL     1     -11.743   9.937  69.963  1.00  0.00    -0.215 OA 
HETATM   25  C   UNL     1     -11.136   6.178  70.948  1.00  0.00    -0.307 C  
HETATM   26  N   UNL     1     -10.012   5.410  70.394  1.00  0.00    -0.206 N  
HETATM   27  C   UNL     1      -9.446   5.975  69.168  1.00  0.00    -0.128 C  
HETATM   28  C   UNL     1      -9.635   4.223  71.003  1.00  0.00    -0.183 C  
HETATM   29  C   UNL     1      -9.096   7.460  69.336  1.00  0.00    -0.139 C  
HETATM   30  O   UNL     1     -10.174   3.803  72.022  1.00  0.00    -0.165 OA 
BRANCH  28  31
HETATM   31  C   UNL     1      -8.494   3.451  70.418  1.00  0.00    -0.094 C  
HETATM   32  C   UNL     1      -7.110   3.634  71.000  1.00  0.00    -0.033 C  
HETATM   33  C   UNL     1      -7.836   2.339  71.204  1.00  0.00    -0.043 C  
ENDBRANCH  28  31
ENDBRANCH  19  21
ENDBRANCH  13  14
ENDBRANCH   6  13
TORSDOF 4
ENDMDL
MODEL      174
REMARK 921   NORMALIZED FREE ENERGY PREDICTED BY IDOCK:   -5.22 KCAL/MOL
REMARK 922        TOTAL FREE ENERGY PREDICTED BY IDOCK:   -7.19 KCAL/MOL
REMARK 923 INTER-LIGAND FREE ENERGY PREDICTED BY IDOCK:   -6.35 KCAL/MOL
REMARK 924 INTRA-LIGAND FREE ENERGY PREDICTED BY IDOCK:   -0.84 KCAL/MOL
REMARK 927      BINDING AFFINITY PREDICTED BY RF-SCORE:    0.00 PKD
ROOT
HETATM    1  O   UNL     1      -9.660  21.343  67.335  1.00  0.00    -0.524 OA 
HETATM    2  C   UNL     1      -9.437  20.033  67.036  1.00  0.00    -0.395 A  
HETATM    3  H   UNL     1      -8.906  21.905  67.203  1.00  0.00     0.000 HD 
HETATM    4  N   UNL     1     -10.504  19.239  67.224  1.00  0.00    -0.432 NA 
HETATM    5  N   UNL     1     -10.389  17.912  66.967  1.00  0.00    -0.357 NA 
HETATM    6  C   UNL     1      -9.212  17.401  66.520  1.00  0.00    -0.266 A  
HETATM    7  C   UNL     1      -8.077  18.218  66.294  1.00  0.00    -0.254 A  
HETATM    8  C   UNL     1      -5.881  19.976  65.915  1.00  0.00    -0.190 A  
HETATM    9  C   UNL     1      -6.827  17.760  65.804  1.00  0.00    -0.211 A  
HETATM   10  C   UNL     1      -8.199  19.595  66.577  1.00  0.00    -0.350 A  
HETATM   11  C   UNL     1      -5.748  18.628  65.613  1.00  0.00    -0.222 A  
HETATM   12  C   UNL     1      -7.097  20.457  66.394  1.00  0.00    -0.296 A  
ENDROOT
BRANCH   6  13
HETATM   13  C   UNL     1      -9.146  15.907  66.287  1.00  0.00    -0.379 C  
BRANCH  13  14
HETATM   14  C   UNL     1      -8.291  15.085  67.232  1.00  0.00    -0.228 A  
HETATM   15  C   UNL     1      -6.965  13.443  69.072  1.00  0.00    -0.084 A  
HETATM   16  C   UNL     1      -8.015  15.551  68.525  1.00  0.00    -0.137 A  
HETATM   17  C   UNL     1      -7.802  13.823  66.849  1.00  0.00     0.283 A  
HETATM   18  F   UNL     1      -6.458  12.650  70.026  1.00  0.00    -0.118 F  
HETATM   19  C   UNL     1      -7.108  13.001  67.760  1.00  0.00    -0.139 A  
HETATM   20  C   UNL     1      -7.365  14.727  69.443  1.00  0.00    -0.162 A  
BRANCH  19  21
HETATM   21  C   UNL     1      -6.676  11.660  67.286  1.00  0.00    -0.124 C  
HETATM   22  N   UNL     1      -7.482  10.528  67.410  1.00  0.00    -0.093 N  
HETATM   23  C   UNL     1      -6.960   9.236  66.930  1.00  0.00    -0.081 C  
HETATM   24  O   UNL     1      -5.530  11.591  66.833  1.00  0.00    -0.096 OA 
HETATM   25  C   UNL     1      -7.042   8.161  68.025  1.00  0.00    -0.086 C  
HETATM   26  N   UNL     1      -8.401   8.071  68.577  1.00  0.00    -0.126 N  
HETATM   27  C   UNL     1      -8.942   9.346  69.051  1.00  0.00    -0.141 C  
HETATM   28  C   UNL     1      -9.016   6.831  68.669  1.00  0.00    -0.125 C  
HETATM   29  C   UNL     1      -8.831  10.443  67.984  1.00  0.00    -0.130 C  
HETATM   30  O   UNL     1      -8.487   5.800  68.266  1.00  0.00    -0.113 OA 
BRANCH  28  31
HETATM   31  C   UNL     1     -10.396   6.759  69.243  1.00  0.00    -0.221 C  
HETATM   32  C   UNL     1     -10.817   5.510  69.985  1.00  0.00    -0.301 C  
HETATM   33  C   UNL     1     -10.608   6.788  70.741  1.00  0.00    -0.254 C  
ENDBRANCH  28  31
ENDBRANCH  19  21
ENDBRANCH  13  14
ENDBRANCH   6  13
TORSDOF 4
ENDMDL
MODEL      175
REMARK 921   NORMALIZED FREE ENERGY PREDICTED BY IDOCK:   -5.20 KCAL/MOL
REMARK 922        TOTAL FREE ENERGY PREDICTED BY IDOCK:   -7.16 KCAL/MOL
REMARK 923 INTER-LIGAND FREE ENERGY PREDICTED BY IDOCK:   -6.20 KCAL/MOL
REMARK 924 INTRA-LIGAND FREE ENERGY PREDICTED BY IDOCK:   -0.97 KCAL/MOL
REMARK 927      BINDING AFFINITY PREDICTED BY RF-SCORE:    0.00 PKD
ROOT
HETATM    1  O   UNL     1     -10.681   3.892  72.299  1.00  0.00    -0.025 OA 
HETATM    2  C   UNL     1     -10.097   5.121  72.240  1.00  0.00    -0.192 A  
HETATM    3  H   UNL     1     -11.630   3.912  72.257  1.00  0.00     0.000 HD 
HETATM    4  N   UNL     1      -8.755   5.093  72.300  1.00  0.00    -0.125 NA 
HETATM    5  N   UNL     1      -8.072   6.264  72.259  1.00  0.00    -0.108 NA 
HETATM    6  C   UNL     1      -8.738   7.442  72.153  1.00  0.00    -0.116 A  
HETATM    7  C   UNL     1     -10.151   7.501  72.068  1.00  0.00    -0.225 A  
HETATM    8  C   UNL     1     -12.986   7.459  71.934  1.00  0.00    -0.296 A  
HETATM    9  C   UNL     1     -10.912   8.690  71.928  1.00  0.00    -0.412 A  
HETATM   10  C   UNL     1     -10.858   6.281  72.125  1.00  0.00    -0.281 A  
HETATM   11  C   UNL     1     -12.308   8.667  71.857  1.00  0.00    -0.414 A  
HETATM   12  C   UNL     1     -12.267   6.274  72.067  1.00  0.00    -0.270 A  
ENDROOT
BRANCH   6  13
HETATM   13  C   UNL     1      -7.913   8.711  72.149  1.00  0.00    -0.098 C  
BRANCH  13  14
HETATM   14  C   UNL     1      -7.353   9.183  70.821  1.00  0.00    -0.120 A  
HETATM   15  C   UNL     1      -6.416   9.797  68.255  1.00  0.00    -0.056 A  
HETATM   16  C   UNL     1      -6.038   8.865  70.454  1.00  0.00    -0.035 A  
HETATM   17  C   UNL     1      -8.154   9.902  69.915  1.00  0.00    -0.200 A  
HETATM   18  F   UNL     1      -5.968   9.946  67.001  1.00  0.00    -0.049 F  
HETATM   19  C   UNL     1      -7.681  10.241  68.631  1.00  0.00    -0.094 A  
HETATM   20  C   UNL     1      -5.578   9.162  69.171  1.00  0.00    -0.036 A  
BRANCH  19  21
HETATM   21  C   UNL     1      -8.614  10.953  67.721  1.00  0.00    -0.128 C  
HETATM   22  N   UNL     1      -8.318  12.202  67.174  1.00  0.00    -0.178 N  
HETATM   23  C   UNL     1      -9.315  12.842  66.298  1.00  0.00    -0.152 C  
HETATM   24  O   UNL     1      -9.702  10.404  67.526  1.00  0.00    -0.165 OA 
HETATM   25  C   UNL     1      -9.645  14.265  66.775  1.00  0.00    -0.280 C  
HETATM   26  N   UNL     1      -8.422  15.062  66.945  1.00  0.00    -0.237 N  
HETATM   27  C   UNL     1      -7.415  14.440  67.805  1.00  0.00    -0.170 C  
HETATM   28  C   UNL     1      -8.345  16.319  66.363  1.00  0.00    -0.330 C  
HETATM   29  C   UNL     1      -7.103  13.003  67.368  1.00  0.00    -0.117 C  
HETATM   30  O   UNL     1      -9.245  16.782  65.668  1.00  0.00    -0.503 OA 
BRANCH  28  31
HETATM   31  C   UNL     1      -7.096  17.119  66.556  1.00  0.00    -0.303 C  
HETATM   32  C   UNL     1      -7.115  18.597  66.232  1.00  0.00    -0.277 C  
HETATM   33  C   UNL     1      -7.006  18.150  67.659  1.00  0.00    -0.205 C  
ENDBRANCH  28  31
ENDBRANCH  19  21
ENDBRANCH  13  14
ENDBRANCH   6  13
TORSDOF 4
ENDMDL
MODEL      176
REMARK 921   NORMALIZED FREE ENERGY PREDICTED BY IDOCK:   -5.18 KCAL/MOL
REMARK 922        TOTAL FREE ENERGY PREDICTED BY IDOCK:   -7.14 KCAL/MOL
REMARK 923 INTER-LIGAND FREE ENERGY PREDICTED BY IDOCK:   -6.76 KCAL/MOL
REMARK 924 INTRA-LIGAND FREE ENERGY PREDICTED BY IDOCK:   -0.38 KCAL/MOL
REMARK 927      BINDING AFFINITY PREDICTED BY RF-SCORE:    0.00 PKD
ROOT
HETATM    1  O   UNL     1     -10.160   5.726  73.925  1.00  0.00    -0.190 OA 
HETATM    2  C   UNL     1     -10.433   6.550  72.876  1.00  0.00    -0.222 A  
HETATM    3  H   UNL     1      -9.968   4.831  73.674  1.00  0.00     0.000 HD 
HETATM    4  N   UNL     1     -10.706   7.817  73.232  1.00  0.00    -0.347 NA 
HETATM    5  N   UNL     1     -11.003   8.721  72.265  1.00  0.00    -0.331 NA 
HETATM    6  C   UNL     1     -11.018   8.347  70.960  1.00  0.00    -0.246 A  
HETATM    7  C   UNL     1     -10.716   7.024  70.554  1.00  0.00    -0.262 A  
HETATM    8  C   UNL     1     -10.117   4.328  69.899  1.00  0.00    -0.039 A  
HETATM    9  C   UNL     1     -10.685   6.569  69.211  1.00  0.00    -0.329 A  
HETATM   10  C   UNL     1     -10.422   6.085  71.565  1.00  0.00    -0.278 A  
HETATM   11  C   UNL     1     -10.385   5.242  68.890  1.00  0.00    -0.228 A  
HETATM   12  C   UNL     1     -10.134   4.745  71.228  1.00  0.00    -0.258 A  
ENDROOT
BRANCH   6  13
HETATM   13  C   UNL     1     -11.393   9.399  69.938  1.00  0.00    -0.121 C  
BRANCH  13  14
HETATM   14  C   UNL     1     -10.269  10.065  69.168  1.00  0.00    -0.224 A  
HETATM   15  C   UNL     1      -8.312  11.172  67.501  1.00  0.00    -0.122 A  
HETATM   16  C   UNL     1      -9.063   9.387  68.947  1.00  0.00    -0.140 A  
HETATM   17  C   UNL     1     -10.433  11.350  68.620  1.00  0.00    -0.224 A  
HETATM   18  F   UNL     1      -7.406  11.594  66.607  1.00  0.00    -0.136 F  
HETATM   19  C   UNL     1      -9.441  11.928  67.802  1.00  0.00    -0.184 A  
HETATM   20  C   UNL     1      -8.095   9.935  68.107  1.00  0.00    -0.104 A  
BRANCH  19  21
HETATM   21  C   UNL     1      -9.722  13.266  67.221  1.00  0.00    -0.231 C  
HETATM   22  N   UNL     1      -8.875  14.359  67.416  1.00  0.00    -0.192 N  
HETATM   23  C   UNL     1      -9.247  15.653  66.819  1.00  0.00    -0.251 C  
HETATM   24  O   UNL     1     -10.787  13.376  66.608  1.00  0.00    -0.280 OA 
HETATM   25  C   UNL     1      -9.256  16.771  67.873  1.00  0.00    -0.225 C  
HETATM   26  N   UNL     1      -7.985  16.813  68.609  1.00  0.00    -0.235 N  
HETATM   27  C   UNL     1      -7.592  15.535  69.203  1.00  0.00    -0.204 C  
HETATM   28  C   UNL     1      -7.317  18.021  68.741  1.00  0.00    -0.273 C  
HETATM   29  C   UNL     1      -7.618  14.397  68.173  1.00  0.00    -0.128 C  
HETATM   30  O   UNL     1      -7.722  19.060  68.228  1.00  0.00    -0.287 OA 
BRANCH  28  31
HETATM   31  C   UNL     1      -6.029  18.046  69.503  1.00  0.00    -0.246 C  
HETATM   32  C   UNL     1      -5.224  19.327  69.540  1.00  0.00    -0.192 C  
HETATM   33  C   UNL     1      -5.908  18.842  70.783  1.00  0.00    -0.037 C  
ENDBRANCH  28  31
ENDBRANCH  19  21
ENDBRANCH  13  14
ENDBRANCH   6  13
TORSDOF 4
ENDMDL
MODEL      177
REMARK 921   NORMALIZED FREE ENERGY PREDICTED BY IDOCK:   -5.16 KCAL/MOL
REMARK 922        TOTAL FREE ENERGY PREDICTED BY IDOCK:   -7.11 KCAL/MOL
REMARK 923 INTER-LIGAND FREE ENERGY PREDICTED BY IDOCK:   -6.02 KCAL/MOL
REMARK 924 INTRA-LIGAND FREE ENERGY PREDICTED BY IDOCK:   -1.09 KCAL/MOL
REMARK 927      BINDING AFFINITY PREDICTED BY RF-SCORE:    0.00 PKD
ROOT
HETATM    1  O   UNL     1     -11.527   2.681  63.660  1.00  0.00    -0.515 OA 
HETATM    2  C   UNL     1     -10.487   3.356  64.223  1.00  0.00    -0.131 A  
HETATM    3  H   UNL     1     -11.268   2.060  62.989  1.00  0.00     0.000 HD 
HETATM    4  N   UNL     1     -10.853   4.235  65.170  1.00  0.00    -0.171 NA 
HETATM    5  N   UNL     1      -9.896   4.969  65.790  1.00  0.00    -0.154 NA 
HETATM    6  C   UNL     1      -8.589   4.809  65.458  1.00  0.00    -0.131 A  
HETATM    7  C   UNL     1      -8.171   3.876  64.477  1.00  0.00    -0.094 A  
HETATM    8  C   UNL     1      -7.493   1.986  62.471  1.00  0.00    -0.037 A  
HETATM    9  C   UNL     1      -6.826   3.636  64.099  1.00  0.00    -0.045 A  
HETATM   10  C   UNL     1      -9.173   3.126  63.826  1.00  0.00    -0.101 A  
HETATM   11  C   UNL     1      -6.493   2.702  63.114  1.00  0.00    -0.022 A  
HETATM   12  C   UNL     1      -8.824   2.196  62.824  1.00  0.00    -0.081 A  
ENDROOT
BRANCH   6  13
HETATM   13  C   UNL     1      -7.578   5.687  66.165  1.00  0.00    -0.091 C  
BRANCH  13  14
HETATM   14  C   UNL     1      -7.103   6.934  65.445  1.00  0.00    -0.068 A  
HETATM   15  C   UNL     1      -6.224   9.073  63.867  1.00  0.00    -0.087 A  
HETATM   16  C   UNL     1      -5.733   7.190  65.301  1.00  0.00    -0.036 A  
HETATM   17  C   UNL     1      -8.023   7.829  64.868  1.00  0.00    -0.139 A  
HETATM   18  F   UNL     1      -5.754   9.996  63.016  1.00  0.00    -0.088 F  
HETATM   19  C   UNL     1      -7.589   8.925  64.095  1.00  0.00    -0.120 A  
HETATM   20  C   UNL     1      -5.298   8.249  64.504  1.00  0.00    -0.036 A  
BRANCH  19  21
HETATM   21  C   UNL     1      -8.631   9.786  63.477  1.00  0.00    -0.201 C  
HETATM   22  N   UNL     1      -9.225  10.847  64.161  1.00  0.00    -0.206 N  
HETATM   23  C   UNL     1     -10.266  11.633  63.474  1.00  0.00    -0.436 C  
HETATM   24  O   UNL     1      -8.992   9.466  62.341  1.00  0.00    -0.251 OA 
HETATM   25  C   UNL     1     -11.550  11.710  64.314  1.00  0.00    -0.223 C  
HETATM   26  N   UNL     1     -11.265  12.186  65.675  1.00  0.00    -0.324 N  
HETATM   27  C   UNL     1     -10.227  11.425  66.372  1.00  0.00    -0.230 C  
HETATM   28  C   UNL     1     -12.014  13.228  66.201  1.00  0.00    -0.418 C  
HETATM   29  C   UNL     1      -8.950  11.302  65.530  1.00  0.00    -0.129 C  
HETATM   30  O   UNL     1     -12.885  13.806  65.558  1.00  0.00    -0.596 OA 
BRANCH  28  31
HETATM   31  C   UNL     1     -11.714  13.692  67.592  1.00  0.00    -0.398 C  
HETATM   32  C   UNL     1     -10.498  14.562  67.827  1.00  0.00    -0.242 C  
HETATM   33  C   UNL     1     -11.871  15.150  67.965  1.00  0.00    -0.225 C  
ENDBRANCH  28  31
ENDBRANCH  19  21
ENDBRANCH  13  14
ENDBRANCH   6  13
TORSDOF 4
ENDMDL
MODEL      178
REMARK 921   NORMALIZED FREE ENERGY PREDICTED BY IDOCK:   -5.13 KCAL/MOL
REMARK 922        TOTAL FREE ENERGY PREDICTED BY IDOCK:   -7.08 KCAL/MOL
REMARK 923 INTER-LIGAND FREE ENERGY PREDICTED BY IDOCK:   -6.26 KCAL/MOL
REMARK 924 INTRA-LIGAND FREE ENERGY PREDICTED BY IDOCK:   -0.82 KCAL/MOL
REMARK 927      BINDING AFFINITY PREDICTED BY RF-SCORE:    0.00 PKD
ROOT
HETATM    1  O   UNL     1     -12.102  13.261  62.960  1.00  0.00    -0.796 OA 
HETATM    2  C   UNL     1     -11.294  12.606  63.840  1.00  0.00    -0.441 A  
HETATM    3  H   UNL     1     -12.662  13.914  63.362  1.00  0.00     0.000 HD 
HETATM    4  N   UNL     1     -10.502  11.681  63.271  1.00  0.00    -0.395 NA 
HETATM    5  N   UNL     1      -9.664  10.961  64.058  1.00  0.00    -0.272 NA 
HETATM    6  C   UNL     1      -9.627  11.179  65.398  1.00  0.00    -0.229 A  
HETATM    7  C   UNL     1     -10.437  12.160  66.022  1.00  0.00    -0.281 A  
HETATM    8  C   UNL     1     -12.140  14.142  67.131  1.00  0.00    -0.432 A  
HETATM    9  C   UNL     1     -10.432  12.461  67.408  1.00  0.00    -0.229 A  
HETATM   10  C   UNL     1     -11.316  12.896  65.200  1.00  0.00    -0.331 A  
HETATM   11  C   UNL     1     -11.267  13.441  67.952  1.00  0.00    -0.303 A  
HETATM   12  C   UNL     1     -12.165  13.872  65.764  1.00  0.00    -0.488 A  
ENDROOT
BRANCH   6  13
HETATM   13  C   UNL     1      -8.695  10.314  66.218  1.00  0.00    -0.157 C  
BRANCH  13  14
HETATM   14  C   UNL     1      -9.191   8.944  66.637  1.00  0.00    -0.215 A  
HETATM   15  C   UNL     1     -10.144   6.356  67.120  1.00  0.00    -0.168 A  
HETATM   16  C   UNL     1     -10.557   8.724  66.863  1.00  0.00    -0.263 A  
HETATM   17  C   UNL     1      -8.302   7.860  66.757  1.00  0.00    -0.120 A  
HETATM   18  F   UNL     1     -10.664   5.124  67.220  1.00  0.00    -0.246 F  
HETATM   19  C   UNL     1      -8.770   6.558  67.029  1.00  0.00    -0.112 A  
HETATM   20  C   UNL     1     -11.030   7.432  67.092  1.00  0.00    -0.225 A  
BRANCH  19  21
HETATM   21  C   UNL     1      -7.766   5.464  67.084  1.00  0.00    -0.096 C  
HETATM   22  N   UNL     1      -7.612   4.646  68.204  1.00  0.00    -0.076 N  
HETATM   23  C   UNL     1      -6.574   3.601  68.176  1.00  0.00    -0.041 C  
HETATM   24  O   UNL     1      -7.025   5.362  66.103  1.00  0.00    -0.060 OA 
HETATM   25  C   UNL     1      -5.643   3.708  69.393  1.00  0.00    -0.017 C  
HETATM   26  N   UNL     1      -6.411   3.732  70.646  1.00  0.00    -0.030 N  
HETATM   27  C   UNL     1      -7.454   4.758  70.691  1.00  0.00    -0.057 C  
HETATM   28  C   UNL     1      -6.061   2.869  71.673  1.00  0.00    -0.014 C  
HETATM   29  C   UNL     1      -8.369   4.693  69.462  1.00  0.00    -0.074 C  
HETATM   30  O   UNL     1      -5.157   2.045  71.566  1.00  0.00     0.000 OA 
BRANCH  28  31
HETATM   31  C   UNL     1      -6.849   2.915  72.945  1.00  0.00    -0.027 C  
HETATM   32  C   UNL     1      -7.862   1.825  73.219  1.00  0.00    -0.041 C  
HETATM   33  C   UNL     1      -6.607   1.895  74.036  1.00  0.00    -0.021 C  
ENDBRANCH  28  31
ENDBRANCH  19  21
ENDBRANCH  13  14
ENDBRANCH   6  13
TORSDOF 4
ENDMDL
MODEL      179
REMARK 921   NORMALIZED FREE ENERGY PREDICTED BY IDOCK:   -5.13 KCAL/MOL
REMARK 922        TOTAL FREE ENERGY PREDICTED BY IDOCK:   -7.08 KCAL/MOL
REMARK 923 INTER-LIGAND FREE ENERGY PREDICTED BY IDOCK:   -6.64 KCAL/MOL
REMARK 924 INTRA-LIGAND FREE ENERGY PREDICTED BY IDOCK:   -0.44 KCAL/MOL
REMARK 927      BINDING AFFINITY PREDICTED BY RF-SCORE:    0.00 PKD
ROOT
HETATM    1  O   UNL     1     -14.002   8.959  73.241  1.00  0.00    -1.203 OA 
HETATM    2  C   UNL     1     -13.227   9.403  72.213  1.00  0.00    -0.446 A  
HETATM    3  H   UNL     1     -13.997   8.016  73.350  1.00  0.00     0.000 HD 
HETATM    4  N   UNL     1     -13.234  10.738  72.058  1.00  0.00    -0.455 NA 
HETATM    5  N   UNL     1     -12.504  11.287  71.056  1.00  0.00    -0.402 NA 
HETATM    6  C   UNL     1     -11.774  10.496  70.228  1.00  0.00    -0.332 A  
HETATM    7  C   UNL     1     -11.732   9.088  70.379  1.00  0.00    -0.090 A  
HETATM    8  C   UNL     1     -11.770   6.279  70.790  1.00  0.00    -0.289 A  
HETATM    9  C   UNL     1     -10.973   8.203  69.572  1.00  0.00    -0.056 A  
HETATM   10  C   UNL     1     -12.505   8.521  71.415  1.00  0.00    -0.327 A  
HETATM   11  C   UNL     1     -10.988   6.820  69.779  1.00  0.00    -0.345 A  
HETATM   12  C   UNL     1     -12.523   7.123  71.603  1.00  0.00    -0.405 A  
ENDROOT
BRANCH   6  13
HETATM   13  C   UNL     1     -11.012  11.174  69.110  1.00  0.00    -0.295 C  
BRANCH  13  14
HETATM   14  C   UNL     1      -9.618  10.665  68.798  1.00  0.00    -0.190 A  
HETATM   15  C   UNL     1      -7.144   9.456  68.293  1.00  0.00    -0.076 A  
HETATM   16  C   UNL     1      -8.653  10.580  69.811  1.00  0.00     0.123 A  
HETATM   17  C   UNL     1      -9.282  10.225  67.505  1.00  0.00    -0.153 A  
HETATM   18  F   UNL     1      -6.004   8.767  68.139  1.00  0.00    -0.043 F  
HETATM   19  C   UNL     1      -8.029   9.641  67.234  1.00  0.00    -0.106 A  
HETATM   20  C   UNL     1      -7.426   9.966  69.559  1.00  0.00    -0.112 A  
BRANCH  19  21
HETATM   21  C   UNL     1      -7.781   9.155  65.852  1.00  0.00    -0.095 C  
HETATM   22  N   UNL     1      -8.275   7.934  65.389  1.00  0.00    -0.133 N  
HETATM   23  C   UNL     1      -7.960   7.525  64.009  1.00  0.00    -0.091 C  
HETATM   24  O   UNL     1      -7.053   9.864  65.152  1.00  0.00    -0.115 OA 
HETATM   25  C   UNL     1      -7.334   6.121  63.974  1.00  0.00    -0.070 C  
HETATM   26  N   UNL     1      -8.172   5.151  64.693  1.00  0.00    -0.125 N  
HETATM   27  C   UNL     1      -8.505   5.543  66.063  1.00  0.00    -0.126 C  
HETATM   28  C   UNL     1      -8.511   3.957  64.073  1.00  0.00    -0.093 C  
HETATM   29  C   UNL     1      -9.093   6.959  66.122  1.00  0.00    -0.113 C  
HETATM   30  O   UNL     1      -8.176   3.691  62.923  1.00  0.00    -0.078 OA 
BRANCH  28  31
HETATM   31  C   UNL     1      -9.357   2.978  64.825  1.00  0.00    -0.148 C  
HETATM   32  C   UNL     1      -9.341   1.524  64.407  1.00  0.00    -0.132 C  
HETATM   33  C   UNL     1      -8.717   1.930  65.709  1.00  0.00    -0.119 C  
ENDBRANCH  28  31
ENDBRANCH  19  21
ENDBRANCH  13  14
ENDBRANCH   6  13
TORSDOF 4
ENDMDL
MODEL      180
REMARK 921   NORMALIZED FREE ENERGY PREDICTED BY IDOCK:   -5.04 KCAL/MOL
REMARK 922        TOTAL FREE ENERGY PREDICTED BY IDOCK:   -6.97 KCAL/MOL
REMARK 923 INTER-LIGAND FREE ENERGY PREDICTED BY IDOCK:   -6.57 KCAL/MOL
REMARK 924 INTRA-LIGAND FREE ENERGY PREDICTED BY IDOCK:   -0.40 KCAL/MOL
REMARK 927      BINDING AFFINITY PREDICTED BY RF-SCORE:    0.00 PKD
ROOT
HETATM    1  O   UNL     1     -12.248  15.129  64.039  1.00  0.00    -0.892 OA 
HETATM    2  C   UNL     1     -11.899  14.007  64.726  1.00  0.00    -0.403 A  
HETATM    3  H   UNL     1     -12.341  15.903  64.582  1.00  0.00     0.000 HD 
HETATM    4  N   UNL     1     -11.769  12.913  63.958  1.00  0.00    -0.401 NA 
HETATM    5  N   UNL     1     -11.433  11.736  64.543  1.00  0.00    -0.287 NA 
HETATM    6  C   UNL     1     -11.228  11.672  65.884  1.00  0.00    -0.238 A  
HETATM    7  C   UNL     1     -11.339  12.814  66.716  1.00  0.00    -0.362 A  
HETATM    8  C   UNL     1     -11.627  15.181  68.255  1.00  0.00    -0.357 A  
HETATM    9  C   UNL     1     -11.113  12.828  68.116  1.00  0.00    -0.288 A  
HETATM   10  C   UNL     1     -11.702  14.032  66.104  1.00  0.00    -0.395 A  
HETATM   11  C   UNL     1     -11.250  13.996  68.872  1.00  0.00    -0.303 A  
HETATM   12  C   UNL     1     -11.851  15.200  66.881  1.00  0.00    -0.006 A  
ENDROOT
BRANCH   6  13
HETATM   13  C   UNL     1     -10.892  10.319  66.474  1.00  0.00    -0.066 C  
BRANCH  13  14
HETATM   14  C   UNL     1      -9.427   9.940  66.576  1.00  0.00    -0.230 A  
HETATM   15  C   UNL     1      -6.678   9.412  66.527  1.00  0.00    -0.072 A  
HETATM   16  C   UNL     1      -8.934   8.823  65.888  1.00  0.00    -0.240 A  
HETATM   17  C   UNL     1      -8.529  10.727  67.320  1.00  0.00    -0.124 A  
HETATM   18  F   UNL     1      -5.366   9.195  66.360  1.00  0.00    -0.035 F  
HETATM   19  C   UNL     1      -7.146  10.452  67.325  1.00  0.00    -0.088 A  
HETATM   20  C   UNL     1      -7.563   8.569  65.855  1.00  0.00    -0.085 A  
BRANCH  19  21
HETATM   21  C   UNL     1      -6.265  11.368  68.094  1.00  0.00    -0.045 C  
HETATM   22  N   UNL     1      -6.621  12.687  68.375  1.00  0.00    -0.074 N  
HETATM   23  C   UNL     1      -5.673  13.529  69.126  1.00  0.00    -0.078 C  
HETATM   24  O   UNL     1      -5.164  10.914  68.416  1.00  0.00    -0.041 OA 
HETATM   25  C   UNL     1      -5.382  14.841  68.381  1.00  0.00    -0.111 C  
HETATM   26  N   UNL     1      -6.628  15.538  68.032  1.00  0.00    -0.130 N  
HETATM   27  C   UNL     1      -7.588  14.717  67.293  1.00  0.00    -0.143 C  
HETATM   28  C   UNL     1      -6.767  16.880  68.350  1.00  0.00    -0.164 C  
HETATM   29  C   UNL     1      -7.860  13.383  68.001  1.00  0.00    -0.148 C  
HETATM   30  O   UNL     1      -5.904  17.509  68.956  1.00  0.00    -0.179 OA 
BRANCH  28  31
HETATM   31  C   UNL     1      -8.039  17.575  67.977  1.00  0.00    -0.237 C  
HETATM   32  C   UNL     1      -8.871  18.213  69.067  1.00  0.00    -0.024 C  
HETATM   33  C   UNL     1      -8.150  19.080  68.079  1.00  0.00    -0.328 C  
ENDBRANCH  28  31
ENDBRANCH  19  21
ENDBRANCH  13  14
ENDBRANCH   6  13
TORSDOF 4
ENDMDL
MODEL      181
REMARK 921   NORMALIZED FREE ENERGY PREDICTED BY IDOCK:   -5.01 KCAL/MOL
REMARK 922        TOTAL FREE ENERGY PREDICTED BY IDOCK:   -6.93 KCAL/MOL
REMARK 923 INTER-LIGAND FREE ENERGY PREDICTED BY IDOCK:   -6.49 KCAL/MOL
REMARK 924 INTRA-LIGAND FREE ENERGY PREDICTED BY IDOCK:   -0.44 KCAL/MOL
REMARK 927      BINDING AFFINITY PREDICTED BY RF-SCORE:    0.00 PKD
ROOT
HETATM    1  O   UNL     1     -11.453   4.383  64.900  1.00  0.00    -1.070 OA 
HETATM    2  C   UNL     1     -10.357   4.579  65.683  1.00  0.00    -0.247 A  
HETATM    3  H   UNL     1     -11.251   4.120  64.010  1.00  0.00     0.000 HD 
HETATM    4  N   UNL     1     -10.642   4.951  66.943  1.00  0.00    -0.147 NA 
HETATM    5  N   UNL     1      -9.623   5.183  67.806  1.00  0.00    -0.132 NA 
HETATM    6  C   UNL     1      -8.335   5.036  67.401  1.00  0.00    -0.106 A  
HETATM    7  C   UNL     1      -8.004   4.626  66.085  1.00  0.00    -0.103 A  
HETATM    8  C   UNL     1      -7.498   3.827  63.409  1.00  0.00    -0.055 A  
HETATM    9  C   UNL     1      -6.687   4.426  65.601  1.00  0.00    -0.052 A  
HETATM   10  C   UNL     1      -9.069   4.400  65.187  1.00  0.00    -0.148 A  
HETATM   11  C   UNL     1      -6.439   4.027  64.284  1.00  0.00    -0.041 A  
HETATM   12  C   UNL     1      -8.804   4.012  63.857  1.00  0.00    -0.117 A  
ENDROOT
BRANCH   6  13
HETATM   13  C   UNL     1      -7.249   5.347  68.407  1.00  0.00    -0.071 C  
BRANCH  13  14
HETATM   14  C   UNL     1      -7.264   6.716  69.060  1.00  0.00    -0.091 A  
HETATM   15  C   UNL     1      -7.249   9.355  69.993  1.00  0.00    -0.092 A  
HETATM   16  C   UNL     1      -6.073   7.299  69.512  1.00  0.00    -0.030 A  
HETATM   17  C   UNL     1      -8.462   7.445  69.178  1.00  0.00    -0.133 A  
HETATM   18  F   UNL     1      -7.166  10.653  70.318  1.00  0.00    -0.162 F  
HETATM   19  C   UNL     1      -8.468   8.764  69.674  1.00  0.00    -0.129 A  
HETATM   20  C   UNL     1      -6.066   8.618  69.965  1.00  0.00    -0.030 A  
BRANCH  19  21
HETATM   21  C   UNL     1      -9.771   9.478  69.712  1.00  0.00    -0.214 C  
HETATM   22  N   UNL     1     -10.099  10.485  68.804  1.00  0.00    -0.182 N  
HETATM   23  C   UNL     1     -11.406  11.152  68.933  1.00  0.00    -0.278 C  
HETATM   24  O   UNL     1     -10.525   9.175  70.640  1.00  0.00    -0.209 OA 
HETATM   25  C   UNL     1     -11.247  12.679  69.006  1.00  0.00    -0.269 C  
HETATM   26  N   UNL     1     -10.446  13.182  67.881  1.00  0.00    -0.234 N  
HETATM   27  C   UNL     1      -9.147  12.526  67.729  1.00  0.00    -0.191 C  
HETATM   28  C   UNL     1     -10.927  14.240  67.125  1.00  0.00    -0.302 C  
HETATM   29  C   UNL     1      -9.282  10.997  67.696  1.00  0.00    -0.149 C  
HETATM   30  O   UNL     1     -12.023  14.753  67.328  1.00  0.00    -0.362 OA 
BRANCH  28  31
HETATM   31  C   UNL     1     -10.092  14.744  65.990  1.00  0.00    -0.327 C  
HETATM   32  C   UNL     1     -10.555  15.966  65.226  1.00  0.00    -0.441 C  
HETATM   33  C   UNL     1      -9.345  16.054  66.108  1.00  0.00    -0.377 C  
ENDBRANCH  28  31
ENDBRANCH  19  21
ENDBRANCH  13  14
ENDBRANCH   6  13
TORSDOF 4
ENDMDL
MODEL      182
REMARK 921   NORMALIZED FREE ENERGY PREDICTED BY IDOCK:   -4.96 KCAL/MOL
REMARK 922        TOTAL FREE ENERGY PREDICTED BY IDOCK:   -6.87 KCAL/MOL
REMARK 923 INTER-LIGAND FREE ENERGY PREDICTED BY IDOCK:   -6.10 KCAL/MOL
REMARK 924 INTRA-LIGAND FREE ENERGY PREDICTED BY IDOCK:   -0.77 KCAL/MOL
REMARK 927      BINDING AFFINITY PREDICTED BY RF-SCORE:    0.00 PKD
ROOT
HETATM    1  O   UNL     1     -12.904   6.954  70.554  1.00  0.00    -0.535 OA 
HETATM    2  C   UNL     1     -11.551   6.806  70.514  1.00  0.00    -0.372 A  
HETATM    3  H   UNL     1     -13.309   6.598  71.336  1.00  0.00     0.000 HD 
HETATM    4  N   UNL     1     -10.977   7.308  69.408  1.00  0.00    -0.184 NA 
HETATM    5  N   UNL     1      -9.633   7.206  69.260  1.00  0.00    -0.155 NA 
HETATM    6  C   UNL     1      -8.882   6.609  70.222  1.00  0.00    -0.152 A  
HETATM    7  C   UNL     1      -9.457   6.089  71.408  1.00  0.00    -0.172 A  
HETATM    8  C   UNL     1     -10.756   5.068  73.716  1.00  0.00    -0.358 A  
HETATM    9  C   UNL     1      -8.735   5.479  72.465  1.00  0.00    -0.124 A  
HETATM   10  C   UNL     1     -10.858   6.185  71.549  1.00  0.00    -0.313 A  
HETATM   11  C   UNL     1      -9.376   4.981  73.604  1.00  0.00    -0.129 A  
HETATM   12  C   UNL     1     -11.493   5.666  72.696  1.00  0.00    -0.339 A  
ENDROOT
BRANCH   6  13
HETATM   13  C   UNL     1      -7.393   6.498  69.975  1.00  0.00    -0.089 C  
BRANCH  13  14
HETATM   14  C   UNL     1      -6.736   7.579  69.138  1.00  0.00    -0.048 A  
HETATM   15  C   UNL     1      -5.763   9.563  67.420  1.00  0.00    -0.041 A  
HETATM   16  C   UNL     1      -5.913   7.236  68.057  1.00  0.00    -0.034 A  
HETATM   17  C   UNL     1      -6.978   8.940  69.400  1.00  0.00    -0.053 A  
HETATM   18  F   UNL     1      -5.387  10.457  66.494  1.00  0.00    -0.038 F  
HETATM   19  C   UNL     1      -6.469   9.948  68.556  1.00  0.00    -0.050 A  
HETATM   20  C   UNL     1      -5.439   8.225  67.196  1.00  0.00    -0.037 A  
BRANCH  19  21
HETATM   21  C   UNL     1      -6.820  11.356  68.876  1.00  0.00    -0.089 C  
HETATM   22  N   UNL     1      -7.927  11.996  68.318  1.00  0.00    -0.142 N  
HETATM   23  C   UNL     1      -8.184  13.401  68.678  1.00  0.00    -0.024 C  
HETATM   24  O   UNL     1      -6.035  11.953  69.618  1.00  0.00    -0.089 OA 
HETATM   25  C   UNL     1      -8.327  14.280  67.425  1.00  0.00    -0.198 C  
HETATM   26  N   UNL     1      -9.324  13.724  66.500  1.00  0.00    -0.260 N  
HETATM   27  C   UNL     1      -9.092  12.326  66.136  1.00  0.00    -0.074 C  
HETATM   28  C   UNL     1     -10.324  14.547  66.006  1.00  0.00    -0.309 C  
HETATM   29  C   UNL     1      -8.906  11.439  67.375  1.00  0.00    -0.150 C  
HETATM   30  O   UNL     1     -10.442  15.721  66.345  1.00  0.00    -0.290 OA 
BRANCH  28  31
HETATM   31  C   UNL     1     -11.325  13.965  65.058  1.00  0.00    -0.336 C  
HETATM   32  C   UNL     1     -12.765  13.833  65.502  1.00  0.00    -0.530 C  
HETATM   33  C   UNL     1     -12.402  14.836  64.448  1.00  0.00    -0.389 C  
ENDBRANCH  28  31
ENDBRANCH  19  21
ENDBRANCH  13  14
ENDBRANCH   6  13
TORSDOF 4
ENDMDL
MODEL      183
REMARK 921   NORMALIZED FREE ENERGY PREDICTED BY IDOCK:   -4.93 KCAL/MOL
REMARK 922        TOTAL FREE ENERGY PREDICTED BY IDOCK:   -6.84 KCAL/MOL
REMARK 923 INTER-LIGAND FREE ENERGY PREDICTED BY IDOCK:   -6.98 KCAL/MOL
REMARK 924 INTRA-LIGAND FREE ENERGY PREDICTED BY IDOCK:    0.14 KCAL/MOL
REMARK 927      BINDING AFFINITY PREDICTED BY RF-SCORE:    0.00 PKD
ROOT
HETATM    1  O   UNL     1     -10.100  20.538  68.561  1.00  0.00    -0.161 OA 
HETATM    2  C   UNL     1      -9.681  19.273  68.281  1.00  0.00    -0.385 A  
HETATM    3  H   UNL     1      -9.405  21.185  68.559  1.00  0.00     0.000 HD 
HETATM    4  N   UNL     1     -10.664  18.357  68.285  1.00  0.00    -0.204 NA 
HETATM    5  N   UNL     1     -10.356  17.061  68.027  1.00  0.00    -0.324 NA 
HETATM    6  C   UNL     1      -9.073  16.702  67.765  1.00  0.00    -0.212 A  
HETATM    7  C   UNL     1      -8.019  17.649  67.735  1.00  0.00    -0.218 A  
HETATM    8  C   UNL     1      -6.012  19.656  67.738  1.00  0.00    -0.215 A  
HETATM    9  C   UNL     1      -6.664  17.352  67.442  1.00  0.00    -0.179 A  
HETATM   10  C   UNL     1      -8.344  18.993  68.017  1.00  0.00    -0.335 A  
HETATM   11  C   UNL     1      -5.677  18.342  67.439  1.00  0.00    -0.145 A  
HETATM   12  C   UNL     1      -7.336  19.979  68.025  1.00  0.00    -0.326 A  
ENDROOT
BRANCH   6  13
HETATM   13  C   UNL     1      -8.796  15.234  67.522  1.00  0.00    -0.188 C  
BRANCH  13  14
HETATM   14  C   UNL     1      -9.650  14.517  66.494  1.00  0.00    -0.311 A  
HETATM   15  C   UNL     1     -11.030  13.287  64.391  1.00  0.00    -0.393 A  
HETATM   16  C   UNL     1     -10.681  15.197  65.832  1.00  0.00    -0.341 A  
HETATM   17  C   UNL     1      -9.392  13.178  66.150  1.00  0.00    -0.086 A  
HETATM   18  F   UNL     1     -11.623  12.794  63.295  1.00  0.00    -0.514 F  
HETATM   19  C   UNL     1     -10.102  12.540  65.112  1.00  0.00    -0.266 A  
HETATM   20  C   UNL     1     -11.359  14.586  64.777  1.00  0.00    -0.397 A  
BRANCH  19  21
HETATM   21  C   UNL     1      -9.726  11.142  64.780  1.00  0.00    -0.257 C  
HETATM   22  N   UNL     1      -9.578  10.156  65.757  1.00  0.00    -0.211 N  
HETATM   23  C   UNL     1      -9.181   8.801  65.335  1.00  0.00    -0.088 C  
HETATM   24  O   UNL     1      -9.485  10.915  63.591  1.00  0.00    -0.235 OA 
HETATM   25  C   UNL     1      -7.947   8.315  66.111  1.00  0.00    -0.100 C  
HETATM   26  N   UNL     1      -8.153   8.436  67.561  1.00  0.00    -0.109 N  
HETATM   27  C   UNL     1      -8.556   9.773  68.000  1.00  0.00    -0.122 C  
HETATM   28  C   UNL     1      -7.893   7.346  68.377  1.00  0.00    -0.122 C  
HETATM   29  C   UNL     1      -9.763  10.292  67.207  1.00  0.00    -0.166 C  
HETATM   30  O   UNL     1      -7.537   6.258  67.934  1.00  0.00    -0.097 OA 
BRANCH  28  31
HETATM   31  C   UNL     1      -8.099   7.492  69.852  1.00  0.00    -0.129 C  
HETATM   32  C   UNL     1      -7.567   6.419  70.777  1.00  0.00    -0.096 C  
HETATM   33  C   UNL     1      -6.928   7.776  70.767  1.00  0.00    -0.046 C  
ENDBRANCH  28  31
ENDBRANCH  19  21
ENDBRANCH  13  14
ENDBRANCH   6  13
TORSDOF 4
ENDMDL
MODEL      184
REMARK 921   NORMALIZED FREE ENERGY PREDICTED BY IDOCK:   -4.93 KCAL/MOL
REMARK 922        TOTAL FREE ENERGY PREDICTED BY IDOCK:   -6.84 KCAL/MOL
REMARK 923 INTER-LIGAND FREE ENERGY PREDICTED BY IDOCK:   -6.10 KCAL/MOL
REMARK 924 INTRA-LIGAND FREE ENERGY PREDICTED BY IDOCK:   -0.73 KCAL/MOL
REMARK 927      BINDING AFFINITY PREDICTED BY RF-SCORE:    0.00 PKD
ROOT
HETATM    1  O   UNL     1      -8.238   4.949  66.532  1.00  0.00    -0.107 OA 
HETATM    2  C   UNL     1      -8.805   6.187  66.552  1.00  0.00    -0.133 A  
HETATM    3  H   UNL     1      -7.631   4.812  65.814  1.00  0.00     0.000 HD 
HETATM    4  N   UNL     1      -9.664   6.380  67.567  1.00  0.00    -0.118 NA 
HETATM    5  N   UNL     1     -10.294   7.576  67.677  1.00  0.00    -0.210 NA 
HETATM    6  C   UNL     1     -10.052   8.561  66.774  1.00  0.00    -0.299 A  
HETATM    7  C   UNL     1      -9.138   8.393  65.705  1.00  0.00    -0.195 A  
HETATM    8  C   UNL     1      -7.298   7.897  63.601  1.00  0.00    -0.103 A  
HETATM    9  C   UNL     1      -8.815   9.385  64.744  1.00  0.00    -0.243 A  
HETATM   10  C   UNL     1      -8.496   7.142  65.589  1.00  0.00    -0.141 A  
HETATM   11  C   UNL     1      -7.905   9.141  63.711  1.00  0.00    -0.133 A  
HETATM   12  C   UNL     1      -7.591   6.905  64.533  1.00  0.00    -0.107 A  
ENDROOT
BRANCH   6  13
HETATM   13  C   UNL     1     -10.818   9.857  66.937  1.00  0.00    -0.137 C  
BRANCH  13  14
HETATM   14  C   UNL     1     -10.098  11.023  67.588  1.00  0.00    -0.208 A  
HETATM   15  C   UNL     1      -8.651  13.229  68.524  1.00  0.00    -0.065 A  
HETATM   16  C   UNL     1      -8.823  10.848  68.141  1.00  0.00    -0.137 A  
HETATM   17  C   UNL     1     -10.674  12.306  67.606  1.00  0.00    -0.250 A  
HETATM   18  F   UNL     1      -7.868  14.265  68.857  1.00  0.00    -0.130 F  
HETATM   19  C   UNL     1      -9.964  13.419  68.101  1.00  0.00    -0.237 A  
HETATM   20  C   UNL     1      -8.099  11.951  68.595  1.00  0.00    -0.086 A  
BRANCH  19  21
HETATM   21  C   UNL     1     -10.629  14.746  68.031  1.00  0.00    -0.244 C  
HETATM   22  N   UNL     1     -10.128  15.792  67.254  1.00  0.00    -0.243 N  
HETATM   23  C   UNL     1     -10.843  17.080  67.264  1.00  0.00    -0.123 C  
HETATM   24  O   UNL     1     -11.618  14.893  68.753  1.00  0.00    -0.293 OA 
HETATM   25  C   UNL     1      -9.896  18.240  67.609  1.00  0.00    -0.320 C  
HETATM   26  N   UNL     1      -8.715  18.237  66.735  1.00  0.00    -0.265 N  
HETATM   27  C   UNL     1      -7.995  16.963  66.705  1.00  0.00    -0.265 C  
HETATM   28  C   UNL     1      -8.345  19.406  66.089  1.00  0.00    -0.300 C  
HETATM   29  C   UNL     1      -8.933  15.786  66.401  1.00  0.00    -0.331 C  
HETATM   30  O   UNL     1      -8.992  20.445  66.181  1.00  0.00    -0.167 OA 
BRANCH  28  31
HETATM   31  C   UNL     1      -7.133  19.385  65.211  1.00  0.00    -0.041 C  
HETATM   32  C   UNL     1      -6.570  20.696  64.708  1.00  0.00    -0.275 C  
HETATM   33  C   UNL     1      -5.805  19.900  65.722  1.00  0.00    -0.197 C  
ENDBRANCH  28  31
ENDBRANCH  19  21
ENDBRANCH  13  14
ENDBRANCH   6  13
TORSDOF 4
ENDMDL
MODEL      185
REMARK 921   NORMALIZED FREE ENERGY PREDICTED BY IDOCK:   -4.92 KCAL/MOL
REMARK 922        TOTAL FREE ENERGY PREDICTED BY IDOCK:   -6.82 KCAL/MOL
REMARK 923 INTER-LIGAND FREE ENERGY PREDICTED BY IDOCK:   -5.80 KCAL/MOL
REMARK 924 INTRA-LIGAND FREE ENERGY PREDICTED BY IDOCK:   -1.02 KCAL/MOL
REMARK 927      BINDING AFFINITY PREDICTED BY RF-SCORE:    0.00 PKD
ROOT
HETATM    1  O   UNL     1     -10.968   3.952  72.284  1.00  0.00     0.148 OA 
HETATM    2  C   UNL     1     -10.301   5.137  72.225  1.00  0.00    -0.211 A  
HETATM    3  H   UNL     1     -11.913   4.036  72.226  1.00  0.00     0.000 HD 
HETATM    4  N   UNL     1      -8.965   5.018  72.307  1.00  0.00    -0.130 NA 
HETATM    5  N   UNL     1      -8.202   6.139  72.270  1.00  0.00    -0.110 NA 
HETATM    6  C   UNL     1      -8.784   7.359  72.145  1.00  0.00    -0.116 A  
HETATM    7  C   UNL     1     -10.188   7.514  72.037  1.00  0.00    -0.234 A  
HETATM    8  C   UNL     1     -13.017   7.665  71.860  1.00  0.00    -0.299 A  
HETATM    9  C   UNL     1     -10.863   8.751  71.878  1.00  0.00    -0.431 A  
HETATM   10  C   UNL     1     -10.978   6.345  72.091  1.00  0.00    -0.288 A  
HETATM   11  C   UNL     1     -12.256   8.824  71.785  1.00  0.00    -0.415 A  
HETATM   12  C   UNL     1     -12.383   6.434  72.011  1.00  0.00    -0.268 A  
ENDROOT
BRANCH   6  13
HETATM   13  C   UNL     1      -7.874   8.568  72.147  1.00  0.00    -0.136 C  
BRANCH  13  14
HETATM   14  C   UNL     1      -7.311   9.028  70.815  1.00  0.00    -0.109 A  
HETATM   15  C   UNL     1      -6.194   9.593  68.311  1.00  0.00    -0.055 A  
HETATM   16  C   UNL     1      -5.974   9.435  70.714  1.00  0.00    -0.063 A  
HETATM   17  C   UNL     1      -8.103   9.007  69.652  1.00  0.00    -0.103 A  
HETATM   18  F   UNL     1      -5.578   9.741  67.130  1.00  0.00    -0.044 F  
HETATM   19  C   UNL     1      -7.556   9.318  68.391  1.00  0.00    -0.086 A  
HETATM   20  C   UNL     1      -5.417   9.705  69.464  1.00  0.00    -0.034 A  
BRANCH  19  21
HETATM   21  C   UNL     1      -8.451   9.217  67.209  1.00  0.00    -0.121 C  
HETATM   22  N   UNL     1      -8.792  10.325  66.432  1.00  0.00    -0.143 N  
HETATM   23  C   UNL     1      -9.705  10.131  65.292  1.00  0.00    -0.300 C  
HETATM   24  O   UNL     1      -8.934   8.102  66.992  1.00  0.00    -0.134 OA 
HETATM   25  C   UNL     1     -10.898  11.097  65.364  1.00  0.00    -0.142 C  
HETATM   26  N   UNL     1     -10.446  12.486  65.519  1.00  0.00    -0.273 N  
HETATM   27  C   UNL     1      -9.531  12.698  66.642  1.00  0.00    -0.244 C  
HETATM   28  C   UNL     1     -10.951  13.463  64.674  1.00  0.00    -0.377 C  
HETATM   29  C   UNL     1      -8.353  11.715  66.608  1.00  0.00    -0.154 C  
HETATM   30  O   UNL     1     -11.735  13.208  63.764  1.00  0.00    -0.437 OA 
BRANCH  28  31
HETATM   31  C   UNL     1     -10.486  14.873  64.854  1.00  0.00    -0.389 C  
HETATM   32  C   UNL     1     -11.283  15.994  64.223  1.00  0.00    -0.079 C  
HETATM   33  C   UNL     1     -11.273  15.838  65.714  1.00  0.00    -0.025 C  
ENDBRANCH  28  31
ENDBRANCH  19  21
ENDBRANCH  13  14
ENDBRANCH   6  13
TORSDOF 4
ENDMDL
MODEL      186
REMARK 921   NORMALIZED FREE ENERGY PREDICTED BY IDOCK:   -4.91 KCAL/MOL
REMARK 922        TOTAL FREE ENERGY PREDICTED BY IDOCK:   -6.81 KCAL/MOL
REMARK 923 INTER-LIGAND FREE ENERGY PREDICTED BY IDOCK:   -6.47 KCAL/MOL
REMARK 924 INTRA-LIGAND FREE ENERGY PREDICTED BY IDOCK:   -0.34 KCAL/MOL
REMARK 927      BINDING AFFINITY PREDICTED BY RF-SCORE:    0.00 PKD
ROOT
HETATM    1  O   UNL     1     -12.843   9.355  70.993  1.00  0.00    -0.465 OA 
HETATM    2  C   UNL     1     -11.633   8.858  70.616  1.00  0.00    -0.215 A  
HETATM    3  H   UNL     1     -13.111   9.099  71.868  1.00  0.00     0.000 HD 
HETATM    4  N   UNL     1     -11.254   9.219  69.378  1.00  0.00    -0.034 NA 
HETATM    5  N   UNL     1     -10.068   8.770  68.897  1.00  0.00    -0.193 NA 
HETATM    6  C   UNL     1      -9.277   7.973  69.660  1.00  0.00    -0.152 A  
HETATM    7  C   UNL     1      -9.642   7.591  70.975  1.00  0.00    -0.162 A  
HETATM    8  C   UNL     1     -10.520   6.890  73.581  1.00  0.00    -0.400 A  
HETATM    9  C   UNL     1      -8.856   6.786  71.838  1.00  0.00    -0.135 A  
HETATM   10  C   UNL     1     -10.883   8.050  71.465  1.00  0.00    -0.278 A  
HETATM   11  C   UNL     1      -9.287   6.445  73.123  1.00  0.00    -0.142 A  
HETATM   12  C   UNL     1     -11.313   7.687  72.758  1.00  0.00    -0.419 A  
ENDROOT
BRANCH   6  13
HETATM   13  C   UNL     1      -7.985   7.480  69.045  1.00  0.00    -0.122 C  
BRANCH  13  14
HETATM   14  C   UNL     1      -7.379   8.304  67.925  1.00  0.00    -0.096 A  
HETATM   15  C   UNL     1      -6.539   9.877  65.767  1.00  0.00    -0.094 A  
HETATM   16  C   UNL     1      -7.068   7.708  66.696  1.00  0.00    -0.079 A  
HETATM   17  C   UNL     1      -7.165   9.686  68.081  1.00  0.00    -0.080 A  
HETATM   18  F   UNL     1      -6.266  10.598  64.671  1.00  0.00    -0.130 F  
HETATM   19  C   UNL     1      -6.715  10.481  67.008  1.00  0.00    -0.082 A  
HETATM   20  C   UNL     1      -6.661   8.496  65.619  1.00  0.00    -0.059 A  
BRANCH  19  21
HETATM   21  C   UNL     1      -6.569  11.940  67.248  1.00  0.00    -0.141 C  
HETATM   22  N   UNL     1      -7.553  12.695  67.887  1.00  0.00    -0.118 N  
HETATM   23  C   UNL     1      -7.330  14.141  68.061  1.00  0.00    -0.140 C  
HETATM   24  O   UNL     1      -5.551  12.464  66.787  1.00  0.00    -0.319 OA 
HETATM   25  C   UNL     1      -8.508  14.957  67.504  1.00  0.00    -0.185 C  
HETATM   26  N   UNL     1      -9.784  14.494  68.065  1.00  0.00    -0.213 N  
HETATM   27  C   UNL     1     -10.022  13.058  67.911  1.00  0.00    -0.230 C  
HETATM   28  C   UNL     1     -10.662  15.418  68.611  1.00  0.00    -0.246 C  
HETATM   29  C   UNL     1      -8.838  12.227  68.424  1.00  0.00    -0.137 C  
HETATM   30  O   UNL     1     -10.398  16.615  68.687  1.00  0.00    -0.266 OA 
BRANCH  28  31
HETATM   31  C   UNL     1     -11.961  14.928  69.169  1.00  0.00    -0.313 C  
HETATM   32  C   UNL     1     -11.964  14.224  70.508  1.00  0.00    -0.402 C  
HETATM   33  C   UNL     1     -12.573  15.588  70.384  1.00  0.00    -0.421 C  
ENDBRANCH  28  31
ENDBRANCH  19  21
ENDBRANCH  13  14
ENDBRANCH   6  13
TORSDOF 4
ENDMDL
MODEL      187
REMARK 921   NORMALIZED FREE ENERGY PREDICTED BY IDOCK:   -4.82 KCAL/MOL
REMARK 922        TOTAL FREE ENERGY PREDICTED BY IDOCK:   -6.69 KCAL/MOL
REMARK 923 INTER-LIGAND FREE ENERGY PREDICTED BY IDOCK:   -5.80 KCAL/MOL
REMARK 924 INTRA-LIGAND FREE ENERGY PREDICTED BY IDOCK:   -0.89 KCAL/MOL
REMARK 927      BINDING AFFINITY PREDICTED BY RF-SCORE:    0.00 PKD
ROOT
HETATM    1  O   UNL     1      -5.908  14.165  72.052  1.00  0.00    -0.249 OA 
HETATM    2  C   UNL     1      -6.132  14.583  70.776  1.00  0.00    -0.148 A  
HETATM    3  H   UNL     1      -5.805  13.225  72.140  1.00  0.00     0.000 HD 
HETATM    4  N   UNL     1      -6.278  15.913  70.653  1.00  0.00     0.209 NA 
HETATM    5  N   UNL     1      -6.517  16.437  69.425  1.00  0.00    -0.196 NA 
HETATM    6  C   UNL     1      -6.601  15.625  68.339  1.00  0.00    -0.116 A  
HETATM    7  C   UNL     1      -6.432  14.222  68.436  1.00  0.00    -0.106 A  
HETATM    8  C   UNL     1      -6.099  11.426  68.792  1.00  0.00    -0.048 A  
HETATM    9  C   UNL     1      -6.478  13.317  67.345  1.00  0.00    -0.047 A  
HETATM   10  C   UNL     1      -6.198  13.682  69.718  1.00  0.00    -0.120 A  
HETATM   11  C   UNL     1      -6.309  11.941  67.521  1.00  0.00    -0.105 A  
HETATM   12  C   UNL     1      -6.043  12.289  69.884  1.00  0.00    -0.140 A  
ENDROOT
BRANCH   6  13
HETATM   13  C   UNL     1      -6.905  16.275  67.006  1.00  0.00    -0.235 C  
BRANCH  13  14
HETATM   14  C   UNL     1      -8.316  16.146  66.466  1.00  0.00    -0.352 A  
HETATM   15  C   UNL     1     -10.806  15.960  65.199  1.00  0.00    -0.421 A  
HETATM   16  C   UNL     1      -9.137  17.276  66.352  1.00  0.00    -0.281 A  
HETATM   17  C   UNL     1      -8.808  14.904  66.025  1.00  0.00     0.179 A  
HETATM   18  F   UNL     1     -11.940  15.951  64.484  1.00  0.00    -0.306 F  
HETATM   19  C   UNL     1     -10.073  14.795  65.411  1.00  0.00    -0.406 A  
HETATM   20  C   UNL     1     -10.371  17.182  65.710  1.00  0.00    -0.253 A  
BRANCH  19  21
HETATM   21  C   UNL     1     -10.489  13.454  64.926  1.00  0.00    -0.390 C  
HETATM   22  N   UNL     1     -10.759  12.395  65.795  1.00  0.00    -0.260 N  
HETATM   23  C   UNL     1     -11.144  11.094  65.221  1.00  0.00    -0.006 C  
HETATM   24  O   UNL     1     -10.519  13.308  63.701  1.00  0.00    -0.134 OA 
HETATM   25  C   UNL     1     -10.250   9.964  65.754  1.00  0.00    -0.181 C  
HETATM   26  N   UNL     1     -10.216   9.965  67.223  1.00  0.00    -0.208 N  
HETATM   27  C   UNL     1      -9.844  11.251  67.814  1.00  0.00    -0.173 C  
HETATM   28  C   UNL     1     -10.458   8.784  67.909  1.00  0.00    -0.216 C  
HETATM   29  C   UNL     1     -10.700  12.399  67.262  1.00  0.00    -0.230 C  
HETATM   30  O   UNL     1     -10.746   7.736  67.338  1.00  0.00    -0.278 OA 
BRANCH  28  31
HETATM   31  C   UNL     1     -10.410   8.803  69.404  1.00  0.00    -0.217 C  
HETATM   32  C   UNL     1     -10.322   7.490  70.151  1.00  0.00    -0.217 C  
HETATM   33  C   UNL     1      -9.144   8.416  70.137  1.00  0.00    -0.150 C  
ENDBRANCH  28  31
ENDBRANCH  19  21
ENDBRANCH  13  14
ENDBRANCH   6  13
TORSDOF 4
ENDMDL
MODEL      188
REMARK 921   NORMALIZED FREE ENERGY PREDICTED BY IDOCK:   -4.82 KCAL/MOL
REMARK 922        TOTAL FREE ENERGY PREDICTED BY IDOCK:   -6.69 KCAL/MOL
REMARK 923 INTER-LIGAND FREE ENERGY PREDICTED BY IDOCK:   -6.90 KCAL/MOL
REMARK 924 INTRA-LIGAND FREE ENERGY PREDICTED BY IDOCK:    0.21 KCAL/MOL
REMARK 927      BINDING AFFINITY PREDICTED BY RF-SCORE:    0.00 PKD
ROOT
HETATM    1  O   UNL     1     -12.532  14.118  63.195  1.00  0.00    -1.126 OA 
HETATM    2  C   UNL     1     -11.884  13.093  63.815  1.00  0.00    -0.486 A  
HETATM    3  H   UNL     1     -12.901  14.759  63.790  1.00  0.00     0.000 HD 
HETATM    4  N   UNL     1     -11.362  12.185  62.973  1.00  0.00    -0.131 NA 
HETATM    5  N   UNL     1     -10.704  11.116  63.485  1.00  0.00    -0.341 NA 
HETATM    6  C   UNL     1     -10.572  10.973  64.829  1.00  0.00    -0.280 A  
HETATM    7  C   UNL     1     -11.094  11.924  65.740  1.00  0.00    -0.367 A  
HETATM    8  C   UNL     1     -12.220  13.899  67.440  1.00  0.00    -0.291 A  
HETATM    9  C   UNL     1     -10.972  11.855  67.151  1.00  0.00    -0.319 A  
HETATM   10  C   UNL     1     -11.791  13.027  65.202  1.00  0.00    -0.404 A  
HETATM   11  C   UNL     1     -11.522  12.831  67.987  1.00  0.00    -0.364 A  
HETATM   12  C   UNL     1     -12.354  13.997  66.057  1.00  0.00    -0.504 A  
ENDROOT
BRANCH   6  13
HETATM   13  C   UNL     1      -9.856   9.738  65.331  1.00  0.00    -0.365 C  
BRANCH  13  14
HETATM   14  C   UNL     1      -8.696   9.935  66.287  1.00  0.00    -0.152 A  
HETATM   15  C   UNL     1      -6.693  10.547  68.145  1.00  0.00    -0.064 A  
HETATM   16  C   UNL     1      -7.581  10.690  65.901  1.00  0.00    -0.138 A  
HETATM   17  C   UNL     1      -8.739   9.409  67.592  1.00  0.00    -0.116 A  
HETATM   18  F   UNL     1      -5.781  10.979  69.027  1.00  0.00    -0.042 F  
HETATM   19  C   UNL     1      -7.720   9.688  68.525  1.00  0.00    -0.081 A  
HETATM   20  C   UNL     1      -6.590  11.003  66.832  1.00  0.00    -0.112 A  
BRANCH  19  21
HETATM   21  C   UNL     1      -7.875   9.136  69.896  1.00  0.00    -0.091 C  
HETATM   22  N   UNL     1      -7.641   7.793  70.192  1.00  0.00    -0.083 N  
HETATM   23  C   UNL     1      -7.841   7.331  71.577  1.00  0.00    -0.092 C  
HETATM   24  O   UNL     1      -8.289   9.923  70.752  1.00  0.00    -0.147 OA 
HETATM   25  C   UNL     1      -8.788   6.122  71.630  1.00  0.00    -0.138 C  
HETATM   26  N   UNL     1      -8.338   5.058  70.721  1.00  0.00    -0.105 N  
HETATM   27  C   UNL     1      -8.124   5.498  69.341  1.00  0.00    -0.095 C  
HETATM   28  C   UNL     1      -8.222   3.761  71.198  1.00  0.00    -0.067 C  
HETATM   29  C   UNL     1      -7.213   6.731  69.272  1.00  0.00    -0.090 C  
HETATM   30  O   UNL     1      -8.439   3.466  72.370  1.00  0.00    -0.081 OA 
BRANCH  28  31
HETATM   31  C   UNL     1      -7.772   2.690  70.255  1.00  0.00    -0.044 C  
HETATM   32  C   UNL     1      -8.813   1.841  69.559  1.00  0.00    -0.125 C  
HETATM   33  C   UNL     1      -8.009   2.828  68.767  1.00  0.00    -0.062 C  
ENDBRANCH  28  31
ENDBRANCH  19  21
ENDBRANCH  13  14
ENDBRANCH   6  13
TORSDOF 4
ENDMDL
MODEL      189
REMARK 921   NORMALIZED FREE ENERGY PREDICTED BY IDOCK:   -4.81 KCAL/MOL
REMARK 922        TOTAL FREE ENERGY PREDICTED BY IDOCK:   -6.68 KCAL/MOL
REMARK 923 INTER-LIGAND FREE ENERGY PREDICTED BY IDOCK:   -5.98 KCAL/MOL
REMARK 924 INTRA-LIGAND FREE ENERGY PREDICTED BY IDOCK:   -0.70 KCAL/MOL
REMARK 927      BINDING AFFINITY PREDICTED BY RF-SCORE:    0.00 PKD
ROOT
HETATM    1  O   UNL     1      -9.044   3.170  67.166  1.00  0.00    -0.151 OA 
HETATM    2  C   UNL     1      -8.737   4.439  66.780  1.00  0.00    -0.112 A  
HETATM    3  H   UNL     1      -8.604   2.890  67.960  1.00  0.00     0.000 HD 
HETATM    4  N   UNL     1      -9.358   4.835  65.656  1.00  0.00    -0.157 NA 
HETATM    5  N   UNL     1      -9.116   6.080  65.175  1.00  0.00     0.141 NA 
HETATM    6  C   UNL     1      -8.263   6.911  65.827  1.00  0.00    -0.132 A  
HETATM    7  C   UNL     1      -7.609   6.528  67.025  1.00  0.00    -0.095 A  
HETATM    8  C   UNL     1      -6.352   5.608  69.398  1.00  0.00    -0.037 A  
HETATM    9  C   UNL     1      -6.728   7.351  67.773  1.00  0.00    -0.062 A  
HETATM   10  C   UNL     1      -7.854   5.227  67.512  1.00  0.00    -0.096 A  
HETATM   11  C   UNL     1      -6.114   6.898  68.944  1.00  0.00    -0.026 A  
HETATM   12  C   UNL     1      -7.216   4.778  68.687  1.00  0.00    -0.057 A  
ENDROOT
BRANCH   6  13
HETATM   13  C   UNL     1      -8.012   8.272  65.214  1.00  0.00    -0.128 C  
BRANCH  13  14
HETATM   14  C   UNL     1      -8.947   9.402  65.602  1.00  0.00    -0.236 A  
HETATM   15  C   UNL     1     -10.891  11.328  66.194  1.00  0.00    -0.222 A  
HETATM   16  C   UNL     1      -9.191  10.456  64.712  1.00  0.00    -0.273 A  
HETATM   17  C   UNL     1      -9.622   9.388  66.836  1.00  0.00    -0.217 A  
HETATM   18  F   UNL     1     -11.901  12.192  66.368  1.00  0.00    -0.423 F  
HETATM   19  C   UNL     1     -10.582  10.369  67.156  1.00  0.00    -0.319 A  
HETATM   20  C   UNL     1     -10.168  11.408  65.004  1.00  0.00    -0.333 A  
BRANCH  19  21
HETATM   21  C   UNL     1     -11.286  10.245  68.458  1.00  0.00    -0.214 C  
HETATM   22  N   UNL     1     -10.881   9.343  69.443  1.00  0.00    -0.218 N  
HETATM   23  C   UNL     1     -11.654   9.275  70.696  1.00  0.00    -0.252 C  
HETATM   24  O   UNL     1     -12.295  10.942  68.595  1.00  0.00    -0.501 OA 
HETATM   25  C   UNL     1     -12.096   7.835  71.000  1.00  0.00    -0.244 C  
HETATM   26  N   UNL     1     -10.952   6.914  70.971  1.00  0.00    -0.244 N  
HETATM   27  C   UNL     1     -10.165   6.972  69.739  1.00  0.00    -0.201 C  
HETATM   28  C   UNL     1     -10.752   6.046  72.034  1.00  0.00    -0.235 C  
HETATM   29  C   UNL     1      -9.749   8.409  69.397  1.00  0.00    -0.177 C  
HETATM   30  O   UNL     1     -11.471   6.043  73.029  1.00  0.00    -0.196 OA 
BRANCH  28  31
HETATM   31  C   UNL     1      -9.587   5.109  71.982  1.00  0.00    -0.191 C  
HETATM   32  C   UNL     1      -9.329   4.194  73.160  1.00  0.00    -0.130 C  
HETATM   33  C   UNL     1      -9.806   3.616  71.861  1.00  0.00    -0.241 C  
ENDBRANCH  28  31
ENDBRANCH  19  21
ENDBRANCH  13  14
ENDBRANCH   6  13
TORSDOF 4
ENDMDL
MODEL      190
REMARK 921   NORMALIZED FREE ENERGY PREDICTED BY IDOCK:   -4.74 KCAL/MOL
REMARK 922        TOTAL FREE ENERGY PREDICTED BY IDOCK:   -6.59 KCAL/MOL
REMARK 923 INTER-LIGAND FREE ENERGY PREDICTED BY IDOCK:   -6.49 KCAL/MOL
REMARK 924 INTRA-LIGAND FREE ENERGY PREDICTED BY IDOCK:   -0.10 KCAL/MOL
REMARK 927      BINDING AFFINITY PREDICTED BY RF-SCORE:    0.00 PKD
ROOT
HETATM    1  O   UNL     1      -5.547  19.338  70.399  1.00  0.00    -0.221 OA 
HETATM    2  C   UNL     1      -6.123  18.406  69.590  1.00  0.00    -0.249 A  
HETATM    3  H   UNL     1      -5.696  20.234  70.123  1.00  0.00     0.000 HD 
HETATM    4  N   UNL     1      -5.912  17.137  69.979  1.00  0.00    -0.229 NA 
HETATM    5  N   UNL     1      -6.432  16.127  69.238  1.00  0.00    -0.169 NA 
HETATM    6  C   UNL     1      -7.159  16.400  68.124  1.00  0.00    -0.140 A  
HETATM    7  C   UNL     1      -7.414  17.728  67.700  1.00  0.00    -0.207 A  
HETATM    8  C   UNL     1      -7.816  20.440  66.963  1.00  0.00    -0.365 A  
HETATM    9  C   UNL     1      -8.185  18.089  66.566  1.00  0.00    -0.298 A  
HETATM   10  C   UNL     1      -6.858  18.774  68.467  1.00  0.00    -0.285 A  
HETATM   11  C   UNL     1      -8.387  19.425  66.207  1.00  0.00    -0.346 A  
HETATM   12  C   UNL     1      -7.057  20.117  68.085  1.00  0.00    -0.310 A  
ENDROOT
BRANCH   6  13
HETATM   13  C   UNL     1      -7.679  15.224  67.326  1.00  0.00    -0.243 C  
BRANCH  13  14
HETATM   14  C   UNL     1      -8.847  14.445  67.899  1.00  0.00    -0.179 A  
HETATM   15  C   UNL     1     -11.173  13.143  68.754  1.00  0.00    -0.281 A  
HETATM   16  C   UNL     1      -9.620  14.988  68.934  1.00  0.00    -0.221 A  
HETATM   17  C   UNL     1      -9.206  13.191  67.372  1.00  0.00    -0.213 A  
HETATM   18  F   UNL     1     -12.362  12.632  69.103  1.00  0.00    -0.258 F  
HETATM   19  C   UNL     1     -10.359  12.514  67.816  1.00  0.00    -0.224 A  
HETATM   20  C   UNL     1     -10.785  14.343  69.350  1.00  0.00    -0.184 A  
BRANCH  19  21
HETATM   21  C   UNL     1     -10.692  11.221  67.165  1.00  0.00    -0.253 C  
HETATM   22  N   UNL     1     -10.292   9.993  67.695  1.00  0.00    -0.207 N  
HETATM   23  C   UNL     1     -10.650   8.762  66.967  1.00  0.00    -0.213 C  
HETATM   24  O   UNL     1     -11.288  11.296  66.088  1.00  0.00    -0.199 OA 
HETATM   25  C   UNL     1      -9.411   7.894  66.699  1.00  0.00    -0.193 C  
HETATM   26  N   UNL     1      -8.664   7.641  67.940  1.00  0.00    -0.125 N  
HETATM   27  C   UNL     1      -8.307   8.851  68.682  1.00  0.00    -0.124 C  
HETATM   28  C   UNL     1      -8.307   6.341  68.264  1.00  0.00    -0.115 C  
HETATM   29  C   UNL     1      -9.526   9.751  68.924  1.00  0.00    -0.161 C  
HETATM   30  O   UNL     1      -8.628   5.376  67.576  1.00  0.00    -0.109 OA 
BRANCH  28  31
HETATM   31  C   UNL     1      -7.538   6.105  69.526  1.00  0.00    -0.094 C  
HETATM   32  C   UNL     1      -6.047   5.866  69.442  1.00  0.00    -0.028 C  
HETATM   33  C   UNL     1      -6.562   7.142  70.036  1.00  0.00    -0.050 C  
ENDBRANCH  28  31
ENDBRANCH  19  21
ENDBRANCH  13  14
ENDBRANCH   6  13
TORSDOF 4
ENDMDL
MODEL      191
REMARK 921   NORMALIZED FREE ENERGY PREDICTED BY IDOCK:   -4.70 KCAL/MOL
REMARK 922        TOTAL FREE ENERGY PREDICTED BY IDOCK:   -6.55 KCAL/MOL
REMARK 923 INTER-LIGAND FREE ENERGY PREDICTED BY IDOCK:   -6.06 KCAL/MOL
REMARK 924 INTRA-LIGAND FREE ENERGY PREDICTED BY IDOCK:   -0.49 KCAL/MOL
REMARK 927      BINDING AFFINITY PREDICTED BY RF-SCORE:    0.00 PKD
ROOT
HETATM    1  O   UNL     1     -12.549  12.535  62.904  1.00  0.00    -0.585 OA 
HETATM    2  C   UNL     1     -12.140  12.810  64.173  1.00  0.00    -0.438 A  
HETATM    3  H   UNL     1     -12.184  11.736  62.543  1.00  0.00     0.000 HD 
HETATM    4  N   UNL     1     -12.657  13.941  64.683  1.00  0.00    -0.658 NA 
HETATM    5  N   UNL     1     -12.306  14.315  65.938  1.00  0.00    -0.425 NA 
HETATM    6  C   UNL     1     -11.450  13.553  66.666  1.00  0.00    -0.339 A  
HETATM    7  C   UNL     1     -10.905  12.346  66.162  1.00  0.00    -0.308 A  
HETATM    8  C   UNL     1      -9.872   9.969  65.005  1.00  0.00    -0.374 A  
HETATM    9  C   UNL     1     -10.029  11.487  66.873  1.00  0.00    -0.231 A  
HETATM   10  C   UNL     1     -11.262  11.969  64.850  1.00  0.00    -0.374 A  
HETATM   11  C   UNL     1      -9.525  10.314  66.304  1.00  0.00    -0.223 A  
HETATM   12  C   UNL     1     -10.735  10.790  64.283  1.00  0.00    -0.096 A  
ENDROOT
BRANCH   6  13
HETATM   13  C   UNL     1     -11.075  14.051  68.046  1.00  0.00    -0.282 C  
BRANCH  13  14
HETATM   14  C   UNL     1      -9.696  14.654  68.226  1.00  0.00    -0.215 A  
HETATM   15  C   UNL     1      -7.251  15.886  68.811  1.00  0.00    -0.148 A  
HETATM   16  C   UNL     1      -9.411  15.931  67.725  1.00  0.00    -0.207 A  
HETATM   17  C   UNL     1      -8.696  13.967  68.938  1.00  0.00     0.106 A  
HETATM   18  F   UNL     1      -6.157  16.569  69.176  1.00  0.00    -0.133 F  
HETATM   19  C   UNL     1      -7.451  14.568  69.213  1.00  0.00    -0.102 A  
HETATM   20  C   UNL     1      -8.196  16.547  68.028  1.00  0.00    -0.172 A  
BRANCH  19  21
HETATM   21  C   UNL     1      -6.475  13.790  70.019  1.00  0.00    -0.027 C  
HETATM   22  N   UNL     1      -6.188  12.450  69.756  1.00  0.00    -0.133 N  
HETATM   23  C   UNL     1      -5.221  11.754  70.624  1.00  0.00    -0.131 C  
HETATM   24  O   UNL     1      -5.978  14.380  70.982  1.00  0.00    -0.194 OA 
HETATM   25  C   UNL     1      -5.817  10.456  71.191  1.00  0.00     0.026 C  
HETATM   26  N   UNL     1      -6.354   9.607  70.119  1.00  0.00    -0.060 N  
HETATM   27  C   UNL     1      -7.310  10.282  69.240  1.00  0.00    -0.099 C  
HETATM   28  C   UNL     1      -5.988   8.271  70.063  1.00  0.00    -0.025 C  
HETATM   29  C   UNL     1      -6.747  11.602  68.696  1.00  0.00    -0.074 C  
HETATM   30  O   UNL     1      -5.192   7.770  70.852  1.00  0.00    -0.026 OA 
BRANCH  28  31
HETATM   31  C   UNL     1      -6.552   7.420  68.969  1.00  0.00    -0.044 C  
HETATM   32  C   UNL     1      -6.356   7.850  67.531  1.00  0.00    -0.055 C  
HETATM   33  C   UNL     1      -5.636   6.641  68.050  1.00  0.00    -0.012 C  
ENDBRANCH  28  31
ENDBRANCH  19  21
ENDBRANCH  13  14
ENDBRANCH   6  13
TORSDOF 4
ENDMDL
MODEL      192
REMARK 921   NORMALIZED FREE ENERGY PREDICTED BY IDOCK:   -4.65 KCAL/MOL
REMARK 922        TOTAL FREE ENERGY PREDICTED BY IDOCK:   -6.49 KCAL/MOL
REMARK 923 INTER-LIGAND FREE ENERGY PREDICTED BY IDOCK:   -5.49 KCAL/MOL
REMARK 924 INTRA-LIGAND FREE ENERGY PREDICTED BY IDOCK:   -1.00 KCAL/MOL
REMARK 927      BINDING AFFINITY PREDICTED BY RF-SCORE:    0.00 PKD
ROOT
HETATM    1  O   UNL     1      -8.856  19.365  68.818  1.00  0.00    -0.366 OA 
HETATM    2  C   UNL     1      -8.855  18.092  68.335  1.00  0.00    -0.292 A  
HETATM    3  H   UNL     1      -9.382  19.971  68.310  1.00  0.00     0.000 HD 
HETATM    4  N   UNL     1      -8.110  17.235  69.053  1.00  0.00    -0.167 NA 
HETATM    5  N   UNL     1      -8.030  15.941  68.655  1.00  0.00    -0.146 NA 
HETATM    6  C   UNL     1      -8.700  15.522  67.550  1.00  0.00    -0.172 A  
HETATM    7  C   UNL     1      -9.508  16.399  66.785  1.00  0.00    -0.265 A  
HETATM    8  C   UNL     1     -11.066  18.279  65.338  1.00  0.00     0.678 A  
HETATM    9  C   UNL     1     -10.256  16.027  65.639  1.00  0.00    -0.412 A  
HETATM   10  C   UNL     1      -9.576  17.747  67.196  1.00  0.00    -0.276 A  
HETATM   11  C   UNL     1     -11.027  16.953  64.930  1.00  0.00    -0.011 A  
HETATM   12  C   UNL     1     -10.346  18.674  66.463  1.00  0.00    -0.462 A  
ENDROOT
BRANCH   6  13
HETATM   13  C   UNL     1      -8.536  14.073  67.144  1.00  0.00    -0.220 C  
BRANCH  13  14
HETATM   14  C   UNL     1      -9.360  13.037  67.884  1.00  0.00    -0.212 A  
HETATM   15  C   UNL     1     -10.936  11.002  68.985  1.00  0.00    -0.233 A  
HETATM   16  C   UNL     1     -10.732  13.238  68.088  1.00  0.00    -0.264 A  
HETATM   17  C   UNL     1      -8.777  11.838  68.334  1.00  0.00    -0.155 A  
HETATM   18  F   UNL     1     -11.752  10.014  69.379  1.00  0.00    -0.225 F  
HETATM   19  C   UNL     1      -9.557  10.819  68.915  1.00  0.00    -0.204 A  
HETATM   20  C   UNL     1     -11.516  12.218  68.626  1.00  0.00    -0.355 A  
BRANCH  19  21
HETATM   21  C   UNL     1      -8.866   9.565  69.311  1.00  0.00    -0.153 C  
HETATM   22  N   UNL     1      -8.651   8.516  68.416  1.00  0.00    -0.138 N  
HETATM   23  C   UNL     1      -7.976   7.301  68.905  1.00  0.00    -0.123 C  
HETATM   24  O   UNL     1      -8.551   9.474  70.500  1.00  0.00    -0.213 OA 
HETATM   25  C   UNL     1      -8.801   6.042  68.595  1.00  0.00    -0.109 C  
HETATM   26  N   UNL     1      -9.154   5.979  67.169  1.00  0.00    -0.113 N  
HETATM   27  C   UNL     1      -9.818   7.180  66.662  1.00  0.00    -0.169 C  
HETATM   28  C   UNL     1      -8.909   4.813  66.461  1.00  0.00    -0.111 C  
HETATM   29  C   UNL     1      -9.028   8.452  66.998  1.00  0.00    -0.142 C  
HETATM   30  O   UNL     1      -8.363   3.835  66.964  1.00  0.00    -0.098 OA 
BRANCH  28  31
HETATM   31  C   UNL     1      -9.284   4.765  65.013  1.00  0.00    -0.136 C  
HETATM   32  C   UNL     1      -8.248   5.137  63.974  1.00  0.00    -0.131 C  
HETATM   33  C   UNL     1      -8.694   3.711  64.101  1.00  0.00    -0.101 C  
ENDBRANCH  28  31
ENDBRANCH  19  21
ENDBRANCH  13  14
ENDBRANCH   6  13
TORSDOF 4
ENDMDL
MODEL      193
REMARK 921   NORMALIZED FREE ENERGY PREDICTED BY IDOCK:   -4.65 KCAL/MOL
REMARK 922        TOTAL FREE ENERGY PREDICTED BY IDOCK:   -6.48 KCAL/MOL
REMARK 923 INTER-LIGAND FREE ENERGY PREDICTED BY IDOCK:   -6.48 KCAL/MOL
REMARK 924 INTRA-LIGAND FREE ENERGY PREDICTED BY IDOCK:    0.00 KCAL/MOL
REMARK 927      BINDING AFFINITY PREDICTED BY RF-SCORE:    0.00 PKD
ROOT
HETATM    1  O   UNL     1      -6.012  15.069  69.703  1.00  0.00    -0.103 OA 
HETATM    2  C   UNL     1      -6.864  14.243  69.035  1.00  0.00    -0.109 A  
HETATM    3  H   UNL     1      -6.447  15.724  70.236  1.00  0.00     0.000 HD 
HETATM    4  N   UNL     1      -6.249  13.317  68.280  1.00  0.00    -0.088 NA 
HETATM    5  N   UNL     1      -7.004  12.448  67.562  1.00  0.00    -0.129 NA 
HETATM    6  C   UNL     1      -8.359  12.514  67.614  1.00  0.00    -0.172 A  
HETATM    7  C   UNL     1      -9.035  13.467  68.416  1.00  0.00    -0.136 A  
HETATM    8  C   UNL     1     -10.244  15.450  70.048  1.00  0.00    -0.265 A  
HETATM    9  C   UNL     1     -10.443  13.577  68.541  1.00  0.00    -0.250 A  
HETATM   10  C   UNL     1      -8.244  14.377  69.149  1.00  0.00     0.037 A  
HETATM   11  C   UNL     1     -11.037  14.551  69.349  1.00  0.00    -0.297 A  
HETATM   12  C   UNL     1      -8.857  15.364  69.949  1.00  0.00     0.136 A  
ENDROOT
BRANCH   6  13
HETATM   13  C   UNL     1      -9.137  11.536  66.760  1.00  0.00    -0.184 C  
BRANCH  13  14
HETATM   14  C   UNL     1      -9.931  12.095  65.595  1.00  0.00    -0.271 A  
HETATM   15  C   UNL     1     -11.640  13.070  63.603  1.00  0.00    -0.449 A  
HETATM   16  C   UNL     1     -10.379  11.248  64.572  1.00  0.00    -0.381 A  
HETATM   17  C   UNL     1     -10.273  13.459  65.544  1.00  0.00    -0.300 A  
HETATM   18  F   UNL     1     -12.563  13.453  62.711  1.00  0.00    -0.377 F  
HETATM   19  C   UNL     1     -11.110  13.965  64.529  1.00  0.00    -0.374 A  
HETATM   20  C   UNL     1     -11.240  11.734  63.588  1.00  0.00    -0.519 A  
BRANCH  19  21
HETATM   21  C   UNL     1     -11.463  15.407  64.584  1.00  0.00    -0.337 C  
HETATM   22  N   UNL     1     -10.564  16.381  65.018  1.00  0.00    -0.288 N  
HETATM   23  C   UNL     1     -11.011  17.784  65.060  1.00  0.00     0.750 C  
HETATM   24  O   UNL     1     -12.627  15.689  64.285  1.00  0.00    -0.376 OA 
HETATM   25  C   UNL     1     -10.774  18.404  66.446  1.00  0.00    -0.178 C  
HETATM   26  N   UNL     1      -9.379  18.224  66.873  1.00  0.00    -0.277 N  
HETATM   27  C   UNL     1      -8.912  16.838  66.831  1.00  0.00    -0.223 C  
HETATM   28  C   UNL     1      -8.664  19.320  67.332  1.00  0.00    -0.293 C  
HETATM   29  C   UNL     1      -9.178  16.190  65.466  1.00  0.00     0.226 C  
HETATM   30  O   UNL     1      -9.134  20.453  67.356  1.00  0.00    -0.359 OA 
BRANCH  28  31
HETATM   31  C   UNL     1      -7.248  19.115  67.772  1.00  0.00    -0.266 C  
HETATM   32  C   UNL     1      -6.624  20.114  68.722  1.00  0.00    -0.339 C  
HETATM   33  C   UNL     1      -6.936  18.728  69.201  1.00  0.00    -0.293 C  
ENDBRANCH  28  31
ENDBRANCH  19  21
ENDBRANCH  13  14
ENDBRANCH   6  13
TORSDOF 4
ENDMDL
MODEL      194
REMARK 921   NORMALIZED FREE ENERGY PREDICTED BY IDOCK:   -4.63 KCAL/MOL
REMARK 922        TOTAL FREE ENERGY PREDICTED BY IDOCK:   -6.46 KCAL/MOL
REMARK 923 INTER-LIGAND FREE ENERGY PREDICTED BY IDOCK:   -5.34 KCAL/MOL
REMARK 924 INTRA-LIGAND FREE ENERGY PREDICTED BY IDOCK:   -1.11 KCAL/MOL
REMARK 927      BINDING AFFINITY PREDICTED BY RF-SCORE:    0.00 PKD
ROOT
HETATM    1  O   UNL     1      -8.558   7.134  63.056  1.00  0.00    -0.349 OA 
HETATM    2  C   UNL     1      -8.056   6.888  64.298  1.00  0.00    -0.040 A  
HETATM    3  H   UNL     1      -8.360   8.002  62.723  1.00  0.00     0.000 HD 
HETATM    4  N   UNL     1      -8.336   5.661  64.769  1.00  0.00    -0.137 NA 
HETATM    5  N   UNL     1      -7.893   5.314  66.002  1.00  0.00    -0.102 NA 
HETATM    6  C   UNL     1      -7.173   6.195  66.744  1.00  0.00    -0.074 A  
HETATM    7  C   UNL     1      -6.846   7.489  66.266  1.00  0.00    -0.061 A  
HETATM    8  C   UNL     1      -6.295  10.054  65.183  1.00  0.00    -0.114 A  
HETATM    9  C   UNL     1      -6.077   8.449  66.971  1.00  0.00    -0.055 A  
HETATM   10  C   UNL     1      -7.322   7.849  64.987  1.00  0.00    -0.072 A  
HETATM   11  C   UNL     1      -5.802   9.711  66.435  1.00  0.00    -0.054 A  
HETATM   12  C   UNL     1      -7.050   9.130  64.464  1.00  0.00    -0.091 A  
ENDROOT
BRANCH   6  13
HETATM   13  C   UNL     1      -6.741   5.753  68.126  1.00  0.00    -0.058 C  
BRANCH  13  14
HETATM   14  C   UNL     1      -7.317   6.498  69.315  1.00  0.00    -0.093 A  
HETATM   15  C   UNL     1      -8.239   8.113  71.407  1.00  0.00    -0.120 A  
HETATM   16  C   UNL     1      -6.601   6.574  70.517  1.00  0.00    -0.049 A  
HETATM   17  C   UNL     1      -8.552   7.165  69.219  1.00  0.00    -0.137 A  
HETATM   18  F   UNL     1      -8.566   8.974  72.381  1.00  0.00    -0.176 F  
HETATM   19  C   UNL     1      -9.039   7.957  70.278  1.00  0.00    -0.152 A  
HETATM   20  C   UNL     1      -7.057   7.389  71.553  1.00  0.00    -0.066 A  
BRANCH  19  21
HETATM   21  C   UNL     1     -10.326   8.670  70.069  1.00  0.00    -0.207 C  
HETATM   22  N   UNL     1     -10.467   9.700  69.138  1.00  0.00    -0.207 N  
HETATM   23  C   UNL     1     -11.777  10.364  69.016  1.00  0.00    -0.096 C  
HETATM   24  O   UNL     1     -11.251   8.343  70.816  1.00  0.00    -0.258 OA 
HETATM   25  C   UNL     1     -11.644  11.888  69.158  1.00  0.00    -0.312 C  
HETATM   26  N   UNL     1     -10.634  12.420  68.233  1.00  0.00    -0.215 N  
HETATM   27  C   UNL     1      -9.327  11.767  68.332  1.00  0.00    -0.185 C  
HETATM   28  C   UNL     1     -10.956  13.497  67.421  1.00  0.00    -0.272 C  
HETATM   29  C   UNL     1      -9.445  10.241  68.233  1.00  0.00    -0.142 C  
HETATM   30  O   UNL     1     -12.073  14.004  67.410  1.00  0.00    -0.402 OA 
BRANCH  28  31
HETATM   31  C   UNL     1      -9.910  14.030  66.493  1.00  0.00    -0.298 C  
HETATM   32  C   UNL     1     -10.345  14.704  65.209  1.00  0.00    -0.425 C  
HETATM   33  C   UNL     1      -9.735  15.521  66.308  1.00  0.00    -0.328 C  
ENDBRANCH  28  31
ENDBRANCH  19  21
ENDBRANCH  13  14
ENDBRANCH   6  13
TORSDOF 4
ENDMDL
MODEL      195
REMARK 921   NORMALIZED FREE ENERGY PREDICTED BY IDOCK:   -4.63 KCAL/MOL
REMARK 922        TOTAL FREE ENERGY PREDICTED BY IDOCK:   -6.45 KCAL/MOL
REMARK 923 INTER-LIGAND FREE ENERGY PREDICTED BY IDOCK:   -6.19 KCAL/MOL
REMARK 924 INTRA-LIGAND FREE ENERGY PREDICTED BY IDOCK:   -0.26 KCAL/MOL
REMARK 927      BINDING AFFINITY PREDICTED BY RF-SCORE:    0.00 PKD
ROOT
HETATM    1  O   UNL     1     -11.028  15.037  68.475  1.00  0.00    -0.239 OA 
HETATM    2  C   UNL     1     -10.479  14.033  67.735  1.00  0.00    -0.236 A  
HETATM    3  H   UNL     1     -11.878  15.326  68.165  1.00  0.00     0.000 HD 
HETATM    4  N   UNL     1      -9.276  13.625  68.173  1.00  0.00    -0.200 NA 
HETATM    5  N   UNL     1      -8.635  12.636  67.503  1.00  0.00    -0.174 NA 
HETATM    6  C   UNL     1      -9.207  12.066  66.411  1.00  0.00    -0.216 A  
HETATM    7  C   UNL     1     -10.483  12.463  65.938  1.00  0.00    -0.284 A  
HETATM    8  C   UNL     1     -13.032  13.383  65.096  1.00  0.00    -0.249 A  
HETATM    9  C   UNL     1     -11.152  11.896  64.824  1.00  0.00    -0.367 A  
HETATM   10  C   UNL     1     -11.139  13.502  66.631  1.00  0.00    -0.309 A  
HETATM   11  C   UNL     1     -12.410  12.347  64.413  1.00  0.00    -0.532 A  
HETATM   12  C   UNL     1     -12.401  13.957  66.197  1.00  0.00    -0.504 A  
ENDROOT
BRANCH   6  13
HETATM   13  C   UNL     1      -8.418  10.993  65.691  1.00  0.00    -0.099 C  
BRANCH  13  14
HETATM   14  C   UNL     1      -7.700   9.960  66.538  1.00  0.00    -0.107 A  
HETATM   15  C   UNL     1      -6.156   8.254  68.132  1.00  0.00    -0.050 A  
HETATM   16  C   UNL     1      -6.804   9.059  65.947  1.00  0.00    -0.080 A  
HETATM   17  C   UNL     1      -7.880   9.920  67.933  1.00  0.00    -0.090 A  
HETATM   18  F   UNL     1      -5.301   7.517  68.855  1.00  0.00    -0.019 F  
HETATM   19  C   UNL     1      -7.128   9.043  68.741  1.00  0.00    -0.070 A  
HETATM   20  C   UNL     1      -6.028   8.218  66.744  1.00  0.00    -0.053 A  
BRANCH  19  21
HETATM   21  C   UNL     1      -7.343   9.107  70.210  1.00  0.00    -0.090 C  
HETATM   22  N   UNL     1      -7.795   8.011  70.947  1.00  0.00    -0.086 N  
HETATM   23  C   UNL     1      -8.001   8.175  72.397  1.00  0.00    -0.138 C  
HETATM   24  O   UNL     1      -7.164  10.209  70.735  1.00  0.00    -0.320 OA 
HETATM   25  C   UNL     1      -9.415   7.740  72.811  1.00  0.00    -0.215 C  
HETATM   26  N   UNL     1      -9.714   6.384  72.329  1.00  0.00    -0.152 N  
HETATM   27  C   UNL     1      -9.507   6.198  70.892  1.00  0.00    -0.172 C  
HETATM   28  C   UNL     1     -10.215   5.444  73.217  1.00  0.00    -0.192 C  
HETATM   29  C   UNL     1      -8.113   6.665  70.453  1.00  0.00    -0.117 C  
HETATM   30  O   UNL     1     -10.380   5.683  74.409  1.00  0.00    -0.270 OA 
BRANCH  28  31
HETATM   31  C   UNL     1     -10.522   4.072  72.706  1.00  0.00    -0.234 C  
HETATM   32  C   UNL     1      -9.996   2.873  73.464  1.00  0.00    -0.168 C  
HETATM   33  C   UNL     1     -11.467   3.164  73.462  1.00  0.00    -0.163 C  
ENDBRANCH  28  31
ENDBRANCH  19  21
ENDBRANCH  13  14
ENDBRANCH   6  13
TORSDOF 4
ENDMDL
MODEL      196
REMARK 921   NORMALIZED FREE ENERGY PREDICTED BY IDOCK:   -4.61 KCAL/MOL
REMARK 922        TOTAL FREE ENERGY PREDICTED BY IDOCK:   -6.44 KCAL/MOL
REMARK 923 INTER-LIGAND FREE ENERGY PREDICTED BY IDOCK:   -5.49 KCAL/MOL
REMARK 924 INTRA-LIGAND FREE ENERGY PREDICTED BY IDOCK:   -0.95 KCAL/MOL
REMARK 927      BINDING AFFINITY PREDICTED BY RF-SCORE:    0.00 PKD
ROOT
HETATM    1  O   UNL     1     -11.197  17.101  64.970  1.00  0.00    -0.474 OA 
HETATM    2  C   UNL     1     -11.008  15.910  65.603  1.00  0.00    -0.203 A  
HETATM    3  H   UNL     1     -11.615  17.025  64.120  1.00  0.00     0.000 HD 
HETATM    4  N   UNL     1     -10.416  16.017  66.805  1.00  0.00    -0.307 NA 
HETATM    5  N   UNL     1     -10.170  14.891  67.519  1.00  0.00    -0.233 NA 
HETATM    6  C   UNL     1     -10.523  13.676  67.024  1.00  0.00    -0.270 A  
HETATM    7  C   UNL     1     -11.165  13.534  65.769  1.00  0.00    -0.308 A  
HETATM    8  C   UNL     1     -12.419  13.408  63.226  1.00  0.00    -0.137 A  
HETATM    9  C   UNL     1     -11.586  12.305  65.202  1.00  0.00    -0.402 A  
HETATM   10  C   UNL     1     -11.406  14.709  65.025  1.00  0.00    -0.390 A  
HETATM   11  C   UNL     1     -12.208  12.244  63.951  1.00  0.00    -0.608 A  
HETATM   12  C   UNL     1     -12.021  14.632  63.758  1.00  0.00     0.160 A  
ENDROOT
BRANCH   6  13
HETATM   13  C   UNL     1     -10.185  12.459  67.858  1.00  0.00    -0.213 C  
BRANCH  13  14
HETATM   14  C   UNL     1      -9.018  11.601  67.411  1.00  0.00    -0.166 A  
HETATM   15  C   UNL     1      -6.874   9.888  66.854  1.00  0.00    -0.087 A  
HETATM   16  C   UNL     1      -7.701  12.015  67.654  1.00  0.00    -0.144 A  
HETATM   17  C   UNL     1      -9.233  10.356  66.792  1.00  0.00    -0.176 A  
HETATM   18  F   UNL     1      -5.829   9.057  66.733  1.00  0.00    -0.047 F  
HETATM   19  C   UNL     1      -8.158   9.499  66.482  1.00  0.00    -0.112 A  
HETATM   20  C   UNL     1      -6.636  11.155  67.386  1.00  0.00    -0.076 A  
BRANCH  19  21
HETATM   21  C   UNL     1      -8.482   8.180  65.879  1.00  0.00    -0.142 C  
HETATM   22  N   UNL     1      -8.704   7.039  66.652  1.00  0.00    -0.123 N  
HETATM   23  C   UNL     1      -8.998   5.769  65.965  1.00  0.00    -0.151 C  
HETATM   24  O   UNL     1      -8.479   8.134  64.646  1.00  0.00    -0.129 OA 
HETATM   25  C   UNL     1      -8.048   4.653  66.428  1.00  0.00    -0.103 C  
HETATM   26  N   UNL     1      -8.044   4.536  67.892  1.00  0.00    -0.091 N  
HETATM   27  C   UNL     1      -7.762   5.789  68.594  1.00  0.00    -0.090 C  
HETATM   28  C   UNL     1      -8.227   3.290  68.474  1.00  0.00    -0.068 C  
HETATM   29  C   UNL     1      -8.675   6.926  68.116  1.00  0.00    -0.126 C  
HETATM   30  O   UNL     1      -8.439   2.277  67.813  1.00  0.00    -0.068 OA 
BRANCH  28  31
HETATM   31  C   UNL     1      -8.210   3.189  69.967  1.00  0.00    -0.067 C  
HETATM   32  C   UNL     1      -8.715   1.922  70.621  1.00  0.00    -0.107 C  
HETATM   33  C   UNL     1      -7.252   2.246  70.662  1.00  0.00    -0.033 C  
ENDBRANCH  28  31
ENDBRANCH  19  21
ENDBRANCH  13  14
ENDBRANCH   6  13
TORSDOF 4
ENDMDL
MODEL      197
REMARK 921   NORMALIZED FREE ENERGY PREDICTED BY IDOCK:   -4.61 KCAL/MOL
REMARK 922        TOTAL FREE ENERGY PREDICTED BY IDOCK:   -6.44 KCAL/MOL
REMARK 923 INTER-LIGAND FREE ENERGY PREDICTED BY IDOCK:   -5.15 KCAL/MOL
REMARK 924 INTRA-LIGAND FREE ENERGY PREDICTED BY IDOCK:   -1.29 KCAL/MOL
REMARK 927      BINDING AFFINITY PREDICTED BY RF-SCORE:    0.00 PKD
ROOT
HETATM    1  O   UNL     1     -14.124   7.406  71.280  1.00  0.00    -0.569 OA 
HETATM    2  C   UNL     1     -13.343   8.479  70.976  1.00  0.00     0.131 A  
HETATM    3  H   UNL     1     -13.636   6.633  71.541  1.00  0.00     0.000 HD 
HETATM    4  N   UNL     1     -14.033   9.571  70.606  1.00  0.00     0.242 NA 
HETATM    5  N   UNL     1     -13.352  10.695  70.271  1.00  0.00     0.125 NA 
HETATM    6  C   UNL     1     -11.995  10.713  70.315  1.00  0.00    -0.339 A  
HETATM    7  C   UNL     1     -11.242   9.583  70.720  1.00  0.00    -0.383 A  
HETATM    8  C   UNL     1      -9.872   7.231  71.524  1.00  0.00    -0.182 A  
HETATM    9  C   UNL     1      -9.828   9.537  70.817  1.00  0.00    -0.309 A  
HETATM   10  C   UNL     1     -11.955   8.412  71.054  1.00  0.00    -0.255 A  
HETATM   11  C   UNL     1      -9.155   8.379  71.218  1.00  0.00    -0.226 A  
HETATM   12  C   UNL     1     -11.263   7.247  71.443  1.00  0.00    -0.274 A  
ENDROOT
BRANCH   6  13
HETATM   13  C   UNL     1     -11.301  11.990  69.893  1.00  0.00    -0.144 C  
BRANCH  13  14
HETATM   14  C   UNL     1     -10.939  12.144  68.429  1.00  0.00    -0.271 A  
HETATM   15  C   UNL     1     -10.117  12.669  65.805  1.00  0.00    -0.271 A  
HETATM   16  C   UNL     1     -11.741  12.918  67.579  1.00  0.00    -0.422 A  
HETATM   17  C   UNL     1      -9.770  11.557  67.909  1.00  0.00    -0.187 A  
HETATM   18  F   UNL     1      -9.703  13.060  64.591  1.00  0.00    -0.187 F  
HETATM   19  C   UNL     1      -9.363  11.793  66.581  1.00  0.00    -0.205 A  
HETATM   20  C   UNL     1     -11.323  13.187  66.276  1.00  0.00    -0.348 A  
BRANCH  19  21
HETATM   21  C   UNL     1      -8.087  11.177  66.133  1.00  0.00    -0.111 C  
HETATM   22  N   UNL     1      -8.036   9.924  65.520  1.00  0.00    -0.122 N  
HETATM   23  C   UNL     1      -6.722   9.384  65.130  1.00  0.00    -0.080 C  
HETATM   24  O   UNL     1      -7.061  11.810  66.395  1.00  0.00     0.032 OA 
HETATM   25  C   UNL     1      -6.504   7.977  65.708  1.00  0.00    -0.042 C  
HETATM   26  N   UNL     1      -7.623   7.087  65.370  1.00  0.00    -0.091 N  
HETATM   27  C   UNL     1      -8.939   7.609  65.742  1.00  0.00    -0.053 C  
HETATM   28  C   UNL     1      -7.358   5.845  64.815  1.00  0.00    -0.069 C  
HETATM   29  C   UNL     1      -9.158   9.031  65.207  1.00  0.00    -0.167 C  
HETATM   30  O   UNL     1      -6.220   5.469  64.549  1.00  0.00    -0.022 OA 
BRANCH  28  31
HETATM   31  C   UNL     1      -8.510   4.948  64.486  1.00  0.00    -0.144 C  
HETATM   32  C   UNL     1      -8.242   3.643  63.769  1.00  0.00    -0.090 C  
HETATM   33  C   UNL     1      -8.684   3.627  65.202  1.00  0.00    -0.116 C  
ENDBRANCH  28  31
ENDBRANCH  19  21
ENDBRANCH  13  14
ENDBRANCH   6  13
TORSDOF 4
ENDMDL
MODEL      198
REMARK 921   NORMALIZED FREE ENERGY PREDICTED BY IDOCK:   -4.60 KCAL/MOL
REMARK 922        TOTAL FREE ENERGY PREDICTED BY IDOCK:   -6.43 KCAL/MOL
REMARK 923 INTER-LIGAND FREE ENERGY PREDICTED BY IDOCK:   -5.95 KCAL/MOL
REMARK 924 INTRA-LIGAND FREE ENERGY PREDICTED BY IDOCK:   -0.48 KCAL/MOL
REMARK 927      BINDING AFFINITY PREDICTED BY RF-SCORE:    0.00 PKD
ROOT
HETATM    1  O   UNL     1     -10.004   1.974  64.283  1.00  0.00    -0.279 OA 
HETATM    2  C   UNL     1      -9.356   3.143  64.541  1.00  0.00    -0.144 A  
HETATM    3  H   UNL     1     -10.144   1.431  65.050  1.00  0.00     0.000 HD 
HETATM    4  N   UNL     1      -9.157   3.910  63.456  1.00  0.00    -0.114 NA 
HETATM    5  N   UNL     1      -8.510   5.094  63.598  1.00  0.00    -0.132 NA 
HETATM    6  C   UNL     1      -8.077   5.495  64.821  1.00  0.00    -0.126 A  
HETATM    7  C   UNL     1      -8.289   4.716  65.985  1.00  0.00    -0.114 A  
HETATM    8  C   UNL     1      -8.764   3.034  68.222  1.00  0.00    -0.141 A  
HETATM    9  C   UNL     1      -7.891   5.083  67.296  1.00  0.00    -0.096 A  
HETATM   10  C   UNL     1      -8.950   3.480  65.829  1.00  0.00    -0.140 A  
HETATM   11  C   UNL     1      -8.130   4.256  68.397  1.00  0.00    -0.081 A  
HETATM   12  C   UNL     1      -9.172   2.648  66.947  1.00  0.00    -0.123 A  
ENDROOT
BRANCH   6  13
HETATM   13  C   UNL     1      -7.331   6.810  64.899  1.00  0.00    -0.087 C  
BRANCH  13  14
HETATM   14  C   UNL     1      -8.102   8.076  64.578  1.00  0.00    -0.132 A  
HETATM   15  C   UNL     1      -9.747  10.238  63.902  1.00  0.00    -0.261 A  
HETATM   16  C   UNL     1      -8.037   8.640  63.297  1.00  0.00    -0.169 A  
HETATM   17  C   UNL     1      -8.931   8.679  65.542  1.00  0.00    -0.209 A  
HETATM   18  F   UNL     1     -10.608  11.180  63.490  1.00  0.00    -0.388 F  
HETATM   19  C   UNL     1      -9.742   9.786  65.218  1.00  0.00    -0.371 A  
HETATM   20  C   UNL     1      -8.866   9.709  62.959  1.00  0.00    -0.254 A  
BRANCH  19  21
HETATM   21  C   UNL     1     -10.627  10.324  66.283  1.00  0.00    -0.080 C  
HETATM   22  N   UNL     1     -10.679  11.683  66.596  1.00  0.00    -0.258 N  
HETATM   23  C   UNL     1     -11.572  12.122  67.683  1.00  0.00    -0.343 C  
HETATM   24  O   UNL     1     -11.270   9.488  66.925  1.00  0.00     0.160 OA 
HETATM   25  C   UNL     1     -10.811  12.955  68.726  1.00  0.00    -0.242 C  
HETATM   26  N   UNL     1     -10.082  14.061  68.090  1.00  0.00    -0.238 N  
HETATM   27  C   UNL     1      -9.196  13.647  67.001  1.00  0.00    -0.250 C  
HETATM   28  C   UNL     1     -10.225  15.346  68.591  1.00  0.00    -0.217 C  
HETATM   29  C   UNL     1      -9.929  12.779  65.970  1.00  0.00    -0.271 C  
HETATM   30  O   UNL     1     -10.976  15.611  69.525  1.00  0.00    -0.238 OA 
BRANCH  28  31
HETATM   31  C   UNL     1      -9.467  16.457  67.936  1.00  0.00    -0.223 C  
HETATM   32  C   UNL     1      -8.910  17.570  68.795  1.00  0.00    -0.215 C  
HETATM   33  C   UNL     1      -7.974  16.596  68.145  1.00  0.00    -0.177 C  
ENDBRANCH  28  31
ENDBRANCH  19  21
ENDBRANCH  13  14
ENDBRANCH   6  13
TORSDOF 4
ENDMDL
MODEL      199
REMARK 921   NORMALIZED FREE ENERGY PREDICTED BY IDOCK:   -4.58 KCAL/MOL
REMARK 922        TOTAL FREE ENERGY PREDICTED BY IDOCK:   -6.40 KCAL/MOL
REMARK 923 INTER-LIGAND FREE ENERGY PREDICTED BY IDOCK:   -5.48 KCAL/MOL
REMARK 924 INTRA-LIGAND FREE ENERGY PREDICTED BY IDOCK:   -0.92 KCAL/MOL
REMARK 927      BINDING AFFINITY PREDICTED BY RF-SCORE:    0.00 PKD
ROOT
HETATM    1  O   UNL     1     -12.926   9.865  72.656  1.00  0.00    -0.389 OA 
HETATM    2  C   UNL     1     -12.128   9.296  71.711  1.00  0.00    -0.387 A  
HETATM    3  H   UNL     1     -12.845   9.473  73.518  1.00  0.00     0.000 HD 
HETATM    4  N   UNL     1     -12.243   9.850  70.492  1.00  0.00    -0.222 NA 
HETATM    5  N   UNL     1     -11.500   9.353  69.472  1.00  0.00     0.059 NA 
HETATM    6  C   UNL     1     -10.650   8.315  69.686  1.00  0.00    -0.222 A  
HETATM    7  C   UNL     1     -10.494   7.724  70.965  1.00  0.00    -0.216 A  
HETATM    8  C   UNL     1     -10.310   6.627  73.576  1.00  0.00    -0.318 A  
HETATM    9  C   UNL     1      -9.608   6.659  71.268  1.00  0.00    -0.176 A  
HETATM   10  C   UNL     1     -11.280   8.236  72.018  1.00  0.00    -0.389 A  
HETATM   11  C   UNL     1      -9.515   6.123  72.556  1.00  0.00    -0.146 A  
HETATM   12  C   UNL     1     -11.187   7.677  73.310  1.00  0.00    -0.167 A  
ENDROOT
BRANCH   6  13
HETATM   13  C   UNL     1      -9.880   7.788  68.495  1.00  0.00    -0.181 C  
BRANCH  13  14
HETATM   14  C   UNL     1      -9.488   8.780  67.416  1.00  0.00    -0.183 A  
HETATM   15  C   UNL     1      -8.936  10.806  65.565  1.00  0.00    -0.193 A  
HETATM   16  C   UNL     1     -10.263   8.907  66.256  1.00  0.00    -0.203 A  
HETATM   17  C   UNL     1      -8.372   9.621  67.581  1.00  0.00    -0.121 A  
HETATM   18  F   UNL     1      -8.798  11.840  64.722  1.00  0.00     0.078 F  
HETATM   19  C   UNL     1      -8.070  10.626  66.640  1.00  0.00    -0.136 A  
HETATM   20  C   UNL     1      -9.993   9.925  65.341  1.00  0.00    -0.349 A  
BRANCH  19  21
HETATM   21  C   UNL     1      -6.905  11.504  66.922  1.00  0.00    -0.138 C  
HETATM   22  N   UNL     1      -7.041  12.755  67.526  1.00  0.00    -0.142 N  
HETATM   23  C   UNL     1      -5.831  13.566  67.746  1.00  0.00    -0.116 C  
HETATM   24  O   UNL     1      -5.810  11.092  66.530  1.00  0.00    -0.113 OA 
HETATM   25  C   UNL     1      -5.986  14.973  67.147  1.00  0.00     0.627 C  
HETATM   26  N   UNL     1      -7.216  15.619  67.628  1.00  0.00    -0.155 N  
HETATM   27  C   UNL     1      -8.429  14.826  67.426  1.00  0.00    -0.201 C  
HETATM   28  C   UNL     1      -7.149  16.903  68.147  1.00  0.00    -0.165 C  
HETATM   29  C   UNL     1      -8.277  13.404  67.982  1.00  0.00    -0.161 C  
HETATM   30  O   UNL     1      -6.091  17.514  68.266  1.00  0.00    -0.161 OA 
BRANCH  28  31
HETATM   31  C   UNL     1      -8.413  17.548  68.622  1.00  0.00    -0.258 C  
HETATM   32  C   UNL     1      -8.457  19.053  68.771  1.00  0.00    -0.359 C  
HETATM   33  C   UNL     1      -9.246  18.391  67.682  1.00  0.00    -0.274 C  
ENDBRANCH  28  31
ENDBRANCH  19  21
ENDBRANCH  13  14
ENDBRANCH   6  13
TORSDOF 4
ENDMDL
MODEL      200
REMARK 921   NORMALIZED FREE ENERGY PREDICTED BY IDOCK:   -4.53 KCAL/MOL
REMARK 922        TOTAL FREE ENERGY PREDICTED BY IDOCK:   -6.33 KCAL/MOL
REMARK 923 INTER-LIGAND FREE ENERGY PREDICTED BY IDOCK:   -6.00 KCAL/MOL
REMARK 924 INTRA-LIGAND FREE ENERGY PREDICTED BY IDOCK:   -0.33 KCAL/MOL
REMARK 927      BINDING AFFINITY PREDICTED BY RF-SCORE:    0.00 PKD
ROOT
HETATM    1  O   UNL     1     -10.111  16.148  68.118  1.00  0.00    -0.230 OA 
HETATM    2  C   UNL     1     -10.730  14.936  68.170  1.00  0.00    -0.251 A  
HETATM    3  H   UNL     1      -9.861  16.418  67.242  1.00  0.00     0.000 HD 
HETATM    4  N   UNL     1     -11.083  14.554  69.409  1.00  0.00    -0.263 NA 
HETATM    5  N   UNL     1     -11.697  13.357  69.578  1.00  0.00    -0.310 NA 
HETATM    6  C   UNL     1     -11.954  12.563  68.507  1.00  0.00    -0.219 A  
HETATM    7  C   UNL     1     -11.611  12.948  67.187  1.00  0.00    -0.421 A  
HETATM    8  C   UNL     1     -10.840  13.844  64.606  1.00  0.00    -0.420 A  
HETATM    9  C   UNL     1     -11.873  12.185  66.020  1.00  0.00    -0.328 A  
HETATM   10  C   UNL     1     -10.960  14.188  67.019  1.00  0.00    -0.303 A  
HETATM   11  C   UNL     1     -11.497  12.630  64.749  1.00  0.00    -0.364 A  
HETATM   12  C   UNL     1     -10.573  14.618  65.733  1.00  0.00    -0.330 A  
ENDROOT
BRANCH   6  13
HETATM   13  C   UNL     1     -12.610  11.225  68.773  1.00  0.00     0.740 C  
BRANCH  13  14
HETATM   14  C   UNL     1     -11.908  10.274  69.723  1.00  0.00    -0.217 A  
HETATM   15  C   UNL     1     -10.826   8.322  71.414  1.00  0.00    -0.239 A  
HETATM   16  C   UNL     1     -12.256  10.243  71.080  1.00  0.00    -0.487 A  
HETATM   17  C   UNL     1     -10.933   9.374  69.253  1.00  0.00    -0.137 A  
HETATM   18  F   UNL     1     -10.443   7.328  72.228  1.00  0.00    -0.209 F  
HETATM   19  C   UNL     1     -10.362   8.406  70.104  1.00  0.00    -0.214 A  
HETATM   20  C   UNL     1     -11.725   9.262  71.917  1.00  0.00    -0.420 A  
BRANCH  19  21
HETATM   21  C   UNL     1      -9.381   7.461  69.510  1.00  0.00    -0.156 C  
HETATM   22  N   UNL     1      -8.518   7.831  68.478  1.00  0.00    -0.128 N  
HETATM   23  C   UNL     1      -7.594   6.819  67.936  1.00  0.00    -0.107 C  
HETATM   24  O   UNL     1      -9.419   6.304  69.938  1.00  0.00    -0.149 OA 
HETATM   25  C   UNL     1      -7.726   6.704  66.409  1.00  0.00    -0.102 C  
HETATM   26  N   UNL     1      -7.592   8.019  65.767  1.00  0.00    -0.080 N  
HETATM   27  C   UNL     1      -8.495   9.041  66.296  1.00  0.00    -0.125 C  
HETATM   28  C   UNL     1      -6.710   8.169  64.707  1.00  0.00    -0.066 C  
HETATM   29  C   UNL     1      -8.406   9.142  67.825  1.00  0.00    -0.117 C  
HETATM   30  O   UNL     1      -5.997   7.254  64.305  1.00  0.00    -0.036 OA 
BRANCH  28  31
HETATM   31  C   UNL     1      -6.594   9.513  64.059  1.00  0.00    -0.101 C  
HETATM   32  C   UNL     1      -5.229  10.153  63.939  1.00  0.00    -0.111 C  
HETATM   33  C   UNL     1      -5.929   9.660  62.708  1.00  0.00    -0.100 C  
ENDBRANCH  28  31
ENDBRANCH  19  21
ENDBRANCH  13  14
ENDBRANCH   6  13
TORSDOF 4
ENDMDL
MODEL      201
REMARK 921   NORMALIZED FREE ENERGY PREDICTED BY IDOCK:   -4.48 KCAL/MOL
REMARK 922        TOTAL FREE ENERGY PREDICTED BY IDOCK:   -6.27 KCAL/MOL
REMARK 923 INTER-LIGAND FREE ENERGY PREDICTED BY IDOCK:   -6.26 KCAL/MOL
REMARK 924 INTRA-LIGAND FREE ENERGY PREDICTED BY IDOCK:   -0.02 KCAL/MOL
REMARK 927      BINDING AFFINITY PREDICTED BY RF-SCORE:    0.00 PKD
ROOT
HETATM    1  O   UNL     1     -10.212  10.761  66.048  1.00  0.00    -0.239 OA 
HETATM    2  C   UNL     1      -9.452   9.647  66.237  1.00  0.00    -0.199 A  
HETATM    3  H   UNL     1      -9.710  11.561  65.955  1.00  0.00     0.000 HD 
HETATM    4  N   UNL     1     -10.162   8.514  66.369  1.00  0.00    -0.224 NA 
HETATM    5  N   UNL     1      -9.505   7.346  66.573  1.00  0.00    -0.184 NA 
HETATM    6  C   UNL     1      -8.148   7.326  66.636  1.00  0.00    -0.113 A  
HETATM    7  C   UNL     1      -7.372   8.502  66.481  1.00  0.00    -0.084 A  
HETATM    8  C   UNL     1      -5.956  10.943  66.180  1.00  0.00    -0.141 A  
HETATM    9  C   UNL     1      -5.955   8.553  66.508  1.00  0.00    -0.052 A  
HETATM   10  C   UNL     1      -8.063   9.716  66.284  1.00  0.00    -0.112 A  
HETATM   11  C   UNL     1      -5.258   9.756  66.354  1.00  0.00    -0.043 A  
HETATM   12  C   UNL     1      -7.348  10.924  66.144  1.00  0.00    -0.103 A  
ENDROOT
BRANCH   6  13
HETATM   13  C   UNL     1      -7.483   5.993  66.902  1.00  0.00    -0.084 C  
BRANCH  13  14
HETATM   14  C   UNL     1      -8.232   4.990  67.758  1.00  0.00    -0.098 A  
HETATM   15  C   UNL     1      -9.373   3.128  69.509  1.00  0.00    -0.158 A  
HETATM   16  C   UNL     1      -8.127   3.618  67.496  1.00  0.00    -0.089 A  
HETATM   17  C   UNL     1      -9.003   5.413  68.856  1.00  0.00    -0.130 A  
HETATM   18  F   UNL     1      -9.781   2.199  70.385  1.00  0.00    -0.195 F  
HETATM   19  C   UNL     1      -9.605   4.483  69.728  1.00  0.00    -0.270 A  
HETATM   20  C   UNL     1      -8.687   2.692  68.376  1.00  0.00    -0.131 A  
BRANCH  19  21
HETATM   21  C   UNL     1     -10.354   5.018  70.893  1.00  0.00    -0.190 C  
HETATM   22  N   UNL     1     -11.107   6.191  70.823  1.00  0.00    -0.303 N  
HETATM   23  C   UNL     1     -11.800   6.657  72.038  1.00  0.00    -0.324 C  
HETATM   24  O   UNL     1     -10.220   4.400  71.952  1.00  0.00    -0.185 OA 
HETATM   25  C   UNL     1     -11.441   8.117  72.358  1.00  0.00    -0.397 C  
HETATM   26  N   UNL     1     -11.662   8.984  71.193  1.00  0.00    -0.288 N  
HETATM   27  C   UNL     1     -10.990   8.534  69.973  1.00  0.00    -0.196 C  
HETATM   28  C   UNL     1     -12.399  10.149  71.344  1.00  0.00    -0.416 C  
HETATM   29  C   UNL     1     -11.304   7.065  69.659  1.00  0.00    -0.138 C  
HETATM   30  O   UNL     1     -12.917  10.470  72.409  1.00  0.00    -0.252 OA 
BRANCH  28  31
HETATM   31  C   UNL     1     -12.605  11.024  70.147  1.00  0.00    -0.281 C  
HETATM   32  C   UNL     1     -12.405  12.517  70.288  1.00  0.00    -0.265 C  
HETATM   33  C   UNL     1     -11.430  11.709  69.485  1.00  0.00    -0.371 C  
ENDBRANCH  28  31
ENDBRANCH  19  21
ENDBRANCH  13  14
ENDBRANCH   6  13
TORSDOF 4
ENDMDL
MODEL      202
REMARK 921   NORMALIZED FREE ENERGY PREDICTED BY IDOCK:   -4.44 KCAL/MOL
REMARK 922        TOTAL FREE ENERGY PREDICTED BY IDOCK:   -6.22 KCAL/MOL
REMARK 923 INTER-LIGAND FREE ENERGY PREDICTED BY IDOCK:   -7.42 KCAL/MOL
REMARK 924 INTRA-LIGAND FREE ENERGY PREDICTED BY IDOCK:    1.20 KCAL/MOL
REMARK 927      BINDING AFFINITY PREDICTED BY RF-SCORE:    0.00 PKD
ROOT
HETATM    1  O   UNL     1     -10.587   3.278  74.512  1.00  0.00    -0.186 OA 
HETATM    2  C   UNL     1     -10.714   4.405  73.757  1.00  0.00    -0.271 A  
HETATM    3  H   UNL     1      -9.736   3.180  74.921  1.00  0.00     0.000 HD 
HETATM    4  N   UNL     1     -11.918   4.543  73.178  1.00  0.00    -0.016 NA 
HETATM    5  N   UNL     1     -12.150   5.626  72.395  1.00  0.00    -0.104 NA 
HETATM    6  C   UNL     1     -11.177   6.556  72.207  1.00  0.00    -0.273 A  
HETATM    7  C   UNL     1      -9.905   6.446  72.821  1.00  0.00    -0.179 A  
HETATM    8  C   UNL     1      -7.396   6.073  74.095  1.00  0.00    -0.088 A  
HETATM    9  C   UNL     1      -8.853   7.388  72.694  1.00  0.00    -0.163 A  
HETATM   10  C   UNL     1      -9.666   5.310  73.623  1.00  0.00    -0.150 A  
HETATM   11  C   UNL     1      -7.620   7.206  73.326  1.00  0.00    -0.092 A  
HETATM   12  C   UNL     1      -8.412   5.131  74.244  1.00  0.00    -0.104 A  
ENDROOT
BRANCH   6  13
HETATM   13  C   UNL     1     -11.493   7.719  71.292  1.00  0.00    -0.294 C  
BRANCH  13  14
HETATM   14  C   UNL     1     -10.898   7.700  69.898  1.00  0.00    -0.241 A  
HETATM   15  C   UNL     1     -10.076   7.637  67.222  1.00  0.00    -0.237 A  
HETATM   16  C   UNL     1     -10.541   6.486  69.297  1.00  0.00    -0.292 A  
HETATM   17  C   UNL     1     -10.739   8.891  69.165  1.00  0.00    -0.162 A  
HETATM   18  F   UNL     1      -9.810   7.538  65.912  1.00  0.00    -0.090 F  
HETATM   19  C   UNL     1     -10.299   8.871  67.826  1.00  0.00    -0.301 A  
HETATM   20  C   UNL     1     -10.143   6.456  67.960  1.00  0.00    -0.168 A  
BRANCH  19  21
HETATM   21  C   UNL     1     -10.213  10.171  67.112  1.00  0.00    -0.225 C  
HETATM   22  N   UNL     1     -10.337  11.396  67.770  1.00  0.00    -0.178 N  
HETATM   23  C   UNL     1     -10.260  12.634  66.974  1.00  0.00    -0.226 C  
HETATM   24  O   UNL     1     -10.093  10.106  65.885  1.00  0.00    -0.258 OA 
HETATM   25  C   UNL     1     -11.480  13.534  67.227  1.00  0.00    -0.339 C  
HETATM   26  N   UNL     1     -11.669  13.776  68.664  1.00  0.00    -0.334 N  
HETATM   27  C   UNL     1     -11.739  12.559  69.474  1.00  0.00    -0.309 C  
HETATM   28  C   UNL     1     -11.833  15.077  69.117  1.00  0.00    -0.308 C  
HETATM   29  C   UNL     1     -10.550  11.628  69.204  1.00  0.00    -0.108 C  
HETATM   30  O   UNL     1     -11.781  16.049  68.370  1.00  0.00    -0.346 OA 
BRANCH  28  31
HETATM   31  C   UNL     1     -12.034  15.302  70.583  1.00  0.00    -0.386 C  
HETATM   32  C   UNL     1     -13.444  15.345  71.131  1.00  0.00    -0.565 C  
HETATM   33  C   UNL     1     -12.552  14.188  71.467  1.00  0.00    -0.434 C  
ENDBRANCH  28  31
ENDBRANCH  19  21
ENDBRANCH  13  14
ENDBRANCH   6  13
TORSDOF 4
ENDMDL
MODEL      203
REMARK 921   NORMALIZED FREE ENERGY PREDICTED BY IDOCK:   -4.42 KCAL/MOL
REMARK 922        TOTAL FREE ENERGY PREDICTED BY IDOCK:   -6.20 KCAL/MOL
REMARK 923 INTER-LIGAND FREE ENERGY PREDICTED BY IDOCK:   -5.17 KCAL/MOL
REMARK 924 INTRA-LIGAND FREE ENERGY PREDICTED BY IDOCK:   -1.03 KCAL/MOL
REMARK 927      BINDING AFFINITY PREDICTED BY RF-SCORE:    0.00 PKD
ROOT
HETATM    1  O   UNL     1     -11.142   3.361  64.226  1.00  0.00    -0.608 OA 
HETATM    2  C   UNL     1     -10.218   4.011  64.987  1.00  0.00    -0.181 A  
HETATM    3  H   UNL     1     -10.776   2.901  63.481  1.00  0.00     0.000 HD 
HETATM    4  N   UNL     1     -10.737   4.663  66.041  1.00  0.00    -0.225 NA 
HETATM    5  N   UNL     1      -9.906   5.353  66.860  1.00  0.00    -0.150 NA 
HETATM    6  C   UNL     1      -8.570   5.377  66.617  1.00  0.00    -0.115 A  
HETATM    7  C   UNL     1      -7.993   4.684  65.525  1.00  0.00    -0.095 A  
HETATM    8  C   UNL     1      -6.987   3.269  63.279  1.00  0.00    -0.043 A  
HETATM    9  C   UNL     1      -6.607   4.642  65.225  1.00  0.00    -0.047 A  
HETATM   10  C   UNL     1      -8.864   3.980  64.668  1.00  0.00    -0.131 A  
HETATM   11  C   UNL     1      -6.112   3.940  64.122  1.00  0.00    -0.018 A  
HETATM   12  C   UNL     1      -8.353   3.287  63.550  1.00  0.00    -0.089 A  
ENDROOT
BRANCH   6  13
HETATM   13  C   UNL     1      -7.707   6.198  67.552  1.00  0.00    -0.097 C  
BRANCH  13  14
HETATM   14  C   UNL     1      -7.299   7.586  67.098  1.00  0.00    -0.094 A  
HETATM   15  C   UNL     1      -6.514  10.033  65.987  1.00  0.00    -0.093 A  
HETATM   16  C   UNL     1      -5.950   7.967  67.110  1.00  0.00    -0.049 A  
HETATM   17  C   UNL     1      -8.256   8.496  66.612  1.00  0.00    -0.108 A  
HETATM   18  F   UNL     1      -6.074  11.126  65.348  1.00  0.00    -0.078 F  
HETATM   19  C   UNL     1      -7.872   9.742  66.077  1.00  0.00    -0.107 A  
HETATM   20  C   UNL     1      -5.561   9.181  66.545  1.00  0.00    -0.049 A  
BRANCH  19  21
HETATM   21  C   UNL     1      -8.945  10.617  65.536  1.00  0.00    -0.191 C  
HETATM   22  N   UNL     1      -9.192  11.895  66.039  1.00  0.00    -0.206 N  
HETATM   23  C   UNL     1     -10.292  12.682  65.454  1.00  0.00    -0.291 C  
HETATM   24  O   UNL     1      -9.652  10.122  64.654  1.00  0.00    -0.278 OA 
HETATM   25  C   UNL     1     -11.261  13.177  66.538  1.00  0.00    -0.310 C  
HETATM   26  N   UNL     1     -10.542  13.886  67.606  1.00  0.00    -0.244 N  
HETATM   27  C   UNL     1      -9.439  13.125  68.195  1.00  0.00    -0.222 C  
HETATM   28  C   UNL     1     -10.985  15.137  68.007  1.00  0.00    -0.295 C  
HETATM   29  C   UNL     1      -8.483  12.587  67.123  1.00  0.00    -0.186 C  
HETATM   30  O   UNL     1     -11.934  15.705  67.475  1.00  0.00     0.061 OA 
BRANCH  28  31
HETATM   31  C   UNL     1     -10.245  15.839  69.103  1.00  0.00    -0.231 C  
HETATM   32  C   UNL     1      -9.249  16.919  68.739  1.00  0.00    -0.260 C  
HETATM   33  C   UNL     1     -10.534  17.291  69.417  1.00  0.00    -0.142 C  
ENDBRANCH  28  31
ENDBRANCH  19  21
ENDBRANCH  13  14
ENDBRANCH   6  13
TORSDOF 4
ENDMDL
MODEL      204
REMARK 921   NORMALIZED FREE ENERGY PREDICTED BY IDOCK:   -4.42 KCAL/MOL
REMARK 922        TOTAL FREE ENERGY PREDICTED BY IDOCK:   -6.20 KCAL/MOL
REMARK 923 INTER-LIGAND FREE ENERGY PREDICTED BY IDOCK:   -6.74 KCAL/MOL
REMARK 924 INTRA-LIGAND FREE ENERGY PREDICTED BY IDOCK:    0.54 KCAL/MOL
REMARK 927      BINDING AFFINITY PREDICTED BY RF-SCORE:    0.00 PKD
ROOT
HETATM    1  O   UNL     1      -9.349   5.808  68.952  1.00  0.00    -0.120 OA 
HETATM    2  C   UNL     1      -9.301   6.929  68.180  1.00  0.00    -0.124 A  
HETATM    3  H   UNL     1      -8.898   5.061  68.578  1.00  0.00     0.000 HD 
HETATM    4  N   UNL     1      -9.940   7.986  68.709  1.00  0.00    -0.183 NA 
HETATM    5  N   UNL     1      -9.963   9.153  68.017  1.00  0.00    -0.169 NA 
HETATM    6  C   UNL     1      -9.344   9.247  66.812  1.00  0.00    -0.156 A  
HETATM    7  C   UNL     1      -8.646   8.155  66.240  1.00  0.00    -0.157 A  
HETATM    8  C   UNL     1      -7.312   5.871  65.208  1.00  0.00    -0.076 A  
HETATM    9  C   UNL     1      -7.954   8.187  65.002  1.00  0.00    -0.139 A  
HETATM   10  C   UNL     1      -8.637   6.940  66.957  1.00  0.00    -0.121 A  
HETATM   11  C   UNL     1      -7.293   7.063  64.497  1.00  0.00    -0.084 A  
HETATM   12  C   UNL     1      -7.979   5.809  66.430  1.00  0.00    -0.102 A  
ENDROOT
BRANCH   6  13
HETATM   13  C   UNL     1      -9.441  10.568  66.081  1.00  0.00    -0.222 C  
BRANCH  13  14
HETATM   14  C   UNL     1     -10.228  11.683  66.742  1.00  0.00    -0.248 A  
HETATM   15  C   UNL     1     -11.423  13.829  68.086  1.00  0.00    -0.313 A  
HETATM   16  C   UNL     1     -10.786  11.497  68.014  1.00  0.00    -0.259 A  
HETATM   17  C   UNL     1     -10.369  12.936  66.117  1.00  0.00    -0.286 A  
HETATM   18  F   UNL     1     -11.882  14.851  68.822  1.00  0.00    -0.307 F  
HETATM   19  C   UNL     1     -10.995  14.014  66.774  1.00  0.00    -0.298 A  
HETATM   20  C   UNL     1     -11.371  12.571  68.686  1.00  0.00    -0.329 A  
BRANCH  19  21
HETATM   21  C   UNL     1     -11.050  15.316  66.060  1.00  0.00    -0.278 C  
HETATM   22  N   UNL     1     -10.186  16.370  66.359  1.00  0.00    -0.304 N  
HETATM   23  C   UNL     1     -10.331  17.632  65.613  1.00  0.00    -0.111 C  
HETATM   24  O   UNL     1     -11.953  15.437  65.228  1.00  0.00     0.010 OA 
HETATM   25  C   UNL     1     -10.477  18.829  66.565  1.00  0.00    -0.427 C  
HETATM   26  N   UNL     1      -9.388  18.857  67.551  1.00  0.00    -0.292 N  
HETATM   27  C   UNL     1      -9.222  17.609  68.298  1.00  0.00    -0.283 C  
HETATM   28  C   UNL     1      -8.676  20.031  67.743  1.00  0.00    -0.300 C  
HETATM   29  C   UNL     1      -9.114  16.397  67.363  1.00  0.00    -0.199 C  
HETATM   30  O   UNL     1      -8.889  21.048  67.088  1.00  0.00    -0.152 OA 
BRANCH  28  31
HETATM   31  C   UNL     1      -7.577  20.043  68.758  1.00  0.00    -0.142 C  
HETATM   32  C   UNL     1      -6.300  19.286  68.463  1.00  0.00    -0.275 C  
HETATM   33  C   UNL     1      -6.287  20.785  68.485  1.00  0.00    -0.288 C  
ENDBRANCH  28  31
ENDBRANCH  19  21
ENDBRANCH  13  14
ENDBRANCH   6  13
TORSDOF 4
ENDMDL
MODEL      205
REMARK 921   NORMALIZED FREE ENERGY PREDICTED BY IDOCK:   -4.40 KCAL/MOL
REMARK 922        TOTAL FREE ENERGY PREDICTED BY IDOCK:   -6.18 KCAL/MOL
REMARK 923 INTER-LIGAND FREE ENERGY PREDICTED BY IDOCK:   -6.20 KCAL/MOL
REMARK 924 INTRA-LIGAND FREE ENERGY PREDICTED BY IDOCK:    0.03 KCAL/MOL
REMARK 927      BINDING AFFINITY PREDICTED BY RF-SCORE:    0.00 PKD
ROOT
HETATM    1  O   UNL     1     -13.243  16.107  74.074  1.00  0.00    -0.935 OA 
HETATM    2  C   UNL     1     -12.459  15.918  72.977  1.00  0.00    -0.491 A  
HETATM    3  H   UNL     1     -13.811  15.373  74.275  1.00  0.00     0.000 HD 
HETATM    4  N   UNL     1     -11.655  16.957  72.693  1.00  0.00     0.016 NA 
HETATM    5  N   UNL     1     -10.838  16.879  71.613  1.00  0.00     1.224 NA 
HETATM    6  C   UNL     1     -10.832  15.764  70.839  1.00  0.00    -0.129 A  
HETATM    7  C   UNL     1     -11.654  14.646  71.126  1.00  0.00    -0.275 A  
HETATM    8  C   UNL     1     -13.377  12.497  71.812  1.00  0.00    -0.382 A  
HETATM    9  C   UNL     1     -11.680  13.440  70.380  1.00  0.00    -0.184 A  
HETATM   10  C   UNL     1     -12.512  14.738  72.242  1.00  0.00    -0.408 A  
HETATM   11  C   UNL     1     -12.526  12.380  70.722  1.00  0.00    -0.356 A  
HETATM   12  C   UNL     1     -13.370  13.668  72.567  1.00  0.00    -0.638 A  
ENDROOT
BRANCH   6  13
HETATM   13  C   UNL     1      -9.922  15.761  69.629  1.00  0.00    -0.284 C  
BRANCH  13  14
HETATM   14  C   UNL     1     -10.542  15.445  68.282  1.00  0.00    -0.253 A  
HETATM   15  C   UNL     1     -11.435  14.965  65.672  1.00  0.00    -0.290 A  
HETATM   16  C   UNL     1     -11.283  16.418  67.599  1.00  0.00    -0.072 A  
HETATM   17  C   UNL     1     -10.343  14.193  67.672  1.00  0.00    -0.241 A  
HETATM   18  F   UNL     1     -11.765  14.836  64.380  1.00  0.00    -0.386 F  
HETATM   19  C   UNL     1     -10.814  13.932  66.369  1.00  0.00    -0.291 A  
HETATM   20  C   UNL     1     -11.717  16.181  66.295  1.00  0.00     0.949 A  
BRANCH  19  21
HETATM   21  C   UNL     1     -10.512  12.601  65.783  1.00  0.00    -0.277 C  
HETATM   22  N   UNL     1     -10.802  11.408  66.447  1.00  0.00    -0.277 N  
HETATM   23  C   UNL     1     -10.445  10.135  65.796  1.00  0.00    -0.057 C  
HETATM   24  O   UNL     1      -9.926  12.610  64.697  1.00  0.00    -0.236 OA 
HETATM   25  C   UNL     1      -9.593   9.255  66.723  1.00  0.00    -0.183 C  
HETATM   26  N   UNL     1     -10.243   9.079  68.029  1.00  0.00    -0.202 N  
HETATM   27  C   UNL     1     -10.614  10.331  68.689  1.00  0.00    -0.208 C  
HETATM   28  C   UNL     1     -10.387   7.801  68.549  1.00  0.00    -0.197 C  
HETATM   29  C   UNL     1     -11.431  11.242  67.763  1.00  0.00    -0.275 C  
HETATM   30  O   UNL     1     -10.032   6.796  67.941  1.00  0.00    -0.133 OA 
BRANCH  28  31
HETATM   31  C   UNL     1     -11.043   7.643  69.885  1.00  0.00    -0.160 C  
HETATM   32  C   UNL     1     -10.988   6.297  70.573  1.00  0.00    -0.374 C  
HETATM   33  C   UNL     1     -10.209   7.450  71.132  1.00  0.00    -0.199 C  
ENDBRANCH  28  31
ENDBRANCH  19  21
ENDBRANCH  13  14
ENDBRANCH   6  13
TORSDOF 4
ENDMDL
MODEL      206
REMARK 921   NORMALIZED FREE ENERGY PREDICTED BY IDOCK:   -4.39 KCAL/MOL
REMARK 922        TOTAL FREE ENERGY PREDICTED BY IDOCK:   -6.17 KCAL/MOL
REMARK 923 INTER-LIGAND FREE ENERGY PREDICTED BY IDOCK:   -5.74 KCAL/MOL
REMARK 924 INTRA-LIGAND FREE ENERGY PREDICTED BY IDOCK:   -0.43 KCAL/MOL
REMARK 927      BINDING AFFINITY PREDICTED BY RF-SCORE:    0.00 PKD
ROOT
HETATM    1  O   UNL     1     -11.024  11.239  63.005  1.00  0.00    -0.804 OA 
HETATM    2  C   UNL     1     -10.834  11.179  64.352  1.00  0.00    -0.270 A  
HETATM    3  H   UNL     1     -11.518  11.998  62.717  1.00  0.00     0.000 HD 
HETATM    4  N   UNL     1     -10.136  10.106  64.760  1.00  0.00    -0.284 NA 
HETATM    5  N   UNL     1      -9.898   9.942  66.085  1.00  0.00    -0.241 NA 
HETATM    6  C   UNL     1     -10.356  10.854  66.981  1.00  0.00    -0.231 A  
HETATM    7  C   UNL     1     -11.079  12.004  66.578  1.00  0.00    -0.362 A  
HETATM    8  C   UNL     1     -12.536  14.245  65.622  1.00  0.00    -0.429 A  
HETATM    9  C   UNL     1     -11.564  13.010  67.452  1.00  0.00    -0.407 A  
HETATM   10  C   UNL     1     -11.335  12.162  65.200  1.00  0.00    -0.379 A  
HETATM   11  C   UNL     1     -12.277  14.116  66.980  1.00  0.00    -0.374 A  
HETATM   12  C   UNL     1     -12.069  13.275  64.738  1.00  0.00    -0.456 A  
ENDROOT
BRANCH   6  13
HETATM   13  C   UNL     1     -10.085  10.588  68.446  1.00  0.00    -0.181 C  
BRANCH  13  14
HETATM   14  C   UNL     1      -8.687  10.864  68.965  1.00  0.00    -0.108 A  
HETATM   15  C   UNL     1      -6.235  11.480  70.168  1.00  0.00    -0.132 A  
HETATM   16  C   UNL     1      -8.077  12.103  68.730  1.00  0.00     0.033 A  
HETATM   17  C   UNL     1      -7.999   9.904  69.730  1.00  0.00    -0.181 A  
HETATM   18  F   UNL     1      -5.136  11.872  70.826  1.00  0.00    -0.085 F  
HETATM   19  C   UNL     1      -6.751  10.195  70.316  1.00  0.00    -0.143 A  
HETATM   20  C   UNL     1      -6.861  12.412  69.340  1.00  0.00     0.021 A  
BRANCH  19  21
HETATM   21  C   UNL     1      -6.122   9.141  71.154  1.00  0.00    -0.067 C  
HETATM   22  N   UNL     1      -6.080   7.802  70.763  1.00  0.00    -0.034 N  
HETATM   23  C   UNL     1      -5.455   6.824  71.670  1.00  0.00    -0.032 C  
HETATM   24  O   UNL     1      -5.695   9.508  72.252  1.00  0.00    -0.219 OA 
HETATM   25  C   UNL     1      -6.402   5.649  71.961  1.00  0.00    -0.044 C  
HETATM   26  N   UNL     1      -6.902   5.052  70.715  1.00  0.00    -0.039 N  
HETATM   27  C   UNL     1      -7.519   6.009  69.796  1.00  0.00    -0.080 C  
HETATM   28  C   UNL     1      -6.820   3.678  70.541  1.00  0.00    -0.033 C  
HETATM   29  C   UNL     1      -6.603   7.210  69.526  1.00  0.00    -0.044 C  
HETATM   30  O   UNL     1      -6.303   2.936  71.370  1.00  0.00    -0.017 OA 
BRANCH  28  31
HETATM   31  C   UNL     1      -7.344   3.088  69.269  1.00  0.00    -0.045 C  
HETATM   32  C   UNL     1      -6.407   2.942  68.089  1.00  0.00    -0.032 C  
HETATM   33  C   UNL     1      -6.887   1.719  68.813  1.00  0.00    -0.036 C  
ENDBRANCH  28  31
ENDBRANCH  19  21
ENDBRANCH  13  14
ENDBRANCH   6  13
TORSDOF 4
ENDMDL
MODEL      207
REMARK 921   NORMALIZED FREE ENERGY PREDICTED BY IDOCK:   -4.37 KCAL/MOL
REMARK 922        TOTAL FREE ENERGY PREDICTED BY IDOCK:   -6.14 KCAL/MOL
REMARK 923 INTER-LIGAND FREE ENERGY PREDICTED BY IDOCK:   -5.77 KCAL/MOL
REMARK 924 INTRA-LIGAND FREE ENERGY PREDICTED BY IDOCK:   -0.37 KCAL/MOL
REMARK 927      BINDING AFFINITY PREDICTED BY RF-SCORE:    0.00 PKD
ROOT
HETATM    1  O   UNL     1     -12.193   8.334  70.697  1.00  0.00    -0.496 OA 
HETATM    2  C   UNL     1     -11.466   7.183  70.680  1.00  0.00    -0.308 A  
HETATM    3  H   UNL     1     -12.196   8.777  71.537  1.00  0.00     0.000 HD 
HETATM    4  N   UNL     1     -11.462   6.555  69.492  1.00  0.00    -0.360 NA 
HETATM    5  N   UNL     1     -10.777   5.392  69.366  1.00  0.00    -0.238 NA 
HETATM    6  C   UNL     1     -10.103   4.876  70.426  1.00  0.00    -0.245 A  
HETATM    7  C   UNL     1     -10.074   5.525  71.686  1.00  0.00    -0.249 A  
HETATM    8  C   UNL     1     -10.132   6.927  74.153  1.00  0.00    -0.351 A  
HETATM    9  C   UNL     1      -9.372   5.061  72.827  1.00  0.00    -0.150 A  
HETATM   10  C   UNL     1     -10.800   6.728  71.814  1.00  0.00    -0.257 A  
HETATM   11  C   UNL     1      -9.397   5.755  74.040  1.00  0.00    -0.133 A  
HETATM   12  C   UNL     1     -10.829   7.410  73.048  1.00  0.00    -0.423 A  
ENDROOT
BRANCH   6  13
HETATM   13  C   UNL     1      -9.391   3.556  70.224  1.00  0.00    -0.242 C  
BRANCH  13  14
HETATM   14  C   UNL     1      -8.910   3.223  68.824  1.00  0.00    -0.165 A  
HETATM   15  C   UNL     1      -8.269   2.742  66.142  1.00  0.00    -0.086 A  
HETATM   16  C   UNL     1      -9.292   2.022  68.211  1.00  0.00    -0.251 A  
HETATM   17  C   UNL     1      -8.116   4.131  68.100  1.00  0.00    -0.085 A  
HETATM   18  F   UNL     1      -8.106   2.525  64.829  1.00  0.00    -0.078 F  
HETATM   19  C   UNL     1      -7.764   3.884  66.757  1.00  0.00    -0.088 A  
HETATM   20  C   UNL     1      -8.982   1.790  66.871  1.00  0.00    -0.127 A  
BRANCH  19  21
HETATM   21  C   UNL     1      -6.969   4.922  66.052  1.00  0.00    -0.066 C  
HETATM   22  N   UNL     1      -7.236   6.286  66.185  1.00  0.00    -0.074 N  
HETATM   23  C   UNL     1      -6.408   7.242  65.430  1.00  0.00    -0.038 C  
HETATM   24  O   UNL     1      -6.097   4.507  65.285  1.00  0.00    -0.022 OA 
HETATM   25  C   UNL     1      -7.278   8.194  64.595  1.00  0.00    -0.083 C  
HETATM   26  N   UNL     1      -8.302   8.842  65.428  1.00  0.00    -0.142 N  
HETATM   27  C   UNL     1      -9.130   7.909  66.194  1.00  0.00    -0.163 C  
HETATM   28  C   UNL     1      -8.449  10.219  65.374  1.00  0.00    -0.161 C  
HETATM   29  C   UNL     1      -8.277   6.923  67.002  1.00  0.00    -0.120 C  
HETATM   30  O   UNL     1      -7.725  10.935  64.689  1.00  0.00     0.155 OA 
BRANCH  28  31
HETATM   31  C   UNL     1      -9.503  10.859  66.222  1.00  0.00    -0.222 C  
HETATM   32  C   UNL     1      -9.851  12.312  65.987  1.00  0.00    -0.263 C  
HETATM   33  C   UNL     1     -10.839  11.244  65.626  1.00  0.00    -0.242 C  
ENDBRANCH  28  31
ENDBRANCH  19  21
ENDBRANCH  13  14
ENDBRANCH   6  13
TORSDOF 4
ENDMDL
MODEL      208
REMARK 921   NORMALIZED FREE ENERGY PREDICTED BY IDOCK:   -4.37 KCAL/MOL
REMARK 922        TOTAL FREE ENERGY PREDICTED BY IDOCK:   -6.14 KCAL/MOL
REMARK 923 INTER-LIGAND FREE ENERGY PREDICTED BY IDOCK:   -7.28 KCAL/MOL
REMARK 924 INTRA-LIGAND FREE ENERGY PREDICTED BY IDOCK:    1.14 KCAL/MOL
REMARK 927      BINDING AFFINITY PREDICTED BY RF-SCORE:    0.00 PKD
ROOT
HETATM    1  O   UNL     1     -12.639  14.969  64.193  1.00  0.00    -0.770 OA 
HETATM    2  C   UNL     1     -11.790  14.168  64.894  1.00  0.00    -0.402 A  
HETATM    3  H   UNL     1     -12.623  15.880  64.461  1.00  0.00     0.000 HD 
HETATM    4  N   UNL     1     -11.815  12.880  64.515  1.00  0.00    -0.353 NA 
HETATM    5  N   UNL     1     -11.015  11.991  65.155  1.00  0.00    -0.302 NA 
HETATM    6  C   UNL     1     -10.199  12.405  66.159  1.00  0.00    -0.242 A  
HETATM    7  C   UNL     1     -10.138  13.760  66.567  1.00  0.00    -0.286 A  
HETATM    8  C   UNL     1     -10.147  16.505  67.291  1.00  0.00    -0.273 A  
HETATM    9  C   UNL     1      -9.293  14.268  67.586  1.00  0.00    -0.201 A  
HETATM   10  C   UNL     1     -10.983  14.677  65.907  1.00  0.00    -0.332 A  
HETATM   11  C   UNL     1      -9.294  15.621  67.939  1.00  0.00    -0.195 A  
HETATM   12  C   UNL     1     -10.985  16.037  66.282  1.00  0.00    -0.071 A  
ENDROOT
BRANCH   6  13
HETATM   13  C   UNL     1      -9.360  11.352  66.852  1.00  0.00    -0.191 C  
BRANCH  13  14
HETATM   14  C   UNL     1      -9.962  10.654  68.056  1.00  0.00    -0.180 A  
HETATM   15  C   UNL     1     -11.256   9.228  70.089  1.00  0.00    -0.208 A  
HETATM   16  C   UNL     1     -11.052  11.218  68.731  1.00  0.00    -0.288 A  
HETATM   17  C   UNL     1      -9.471   9.407  68.486  1.00  0.00    -0.150 A  
HETATM   18  F   UNL     1     -11.990   8.533  70.969  1.00  0.00    -0.285 F  
HETATM   19  C   UNL     1     -10.099   8.694  69.528  1.00  0.00    -0.203 A  
HETATM   20  C   UNL     1     -11.702  10.501  69.735  1.00  0.00    -0.354 A  
BRANCH  19  21
HETATM   21  C   UNL     1      -9.546   7.361  69.879  1.00  0.00    -0.163 C  
HETATM   22  N   UNL     1      -9.214   6.411  68.912  1.00  0.00    -0.128 N  
HETATM   23  C   UNL     1      -8.693   5.106  69.357  1.00  0.00    -0.099 C  
HETATM   24  O   UNL     1      -9.458   7.114  71.085  1.00  0.00    -0.158 OA 
HETATM   25  C   UNL     1      -9.500   3.948  68.751  1.00  0.00    -0.155 C  
HETATM   26  N   UNL     1      -9.588   4.072  67.289  1.00  0.00    -0.198 N  
HETATM   27  C   UNL     1     -10.096   5.365  66.826  1.00  0.00    -0.214 C  
HETATM   28  C   UNL     1      -9.266   2.982  66.494  1.00  0.00    -0.125 C  
HETATM   29  C   UNL     1      -9.327   6.535  67.454  1.00  0.00    -0.121 C  
HETATM   30  O   UNL     1      -8.864   1.920  66.960  1.00  0.00    -0.116 OA 
BRANCH  28  31
HETATM   31  C   UNL     1      -9.371   3.126  65.009  1.00  0.00    -0.148 C  
HETATM   32  C   UNL     1     -10.413   4.061  64.435  1.00  0.00    -0.215 C  
HETATM   33  C   UNL     1      -8.960   4.415  64.330  1.00  0.00    -0.151 C  
ENDBRANCH  28  31
ENDBRANCH  19  21
ENDBRANCH  13  14
ENDBRANCH   6  13
TORSDOF 4
ENDMDL
MODEL      209
REMARK 921   NORMALIZED FREE ENERGY PREDICTED BY IDOCK:   -4.35 KCAL/MOL
REMARK 922        TOTAL FREE ENERGY PREDICTED BY IDOCK:   -6.12 KCAL/MOL
REMARK 923 INTER-LIGAND FREE ENERGY PREDICTED BY IDOCK:   -5.01 KCAL/MOL
REMARK 924 INTRA-LIGAND FREE ENERGY PREDICTED BY IDOCK:   -1.11 KCAL/MOL
REMARK 927      BINDING AFFINITY PREDICTED BY RF-SCORE:    0.00 PKD
ROOT
HETATM    1  O   UNL     1     -11.572   3.904  64.825  1.00  0.00    -0.613 OA 
HETATM    2  C   UNL     1     -10.269   4.288  64.721  1.00  0.00    -0.145 A  
HETATM    3  H   UNL     1     -11.854   3.729  65.715  1.00  0.00     0.000 HD 
HETATM    4  N   UNL     1      -9.870   4.534  63.462  1.00  0.00     0.065 NA 
HETATM    5  N   UNL     1      -8.587   4.914  63.242  1.00  0.00    -0.126 NA 
HETATM    6  C   UNL     1      -7.725   5.047  64.283  1.00  0.00    -0.085 A  
HETATM    7  C   UNL     1      -8.123   4.813  65.623  1.00  0.00    -0.111 A  
HETATM    8  C   UNL     1      -9.061   4.282  68.249  1.00  0.00    -0.172 A  
HETATM    9  C   UNL     1      -7.288   4.958  66.759  1.00  0.00    -0.086 A  
HETATM   10  C   UNL     1      -9.455   4.404  65.843  1.00  0.00    -0.174 A  
HETATM   11  C   UNL     1      -7.752   4.701  68.053  1.00  0.00    -0.081 A  
HETATM   12  C   UNL     1      -9.907   4.134  67.152  1.00  0.00    -0.182 A  
ENDROOT
BRANCH   6  13
HETATM   13  C   UNL     1      -6.299   5.439  63.961  1.00  0.00    -0.022 C  
BRANCH  13  14
HETATM   14  C   UNL     1      -5.984   6.919  63.846  1.00  0.00    -0.036 A  
HETATM   15  C   UNL     1      -5.683   9.685  63.544  1.00  0.00    -0.094 A  
HETATM   16  C   UNL     1      -5.504   7.449  62.642  1.00  0.00    -0.045 A  
HETATM   17  C   UNL     1      -6.213   7.790  64.927  1.00  0.00    -0.041 A  
HETATM   18  F   UNL     1      -5.652  11.004  63.305  1.00  0.00    -0.154 F  
HETATM   19  C   UNL     1      -6.037   9.182  64.792  1.00  0.00    -0.066 A  
HETATM   20  C   UNL     1      -5.366   8.829  62.490  1.00  0.00    -0.071 A  
BRANCH  19  21
HETATM   21  C   UNL     1      -6.355  10.032  65.969  1.00  0.00    -0.087 C  
HETATM   22  N   UNL     1      -7.620  10.587  66.170  1.00  0.00    -0.131 N  
HETATM   23  C   UNL     1      -7.837  11.435  67.355  1.00  0.00    -0.135 C  
HETATM   24  O   UNL     1      -5.414  10.277  66.729  1.00  0.00    -0.043 OA 
HETATM   25  C   UNL     1      -8.423  12.801  66.963  1.00  0.00    -0.153 C  
HETATM   26  N   UNL     1      -9.625  12.641  66.133  1.00  0.00    -0.247 N  
HETATM   27  C   UNL     1      -9.434  11.794  64.955  1.00  0.00    -0.062 C  
HETATM   28  C   UNL     1     -10.780  13.330  66.472  1.00  0.00    -0.285 C  
HETATM   29  C   UNL     1      -8.811  10.441  65.323  1.00  0.00    -0.186 C  
HETATM   30  O   UNL     1     -10.857  14.041  67.470  1.00  0.00    -0.265 OA 
BRANCH  28  31
HETATM   31  C   UNL     1     -11.991  13.162  65.610  1.00  0.00    -0.462 C  
HETATM   32  C   UNL     1     -12.977  14.305  65.501  1.00  0.00    -0.236 C  
HETATM   33  C   UNL     1     -12.129  13.941  64.320  1.00  0.00    -0.477 C  
ENDBRANCH  28  31
ENDBRANCH  19  21
ENDBRANCH  13  14
ENDBRANCH   6  13
TORSDOF 4
ENDMDL
MODEL      210
REMARK 921   NORMALIZED FREE ENERGY PREDICTED BY IDOCK:   -4.31 KCAL/MOL
REMARK 922        TOTAL FREE ENERGY PREDICTED BY IDOCK:   -6.07 KCAL/MOL
REMARK 923 INTER-LIGAND FREE ENERGY PREDICTED BY IDOCK:   -4.81 KCAL/MOL
REMARK 924 INTRA-LIGAND FREE ENERGY PREDICTED BY IDOCK:   -1.26 KCAL/MOL
REMARK 927      BINDING AFFINITY PREDICTED BY RF-SCORE:    0.00 PKD
ROOT
HETATM    1  O   UNL     1     -10.554   2.363  64.371  1.00  0.00    -0.362 OA 
HETATM    2  C   UNL     1      -9.582   3.267  64.673  1.00  0.00    -0.156 A  
HETATM    3  H   UNL     1     -10.661   1.677  65.020  1.00  0.00     0.000 HD 
HETATM    4  N   UNL     1      -9.429   4.236  63.755  1.00  0.00    -0.146 NA 
HETATM    5  N   UNL     1      -8.480   5.184  63.952  1.00  0.00    -0.134 NA 
HETATM    6  C   UNL     1      -7.702   5.153  65.065  1.00  0.00    -0.085 A  
HETATM    7  C   UNL     1      -7.853   4.155  66.059  1.00  0.00    -0.094 A  
HETATM    8  C   UNL     1      -8.255   2.076  67.949  1.00  0.00    -0.074 A  
HETATM    9  C   UNL     1      -7.097   4.075  67.256  1.00  0.00    -0.063 A  
HETATM   10  C   UNL     1      -8.833   3.163  65.841  1.00  0.00    -0.139 A  
HETATM   11  C   UNL     1      -7.300   3.054  68.189  1.00  0.00    -0.050 A  
HETATM   12  C   UNL     1      -9.017   2.130  66.784  1.00  0.00    -0.130 A  
ENDROOT
BRANCH   6  13
HETATM   13  C   UNL     1      -6.639   6.222  65.201  1.00  0.00    -0.039 C  
BRANCH  13  14
HETATM   14  C   UNL     1      -7.015   7.500  65.926  1.00  0.00    -0.061 A  
HETATM   15  C   UNL     1      -7.873   9.927  67.026  1.00  0.00    -0.102 A  
HETATM   16  C   UNL     1      -6.255   8.664  65.748  1.00  0.00    -0.055 A  
HETATM   17  C   UNL     1      -8.156   7.555  66.746  1.00  0.00    -0.123 A  
HETATM   18  F   UNL     1      -8.310  11.133  67.414  1.00  0.00    -0.125 F  
HETATM   19  C   UNL     1      -8.580   8.767  67.328  1.00  0.00    -0.122 A  
HETATM   20  C   UNL     1      -6.691   9.874  66.288  1.00  0.00    -0.090 A  
BRANCH  19  21
HETATM   21  C   UNL     1      -9.827   8.743  68.135  1.00  0.00    -0.168 C  
HETATM   22  N   UNL     1      -9.907   8.095  69.369  1.00  0.00    -0.178 N  
HETATM   23  C   UNL     1     -11.193   8.106  70.088  1.00  0.00    -0.134 C  
HETATM   24  O   UNL     1     -10.814   9.275  67.620  1.00  0.00    -0.250 OA 
HETATM   25  C   UNL     1     -11.633   6.682  70.463  1.00  0.00    -0.390 C  
HETATM   26  N   UNL     1     -10.568   5.972  71.184  1.00  0.00    -0.236 N  
HETATM   27  C   UNL     1      -9.280   5.957  70.491  1.00  0.00    -0.152 C  
HETATM   28  C   UNL     1     -10.866   5.336  72.380  1.00  0.00    -0.224 C  
HETATM   29  C   UNL     1      -8.843   7.367  70.072  1.00  0.00    -0.141 C  
HETATM   30  O   UNL     1     -11.982   5.377  72.891  1.00  0.00    -0.225 OA 
BRANCH  28  31
HETATM   31  C   UNL     1      -9.771   4.610  73.095  1.00  0.00    -0.158 C  
HETATM   32  C   UNL     1     -10.052   4.018  74.459  1.00  0.00    -0.234 C  
HETATM   33  C   UNL     1      -9.839   3.110  73.285  1.00  0.00    -0.169 C  
ENDBRANCH  28  31
ENDBRANCH  19  21
ENDBRANCH  13  14
ENDBRANCH   6  13
TORSDOF 4
ENDMDL
MODEL      211
REMARK 921   NORMALIZED FREE ENERGY PREDICTED BY IDOCK:   -4.27 KCAL/MOL
REMARK 922        TOTAL FREE ENERGY PREDICTED BY IDOCK:   -6.02 KCAL/MOL
REMARK 923 INTER-LIGAND FREE ENERGY PREDICTED BY IDOCK:   -4.71 KCAL/MOL
REMARK 924 INTRA-LIGAND FREE ENERGY PREDICTED BY IDOCK:   -1.31 KCAL/MOL
REMARK 927      BINDING AFFINITY PREDICTED BY RF-SCORE:    0.00 PKD
ROOT
HETATM    1  O   UNL     1     -11.455   2.380  63.563  1.00  0.00    -0.555 OA 
HETATM    2  C   UNL     1     -10.355   3.178  63.481  1.00  0.00    -0.212 A  
HETATM    3  H   UNL     1     -11.406   1.721  64.245  1.00  0.00     0.000 HD 
HETATM    4  N   UNL     1     -10.424   4.109  62.515  1.00  0.00    -0.168 NA 
HETATM    5  N   UNL     1      -9.376   4.952  62.338  1.00  0.00    -0.064 NA 
HETATM    6  C   UNL     1      -8.279   4.855  63.131  1.00  0.00    -0.101 A  
HETATM    7  C   UNL     1      -8.185   3.895  64.170  1.00  0.00    -0.091 A  
HETATM    8  C   UNL     1      -8.133   1.903  66.191  1.00  0.00    -0.081 A  
HETATM    9  C   UNL     1      -7.085   3.754  65.053  1.00  0.00    -0.066 A  
HETATM   10  C   UNL     1      -9.273   3.012  64.340  1.00  0.00    -0.137 A  
HETATM   11  C   UNL     1      -7.063   2.775  66.052  1.00  0.00    -0.061 A  
HETATM   12  C   UNL     1      -9.231   2.021  65.342  1.00  0.00    -0.046 A  
ENDROOT
BRANCH   6  13
HETATM   13  C   UNL     1      -7.133   5.804  62.853  1.00  0.00    -0.049 C  
BRANCH  13  14
HETATM   14  C   UNL     1      -7.081   7.096  63.645  1.00  0.00    -0.069 A  
HETATM   15  C   UNL     1      -7.168   9.597  64.901  1.00  0.00    -0.118 A  
HETATM   16  C   UNL     1      -6.114   8.067  63.353  1.00  0.00    -0.071 A  
HETATM   17  C   UNL     1      -8.029   7.365  64.649  1.00  0.00    -0.127 A  
HETATM   18  F   UNL     1      -7.247  10.849  65.372  1.00  0.00    -0.100 F  
HETATM   19  C   UNL     1      -8.063   8.611  65.308  1.00  0.00    -0.136 A  
HETATM   20  C   UNL     1      -6.166   9.316  63.972  1.00  0.00    -0.089 A  
BRANCH  19  21
HETATM   21  C   UNL     1      -9.133   8.827  66.316  1.00  0.00    -0.193 C  
HETATM   22  N   UNL     1      -9.164   8.142  67.531  1.00  0.00    -0.136 N  
HETATM   23  C   UNL     1     -10.277   8.407  68.460  1.00  0.00    -0.201 C  
HETATM   24  O   UNL     1     -10.034   9.603  65.988  1.00  0.00    -0.266 OA 
HETATM   25  C   UNL     1     -10.978   7.104  68.874  1.00  0.00    -0.070 C  
HETATM   26  N   UNL     1     -10.011   6.124  69.389  1.00  0.00    -0.159 N  
HETATM   27  C   UNL     1      -8.892   5.853  68.485  1.00  0.00    -0.111 C  
HETATM   28  C   UNL     1     -10.255   5.503  70.604  1.00  0.00    -0.240 C  
HETATM   29  C   UNL     1      -8.205   7.147  68.027  1.00  0.00    -0.120 C  
HETATM   30  O   UNL     1     -11.231   5.770  71.299  1.00  0.00    -0.246 OA 
BRANCH  28  31
HETATM   31  C   UNL     1      -9.264   4.501  71.107  1.00  0.00    -0.198 C  
HETATM   32  C   UNL     1      -9.644   3.615  72.273  1.00  0.00    -0.207 C  
HETATM   33  C   UNL     1      -9.498   3.020  70.904  1.00  0.00    -0.229 C  
ENDBRANCH  28  31
ENDBRANCH  19  21
ENDBRANCH  13  14
ENDBRANCH   6  13
TORSDOF 4
ENDMDL
MODEL      212
REMARK 921   NORMALIZED FREE ENERGY PREDICTED BY IDOCK:   -4.22 KCAL/MOL
REMARK 922        TOTAL FREE ENERGY PREDICTED BY IDOCK:   -5.95 KCAL/MOL
REMARK 923 INTER-LIGAND FREE ENERGY PREDICTED BY IDOCK:   -5.93 KCAL/MOL
REMARK 924 INTRA-LIGAND FREE ENERGY PREDICTED BY IDOCK:   -0.03 KCAL/MOL
REMARK 927      BINDING AFFINITY PREDICTED BY RF-SCORE:    0.00 PKD
ROOT
HETATM    1  O   UNL     1      -6.645   5.368  67.643  1.00  0.00    -0.050 OA 
HETATM    2  C   UNL     1      -6.953   6.628  67.228  1.00  0.00    -0.078 A  
HETATM    3  H   UNL     1      -7.398   4.852  67.905  1.00  0.00     0.000 HD 
HETATM    4  N   UNL     1      -5.887   7.359  66.859  1.00  0.00    -0.033 NA 
HETATM    5  N   UNL     1      -6.078   8.633  66.438  1.00  0.00    -0.055 NA 
HETATM    6  C   UNL     1      -7.331   9.156  66.386  1.00  0.00    -0.092 A  
HETATM    7  C   UNL     1      -8.474   8.404  66.750  1.00  0.00    -0.114 A  
HETATM    8  C   UNL     1     -10.666   6.781  67.539  1.00  0.00    -0.381 A  
HETATM    9  C   UNL     1      -9.812   8.873  66.696  1.00  0.00    -0.332 A  
HETATM   10  C   UNL     1      -8.267   7.083  67.201  1.00  0.00    -0.118 A  
HETATM   11  C   UNL     1     -10.890   8.071  67.080  1.00  0.00    -0.150 A  
HETATM   12  C   UNL     1      -9.363   6.289  67.599  1.00  0.00    -0.116 A  
ENDROOT
BRANCH   6  13
HETATM   13  C   UNL     1      -7.466  10.597  65.940  1.00  0.00    -0.131 C  
BRANCH  13  14
HETATM   14  C   UNL     1      -7.576  11.659  67.017  1.00  0.00    -0.154 A  
HETATM   15  C   UNL     1      -7.587  13.782  68.843  1.00  0.00    -0.040 A  
HETATM   16  C   UNL     1      -6.689  11.662  68.102  1.00  0.00    -0.063 A  
HETATM   17  C   UNL     1      -8.532  12.687  66.921  1.00  0.00    -0.118 A  
HETATM   18  F   UNL     1      -7.461  14.836  69.661  1.00  0.00    -0.161 F  
HETATM   19  C   UNL     1      -8.564  13.744  67.852  1.00  0.00    -0.183 A  
HETATM   20  C   UNL     1      -6.689  12.726  69.003  1.00  0.00    -0.096 A  
BRANCH  19  21
HETATM   21  C   UNL     1      -9.573  14.815  67.643  1.00  0.00    -0.208 C  
HETATM   22  N   UNL     1      -9.219  16.115  67.279  1.00  0.00    -0.206 N  
HETATM   23  C   UNL     1     -10.287  17.116  67.115  1.00  0.00    -0.307 C  
HETATM   24  O   UNL     1     -10.745  14.505  67.874  1.00  0.00    -0.241 OA 
HETATM   25  C   UNL     1     -10.011  18.369  67.961  1.00  0.00    -0.351 C  
HETATM   26  N   UNL     1      -8.668  18.902  67.694  1.00  0.00    -0.285 N  
HETATM   27  C   UNL     1      -7.592  17.921  67.843  1.00  0.00    -0.221 C  
HETATM   28  C   UNL     1      -8.518  20.250  67.404  1.00  0.00    -0.339 C  
HETATM   29  C   UNL     1      -7.871  16.645  67.037  1.00  0.00    -0.198 C  
HETATM   30  O   UNL     1      -9.472  21.017  67.316  1.00  0.00    -0.354 OA 
BRANCH  28  31
HETATM   31  C   UNL     1      -7.141  20.776  67.145  1.00  0.00    -0.404 C  
HETATM   32  C   UNL     1      -6.099  19.845  66.564  1.00  0.00    -0.177 C  
HETATM   33  C   UNL     1      -6.645  20.964  65.728  1.00  0.00    -0.169 C  
ENDBRANCH  28  31
ENDBRANCH  19  21
ENDBRANCH  13  14
ENDBRANCH   6  13
TORSDOF 4
ENDMDL
MODEL      213
REMARK 921   NORMALIZED FREE ENERGY PREDICTED BY IDOCK:   -4.18 KCAL/MOL
REMARK 922        TOTAL FREE ENERGY PREDICTED BY IDOCK:   -5.91 KCAL/MOL
REMARK 923 INTER-LIGAND FREE ENERGY PREDICTED BY IDOCK:   -4.91 KCAL/MOL
REMARK 924 INTRA-LIGAND FREE ENERGY PREDICTED BY IDOCK:   -1.00 KCAL/MOL
REMARK 927      BINDING AFFINITY PREDICTED BY RF-SCORE:    0.00 PKD
ROOT
HETATM    1  O   UNL     1      -8.907   5.094  67.018  1.00  0.00    -0.111 OA 
HETATM    2  C   UNL     1      -8.474   6.379  67.143  1.00  0.00    -0.112 A  
HETATM    3  H   UNL     1      -8.664   4.531  67.744  1.00  0.00     0.000 HD 
HETATM    4  N   UNL     1      -8.816   7.174  66.116  1.00  0.00    -0.154 NA 
HETATM    5  N   UNL     1      -8.427   8.473  66.133  1.00  0.00    -0.124 NA 
HETATM    6  C   UNL     1      -7.707   8.958  67.177  1.00  0.00    -0.095 A  
HETATM    7  C   UNL     1      -7.348   8.148  68.283  1.00  0.00    -0.095 A  
HETATM    8  C   UNL     1      -6.682   6.395  70.413  1.00  0.00    -0.050 A  
HETATM    9  C   UNL     1      -6.623   8.592  69.418  1.00  0.00    -0.041 A  
HETATM   10  C   UNL     1      -7.744   6.794  68.253  1.00  0.00    -0.106 A  
HETATM   11  C   UNL     1      -6.300   7.728  70.469  1.00  0.00    -0.037 A  
HETATM   12  C   UNL     1      -7.399   5.930  69.313  1.00  0.00    -0.083 A  
ENDROOT
BRANCH   6  13
HETATM   13  C   UNL     1      -7.276  10.408  67.112  1.00  0.00    -0.091 C  
BRANCH  13  14
HETATM   14  C   UNL     1      -8.220  11.450  67.680  1.00  0.00    -0.128 A  
HETATM   15  C   UNL     1     -10.124  13.340  68.480  1.00  0.00    -0.206 A  
HETATM   16  C   UNL     1      -8.028  12.809  67.399  1.00  0.00    -0.179 A  
HETATM   17  C   UNL     1      -9.331  11.070  68.456  1.00  0.00    -0.188 A  
HETATM   18  F   UNL     1     -11.067  14.262  68.720  1.00  0.00    -0.228 F  
HETATM   19  C   UNL     1     -10.280  12.018  68.887  1.00  0.00    -0.078 A  
HETATM   20  C   UNL     1      -8.983  13.747  67.788  1.00  0.00    -0.194 A  
BRANCH  19  21
HETATM   21  C   UNL     1     -11.450  11.520  69.655  1.00  0.00    -0.301 C  
HETATM   22  N   UNL     1     -11.368  10.426  70.517  1.00  0.00    -0.329 N  
HETATM   23  C   UNL     1     -12.588   9.990  71.219  1.00  0.00    -0.393 C  
HETATM   24  O   UNL     1     -12.522  12.091  69.436  1.00  0.00    -0.037 OA 
HETATM   25  C   UNL     1     -12.857   8.494  70.992  1.00  0.00     0.032 C  
HETATM   26  N   UNL     1     -11.675   7.687  71.323  1.00  0.00    -0.278 N  
HETATM   27  C   UNL     1     -10.450   8.109  70.642  1.00  0.00    -0.210 C  
HETATM   28  C   UNL     1     -11.814   6.592  72.162  1.00  0.00    -0.305 C  
HETATM   29  C   UNL     1     -10.186   9.610  70.824  1.00  0.00    -0.260 C  
HETATM   30  O   UNL     1     -12.884   6.289  72.681  1.00  0.00     0.212 OA 
BRANCH  28  31
HETATM   31  C   UNL     1     -10.599   5.777  72.480  1.00  0.00    -0.262 C  
HETATM   32  C   UNL     1     -10.755   4.527  73.318  1.00  0.00    -0.312 C  
HETATM   33  C   UNL     1     -10.410   4.408  71.864  1.00  0.00    -0.167 C  
ENDBRANCH  28  31
ENDBRANCH  19  21
ENDBRANCH  13  14
ENDBRANCH   6  13
TORSDOF 4
ENDMDL
MODEL      214
REMARK 921   NORMALIZED FREE ENERGY PREDICTED BY IDOCK:   -4.17 KCAL/MOL
REMARK 922        TOTAL FREE ENERGY PREDICTED BY IDOCK:   -5.89 KCAL/MOL
REMARK 923 INTER-LIGAND FREE ENERGY PREDICTED BY IDOCK:   -6.41 KCAL/MOL
REMARK 924 INTRA-LIGAND FREE ENERGY PREDICTED BY IDOCK:    0.52 KCAL/MOL
REMARK 927      BINDING AFFINITY PREDICTED BY RF-SCORE:    0.00 PKD
ROOT
HETATM    1  O   UNL     1     -12.981  11.463  62.779  1.00  0.00    -0.763 OA 
HETATM    2  C   UNL     1     -12.230  12.398  63.424  1.00  0.00    -0.523 A  
HETATM    3  H   UNL     1     -12.590  10.597  62.761  1.00  0.00     0.000 HD 
HETATM    4  N   UNL     1     -12.782  13.622  63.449  1.00  0.00    -0.633 NA 
HETATM    5  N   UNL     1     -12.112  14.633  64.057  1.00  0.00    -0.503 NA 
HETATM    6  C   UNL     1     -10.905  14.403  64.636  1.00  0.00    -0.346 A  
HETATM    7  C   UNL     1     -10.308  13.118  64.642  1.00  0.00    -0.381 A  
HETATM    8  C   UNL     1      -9.226  10.495  64.549  1.00  0.00    -0.278 A  
HETATM    9  C   UNL     1      -9.067  12.798  65.249  1.00  0.00     0.739 A  
HETATM   10  C   UNL     1     -11.003  12.074  63.995  1.00  0.00    -0.442 A  
HETATM   11  C   UNL     1      -8.537  11.505  65.207  1.00  0.00     0.317 A  
HETATM   12  C   UNL     1     -10.450  10.777  63.947  1.00  0.00    -0.251 A  
ENDROOT
BRANCH   6  13
HETATM   13  C   UNL     1     -10.199  15.584  65.265  1.00  0.00    -0.380 C  
BRANCH  13  14
HETATM   14  C   UNL     1      -9.827  15.483  66.732  1.00  0.00    -0.252 A  
HETATM   15  C   UNL     1      -9.368  15.106  69.468  1.00  0.00    -0.134 A  
HETATM   16  C   UNL     1     -10.405  16.348  67.671  1.00  0.00    -0.284 A  
HETATM   17  C   UNL     1      -8.937  14.491  67.183  1.00  0.00    -0.244 A  
HETATM   18  F   UNL     1      -9.290  14.886  70.788  1.00  0.00     0.498 F  
HETATM   19  C   UNL     1      -8.677  14.312  68.557  1.00  0.00    -0.175 A  
HETATM   20  C   UNL     1     -10.184  16.151  69.034  1.00  0.00    -0.250 A  
BRANCH  19  21
HETATM   21  C   UNL     1      -7.766  13.205  68.947  1.00  0.00     0.080 C  
HETATM   22  N   UNL     1      -8.153  11.865  68.893  1.00  0.00    -0.007 N  
HETATM   23  C   UNL     1      -7.189  10.836  69.321  1.00  0.00    -0.122 C  
HETATM   24  O   UNL     1      -6.664  13.542  69.386  1.00  0.00    -0.107 OA 
HETATM   25  C   UNL     1      -7.798   9.910  70.385  1.00  0.00    -0.037 C  
HETATM   26  N   UNL     1      -9.080   9.354  69.932  1.00  0.00    -0.187 N  
HETATM   27  C   UNL     1     -10.049  10.359  69.494  1.00  0.00    -0.219 C  
HETATM   28  C   UNL     1      -9.293   7.986  70.014  1.00  0.00    -0.156 C  
HETATM   29  C   UNL     1      -9.446  11.319  68.460  1.00  0.00    -0.191 C  
HETATM   30  O   UNL     1      -8.434   7.206  70.413  1.00  0.00    -0.136 OA 
BRANCH  28  31
HETATM   31  C   UNL     1     -10.609   7.440  69.556  1.00  0.00    -0.244 C  
HETATM   32  C   UNL     1     -10.910   5.973  69.777  1.00  0.00    -0.433 C  
HETATM   33  C   UNL     1     -11.655   7.011  70.562  1.00  0.00    -0.364 C  
ENDBRANCH  28  31
ENDBRANCH  19  21
ENDBRANCH  13  14
ENDBRANCH   6  13
TORSDOF 4
ENDMDL
MODEL      215
REMARK 921   NORMALIZED FREE ENERGY PREDICTED BY IDOCK:   -4.13 KCAL/MOL
REMARK 922        TOTAL FREE ENERGY PREDICTED BY IDOCK:   -5.85 KCAL/MOL
REMARK 923 INTER-LIGAND FREE ENERGY PREDICTED BY IDOCK:   -6.77 KCAL/MOL
REMARK 924 INTRA-LIGAND FREE ENERGY PREDICTED BY IDOCK:    0.92 KCAL/MOL
REMARK 927      BINDING AFFINITY PREDICTED BY RF-SCORE:    0.00 PKD
ROOT
HETATM    1  O   UNL     1      -5.565  18.978  68.273  1.00  0.00    -0.191 OA 
HETATM    2  C   UNL     1      -6.702  18.279  68.003  1.00  0.00    -0.203 A  
HETATM    3  H   UNL     1      -5.596  19.888  68.000  1.00  0.00     0.000 HD 
HETATM    4  N   UNL     1      -6.658  16.992  68.388  1.00  0.00    -0.153 NA 
HETATM    5  N   UNL     1      -7.735  16.201  68.158  1.00  0.00    -0.139 NA 
HETATM    6  C   UNL     1      -8.840  16.707  67.552  1.00  0.00    -0.196 A  
HETATM    7  C   UNL     1      -8.921  18.064  67.152  1.00  0.00    -0.255 A  
HETATM    8  C   UNL     1      -8.926  20.796  66.383  1.00  0.00     0.223 A  
HETATM    9  C   UNL     1     -10.050  18.667  66.540  1.00  0.00    -0.426 A  
HETATM   10  C   UNL     1      -7.793  18.879  67.382  1.00  0.00    -0.255 A  
HETATM   11  C   UNL     1     -10.052  20.015  66.167  1.00  0.00    -0.588 A  
HETATM   12  C   UNL     1      -7.804  20.233  66.987  1.00  0.00    -0.368 A  
ENDROOT
BRANCH   6  13
HETATM   13  C   UNL     1      -9.989  15.757  67.294  1.00  0.00    -0.238 C  
BRANCH  13  14
HETATM   14  C   UNL     1     -10.572  15.017  68.483  1.00  0.00    -0.235 A  
HETATM   15  C   UNL     1     -11.911  13.679  70.545  1.00  0.00    -0.280 A  
HETATM   16  C   UNL     1     -11.039  15.726  69.598  1.00  0.00    -0.307 A  
HETATM   17  C   UNL     1     -10.699  13.616  68.469  1.00  0.00    -0.269 A  
HETATM   18  F   UNL     1     -12.675  13.108  71.488  1.00  0.00    -0.419 F  
HETATM   19  C   UNL     1     -11.347  12.931  69.516  1.00  0.00    -0.221 A  
HETATM   20  C   UNL     1     -11.716  15.058  70.619  1.00  0.00    -0.357 A  
BRANCH  19  21
HETATM   21  C   UNL     1     -11.485  11.457  69.392  1.00  0.00    -0.310 C  
HETATM   22  N   UNL     1     -10.390  10.619  69.177  1.00  0.00    -0.212 N  
HETATM   23  C   UNL     1     -10.627   9.170  69.045  1.00  0.00    -0.199 C  
HETATM   24  O   UNL     1     -12.638  11.018  69.423  1.00  0.00    -0.331 OA 
HETATM   25  C   UNL     1     -10.005   8.621  67.751  1.00  0.00    -0.190 C  
HETATM   26  N   UNL     1      -8.586   8.991  67.648  1.00  0.00    -0.120 N  
HETATM   27  C   UNL     1      -8.329  10.425  67.785  1.00  0.00    -0.114 C  
HETATM   28  C   UNL     1      -7.648   8.009  67.369  1.00  0.00    -0.097 C  
HETATM   29  C   UNL     1      -8.977  11.000  69.052  1.00  0.00    -0.059 C  
HETATM   30  O   UNL     1      -7.946   6.825  67.247  1.00  0.00    -0.111 OA 
BRANCH  28  31
HETATM   31  C   UNL     1      -6.209   8.407  67.257  1.00  0.00    -0.056 C  
HETATM   32  C   UNL     1      -5.871   9.811  66.807  1.00  0.00    -0.054 C  
HETATM   33  C   UNL     1      -5.611   9.404  68.226  1.00  0.00    -0.037 C  
ENDBRANCH  28  31
ENDBRANCH  19  21
ENDBRANCH  13  14
ENDBRANCH   6  13
TORSDOF 4
ENDMDL
MODEL      216
REMARK 921   NORMALIZED FREE ENERGY PREDICTED BY IDOCK:   -4.13 KCAL/MOL
REMARK 922        TOTAL FREE ENERGY PREDICTED BY IDOCK:   -5.85 KCAL/MOL
REMARK 923 INTER-LIGAND FREE ENERGY PREDICTED BY IDOCK:   -6.00 KCAL/MOL
REMARK 924 INTRA-LIGAND FREE ENERGY PREDICTED BY IDOCK:    0.15 KCAL/MOL
REMARK 927      BINDING AFFINITY PREDICTED BY RF-SCORE:    0.00 PKD
ROOT
HETATM    1  O   UNL     1     -10.841  18.024  65.830  1.00  0.00    -0.236 OA 
HETATM    2  C   UNL     1     -10.374  16.788  66.159  1.00  0.00    -0.330 A  
HETATM    3  H   UNL     1     -11.211  18.505  66.561  1.00  0.00     0.000 HD 
HETATM    4  N   UNL     1      -9.851  16.107  65.126  1.00  0.00    -0.330 NA 
HETATM    5  N   UNL     1      -9.365  14.859  65.340  1.00  0.00     0.109 NA 
HETATM    6  C   UNL     1      -9.404  14.313  66.583  1.00  0.00    -0.284 A  
HETATM    7  C   UNL     1      -9.931  15.015  67.695  1.00  0.00    -0.225 A  
HETATM    8  C   UNL     1     -11.045  16.534  69.819  1.00  0.00    -0.248 A  
HETATM    9  C   UNL     1      -9.980  14.521  69.024  1.00  0.00    -0.162 A  
HETATM   10  C   UNL     1     -10.448  16.307  67.463  1.00  0.00    -0.302 A  
HETATM   11  C   UNL     1     -10.524  15.272  70.070  1.00  0.00    -0.266 A  
HETATM   12  C   UNL     1     -11.007  17.049  68.525  1.00  0.00    -0.247 A  
ENDROOT
BRANCH   6  13
HETATM   13  C   UNL     1      -8.877  12.903  66.742  1.00  0.00    -0.152 C  
BRANCH  13  14
HETATM   14  C   UNL     1      -9.621  11.975  67.682  1.00  0.00    -0.188 A  
HETATM   15  C   UNL     1     -11.006  10.067  69.192  1.00  0.00    -0.220 A  
HETATM   16  C   UNL     1     -11.020  12.006  67.747  1.00  0.00    -0.279 A  
HETATM   17  C   UNL     1      -8.927  11.034  68.466  1.00  0.00    -0.163 A  
HETATM   18  F   UNL     1     -11.717   9.099  69.787  1.00  0.00    -0.075 F  
HETATM   19  C   UNL     1      -9.616  10.088  69.252  1.00  0.00    -0.227 A  
HETATM   20  C   UNL     1     -11.708  11.048  68.491  1.00  0.00    -0.348 A  
BRANCH  19  21
HETATM   21  C   UNL     1      -8.803   9.098  70.005  1.00  0.00    -0.182 C  
HETATM   22  N   UNL     1      -8.599   7.796  69.546  1.00  0.00    -0.134 N  
HETATM   23  C   UNL     1      -7.797   6.876  70.372  1.00  0.00    -0.109 C  
HETATM   24  O   UNL     1      -8.371   9.473  71.098  1.00  0.00    -0.285 OA 
HETATM   25  C   UNL     1      -8.557   5.570  70.650  1.00  0.00    -0.129 C  
HETATM   26  N   UNL     1      -9.037   4.962  69.401  1.00  0.00    -0.100 N  
HETATM   27  C   UNL     1      -9.829   5.862  68.561  1.00  0.00    -0.135 C  
HETATM   28  C   UNL     1      -8.777   3.622  69.154  1.00  0.00    -0.091 C  
HETATM   29  C   UNL     1      -9.103   7.189  68.307  1.00  0.00    -0.134 C  
HETATM   30  O   UNL     1      -8.119   2.925  69.920  1.00  0.00    -0.042 OA 
BRANCH  28  31
HETATM   31  C   UNL     1      -9.283   3.019  67.882  1.00  0.00    -0.247 C  
HETATM   32  C   UNL     1      -8.310   2.776  66.749  1.00  0.00    -0.095 C  
HETATM   33  C   UNL     1      -8.892   1.611  67.491  1.00  0.00    -0.144 C  
ENDBRANCH  28  31
ENDBRANCH  19  21
ENDBRANCH  13  14
ENDBRANCH   6  13
TORSDOF 4
ENDMDL
MODEL      217
REMARK 921   NORMALIZED FREE ENERGY PREDICTED BY IDOCK:   -4.13 KCAL/MOL
REMARK 922        TOTAL FREE ENERGY PREDICTED BY IDOCK:   -5.84 KCAL/MOL
REMARK 923 INTER-LIGAND FREE ENERGY PREDICTED BY IDOCK:   -5.63 KCAL/MOL
REMARK 924 INTRA-LIGAND FREE ENERGY PREDICTED BY IDOCK:   -0.21 KCAL/MOL
REMARK 927      BINDING AFFINITY PREDICTED BY RF-SCORE:    0.00 PKD
ROOT
HETATM    1  O   UNL     1     -11.519   4.436  64.780  1.00  0.00    -1.011 OA 
HETATM    2  C   UNL     1     -10.277   4.341  65.331  1.00  0.00    -0.220 A  
HETATM    3  H   UNL     1     -11.517   4.547  63.837  1.00  0.00     0.000 HD 
HETATM    4  N   UNL     1     -10.280   4.184  66.665  1.00  0.00    -0.028 NA 
HETATM    5  N   UNL     1      -9.095   4.090  67.318  1.00  0.00    -0.138 NA 
HETATM    6  C   UNL     1      -7.927   4.148  66.628  1.00  0.00    -0.098 A  
HETATM    7  C   UNL     1      -7.893   4.293  65.219  1.00  0.00    -0.086 A  
HETATM    8  C   UNL     1      -7.987   4.615  62.400  1.00  0.00    -0.068 A  
HETATM    9  C   UNL     1      -6.715   4.334  64.430  1.00  0.00    -0.044 A  
HETATM   10  C   UNL     1      -9.129   4.405  64.547  1.00  0.00    -0.152 A  
HETATM   11  C   UNL     1      -6.763   4.487  63.041  1.00  0.00    -0.031 A  
HETATM   12  C   UNL     1      -9.162   4.574  63.147  1.00  0.00    -0.093 A  
ENDROOT
BRANCH   6  13
HETATM   13  C   UNL     1      -6.642   4.072  67.425  1.00  0.00    -0.046 C  
BRANCH  13  14
HETATM   14  C   UNL     1      -6.543   4.915  68.682  1.00  0.00    -0.049 A  
HETATM   15  C   UNL     1      -6.380   6.709  70.824  1.00  0.00    -0.047 A  
HETATM   16  C   UNL     1      -5.294   5.352  69.144  1.00  0.00     0.000 A  
HETATM   17  C   UNL     1      -7.699   5.314  69.376  1.00  0.00    -0.080 A  
HETATM   18  F   UNL     1      -6.256   7.669  71.752  1.00  0.00    -0.039 F  
HETATM   19  C   UNL     1      -7.625   6.195  70.474  1.00  0.00    -0.096 A  
HETATM   20  C   UNL     1      -5.217   6.255  70.204  1.00  0.00    -0.013 A  
BRANCH  19  21
HETATM   21  C   UNL     1      -8.902   6.607  71.112  1.00  0.00    -0.137 C  
HETATM   22  N   UNL     1      -9.730   7.586  70.563  1.00  0.00    -0.179 N  
HETATM   23  C   UNL     1     -10.967   7.945  71.280  1.00  0.00    -0.238 C  
HETATM   24  O   UNL     1      -9.158   6.079  72.198  1.00  0.00    -0.143 OA 
HETATM   25  C   UNL     1     -11.050   9.460  71.522  1.00  0.00    -0.376 C  
HETATM   26  N   UNL     1     -10.865  10.207  70.271  1.00  0.00    -0.300 N  
HETATM   27  C   UNL     1      -9.646   9.860  69.539  1.00  0.00    -0.225 C  
HETATM   28  C   UNL     1     -11.778  11.192  69.926  1.00  0.00    -0.355 C  
HETATM   29  C   UNL     1      -9.526   8.345  69.323  1.00  0.00    -0.155 C  
HETATM   30  O   UNL     1     -12.770  11.441  70.606  1.00  0.00    -0.272 OA 
BRANCH  28  31
HETATM   31  C   UNL     1     -11.567  11.949  68.653  1.00  0.00    -0.366 C  
HETATM   32  C   UNL     1     -12.059  13.377  68.558  1.00  0.00    -0.283 C  
HETATM   33  C   UNL     1     -10.586  13.099  68.596  1.00  0.00    -0.259 C  
ENDBRANCH  28  31
ENDBRANCH  19  21
ENDBRANCH  13  14
ENDBRANCH   6  13
TORSDOF 4
ENDMDL
MODEL      218
REMARK 921   NORMALIZED FREE ENERGY PREDICTED BY IDOCK:   -4.12 KCAL/MOL
REMARK 922        TOTAL FREE ENERGY PREDICTED BY IDOCK:   -5.83 KCAL/MOL
REMARK 923 INTER-LIGAND FREE ENERGY PREDICTED BY IDOCK:   -5.52 KCAL/MOL
REMARK 924 INTRA-LIGAND FREE ENERGY PREDICTED BY IDOCK:   -0.31 KCAL/MOL
REMARK 927      BINDING AFFINITY PREDICTED BY RF-SCORE:    0.00 PKD
ROOT
HETATM    1  O   UNL     1     -11.157  19.301  67.947  1.00  0.00    -0.321 OA 
HETATM    2  C   UNL     1     -10.308  18.269  67.684  1.00  0.00    -0.396 A  
HETATM    3  H   UNL     1     -10.836  20.148  67.662  1.00  0.00     0.000 HD 
HETATM    4  N   UNL     1     -10.762  17.070  68.088  1.00  0.00    -0.371 NA 
HETATM    5  N   UNL     1      -9.990  15.974  67.885  1.00  0.00    -0.231 NA 
HETATM    6  C   UNL     1      -8.782  16.090  67.277  1.00  0.00    -0.185 A  
HETATM    7  C   UNL     1      -8.287  17.338  66.823  1.00  0.00    -0.276 A  
HETATM    8  C   UNL     1      -7.418  19.910  65.994  1.00  0.00    -0.338 A  
HETATM    9  C   UNL     1      -7.050  17.531  66.157  1.00  0.00    -0.341 A  
HETATM   10  C   UNL     1      -9.087  18.477  67.050  1.00  0.00    -0.281 A  
HETATM   11  C   UNL     1      -6.625  18.798  65.744  1.00  0.00    -0.296 A  
HETATM   12  C   UNL     1      -8.641  19.751  66.641  1.00  0.00    -0.380 A  
ENDROOT
BRANCH   6  13
HETATM   13  C   UNL     1      -7.959  14.830  67.115  1.00  0.00    -0.205 C  
BRANCH  13  14
HETATM   14  C   UNL     1      -7.097  14.397  68.285  1.00  0.00    -0.112 A  
HETATM   15  C   UNL     1      -5.757  13.584  70.605  1.00  0.00    -0.183 A  
HETATM   16  C   UNL     1      -6.571  15.350  69.168  1.00  0.00    -0.133 A  
HETATM   17  C   UNL     1      -6.852  13.034  68.535  1.00  0.00    -0.095 A  
HETATM   18  F   UNL     1      -5.230  13.247  71.791  1.00  0.00    -0.147 F  
HETATM   19  C   UNL     1      -6.153  12.616  69.685  1.00  0.00    -0.128 A  
HETATM   20  C   UNL     1      -5.914  14.942  70.329  1.00  0.00    -0.157 A  
BRANCH  19  21
HETATM   21  C   UNL     1      -5.987  11.155  69.897  1.00  0.00    -0.108 C  
HETATM   22  N   UNL     1      -5.682  10.279  68.854  1.00  0.00    -0.041 N  
HETATM   23  C   UNL     1      -5.559   8.842  69.156  1.00  0.00    -0.036 C  
HETATM   24  O   UNL     1      -6.202  10.747  71.042  1.00  0.00    -0.350 OA 
HETATM   25  C   UNL     1      -6.459   8.001  68.237  1.00  0.00    -0.055 C  
HETATM   26  N   UNL     1      -6.219   8.322  66.824  1.00  0.00    -0.054 N  
HETATM   27  C   UNL     1      -6.328   9.746  66.505  1.00  0.00    -0.069 C  
HETATM   28  C   UNL     1      -5.988   7.293  65.923  1.00  0.00    -0.037 C  
HETATM   29  C   UNL     1      -5.467  10.606  67.439  1.00  0.00    -0.040 C  
HETATM   30  O   UNL     1      -5.931   6.115  66.266  1.00  0.00    -0.026 OA 
BRANCH  28  31
HETATM   31  C   UNL     1      -5.756   7.639  64.486  1.00  0.00    -0.037 C  
HETATM   32  C   UNL     1      -5.830   6.542  63.447  1.00  0.00    -0.033 C  
HETATM   33  C   UNL     1      -6.895   7.596  63.492  1.00  0.00    -0.059 C  
ENDBRANCH  28  31
ENDBRANCH  19  21
ENDBRANCH  13  14
ENDBRANCH   6  13
TORSDOF 4
ENDMDL
MODEL      219
REMARK 921   NORMALIZED FREE ENERGY PREDICTED BY IDOCK:   -4.09 KCAL/MOL
REMARK 922        TOTAL FREE ENERGY PREDICTED BY IDOCK:   -5.79 KCAL/MOL
REMARK 923 INTER-LIGAND FREE ENERGY PREDICTED BY IDOCK:   -7.08 KCAL/MOL
REMARK 924 INTRA-LIGAND FREE ENERGY PREDICTED BY IDOCK:    1.28 KCAL/MOL
REMARK 927      BINDING AFFINITY PREDICTED BY RF-SCORE:    0.00 PKD
ROOT
HETATM    1  O   UNL     1     -11.924  13.180  63.280  1.00  0.00    -0.719 OA 
HETATM    2  C   UNL     1     -11.005  12.506  64.027  1.00  0.00    -0.398 A  
HETATM    3  H   UNL     1     -12.568  13.653  63.794  1.00  0.00     0.000 HD 
HETATM    4  N   UNL     1     -10.095  11.835  63.300  1.00  0.00    -0.434 NA 
HETATM    5  N   UNL     1      -9.139  11.120  63.943  1.00  0.00    -0.115 NA 
HETATM    6  C   UNL     1      -9.103  11.091  65.301  1.00  0.00    -0.189 A  
HETATM    7  C   UNL     1     -10.038  11.803  66.092  1.00  0.00    -0.255 A  
HETATM    8  C   UNL     1     -11.996  13.259  67.542  1.00  0.00    -0.371 A  
HETATM    9  C   UNL     1     -10.046  11.840  67.510  1.00  0.00    -0.207 A  
HETATM   10  C   UNL     1     -11.039  12.533  65.417  1.00  0.00    -0.337 A  
HETATM   11  C   UNL     1     -11.008  12.562  68.223  1.00  0.00    -0.270 A  
HETATM   12  C   UNL     1     -12.012  13.246  66.149  1.00  0.00    -0.470 A  
ENDROOT
BRANCH   6  13
HETATM   13  C   UNL     1      -8.030  10.243  65.951  1.00  0.00    -0.137 C  
BRANCH  13  14
HETATM   14  C   UNL     1      -7.263  10.847  67.111  1.00  0.00    -0.104 A  
HETATM   15  C   UNL     1      -6.106  12.063  69.351  1.00  0.00    -0.098 A  
HETATM   16  C   UNL     1      -6.771  12.157  67.029  1.00  0.00    -0.072 A  
HETATM   17  C   UNL     1      -7.073  10.126  68.304  1.00  0.00    -0.075 A  
HETATM   18  F   UNL     1      -5.671  12.733  70.428  1.00  0.00    -0.121 F  
HETATM   19  C   UNL     1      -6.466  10.721  69.428  1.00  0.00    -0.076 A  
HETATM   20  C   UNL     1      -6.206  12.764  68.150  1.00  0.00    -0.088 A  
BRANCH  19  21
HETATM   21  C   UNL     1      -6.357   9.903  70.664  1.00  0.00    -0.104 C  
HETATM   22  N   UNL     1      -7.386   9.066  71.100  1.00  0.00    -0.109 N  
HETATM   23  C   UNL     1      -7.196   8.309  72.350  1.00  0.00    -0.102 C  
HETATM   24  O   UNL     1      -5.326  10.056  71.324  1.00  0.00    -0.068 OA 
HETATM   25  C   UNL     1      -8.356   8.549  73.328  1.00  0.00     0.002 C  
HETATM   26  N   UNL     1      -9.652   8.293  72.683  1.00  0.00    -0.276 N  
HETATM   27  C   UNL     1      -9.857   9.029  71.435  1.00  0.00    -0.311 C  
HETATM   28  C   UNL     1     -10.572   7.467  73.312  1.00  0.00    -0.384 C  
HETATM   29  C   UNL     1      -8.687   8.834  70.461  1.00  0.00    -0.174 C  
HETATM   30  O   UNL     1     -10.332   6.899  74.374  1.00  0.00    -0.296 OA 
BRANCH  28  31
HETATM   31  C   UNL     1     -11.889   7.227  72.645  1.00  0.00    -0.135 C  
HETATM   32  C   UNL     1     -12.090   7.709  71.225  1.00  0.00    -0.337 C  
HETATM   33  C   UNL     1     -12.004   6.238  71.505  1.00  0.00    -0.245 C  
ENDBRANCH  28  31
ENDBRANCH  19  21
ENDBRANCH  13  14
ENDBRANCH   6  13
TORSDOF 4
ENDMDL
MODEL      220
REMARK 921   NORMALIZED FREE ENERGY PREDICTED BY IDOCK:   -4.07 KCAL/MOL
REMARK 922        TOTAL FREE ENERGY PREDICTED BY IDOCK:   -5.77 KCAL/MOL
REMARK 923 INTER-LIGAND FREE ENERGY PREDICTED BY IDOCK:   -4.98 KCAL/MOL
REMARK 924 INTRA-LIGAND FREE ENERGY PREDICTED BY IDOCK:   -0.79 KCAL/MOL
REMARK 927      BINDING AFFINITY PREDICTED BY RF-SCORE:    0.00 PKD
ROOT
HETATM    1  O   UNL     1     -11.261  15.740  71.973  1.00  0.00    -0.304 OA 
HETATM    2  C   UNL     1     -11.260  14.858  70.936  1.00  0.00    -0.162 A  
HETATM    3  H   UNL     1     -10.428  16.173  72.115  1.00  0.00     0.000 HD 
HETATM    4  N   UNL     1     -12.439  14.246  70.736  1.00  0.00    -0.335 NA 
HETATM    5  N   UNL     1     -12.546  13.339  69.733  1.00  0.00    -0.001 NA 
HETATM    6  C   UNL     1     -11.476  13.062  68.943  1.00  0.00    -0.299 A  
HETATM    7  C   UNL     1     -10.227  13.707  69.118  1.00  0.00     0.099 A  
HETATM    8  C   UNL     1      -7.780  15.060  69.609  1.00  0.00    -0.115 A  
HETATM    9  C   UNL     1      -9.077  13.490  68.316  1.00  0.00    -0.189 A  
HETATM   10  C   UNL     1     -10.117  14.639  70.172  1.00  0.00     0.436 A  
HETATM   11  C   UNL     1      -7.874  14.160  68.556  1.00  0.00    -0.140 A  
HETATM   12  C   UNL     1      -8.894  15.298  70.412  1.00  0.00     1.055 A  
ENDROOT
BRANCH   6  13
HETATM   13  C   UNL     1     -11.658  12.013  67.867  1.00  0.00    -0.405 C  
BRANCH  13  14
HETATM   14  C   UNL     1     -11.650  12.477  66.423  1.00  0.00    -0.449 A  
HETATM   15  C   UNL     1     -11.931  13.350  63.778  1.00  0.00    -0.461 A  
HETATM   16  C   UNL     1     -11.759  11.548  65.380  1.00  0.00     0.134 A  
HETATM   17  C   UNL     1     -11.584  13.846  66.106  1.00  0.00    -0.371 A  
HETATM   18  F   UNL     1     -12.204  13.717  62.518  1.00  0.00    -0.060 F  
HETATM   19  C   UNL     1     -11.696  14.294  64.774  1.00  0.00    -0.420 A  
HETATM   20  C   UNL     1     -11.911  11.985  64.065  1.00  0.00    -0.500 A  
BRANCH  19  21
HETATM   21  C   UNL     1     -11.670  15.760  64.536  1.00  0.00    -0.191 C  
HETATM   22  N   UNL     1     -10.705  16.593  65.104  1.00  0.00    -0.283 N  
HETATM   23  C   UNL     1     -10.773  18.039  64.830  1.00  0.00     1.337 C  
HETATM   24  O   UNL     1     -12.596  16.214  63.858  1.00  0.00    -0.703 OA 
HETATM   25  C   UNL     1     -10.771  18.853  66.133  1.00  0.00    -0.289 C  
HETATM   26  N   UNL     1      -9.640  18.476  66.992  1.00  0.00    -0.289 N  
HETATM   27  C   UNL     1      -9.550  17.042  67.269  1.00  0.00    -0.244 C  
HETATM   28  C   UNL     1      -8.821  19.468  67.510  1.00  0.00    -0.307 C  
HETATM   29  C   UNL     1      -9.591  16.209  65.981  1.00  0.00    -0.346 C  
HETATM   30  O   UNL     1      -8.974  20.657  67.246  1.00  0.00    -0.350 OA 
BRANCH  28  31
HETATM   31  C   UNL     1      -7.680  19.064  68.390  1.00  0.00    -0.354 C  
HETATM   32  C   UNL     1      -6.265  19.278  67.899  1.00  0.00    -0.224 C  
HETATM   33  C   UNL     1      -6.794  20.112  69.028  1.00  0.00    -0.249 C  
ENDBRANCH  28  31
ENDBRANCH  19  21
ENDBRANCH  13  14
ENDBRANCH   6  13
TORSDOF 4
ENDMDL
MODEL      221
REMARK 921   NORMALIZED FREE ENERGY PREDICTED BY IDOCK:   -4.04 KCAL/MOL
REMARK 922        TOTAL FREE ENERGY PREDICTED BY IDOCK:   -5.73 KCAL/MOL
REMARK 923 INTER-LIGAND FREE ENERGY PREDICTED BY IDOCK:   -6.14 KCAL/MOL
REMARK 924 INTRA-LIGAND FREE ENERGY PREDICTED BY IDOCK:    0.40 KCAL/MOL
REMARK 927      BINDING AFFINITY PREDICTED BY RF-SCORE:    0.00 PKD
ROOT
HETATM    1  O   UNL     1     -10.552   6.466  67.657  1.00  0.00    -0.203 OA 
HETATM    2  C   UNL     1     -10.213   7.639  67.054  1.00  0.00    -0.300 A  
HETATM    3  H   UNL     1      -9.889   5.789  67.589  1.00  0.00     0.000 HD 
HETATM    4  N   UNL     1     -11.151   8.595  67.150  1.00  0.00     0.239 NA 
HETATM    5  N   UNL     1     -10.921   9.801  66.575  1.00  0.00     0.140 NA 
HETATM    6  C   UNL     1      -9.755  10.035  65.918  1.00  0.00    -0.247 A  
HETATM    7  C   UNL     1      -8.740   9.052  65.818  1.00  0.00    -0.197 A  
HETATM    8  C   UNL     1      -6.811   6.974  65.677  1.00  0.00    -0.052 A  
HETATM    9  C   UNL     1      -7.490   9.233  65.174  1.00  0.00    -0.105 A  
HETATM   10  C   UNL     1      -8.991   7.795  66.406  1.00  0.00    -0.196 A  
HETATM   11  C   UNL     1      -6.538   8.211  65.109  1.00  0.00    -0.052 A  
HETATM   12  C   UNL     1      -8.029   6.767  66.322  1.00  0.00    -0.108 A  
ENDROOT
BRANCH   6  13
HETATM   13  C   UNL     1      -9.581  11.392  65.270  1.00  0.00    -0.256 C  
BRANCH  13  14
HETATM   14  C   UNL     1      -9.875  12.618  66.112  1.00  0.00    -0.265 A  
HETATM   15  C   UNL     1     -10.674  14.903  67.518  1.00  0.00    -0.276 A  
HETATM   16  C   UNL     1      -9.491  13.890  65.669  1.00  0.00     0.049 A  
HETATM   17  C   UNL     1     -10.579  12.507  67.325  1.00  0.00    -0.246 A  
HETATM   18  F   UNL     1     -11.143  16.027  68.077  1.00  0.00    -0.314 F  
HETATM   19  C   UNL     1     -10.961  13.651  68.055  1.00  0.00    -0.270 A  
HETATM   20  C   UNL     1      -9.900  15.028  66.365  1.00  0.00    -0.290 A  
BRANCH  19  21
HETATM   21  C   UNL     1     -11.750  13.443  69.297  1.00  0.00    -0.330 C  
HETATM   22  N   UNL     1     -11.572  12.328  70.118  1.00  0.00    -0.176 N  
HETATM   23  C   UNL     1     -12.416  12.196  71.318  1.00  0.00    -0.185 C  
HETATM   24  O   UNL     1     -12.623  14.283  69.529  1.00  0.00    -0.226 OA 
HETATM   25  C   UNL     1     -13.126  10.834  71.351  1.00  0.00    -0.369 C  
HETATM   26  N   UNL     1     -12.167   9.732  71.190  1.00  0.00    -0.338 N  
HETATM   27  C   UNL     1     -11.312   9.850  70.008  1.00  0.00    -0.249 C  
HETATM   28  C   UNL     1     -12.189   8.676  72.088  1.00  0.00    -0.386 C  
HETATM   29  C   UNL     1     -10.626  11.220  69.936  1.00  0.00     0.313 C  
HETATM   30  O   UNL     1     -12.952   8.640  73.048  1.00  0.00    -0.250 OA 
BRANCH  28  31
HETATM   31  C   UNL     1     -11.210   7.559  71.901  1.00  0.00    -0.286 C  
HETATM   32  C   UNL     1     -11.520   6.205  72.501  1.00  0.00    -0.318 C  
HETATM   33  C   UNL     1     -11.548   6.382  71.013  1.00  0.00    -0.386 C  
ENDBRANCH  28  31
ENDBRANCH  19  21
ENDBRANCH  13  14
ENDBRANCH   6  13
TORSDOF 4
ENDMDL
MODEL      222
REMARK 921   NORMALIZED FREE ENERGY PREDICTED BY IDOCK:   -4.01 KCAL/MOL
REMARK 922        TOTAL FREE ENERGY PREDICTED BY IDOCK:   -5.69 KCAL/MOL
REMARK 923 INTER-LIGAND FREE ENERGY PREDICTED BY IDOCK:   -4.77 KCAL/MOL
REMARK 924 INTRA-LIGAND FREE ENERGY PREDICTED BY IDOCK:   -0.92 KCAL/MOL
REMARK 927      BINDING AFFINITY PREDICTED BY RF-SCORE:    0.00 PKD
ROOT
HETATM    1  O   UNL     1     -12.620   6.506  72.315  1.00  0.00    -0.543 OA 
HETATM    2  C   UNL     1     -12.137   7.256  71.286  1.00  0.00    -0.338 A  
HETATM    3  H   UNL     1     -13.104   7.004  72.963  1.00  0.00     0.000 HD 
HETATM    4  N   UNL     1     -11.453   6.552  70.369  1.00  0.00    -0.380 NA 
HETATM    5  N   UNL     1     -10.918   7.203  69.306  1.00  0.00    -0.180 NA 
HETATM    6  C   UNL     1     -11.081   8.545  69.173  1.00  0.00     0.200 A  
HETATM    7  C   UNL     1     -11.813   9.310  70.113  1.00  0.00     0.076 A  
HETATM    8  C   UNL     1     -13.285  10.711  72.096  1.00  0.00    -0.379 A  
HETATM    9  C   UNL     1     -12.047  10.706  70.025  1.00  0.00    -0.393 A  
HETATM   10  C   UNL     1     -12.355   8.629  71.225  1.00  0.00    -0.298 A  
HETATM   11  C   UNL     1     -12.776  11.394  71.000  1.00  0.00    -0.447 A  
HETATM   12  C   UNL     1     -13.076   9.338  72.208  1.00  0.00    -0.517 A  
ENDROOT
BRANCH   6  13
HETATM   13  C   UNL     1     -10.426   9.210  67.981  1.00  0.00    -0.276 C  
BRANCH  13  14
HETATM   14  C   UNL     1      -8.961   9.582  68.099  1.00  0.00    -0.123 A  
HETATM   15  C   UNL     1      -6.345  10.510  68.467  1.00  0.00    -0.050 A  
HETATM   16  C   UNL     1      -8.357  10.396  67.131  1.00  0.00    -0.126 A  
HETATM   17  C   UNL     1      -8.196   9.161  69.202  1.00  0.00    -0.117 A  
HETATM   18  F   UNL     1      -5.151  11.087  68.662  1.00  0.00    -0.042 F  
HETATM   19  C   UNL     1      -6.869   9.600  69.381  1.00  0.00    -0.054 A  
HETATM   20  C   UNL     1      -7.058  10.866  67.323  1.00  0.00    -0.097 A  
BRANCH  19  21
HETATM   21  C   UNL     1      -6.155   9.149  70.604  1.00  0.00    -0.047 C  
HETATM   22  N   UNL     1      -6.069   7.804  70.966  1.00  0.00    -0.034 N  
HETATM   23  C   UNL     1      -5.358   7.453  72.209  1.00  0.00    -0.037 C  
HETATM   24  O   UNL     1      -5.695  10.042  71.321  1.00  0.00    -0.111 OA 
HETATM   25  C   UNL     1      -6.236   6.589  73.127  1.00  0.00    -0.062 C  
HETATM   26  N   UNL     1      -6.764   5.421  72.409  1.00  0.00    -0.067 N  
HETATM   27  C   UNL     1      -7.466   5.747  71.167  1.00  0.00    -0.091 C  
HETATM   28  C   UNL     1      -6.627   4.160  72.970  1.00  0.00    -0.042 C  
HETATM   29  C   UNL     1      -6.620   6.644  70.254  1.00  0.00    -0.045 C  
HETATM   30  O   UNL     1      -6.040   3.969  74.030  1.00  0.00    -0.024 OA 
BRANCH  28  31
HETATM   31  C   UNL     1      -7.180   2.984  72.228  1.00  0.00    -0.042 C  
HETATM   32  C   UNL     1      -7.136   1.620  72.880  1.00  0.00    -0.023 C  
HETATM   33  C   UNL     1      -8.453   2.311  72.693  1.00  0.00    -0.062 C  
ENDBRANCH  28  31
ENDBRANCH  19  21
ENDBRANCH  13  14
ENDBRANCH   6  13
TORSDOF 4
ENDMDL
MODEL      223
REMARK 921   NORMALIZED FREE ENERGY PREDICTED BY IDOCK:   -4.00 KCAL/MOL
REMARK 922        TOTAL FREE ENERGY PREDICTED BY IDOCK:   -5.68 KCAL/MOL
REMARK 923 INTER-LIGAND FREE ENERGY PREDICTED BY IDOCK:   -6.18 KCAL/MOL
REMARK 924 INTRA-LIGAND FREE ENERGY PREDICTED BY IDOCK:    0.49 KCAL/MOL
REMARK 927      BINDING AFFINITY PREDICTED BY RF-SCORE:    0.00 PKD
ROOT
HETATM    1  O   UNL     1      -8.778  16.160  69.257  1.00  0.00    -0.247 OA 
HETATM    2  C   UNL     1      -9.611  15.088  69.156  1.00  0.00    -0.202 A  
HETATM    3  H   UNL     1      -9.072  16.822  69.872  1.00  0.00     0.000 HD 
HETATM    4  N   UNL     1      -9.196  14.152  68.285  1.00  0.00    -0.194 NA 
HETATM    5  N   UNL     1      -9.956  13.045  68.098  1.00  0.00    -0.226 NA 
HETATM    6  C   UNL     1     -11.116  12.887  68.787  1.00  0.00    -0.263 A  
HETATM    7  C   UNL     1     -11.569  13.847  69.726  1.00  0.00    -0.335 A  
HETATM    8  C   UNL     1     -12.359  15.872  71.551  1.00  0.00    -0.503 A  
HETATM    9  C   UNL     1     -12.752  13.737  70.500  1.00  0.00    -0.293 A  
HETATM   10  C   UNL     1     -10.780  15.003  69.905  1.00  0.00    -0.238 A  
HETATM   11  C   UNL     1     -13.138  14.732  71.402  1.00  0.00    -0.424 A  
HETATM   12  C   UNL     1     -11.189  16.007  70.808  1.00  0.00    -0.381 A  
ENDROOT
BRANCH   6  13
HETATM   13  C   UNL     1     -11.931  11.644  68.502  1.00  0.00    -0.284 C  
BRANCH  13  14
HETATM   14  C   UNL     1     -11.203  10.314  68.478  1.00  0.00    -0.271 A  
HETATM   15  C   UNL     1      -9.669   7.977  68.629  1.00  0.00    -0.159 A  
HETATM   16  C   UNL     1     -10.154  10.098  67.574  1.00  0.00    -0.244 A  
HETATM   17  C   UNL     1     -11.532   9.295  69.390  1.00  0.00     0.246 A  
HETATM   18  F   UNL     1      -8.824   6.943  68.748  1.00  0.00    -0.130 F  
HETATM   19  C   UNL     1     -10.783   8.103  69.455  1.00  0.00    -0.164 A  
HETATM   20  C   UNL     1      -9.384   8.938  67.660  1.00  0.00    -0.156 A  
BRANCH  19  21
HETATM   21  C   UNL     1     -11.167   7.104  70.486  1.00  0.00    -0.290 C  
HETATM   22  N   UNL     1     -10.277   6.663  71.467  1.00  0.00    -0.197 N  
HETATM   23  C   UNL     1     -10.741   5.654  72.436  1.00  0.00    -0.237 C  
HETATM   24  O   UNL     1     -12.303   6.634  70.386  1.00  0.00    -0.274 OA 
HETATM   25  C   UNL     1      -9.792   4.446  72.479  1.00  0.00    -0.159 C  
HETATM   26  N   UNL     1      -8.403   4.872  72.702  1.00  0.00    -0.115 N  
HETATM   27  C   UNL     1      -7.926   5.882  71.756  1.00  0.00    -0.111 C  
HETATM   28  C   UNL     1      -7.659   4.264  73.701  1.00  0.00    -0.078 C  
HETATM   29  C   UNL     1      -8.883   7.078  71.669  1.00  0.00    -0.130 C  
HETATM   30  O   UNL     1      -8.126   3.407  74.445  1.00  0.00    -0.068 OA 
BRANCH  28  31
HETATM   31  C   UNL     1      -6.244   4.705  73.907  1.00  0.00    -0.046 C  
HETATM   32  C   UNL     1      -5.127   3.704  73.706  1.00  0.00     0.000 C  
HETATM   33  C   UNL     1      -5.299   4.830  72.731  1.00  0.00    -0.008 C  
ENDBRANCH  28  31
ENDBRANCH  19  21
ENDBRANCH  13  14
ENDBRANCH   6  13
TORSDOF 4
ENDMDL
MODEL      224
REMARK 921   NORMALIZED FREE ENERGY PREDICTED BY IDOCK:   -3.96 KCAL/MOL
REMARK 922        TOTAL FREE ENERGY PREDICTED BY IDOCK:   -5.64 KCAL/MOL
REMARK 923 INTER-LIGAND FREE ENERGY PREDICTED BY IDOCK:   -6.19 KCAL/MOL
REMARK 924 INTRA-LIGAND FREE ENERGY PREDICTED BY IDOCK:    0.55 KCAL/MOL
REMARK 927      BINDING AFFINITY PREDICTED BY RF-SCORE:    0.00 PKD
ROOT
HETATM    1  O   UNL     1     -12.240  13.857  67.960  1.00  0.00    -0.471 OA 
HETATM    2  C   UNL     1     -11.231  13.124  67.412  1.00  0.00    -0.287 A  
HETATM    3  H   UNL     1     -12.959  14.032  67.365  1.00  0.00     0.000 HD 
HETATM    4  N   UNL     1     -10.213  12.878  68.254  1.00  0.00    -0.241 NA 
HETATM    5  N   UNL     1      -9.150  12.164  67.808  1.00  0.00    -0.181 NA 
HETATM    6  C   UNL     1      -9.122  11.703  66.531  1.00  0.00    -0.197 A  
HETATM    7  C   UNL     1     -10.189  11.931  65.627  1.00  0.00    -0.280 A  
HETATM    8  C   UNL     1     -12.391  12.491  63.925  1.00  0.00    -0.576 A  
HETATM    9  C   UNL     1     -10.242  11.458  64.291  1.00  0.00    -0.367 A  
HETATM   10  C   UNL     1     -11.286  12.686  66.093  1.00  0.00    -0.375 A  
HETATM   11  C   UNL     1     -11.329  11.730  63.455  1.00  0.00    -0.496 A  
HETATM   12  C   UNL     1     -12.370  12.966  65.234  1.00  0.00    -0.544 A  
ENDROOT
BRANCH   6  13
HETATM   13  C   UNL     1      -7.888  10.945  66.091  1.00  0.00    -0.144 C  
BRANCH  13  14
HETATM   14  C   UNL     1      -7.430   9.785  66.953  1.00  0.00    -0.091 A  
HETATM   15  C   UNL     1      -6.766   7.747  68.755  1.00  0.00    -0.054 A  
HETATM   16  C   UNL     1      -6.329   9.929  67.808  1.00  0.00    -0.055 A  
HETATM   17  C   UNL     1      -8.128   8.563  66.948  1.00  0.00    -0.099 A  
HETATM   18  F   UNL     1      -6.492   6.863  69.724  1.00  0.00    -0.038 F  
HETATM   19  C   UNL     1      -7.783   7.521  67.832  1.00  0.00    -0.116 A  
HETATM   20  C   UNL     1      -6.008   8.917  68.713  1.00  0.00    -0.044 A  
BRANCH  19  21
HETATM   21  C   UNL     1      -8.609   6.286  67.795  1.00  0.00    -0.115 C  
HETATM   22  N   UNL     1      -9.143   5.710  68.948  1.00  0.00    -0.114 N  
HETATM   23  C   UNL     1      -9.932   4.472  68.817  1.00  0.00    -0.050 C  
HETATM   24  O   UNL     1      -8.743   5.758  66.688  1.00  0.00    -0.116 OA 
HETATM   25  C   UNL     1      -9.397   3.370  69.744  1.00  0.00    -0.168 C  
HETATM   26  N   UNL     1      -9.292   3.848  71.129  1.00  0.00    -0.133 N  
HETATM   27  C   UNL     1      -8.519   5.082  71.281  1.00  0.00    -0.121 C  
HETATM   28  C   UNL     1      -9.846   3.093  72.152  1.00  0.00    -0.168 C  
HETATM   29  C   UNL     1      -9.013   6.183  70.333  1.00  0.00    -0.150 C  
HETATM   30  O   UNL     1     -10.465   2.054  71.945  1.00  0.00    -0.076 OA 
BRANCH  28  31
HETATM   31  C   UNL     1      -9.720   3.592  73.557  1.00  0.00    -0.144 C  
HETATM   32  C   UNL     1      -8.859   2.822  74.534  1.00  0.00    -0.087 C  
HETATM   33  C   UNL     1      -8.412   4.169  74.053  1.00  0.00    -0.094 C  
ENDBRANCH  28  31
ENDBRANCH  19  21
ENDBRANCH  13  14
ENDBRANCH   6  13
TORSDOF 4
ENDMDL
MODEL      225
REMARK 921   NORMALIZED FREE ENERGY PREDICTED BY IDOCK:   -3.96 KCAL/MOL
REMARK 922        TOTAL FREE ENERGY PREDICTED BY IDOCK:   -5.63 KCAL/MOL
REMARK 923 INTER-LIGAND FREE ENERGY PREDICTED BY IDOCK:   -4.70 KCAL/MOL
REMARK 924 INTRA-LIGAND FREE ENERGY PREDICTED BY IDOCK:   -0.92 KCAL/MOL
REMARK 927      BINDING AFFINITY PREDICTED BY RF-SCORE:    0.00 PKD
ROOT
HETATM    1  O   UNL     1      -8.667  14.788  66.127  1.00  0.00    -0.449 OA 
HETATM    2  C   UNL     1      -9.468  13.800  66.615  1.00  0.00    -0.279 A  
HETATM    3  H   UNL     1      -8.272  14.587  65.287  1.00  0.00     0.000 HD 
HETATM    4  N   UNL     1     -10.027  14.085  67.803  1.00  0.00    -0.232 NA 
HETATM    5  N   UNL     1     -10.835  13.166  68.386  1.00  0.00    -0.253 NA 
HETATM    6  C   UNL     1     -11.077  11.979  67.771  1.00  0.00    -0.249 A  
HETATM    7  C   UNL     1     -10.517  11.659  66.509  1.00  0.00    -0.276 A  
HETATM    8  C   UNL     1      -9.300  11.151  63.996  1.00  0.00    -0.189 A  
HETATM    9  C   UNL     1     -10.746  10.455  65.797  1.00  0.00    -0.010 A  
HETATM   10  C   UNL     1      -9.665  12.614  65.915  1.00  0.00    -0.212 A  
HETATM   11  C   UNL     1     -10.150  10.208  64.556  1.00  0.00    -0.158 A  
HETATM   12  C   UNL     1      -9.059  12.346  64.669  1.00  0.00     0.847 A  
ENDROOT
BRANCH   6  13
HETATM   13  C   UNL     1     -11.960  10.986  68.496  1.00  0.00    -0.206 C  
BRANCH  13  14
HETATM   14  C   UNL     1     -11.284   9.971  69.398  1.00  0.00    -0.235 A  
HETATM   15  C   UNL     1     -10.207   7.892  70.933  1.00  0.00    -0.198 A  
HETATM   16  C   UNL     1     -11.837   9.655  70.647  1.00  0.00    -0.331 A  
HETATM   17  C   UNL     1     -10.123   9.295  68.981  1.00  0.00    -0.207 A  
HETATM   18  F   UNL     1      -9.815   6.822  71.639  1.00  0.00    -0.167 F  
HETATM   19  C   UNL     1      -9.557   8.266  69.760  1.00  0.00    -0.171 A  
HETATM   20  C   UNL     1     -11.306   8.611  71.404  1.00  0.00    -0.350 A  
BRANCH  19  21
HETATM   21  C   UNL     1      -8.363   7.569  69.216  1.00  0.00    -0.132 C  
HETATM   22  N   UNL     1      -8.433   6.717  68.113  1.00  0.00    -0.121 N  
HETATM   23  C   UNL     1      -7.200   6.052  67.658  1.00  0.00    -0.076 C  
HETATM   24  O   UNL     1      -7.311   7.734  69.839  1.00  0.00    -0.075 OA 
HETATM   25  C   UNL     1      -7.392   4.531  67.558  1.00  0.00    -0.073 C  
HETATM   26  N   UNL     1      -8.568   4.199  66.741  1.00  0.00    -0.107 N  
HETATM   27  C   UNL     1      -9.802   4.856  67.172  1.00  0.00    -0.190 C  
HETATM   28  C   UNL     1      -8.443   3.274  65.715  1.00  0.00    -0.107 C  
HETATM   29  C   UNL     1      -9.618   6.373  67.317  1.00  0.00    -0.125 C  
HETATM   30  O   UNL     1      -7.372   2.748  65.426  1.00  0.00    -0.068 OA 
BRANCH  28  31
HETATM   31  C   UNL     1      -9.654   2.943  64.901  1.00  0.00    -0.078 C  
HETATM   32  C   UNL     1      -9.593   3.105  63.398  1.00  0.00    -0.098 C  
HETATM   33  C   UNL     1      -9.662   1.731  63.995  1.00  0.00    -0.130 C  
ENDBRANCH  28  31
ENDBRANCH  19  21
ENDBRANCH  13  14
ENDBRANCH   6  13
TORSDOF 4
ENDMDL
MODEL      226
REMARK 921   NORMALIZED FREE ENERGY PREDICTED BY IDOCK:   -3.93 KCAL/MOL
REMARK 922        TOTAL FREE ENERGY PREDICTED BY IDOCK:   -5.60 KCAL/MOL
REMARK 923 INTER-LIGAND FREE ENERGY PREDICTED BY IDOCK:   -5.29 KCAL/MOL
REMARK 924 INTRA-LIGAND FREE ENERGY PREDICTED BY IDOCK:   -0.31 KCAL/MOL
REMARK 927      BINDING AFFINITY PREDICTED BY RF-SCORE:    0.00 PKD
ROOT
HETATM    1  O   UNL     1      -5.390   5.634  64.116  1.00  0.00    -0.013 OA 
HETATM    2  C   UNL     1      -6.565   5.976  64.714  1.00  0.00    -0.038 A  
HETATM    3  H   UNL     1      -5.409   4.791  63.679  1.00  0.00     0.000 HD 
HETATM    4  N   UNL     1      -6.538   7.169  65.332  1.00  0.00    -0.047 NA 
HETATM    5  N   UNL     1      -7.654   7.604  65.970  1.00  0.00    -0.085 NA 
HETATM    6  C   UNL     1      -8.779   6.844  65.974  1.00  0.00    -0.141 A  
HETATM    7  C   UNL     1      -8.843   5.592  65.314  1.00  0.00    -0.112 A  
HETATM    8  C   UNL     1      -8.808   3.091  63.971  1.00  0.00    -0.097 A  
HETATM    9  C   UNL     1      -9.989   4.758  65.254  1.00  0.00    -0.065 A  
HETATM   10  C   UNL     1      -7.675   5.138  64.665  1.00  0.00    -0.086 A  
HETATM   11  C   UNL     1      -9.972   3.529  64.588  1.00  0.00    -0.153 A  
HETATM   12  C   UNL     1      -7.667   3.890  64.009  1.00  0.00    -0.083 A  
ENDROOT
BRANCH   6  13
HETATM   13  C   UNL     1      -9.975   7.375  66.736  1.00  0.00    -0.300 C  
BRANCH  13  14
HETATM   14  C   UNL     1      -9.770   7.759  68.188  1.00  0.00    -0.171 A  
HETATM   15  C   UNL     1      -9.220   8.689  70.771  1.00  0.00    -0.185 A  
HETATM   16  C   UNL     1      -8.699   7.227  68.918  1.00  0.00    -0.128 A  
HETATM   17  C   UNL     1     -10.618   8.691  68.814  1.00  0.00    -0.169 A  
HETATM   18  F   UNL     1      -8.835   9.196  71.951  1.00  0.00    -0.243 F  
HETATM   19  C   UNL     1     -10.366   9.144  70.125  1.00  0.00    -0.244 A  
HETATM   20  C   UNL     1      -8.420   7.700  70.200  1.00  0.00    -0.138 A  
BRANCH  19  21
HETATM   21  C   UNL     1     -11.282  10.170  70.686  1.00  0.00    -0.340 C  
HETATM   22  N   UNL     1     -11.470  11.415  70.084  1.00  0.00    -0.262 N  
HETATM   23  C   UNL     1     -12.382  12.377  70.726  1.00  0.00    -0.286 C  
HETATM   24  O   UNL     1     -11.821   9.884  71.759  1.00  0.00    -0.362 OA 
HETATM   25  C   UNL     1     -11.693  13.732  70.953  1.00  0.00     0.099 C  
HETATM   26  N   UNL     1     -11.096  14.237  69.708  1.00  0.00    -0.182 N  
HETATM   27  C   UNL     1     -10.192  13.292  69.050  1.00  0.00     0.090 C  
HETATM   28  C   UNL     1     -11.363  15.536  69.306  1.00  0.00    -0.325 C  
HETATM   29  C   UNL     1     -10.850  11.920  68.852  1.00  0.00    -0.221 C  
HETATM   30  O   UNL     1     -12.120  16.278  69.925  1.00  0.00    -0.083 OA 
BRANCH  28  31
HETATM   31  C   UNL     1     -10.738  16.035  68.041  1.00  0.00    -0.309 C  
HETATM   32  C   UNL     1     -10.501  17.520  67.877  1.00  0.00    -0.384 C  
HETATM   33  C   UNL     1      -9.333  16.596  68.048  1.00  0.00    -0.227 C  
ENDBRANCH  28  31
ENDBRANCH  19  21
ENDBRANCH  13  14
ENDBRANCH   6  13
TORSDOF 4
ENDMDL
MODEL      227
REMARK 921   NORMALIZED FREE ENERGY PREDICTED BY IDOCK:   -3.90 KCAL/MOL
REMARK 922        TOTAL FREE ENERGY PREDICTED BY IDOCK:   -5.56 KCAL/MOL
REMARK 923 INTER-LIGAND FREE ENERGY PREDICTED BY IDOCK:   -4.50 KCAL/MOL
REMARK 924 INTRA-LIGAND FREE ENERGY PREDICTED BY IDOCK:   -1.06 KCAL/MOL
REMARK 927      BINDING AFFINITY PREDICTED BY RF-SCORE:    0.00 PKD
ROOT
HETATM    1  O   UNL     1      -5.577  13.765  72.410  1.00  0.00    -0.404 OA 
HETATM    2  C   UNL     1      -6.022  14.160  71.185  1.00  0.00    -0.168 A  
HETATM    3  H   UNL     1      -5.204  12.891  72.423  1.00  0.00     0.000 HD 
HETATM    4  N   UNL     1      -6.549  15.396  71.167  1.00  0.00     0.808 NA 
HETATM    5  N   UNL     1      -7.034  15.886  69.999  1.00  0.00     0.039 NA 
HETATM    6  C   UNL     1      -6.978  15.137  68.867  1.00  0.00    -0.124 A  
HETATM    7  C   UNL     1      -6.411  13.839  68.853  1.00  0.00    -0.096 A  
HETATM    8  C   UNL     1      -5.268  11.244  68.986  1.00  0.00    -0.040 A  
HETATM    9  C   UNL     1      -6.294  13.012  67.706  1.00  0.00    -0.149 A  
HETATM   10  C   UNL     1      -5.921  13.329  70.074  1.00  0.00    -0.134 A  
HETATM   11  C   UNL     1      -5.727  11.736  67.772  1.00  0.00    -0.057 A  
HETATM   12  C   UNL     1      -5.364  12.034  70.129  1.00  0.00    -0.104 A  
ENDROOT
BRANCH   6  13
HETATM   13  C   UNL     1      -7.570  15.734  67.608  1.00  0.00    -0.177 C  
BRANCH  13  14
HETATM   14  C   UNL     1      -8.941  15.250  67.177  1.00  0.00    -0.227 A  
HETATM   15  C   UNL     1     -11.457  14.558  66.162  1.00  0.00    -0.357 A  
HETATM   16  C   UNL     1     -10.098  15.858  67.682  1.00  0.00    -0.242 A  
HETATM   17  C   UNL     1      -9.077  14.220  66.228  1.00  0.00    -0.101 A  
HETATM   18  F   UNL     1     -12.666  14.362  65.617  1.00  0.00    -0.442 F  
HETATM   19  C   UNL     1     -10.342  13.845  65.732  1.00  0.00    -0.326 A  
HETATM   20  C   UNL     1     -11.349  15.520  67.167  1.00  0.00    -0.135 A  
BRANCH  19  21
HETATM   21  C   UNL     1     -10.387  12.786  64.692  1.00  0.00    -0.338 C  
HETATM   22  N   UNL     1     -10.041  11.460  64.959  1.00  0.00    -0.259 N  
HETATM   23  C   UNL     1     -10.095  10.483  63.858  1.00  0.00    -0.218 C  
HETATM   24  O   UNL     1     -10.684  13.159  63.554  1.00  0.00    -0.101 OA 
HETATM   25  C   UNL     1      -8.763   9.730  63.716  1.00  0.00    -0.224 C  
HETATM   26  N   UNL     1      -8.349   9.142  64.997  1.00  0.00    -0.149 N  
HETATM   27  C   UNL     1      -8.297  10.095  66.107  1.00  0.00    -0.131 C  
HETATM   28  C   UNL     1      -7.985   7.804  65.044  1.00  0.00    -0.134 C  
HETATM   29  C   UNL     1      -9.606  10.885  66.238  1.00  0.00    -0.200 C  
HETATM   30  O   UNL     1      -8.036   7.071  64.061  1.00  0.00    -0.125 OA 
BRANCH  28  31
HETATM   31  C   UNL     1      -7.557   7.226  66.356  1.00  0.00    -0.092 C  
HETATM   32  C   UNL     1      -6.870   5.878  66.373  1.00  0.00    -0.059 C  
HETATM   33  C   UNL     1      -6.088   7.114  66.704  1.00  0.00    -0.038 C  
ENDBRANCH  28  31
ENDBRANCH  19  21
ENDBRANCH  13  14
ENDBRANCH   6  13
TORSDOF 4
ENDMDL
MODEL      228
REMARK 921   NORMALIZED FREE ENERGY PREDICTED BY IDOCK:   -3.87 KCAL/MOL
REMARK 922        TOTAL FREE ENERGY PREDICTED BY IDOCK:   -5.53 KCAL/MOL
REMARK 923 INTER-LIGAND FREE ENERGY PREDICTED BY IDOCK:   -6.83 KCAL/MOL
REMARK 924 INTRA-LIGAND FREE ENERGY PREDICTED BY IDOCK:    1.30 KCAL/MOL
REMARK 927      BINDING AFFINITY PREDICTED BY RF-SCORE:    0.00 PKD
ROOT
HETATM    1  O   UNL     1      -6.584   3.351  68.666  1.00  0.00    -0.039 OA 
HETATM    2  C   UNL     1      -7.543   4.187  68.179  1.00  0.00    -0.067 A  
HETATM    3  H   UNL     1      -6.135   2.847  67.998  1.00  0.00     0.000 HD 
HETATM    4  N   UNL     1      -8.180   4.899  69.124  1.00  0.00    -0.078 NA 
HETATM    5  N   UNL     1      -9.162   5.756  68.750  1.00  0.00    -0.118 NA 
HETATM    6  C   UNL     1      -9.489   5.893  67.439  1.00  0.00    -0.111 A  
HETATM    7  C   UNL     1      -8.822   5.169  66.419  1.00  0.00    -0.120 A  
HETATM    8  C   UNL     1      -7.414   3.631  64.494  1.00  0.00    -0.072 A  
HETATM    9  C   UNL     1      -9.090   5.280  65.031  1.00  0.00    -0.029 A  
HETATM   10  C   UNL     1      -7.811   4.269  66.816  1.00  0.00    -0.097 A  
HETATM   11  C   UNL     1      -8.392   4.526  64.083  1.00  0.00    -0.115 A  
HETATM   12  C   UNL     1      -7.124   3.503  65.850  1.00  0.00    -0.063 A  
ENDROOT
BRANCH   6  13
HETATM   13  C   UNL     1     -10.619   6.840  67.098  1.00  0.00    -0.401 C  
BRANCH  13  14
HETATM   14  C   UNL     1     -10.261   8.282  66.793  1.00  0.00    -0.375 A  
HETATM   15  C   UNL     1      -9.817  10.937  66.025  1.00  0.00    -0.233 A  
HETATM   16  C   UNL     1      -9.315   8.582  65.804  1.00  0.00    -0.187 A  
HETATM   17  C   UNL     1     -10.905   9.341  67.458  1.00  0.00    -0.182 A  
HETATM   18  F   UNL     1      -9.668  12.174  65.529  1.00  0.00    -0.237 F  
HETATM   19  C   UNL     1     -10.666  10.683  67.098  1.00  0.00    -0.327 A  
HETATM   20  C   UNL     1      -9.104   9.905  65.415  1.00  0.00    -0.241 A  
BRANCH  19  21
HETATM   21  C   UNL     1     -11.431  11.734  67.816  1.00  0.00    -0.311 C  
HETATM   22  N   UNL     1     -11.069  13.081  67.777  1.00  0.00    -0.252 N  
HETATM   23  C   UNL     1     -11.876  14.051  68.539  1.00  0.00    -0.364 C  
HETATM   24  O   UNL     1     -12.373  11.339  68.509  1.00  0.00    -0.543 OA 
HETATM   25  C   UNL     1     -10.995  14.895  69.474  1.00  0.00    -0.273 C  
HETATM   26  N   UNL     1      -9.884  15.514  68.737  1.00  0.00    -0.208 N  
HETATM   27  C   UNL     1      -9.075  14.569  67.966  1.00  0.00    -0.185 C  
HETATM   28  C   UNL     1      -9.651  16.873  68.878  1.00  0.00    -0.251 C  
HETATM   29  C   UNL     1      -9.943  13.688  67.056  1.00  0.00    -0.248 C  
HETATM   30  O   UNL     1     -10.365  17.600  69.562  1.00  0.00    -0.193 OA 
BRANCH  28  31
HETATM   31  C   UNL     1      -8.509  17.483  68.127  1.00  0.00    -0.254 C  
HETATM   32  C   UNL     1      -8.766  18.698  67.261  1.00  0.00    -0.280 C  
HETATM   33  C   UNL     1      -7.967  18.840  68.522  1.00  0.00    -0.377 C  
ENDBRANCH  28  31
ENDBRANCH  19  21
ENDBRANCH  13  14
ENDBRANCH   6  13
TORSDOF 4
ENDMDL
MODEL      229
REMARK 921   NORMALIZED FREE ENERGY PREDICTED BY IDOCK:   -3.85 KCAL/MOL
REMARK 922        TOTAL FREE ENERGY PREDICTED BY IDOCK:   -5.50 KCAL/MOL
REMARK 923 INTER-LIGAND FREE ENERGY PREDICTED BY IDOCK:   -5.93 KCAL/MOL
REMARK 924 INTRA-LIGAND FREE ENERGY PREDICTED BY IDOCK:    0.43 KCAL/MOL
REMARK 927      BINDING AFFINITY PREDICTED BY RF-SCORE:    0.00 PKD
ROOT
HETATM    1  O   UNL     1      -9.629   4.049  74.233  1.00  0.00    -0.105 OA 
HETATM    2  C   UNL     1      -9.945   5.165  73.520  1.00  0.00    -0.166 A  
HETATM    3  H   UNL     1      -8.764   4.072  74.626  1.00  0.00     0.000 HD 
HETATM    4  N   UNL     1     -11.168   5.132  72.965  1.00  0.00    -0.308 NA 
HETATM    5  N   UNL     1     -11.581   6.190  72.223  1.00  0.00    -0.309 NA 
HETATM    6  C   UNL     1     -10.770   7.266  72.054  1.00  0.00    -0.211 A  
HETATM    7  C   UNL     1      -9.483   7.337  72.644  1.00  0.00    -0.186 A  
HETATM    8  C   UNL     1      -6.922   7.321  73.866  1.00  0.00    -0.086 A  
HETATM    9  C   UNL     1      -8.594   8.436  72.533  1.00  0.00    -0.253 A  
HETATM   10  C   UNL     1      -9.053   6.227  73.402  1.00  0.00    -0.132 A  
HETATM   11  C   UNL     1      -7.335   8.429  73.140  1.00  0.00    -0.108 A  
HETATM   12  C   UNL     1      -7.774   6.227  73.997  1.00  0.00    -0.091 A  
ENDROOT
BRANCH   6  13
HETATM   13  C   UNL     1     -11.282   8.394  71.185  1.00  0.00    -0.307 C  
BRANCH  13  14
HETATM   14  C   UNL     1     -10.856   8.411  69.729  1.00  0.00    -0.184 A  
HETATM   15  C   UNL     1     -10.357   8.413  66.975  1.00  0.00    -0.315 A  
HETATM   16  C   UNL     1     -10.556   7.214  69.065  1.00  0.00    -0.225 A  
HETATM   17  C   UNL     1     -10.801   9.618  69.008  1.00  0.00    -0.206 A  
HETATM   18  F   UNL     1     -10.246   8.343  65.640  1.00  0.00     0.024 F  
HETATM   19  C   UNL     1     -10.523   9.631  67.626  1.00  0.00    -0.317 A  
HETATM   20  C   UNL     1     -10.320   7.216  67.690  1.00  0.00    -0.276 A  
BRANCH  19  21
HETATM   21  C   UNL     1     -10.539  10.946  66.934  1.00  0.00    -0.261 C  
HETATM   22  N   UNL     1      -9.457  11.825  66.973  1.00  0.00    -0.182 N  
HETATM   23  C   UNL     1      -9.573  13.117  66.274  1.00  0.00    -0.234 C  
HETATM   24  O   UNL     1     -11.597  11.248  66.374  1.00  0.00    -0.300 OA 
HETATM   25  C   UNL     1      -9.249  14.290  67.213  1.00  0.00    -0.214 C  
HETATM   26  N   UNL     1      -7.948  14.098  67.869  1.00  0.00    -0.141 N  
HETATM   27  C   UNL     1      -7.808  12.816  68.562  1.00  0.00    -0.099 C  
HETATM   28  C   UNL     1      -7.017  15.126  67.845  1.00  0.00    -0.151 C  
HETATM   29  C   UNL     1      -8.168  11.635  67.651  1.00  0.00    -0.141 C  
HETATM   30  O   UNL     1      -7.217  16.184  67.256  1.00  0.00    -0.158 OA 
BRANCH  28  31
HETATM   31  C   UNL     1      -5.702  14.914  68.526  1.00  0.00    -0.098 C  
HETATM   32  C   UNL     1      -5.686  14.585  70.003  1.00  0.00    -0.121 C  
HETATM   33  C   UNL     1      -5.296  13.537  69.004  1.00  0.00    -0.070 C  
ENDBRANCH  28  31
ENDBRANCH  19  21
ENDBRANCH  13  14
ENDBRANCH   6  13
TORSDOF 4
ENDMDL
MODEL      230
REMARK 921   NORMALIZED FREE ENERGY PREDICTED BY IDOCK:   -3.85 KCAL/MOL
REMARK 922        TOTAL FREE ENERGY PREDICTED BY IDOCK:   -5.50 KCAL/MOL
REMARK 923 INTER-LIGAND FREE ENERGY PREDICTED BY IDOCK:   -5.25 KCAL/MOL
REMARK 924 INTRA-LIGAND FREE ENERGY PREDICTED BY IDOCK:   -0.25 KCAL/MOL
REMARK 927      BINDING AFFINITY PREDICTED BY RF-SCORE:    0.00 PKD
ROOT
HETATM    1  O   UNL     1      -7.595   3.614  68.990  1.00  0.00    -0.053 OA 
HETATM    2  C   UNL     1      -7.992   4.913  68.902  1.00  0.00    -0.076 A  
HETATM    3  H   UNL     1      -7.453   3.194  68.149  1.00  0.00     0.000 HD 
HETATM    4  N   UNL     1      -8.194   5.506  70.091  1.00  0.00    -0.100 NA 
HETATM    5  N   UNL     1      -8.601   6.799  70.119  1.00  0.00    -0.139 NA 
HETATM    6  C   UNL     1      -8.795   7.481  68.961  1.00  0.00    -0.132 A  
HETATM    7  C   UNL     1      -8.572   6.888  67.694  1.00  0.00    -0.121 A  
HETATM    8  C   UNL     1      -8.109   5.556  65.231  1.00  0.00    -0.122 A  
HETATM    9  C   UNL     1      -8.726   7.546  66.447  1.00  0.00    -0.158 A  
HETATM   10  C   UNL     1      -8.161   5.539  67.671  1.00  0.00    -0.101 A  
HETATM   11  C   UNL     1      -8.493   6.890  65.234  1.00  0.00    -0.062 A  
HETATM   12  C   UNL     1      -7.944   4.885  66.440  1.00  0.00    -0.107 A  
ENDROOT
BRANCH   6  13
HETATM   13  C   UNL     1      -9.285   8.910  69.068  1.00  0.00    -0.140 C  
BRANCH  13  14
HETATM   14  C   UNL     1      -8.333  10.013  68.649  1.00  0.00    -0.116 A  
HETATM   15  C   UNL     1      -6.583  11.933  67.603  1.00  0.00    -0.099 A  
HETATM   16  C   UNL     1      -6.947   9.816  68.713  1.00  0.00    -0.066 A  
HETATM   17  C   UNL     1      -8.820  11.233  68.144  1.00  0.00    -0.159 A  
HETATM   18  F   UNL     1      -5.715  12.754  66.997  1.00  0.00    -0.108 F  
HETATM   19  C   UNL     1      -7.945  12.217  67.641  1.00  0.00    -0.161 A  
HETATM   20  C   UNL     1      -6.078  10.768  68.181  1.00  0.00    -0.050 A  
BRANCH  19  21
HETATM   21  C   UNL     1      -8.550  13.451  67.077  1.00  0.00    -0.158 C  
HETATM   22  N   UNL     1      -8.032  14.722  67.332  1.00  0.00    -0.185 N  
HETATM   23  C   UNL     1      -8.713  15.890  66.746  1.00  0.00    -0.269 C  
HETATM   24  O   UNL     1      -9.583  13.295  66.420  1.00  0.00    -0.265 OA 
HETATM   25  C   UNL     1      -9.056  16.932  67.822  1.00  0.00    -0.229 C  
HETATM   26  N   UNL     1      -7.870  17.285  68.614  1.00  0.00    -0.265 N  
HETATM   27  C   UNL     1      -7.174  16.138  69.197  1.00  0.00    -0.212 C  
HETATM   28  C   UNL     1      -7.552  18.622  68.801  1.00  0.00    -0.298 C  
HETATM   29  C   UNL     1      -6.859  15.068  68.144  1.00  0.00    -0.131 C  
HETATM   30  O   UNL     1      -8.200  19.533  68.293  1.00  0.00    -0.321 OA 
BRANCH  28  31
HETATM   31  C   UNL     1      -6.346  18.962  69.618  1.00  0.00    -0.261 C  
HETATM   32  C   UNL     1      -5.165  19.623  68.941  1.00  0.00    -0.203 C  
HETATM   33  C   UNL     1      -5.998  20.405  69.911  1.00  0.00    -0.383 C  
ENDBRANCH  28  31
ENDBRANCH  19  21
ENDBRANCH  13  14
ENDBRANCH   6  13
TORSDOF 4
ENDMDL
MODEL      231
REMARK 921   NORMALIZED FREE ENERGY PREDICTED BY IDOCK:   -3.82 KCAL/MOL
REMARK 922        TOTAL FREE ENERGY PREDICTED BY IDOCK:   -5.46 KCAL/MOL
REMARK 923 INTER-LIGAND FREE ENERGY PREDICTED BY IDOCK:   -5.07 KCAL/MOL
REMARK 924 INTRA-LIGAND FREE ENERGY PREDICTED BY IDOCK:   -0.38 KCAL/MOL
REMARK 927      BINDING AFFINITY PREDICTED BY RF-SCORE:    0.00 PKD
ROOT
HETATM    1  O   UNL     1      -9.898   4.006  67.317  1.00  0.00    -0.189 OA 
HETATM    2  C   UNL     1      -9.766   5.300  66.914  1.00  0.00    -0.156 A  
HETATM    3  H   UNL     1      -9.188   3.440  67.040  1.00  0.00     0.000 HD 
HETATM    4  N   UNL     1     -10.771   6.102  67.305  1.00  0.00    -0.297 NA 
HETATM    5  N   UNL     1     -10.745   7.410  66.949  1.00  0.00    -0.334 NA 
HETATM    6  C   UNL     1      -9.713   7.898  66.213  1.00  0.00    -0.100 A  
HETATM    7  C   UNL     1      -8.631   7.081  65.802  1.00  0.00    -0.138 A  
HETATM    8  C   UNL     1      -6.547   5.315  65.031  1.00  0.00    -0.040 A  
HETATM    9  C   UNL     1      -7.509   7.527  65.057  1.00  0.00    -0.084 A  
HETATM   10  C   UNL     1      -8.671   5.718  66.164  1.00  0.00    -0.139 A  
HETATM   11  C   UNL     1      -6.481   6.657  64.683  1.00  0.00    -0.042 A  
HETATM   12  C   UNL     1      -7.633   4.848  65.767  1.00  0.00    -0.086 A  
ENDROOT
BRANCH   6  13
HETATM   13  C   UNL     1      -9.768   9.359  65.821  1.00  0.00    -0.354 C  
BRANCH  13  14
HETATM   14  C   UNL     1      -9.010  10.349  66.684  1.00  0.00    -0.155 A  
HETATM   15  C   UNL     1      -7.867  12.224  68.420  1.00  0.00    -0.151 A  
HETATM   16  C   UNL     1      -8.939  11.699  66.318  1.00  0.00    -0.194 A  
HETATM   17  C   UNL     1      -8.408   9.942  67.889  1.00  0.00    -0.114 A  
HETATM   18  F   UNL     1      -7.456  13.176  69.270  1.00  0.00    -0.023 F  
HETATM   19  C   UNL     1      -7.805  10.875  68.756  1.00  0.00    -0.132 A  
HETATM   20  C   UNL     1      -8.380  12.633  67.190  1.00  0.00    -0.172 A  
BRANCH  19  21
HETATM   21  C   UNL     1      -7.243  10.363  70.033  1.00  0.00    -0.135 C  
HETATM   22  N   UNL     1      -7.597   9.121  70.561  1.00  0.00    -0.109 N  
HETATM   23  C   UNL     1      -7.004   8.707  71.845  1.00  0.00    -0.075 C  
HETATM   24  O   UNL     1      -6.492  11.132  70.638  1.00  0.00    -0.309 OA 
HETATM   25  C   UNL     1      -8.090   8.303  72.855  1.00  0.00    -0.150 C  
HETATM   26  N   UNL     1      -8.997   7.299  72.282  1.00  0.00    -0.130 N  
HETATM   27  C   UNL     1      -9.590   7.687  71.001  1.00  0.00    -0.163 C  
HETATM   28  C   UNL     1      -9.269   6.143  72.998  1.00  0.00    -0.133 C  
HETATM   29  C   UNL     1      -8.523   8.133  69.993  1.00  0.00    -0.128 C  
HETATM   30  O   UNL     1      -8.745   5.897  74.080  1.00  0.00    -0.120 OA 
BRANCH  28  31
HETATM   31  C   UNL     1     -10.203   5.137  72.402  1.00  0.00    -0.249 C  
HETATM   32  C   UNL     1      -9.635   3.850  71.844  1.00  0.00    -0.217 C  
HETATM   33  C   UNL     1     -10.457   3.818  73.098  1.00  0.00    -0.257 C  
ENDBRANCH  28  31
ENDBRANCH  19  21
ENDBRANCH  13  14
ENDBRANCH   6  13
TORSDOF 4
ENDMDL
MODEL      232
REMARK 921   NORMALIZED FREE ENERGY PREDICTED BY IDOCK:   -3.81 KCAL/MOL
REMARK 922        TOTAL FREE ENERGY PREDICTED BY IDOCK:   -5.44 KCAL/MOL
REMARK 923 INTER-LIGAND FREE ENERGY PREDICTED BY IDOCK:   -5.14 KCAL/MOL
REMARK 924 INTRA-LIGAND FREE ENERGY PREDICTED BY IDOCK:   -0.30 KCAL/MOL
REMARK 927      BINDING AFFINITY PREDICTED BY RF-SCORE:    0.00 PKD
ROOT
HETATM    1  O   UNL     1     -12.772   9.914  71.036  1.00  0.00    -0.325 OA 
HETATM    2  C   UNL     1     -12.412  11.010  70.313  1.00  0.00    -0.285 A  
HETATM    3  H   UNL     1     -12.576   9.088  70.609  1.00  0.00     0.000 HD 
HETATM    4  N   UNL     1     -12.690  12.179  70.916  1.00  0.00    -0.249 NA 
HETATM    5  N   UNL     1     -12.382  13.336  70.280  1.00  0.00    -0.298 NA 
HETATM    6  C   UNL     1     -11.797  13.308  69.054  1.00  0.00    -0.321 A  
HETATM    7  C   UNL     1     -11.475  12.092  68.403  1.00  0.00    -0.356 A  
HETATM    8  C   UNL     1     -10.915   9.576  67.213  1.00  0.00    -0.062 A  
HETATM    9  C   UNL     1     -10.840  11.986  67.139  1.00  0.00    -0.297 A  
HETATM   10  C   UNL     1     -11.810  10.891  69.064  1.00  0.00    -0.370 A  
HETATM   11  C   UNL     1     -10.561  10.747  66.556  1.00  0.00    -0.279 A  
HETATM   12  C   UNL     1     -11.535   9.648  68.459  1.00  0.00     0.246 A  
ENDROOT
BRANCH   6  13
HETATM   13  C   UNL     1     -11.515  14.638  68.387  1.00  0.00    -0.335 C  
BRANCH  13  14
HETATM   14  C   UNL     1     -10.099  15.175  68.460  1.00  0.00    -0.228 A  
HETATM   15  C   UNL     1      -7.479  16.071  68.875  1.00  0.00    -0.188 A  
HETATM   16  C   UNL     1      -9.861  16.488  68.889  1.00  0.00    -0.260 A  
HETATM   17  C   UNL     1      -8.999  14.355  68.147  1.00  0.00    -0.185 A  
HETATM   18  F   UNL     1      -6.257  16.501  69.217  1.00  0.00    -0.140 F  
HETATM   19  C   UNL     1      -7.676  14.807  68.325  1.00  0.00    -0.120 A  
HETATM   20  C   UNL     1      -8.555  16.928  69.106  1.00  0.00    -0.058 A  
BRANCH  19  21
HETATM   21  C   UNL     1      -6.577  13.855  68.021  1.00  0.00    -0.143 C  
HETATM   22  N   UNL     1      -6.699  12.481  68.233  1.00  0.00    -0.071 N  
HETATM   23  C   UNL     1      -5.547  11.616  67.923  1.00  0.00    -0.048 C  
HETATM   24  O   UNL     1      -5.520  14.358  67.631  1.00  0.00    -0.314 OA 
HETATM   25  C   UNL     1      -5.172  10.735  69.125  1.00  0.00    -0.041 C  
HETATM   26  N   UNL     1      -6.339   9.994  69.622  1.00  0.00    -0.048 N  
HETATM   27  C   UNL     1      -7.498  10.834  69.928  1.00  0.00     0.074 C  
HETATM   28  C   UNL     1      -6.239   8.626  69.823  1.00  0.00    -0.035 C  
HETATM   29  C   UNL     1      -7.862  11.751  68.752  1.00  0.00    -0.076 C  
HETATM   30  O   UNL     1      -5.222   7.992  69.560  1.00  0.00    -0.025 OA 
BRANCH  28  31
HETATM   31  C   UNL     1      -7.436   7.890  70.338  1.00  0.00    -0.077 C  
HETATM   32  C   UNL     1      -8.295   7.114  69.364  1.00  0.00    -0.133 C  
HETATM   33  C   UNL     1      -7.456   6.377  70.364  1.00  0.00    -0.094 C  
ENDBRANCH  28  31
ENDBRANCH  19  21
ENDBRANCH  13  14
ENDBRANCH   6  13
TORSDOF 4
ENDMDL
MODEL      233
REMARK 921   NORMALIZED FREE ENERGY PREDICTED BY IDOCK:   -3.79 KCAL/MOL
REMARK 922        TOTAL FREE ENERGY PREDICTED BY IDOCK:   -5.42 KCAL/MOL
REMARK 923 INTER-LIGAND FREE ENERGY PREDICTED BY IDOCK:   -5.44 KCAL/MOL
REMARK 924 INTRA-LIGAND FREE ENERGY PREDICTED BY IDOCK:    0.02 KCAL/MOL
REMARK 927      BINDING AFFINITY PREDICTED BY RF-SCORE:    0.00 PKD
ROOT
HETATM    1  O   UNL     1     -11.183   4.751  72.726  1.00  0.00    -0.205 OA 
HETATM    2  C   UNL     1     -10.778   5.959  72.245  1.00  0.00    -0.234 A  
HETATM    3  H   UNL     1     -12.124   4.673  72.832  1.00  0.00     0.000 HD 
HETATM    4  N   UNL     1      -9.447   6.070  72.095  1.00  0.00    -0.149 NA 
HETATM    5  N   UNL     1      -8.933   7.236  71.631  1.00  0.00    -0.125 NA 
HETATM    6  C   UNL     1      -9.756   8.271  71.320  1.00  0.00    -0.176 A  
HETATM    7  C   UNL     1     -11.164   8.176  71.449  1.00  0.00    -0.297 A  
HETATM    8  C   UNL     1     -13.962   7.844  71.788  1.00  0.00    -0.483 A  
HETATM    9  C   UNL     1     -12.085   9.202  71.118  1.00  0.00    -0.365 A  
HETATM   10  C   UNL     1     -11.691   6.965  71.945  1.00  0.00    -0.334 A  
HETATM   11  C   UNL     1     -13.463   9.036  71.281  1.00  0.00    -0.250 A  
HETATM   12  C   UNL     1     -13.083   6.815  72.118  1.00  0.00    -0.022 A  
ENDROOT
BRANCH   6  13
HETATM   13  C   UNL     1      -9.111   9.554  70.842  1.00  0.00    -0.097 C  
BRANCH  13  14
HETATM   14  C   UNL     1      -9.302   9.940  69.388  1.00  0.00    -0.226 A  
HETATM   15  C   UNL     1      -9.385  10.775  66.717  1.00  0.00    -0.161 A  
HETATM   16  C   UNL     1      -9.866  11.178  69.052  1.00  0.00    -0.132 A  
HETATM   17  C   UNL     1      -8.874   9.088  68.354  1.00  0.00    -0.134 A  
HETATM   18  F   UNL     1      -9.323  11.276  65.475  1.00  0.00    -0.212 F  
HETATM   19  C   UNL     1      -8.938   9.488  67.004  1.00  0.00    -0.150 A  
HETATM   20  C   UNL     1      -9.895  11.596  67.722  1.00  0.00    -0.186 A  
BRANCH  19  21
HETATM   21  C   UNL     1      -8.413   8.546  65.982  1.00  0.00    -0.140 C  
HETATM   22  N   UNL     1      -8.733   7.188  65.982  1.00  0.00    -0.151 N  
HETATM   23  C   UNL     1      -8.146   6.326  64.941  1.00  0.00    -0.130 C  
HETATM   24  O   UNL     1      -7.620   9.023  65.165  1.00  0.00    -0.095 OA 
HETATM   25  C   UNL     1      -7.433   5.113  65.558  1.00  0.00    -0.077 C  
HETATM   26  N   UNL     1      -8.319   4.391  66.481  1.00  0.00    -0.106 N  
HETATM   27  C   UNL     1      -8.919   5.231  67.518  1.00  0.00    -0.108 C  
HETATM   28  C   UNL     1      -8.460   3.017  66.351  1.00  0.00    -0.107 C  
HETATM   29  C   UNL     1      -9.602   6.469  66.923  1.00  0.00    -0.158 C  
HETATM   30  O   UNL     1      -7.906   2.377  65.463  1.00  0.00    -0.076 OA 
BRANCH  28  31
HETATM   31  C   UNL     1      -9.361   2.298  67.306  1.00  0.00    -0.078 C  
HETATM   32  C   UNL     1      -8.744   1.502  68.435  1.00  0.00    -0.103 C  
HETATM   33  C   UNL     1      -9.491   2.766  68.739  1.00  0.00    -0.180 C  
ENDBRANCH  28  31
ENDBRANCH  19  21
ENDBRANCH  13  14
ENDBRANCH   6  13
TORSDOF 4
ENDMDL
MODEL      234
REMARK 921   NORMALIZED FREE ENERGY PREDICTED BY IDOCK:   -3.75 KCAL/MOL
REMARK 922        TOTAL FREE ENERGY PREDICTED BY IDOCK:   -5.38 KCAL/MOL
REMARK 923 INTER-LIGAND FREE ENERGY PREDICTED BY IDOCK:   -6.42 KCAL/MOL
REMARK 924 INTRA-LIGAND FREE ENERGY PREDICTED BY IDOCK:    1.04 KCAL/MOL
REMARK 927      BINDING AFFINITY PREDICTED BY RF-SCORE:    0.00 PKD
ROOT
HETATM    1  O   UNL     1     -10.317  12.450  63.082  1.00  0.00    -0.453 OA 
HETATM    2  C   UNL     1     -10.420  11.847  64.299  1.00  0.00    -0.326 A  
HETATM    3  H   UNL     1     -10.671  13.331  63.055  1.00  0.00     0.000 HD 
HETATM    4  N   UNL     1      -9.921  10.600  64.336  1.00  0.00    -0.330 NA 
HETATM    5  N   UNL     1      -9.981   9.903  65.498  1.00  0.00    -0.312 NA 
HETATM    6  C   UNL     1     -10.534  10.464  66.604  1.00  0.00    -0.215 A  
HETATM    7  C   UNL     1     -11.051  11.783  66.599  1.00  0.00    -0.364 A  
HETATM    8  C   UNL     1     -12.071  14.427  66.427  1.00  0.00    -0.390 A  
HETATM    9  C   UNL     1     -11.617  12.442  67.721  1.00  0.00    -0.413 A  
HETATM   10  C   UNL     1     -10.998  12.498  65.384  1.00  0.00    -0.329 A  
HETATM   11  C   UNL     1     -12.114  13.746  67.636  1.00  0.00    -0.333 A  
HETATM   12  C   UNL     1     -11.516  13.808  65.309  1.00  0.00    -0.320 A  
ENDROOT
BRANCH   6  13
HETATM   13  C   UNL     1     -10.601   9.615  67.856  1.00  0.00    -0.308 C  
BRANCH  13  14
HETATM   14  C   UNL     1     -10.207   8.155  67.738  1.00  0.00    -0.288 A  
HETATM   15  C   UNL     1      -9.280   5.547  67.318  1.00  0.00    -0.110 A  
HETATM   16  C   UNL     1     -10.831   7.327  66.796  1.00  0.00    -0.126 A  
HETATM   17  C   UNL     1      -9.178   7.619  68.535  1.00  0.00    -0.143 A  
HETATM   18  F   UNL     1      -8.789   4.345  66.986  1.00  0.00    -0.110 F  
HETATM   19  C   UNL     1      -8.724   6.298  68.350  1.00  0.00    -0.116 A  
HETATM   20  C   UNL     1     -10.359   6.032  66.580  1.00  0.00    -0.264 A  
BRANCH  19  21
HETATM   21  C   UNL     1      -7.596   5.833  69.199  1.00  0.00    -0.089 C  
HETATM   22  N   UNL     1      -7.741   4.815  70.142  1.00  0.00    -0.057 N  
HETATM   23  C   UNL     1      -6.571   4.437  70.954  1.00  0.00    -0.031 C  
HETATM   24  O   UNL     1      -6.534   6.447  69.068  1.00  0.00    -0.039 OA 
HETATM   25  C   UNL     1      -6.897   4.480  72.455  1.00  0.00    -0.056 C  
HETATM   26  N   UNL     1      -8.098   3.689  72.759  1.00  0.00    -0.080 N  
HETATM   27  C   UNL     1      -9.269   4.044  71.957  1.00  0.00    -0.124 C  
HETATM   28  C   UNL     1      -8.054   2.757  73.785  1.00  0.00    -0.067 C  
HETATM   29  C   UNL     1      -8.951   4.045  70.456  1.00  0.00    -0.097 C  
HETATM   30  O   UNL     1      -7.034   2.529  74.428  1.00  0.00    -0.032 OA 
BRANCH  28  31
HETATM   31  C   UNL     1      -9.290   1.967  74.085  1.00  0.00    -0.087 C  
HETATM   32  C   UNL     1     -10.526   2.696  74.565  1.00  0.00    -0.189 C  
HETATM   33  C   UNL     1     -10.510   2.082  73.197  1.00  0.00    -0.222 C  
ENDBRANCH  28  31
ENDBRANCH  19  21
ENDBRANCH  13  14
ENDBRANCH   6  13
TORSDOF 4
ENDMDL
MODEL      235
REMARK 921   NORMALIZED FREE ENERGY PREDICTED BY IDOCK:   -3.74 KCAL/MOL
REMARK 922        TOTAL FREE ENERGY PREDICTED BY IDOCK:   -5.36 KCAL/MOL
REMARK 923 INTER-LIGAND FREE ENERGY PREDICTED BY IDOCK:   -4.89 KCAL/MOL
REMARK 924 INTRA-LIGAND FREE ENERGY PREDICTED BY IDOCK:   -0.47 KCAL/MOL
REMARK 927      BINDING AFFINITY PREDICTED BY RF-SCORE:    0.00 PKD
ROOT
HETATM    1  O   UNL     1      -8.812  10.467  70.330  1.00  0.00    -0.251 OA 
HETATM    2  C   UNL     1      -8.857  10.074  69.026  1.00  0.00    -0.159 A  
HETATM    3  H   UNL     1      -9.381  11.199  70.533  1.00  0.00     0.000 HD 
HETATM    4  N   UNL     1      -8.051   9.038  68.738  1.00  0.00    -0.104 NA 
HETATM    5  N   UNL     1      -8.010   8.573  67.465  1.00  0.00    -0.106 NA 
HETATM    6  C   UNL     1      -8.778   9.145  66.502  1.00  0.00    -0.128 A  
HETATM    7  C   UNL     1      -9.650  10.226  66.781  1.00  0.00    -0.214 A  
HETATM    8  C   UNL     1     -11.330  12.403  67.487  1.00  0.00    -0.375 A  
HETATM    9  C   UNL     1     -10.500  10.854  65.834  1.00  0.00    -0.285 A  
HETATM   10  C   UNL     1      -9.678  10.715  68.104  1.00  0.00    -0.167 A  
HETATM   11  C   UNL     1     -11.330  11.923  66.185  1.00  0.00    -0.383 A  
HETATM   12  C   UNL     1     -10.510  11.803  68.440  1.00  0.00    -0.231 A  
ENDROOT
BRANCH   6  13
HETATM   13  C   UNL     1      -8.654   8.598  65.096  1.00  0.00    -0.200 C  
BRANCH  13  14
HETATM   14  C   UNL     1      -7.934   7.275  64.916  1.00  0.00    -0.127 A  
HETATM   15  C   UNL     1      -6.475   4.887  64.847  1.00  0.00    -0.035 A  
HETATM   16  C   UNL     1      -6.683   7.230  64.287  1.00  0.00    -0.047 A  
HETATM   17  C   UNL     1      -8.483   6.081  65.419  1.00  0.00    -0.145 A  
HETATM   18  F   UNL     1      -5.682   3.807  64.907  1.00  0.00    -0.012 F  
HETATM   19  C   UNL     1      -7.767   4.868  65.363  1.00  0.00    -0.086 A  
HETATM   20  C   UNL     1      -5.953   6.042  64.264  1.00  0.00    -0.025 A  
BRANCH  19  21
HETATM   21  C   UNL     1      -8.401   3.668  65.968  1.00  0.00    -0.106 C  
HETATM   22  N   UNL     1      -8.945   3.677  67.253  1.00  0.00    -0.128 N  
HETATM   23  C   UNL     1      -9.533   2.432  67.777  1.00  0.00    -0.098 C  
HETATM   24  O   UNL     1      -8.359   2.636  65.291  1.00  0.00    -0.090 OA 
HETATM   25  C   UNL     1      -8.929   2.062  69.141  1.00  0.00    -0.105 C  
HETATM   26  N   UNL     1      -9.016   3.188  70.081  1.00  0.00    -0.092 N  
HETATM   27  C   UNL     1      -8.445   4.438  69.575  1.00  0.00    -0.076 C  
HETATM   28  C   UNL     1      -9.543   2.977  71.346  1.00  0.00    -0.157 C  
HETATM   29  C   UNL     1      -9.007   4.802  68.195  1.00  0.00    -0.112 C  
HETATM   30  O   UNL     1      -9.986   1.890  71.705  1.00  0.00    -0.150 OA 
BRANCH  28  31
HETATM   31  C   UNL     1      -9.615   4.135  72.292  1.00  0.00    -0.200 C  
HETATM   32  C   UNL     1     -10.847   5.013  72.284  1.00  0.00    -0.207 C  
HETATM   33  C   UNL     1     -10.581   4.117  73.456  1.00  0.00    -0.284 C  
ENDBRANCH  28  31
ENDBRANCH  19  21
ENDBRANCH  13  14
ENDBRANCH   6  13
TORSDOF 4
ENDMDL
MODEL      236
REMARK 921   NORMALIZED FREE ENERGY PREDICTED BY IDOCK:   -3.70 KCAL/MOL
REMARK 922        TOTAL FREE ENERGY PREDICTED BY IDOCK:   -5.31 KCAL/MOL
REMARK 923 INTER-LIGAND FREE ENERGY PREDICTED BY IDOCK:   -6.60 KCAL/MOL
REMARK 924 INTRA-LIGAND FREE ENERGY PREDICTED BY IDOCK:    1.28 KCAL/MOL
REMARK 927      BINDING AFFINITY PREDICTED BY RF-SCORE:    0.00 PKD
ROOT
HETATM    1  O   UNL     1     -12.058  15.626  68.166  1.00  0.00    -0.398 OA 
HETATM    2  C   UNL     1     -11.400  14.437  68.249  1.00  0.00    -0.287 A  
HETATM    3  H   UNL     1     -12.751  15.731  68.807  1.00  0.00     0.000 HD 
HETATM    4  N   UNL     1     -10.419  14.289  67.342  1.00  0.00    -0.263 NA 
HETATM    5  N   UNL     1      -9.705  13.137  67.329  1.00  0.00    -0.225 NA 
HETATM    6  C   UNL     1      -9.977  12.153  68.225  1.00  0.00    -0.212 A  
HETATM    7  C   UNL     1     -10.991  12.288  69.205  1.00  0.00    -0.217 A  
HETATM    8  C   UNL     1     -13.073  12.696  71.091  1.00  0.00    -0.144 A  
HETATM    9  C   UNL     1     -11.312  11.317  70.187  1.00  0.00    -0.251 A  
HETATM   10  C   UNL     1     -11.740  13.484  69.204  1.00  0.00    -0.374 A  
HETATM   11  C   UNL     1     -12.335  11.521  71.119  1.00  0.00    -0.382 A  
HETATM   12  C   UNL     1     -12.779  13.671  70.141  1.00  0.00    -0.111 A  
ENDROOT
BRANCH   6  13
HETATM   13  C   UNL     1      -9.164  10.879  68.128  1.00  0.00    -0.158 C  
BRANCH  13  14
HETATM   14  C   UNL     1      -9.902   9.561  68.263  1.00  0.00    -0.174 A  
HETATM   15  C   UNL     1     -10.997   6.998  68.526  1.00  0.00    -0.077 A  
HETATM   16  C   UNL     1     -10.222   8.809  67.124  1.00  0.00    -0.346 A  
HETATM   17  C   UNL     1     -10.234   9.046  69.530  1.00  0.00    -0.205 A  
HETATM   18  F   UNL     1     -11.393   5.719  68.601  1.00  0.00    -0.317 F  
HETATM   19  C   UNL     1     -10.812   7.768  69.670  1.00  0.00    -0.185 A  
HETATM   20  C   UNL     1     -10.756   7.528  67.259  1.00  0.00    -0.365 A  
BRANCH  19  21
HETATM   21  C   UNL     1     -11.078   7.282  71.049  1.00  0.00    -0.258 C  
HETATM   22  N   UNL     1     -10.363   6.229  71.621  1.00  0.00    -0.208 N  
HETATM   23  C   UNL     1     -10.713   5.801  72.987  1.00  0.00    -0.257 C  
HETATM   24  O   UNL     1     -12.018   7.822  71.639  1.00  0.00    -0.277 OA 
HETATM   25  C   UNL     1     -10.996   4.292  73.043  1.00  0.00    -0.167 C  
HETATM   26  N   UNL     1      -9.888   3.524  72.458  1.00  0.00    -0.147 N  
HETATM   27  C   UNL     1      -9.519   3.940  71.104  1.00  0.00    -0.163 C  
HETATM   28  C   UNL     1      -9.345   2.465  73.170  1.00  0.00    -0.087 C  
HETATM   29  C   UNL     1      -9.272   5.452  71.020  1.00  0.00    -0.148 C  
HETATM   30  O   UNL     1      -9.724   2.165  74.299  1.00  0.00    -0.083 OA 
BRANCH  28  31
HETATM   31  C   UNL     1      -8.224   1.690  72.554  1.00  0.00    -0.053 C  
HETATM   32  C   UNL     1      -7.123   2.439  71.836  1.00  0.00    -0.034 C  
HETATM   33  C   UNL     1      -6.830   1.759  73.139  1.00  0.00    -0.022 C  
ENDBRANCH  28  31
ENDBRANCH  19  21
ENDBRANCH  13  14
ENDBRANCH   6  13
TORSDOF 4
ENDMDL
MODEL      237
REMARK 921   NORMALIZED FREE ENERGY PREDICTED BY IDOCK:   -3.54 KCAL/MOL
REMARK 922        TOTAL FREE ENERGY PREDICTED BY IDOCK:   -5.12 KCAL/MOL
REMARK 923 INTER-LIGAND FREE ENERGY PREDICTED BY IDOCK:   -5.21 KCAL/MOL
REMARK 924 INTRA-LIGAND FREE ENERGY PREDICTED BY IDOCK:    0.09 KCAL/MOL
REMARK 927      BINDING AFFINITY PREDICTED BY RF-SCORE:    0.00 PKD
ROOT
HETATM    1  O   UNL     1     -10.751  17.151  65.481  1.00  0.00    -0.493 OA 
HETATM    2  C   UNL     1     -10.054  16.133  66.058  1.00  0.00    -0.351 A  
HETATM    3  H   UNL     1     -11.338  16.874  64.788  1.00  0.00     0.000 HD 
HETATM    4  N   UNL     1      -9.223  16.524  67.038  1.00  0.00    -0.213 NA 
HETATM    5  N   UNL     1      -8.471  15.591  67.674  1.00  0.00    -0.161 NA 
HETATM    6  C   UNL     1      -8.565  14.282  67.324  1.00  0.00    -0.215 A  
HETATM    7  C   UNL     1      -9.447  13.838  66.308  1.00  0.00    -0.221 A  
HETATM    8  C   UNL     1     -11.238  13.105  64.231  1.00  0.00    -0.422 A  
HETATM    9  C   UNL     1      -9.618  12.488  65.909  1.00  0.00    -0.174 A  
HETATM   10  C   UNL     1     -10.215  14.815  65.640  1.00  0.00    -0.382 A  
HETATM   11  C   UNL     1     -10.504  12.128  64.889  1.00  0.00    -0.325 A  
HETATM   12  C   UNL     1     -11.095  14.439  64.604  1.00  0.00    -0.363 A  
ENDROOT
BRANCH   6  13
HETATM   13  C   UNL     1      -7.671  13.302  68.051  1.00  0.00    -0.147 C  
BRANCH  13  14
HETATM   14  C   UNL     1      -8.337  12.179  68.823  1.00  0.00     0.074 A  
HETATM   15  C   UNL     1      -9.558   9.950  69.997  1.00  0.00    -0.214 A  
HETATM   16  C   UNL     1      -9.734  12.073  68.854  1.00  0.00     0.071 A  
HETATM   17  C   UNL     1      -7.569  11.200  69.479  1.00  0.00     0.058 A  
HETATM   18  F   UNL     1     -10.182   8.843  70.423  1.00  0.00    -0.185 F  
HETATM   19  C   UNL     1      -8.177  10.089  70.098  1.00  0.00    -0.083 A  
HETATM   20  C   UNL     1     -10.339  10.956  69.429  1.00  0.00    -0.174 A  
BRANCH  19  21
HETATM   21  C   UNL     1      -7.285   9.075  70.719  1.00  0.00    -0.097 C  
HETATM   22  N   UNL     1      -7.125   7.795  70.188  1.00  0.00    -0.053 N  
HETATM   23  C   UNL     1      -6.236   6.849  70.886  1.00  0.00    -0.036 C  
HETATM   24  O   UNL     1      -6.742   9.409  71.776  1.00  0.00    -0.301 OA 
HETATM   25  C   UNL     1      -6.956   5.526  71.186  1.00  0.00    -0.065 C  
HETATM   26  N   UNL     1      -7.562   4.966  69.970  1.00  0.00    -0.055 N  
HETATM   27  C   UNL     1      -8.443   5.892  69.257  1.00  0.00    -0.113 C  
HETATM   28  C   UNL     1      -7.324   3.640  69.641  1.00  0.00    -0.045 C  
HETATM   29  C   UNL     1      -7.753   7.236  68.984  1.00  0.00    -0.112 C  
HETATM   30  O   UNL     1      -6.586   2.917  70.304  1.00  0.00    -0.031 OA 
BRANCH  28  31
HETATM   31  C   UNL     1      -7.958   3.085  68.404  1.00  0.00    -0.063 C  
HETATM   32  C   UNL     1      -8.104   1.586  68.265  1.00  0.00    -0.065 C  
HETATM   33  C   UNL     1      -9.323   2.435  68.466  1.00  0.00    -0.252 C  
ENDBRANCH  28  31
ENDBRANCH  19  21
ENDBRANCH  13  14
ENDBRANCH   6  13
TORSDOF 4
ENDMDL
MODEL      238
REMARK 921   NORMALIZED FREE ENERGY PREDICTED BY IDOCK:   -3.37 KCAL/MOL
REMARK 922        TOTAL FREE ENERGY PREDICTED BY IDOCK:   -4.90 KCAL/MOL
REMARK 923 INTER-LIGAND FREE ENERGY PREDICTED BY IDOCK:   -5.36 KCAL/MOL
REMARK 924 INTRA-LIGAND FREE ENERGY PREDICTED BY IDOCK:    0.46 KCAL/MOL
REMARK 927      BINDING AFFINITY PREDICTED BY RF-SCORE:    0.00 PKD
ROOT
HETATM    1  O   UNL     1     -12.276  15.049  65.426  1.00  0.00    -0.090 OA 
HETATM    2  C   UNL     1     -11.309  14.208  65.887  1.00  0.00    -0.323 A  
HETATM    3  H   UNL     1     -12.255  15.914  65.817  1.00  0.00     0.000 HD 
HETATM    4  N   UNL     1     -11.338  12.984  65.333  1.00  0.00    -0.292 NA 
HETATM    5  N   UNL     1     -10.425  12.062  65.728  1.00  0.00    -0.245 NA 
HETATM    6  C   UNL     1      -9.494  12.379  66.665  1.00  0.00    -0.232 A  
HETATM    7  C   UNL     1      -9.426  13.667  67.251  1.00  0.00    -0.230 A  
HETATM    8  C   UNL     1      -9.435  16.282  68.355  1.00  0.00    -0.216 A  
HETATM    9  C   UNL     1      -8.467  14.077  68.211  1.00  0.00    -0.171 A  
HETATM   10  C   UNL     1     -10.388  14.617  66.846  1.00  0.00    -0.264 A  
HETATM   11  C   UNL     1      -8.469  15.367  68.751  1.00  0.00    -0.188 A  
HETATM   12  C   UNL     1     -10.388  15.911  67.409  1.00  0.00    -0.288 A  
ENDROOT
BRANCH   6  13
HETATM   13  C   UNL     1      -8.529  11.291  67.083  1.00  0.00    -0.149 C  
BRANCH  13  14
HETATM   14  C   UNL     1      -9.089   9.899  67.302  1.00  0.00    -0.149 A  
HETATM   15  C   UNL     1     -10.019   7.261  67.436  1.00  0.00    -0.174 A  
HETATM   16  C   UNL     1     -10.391   9.587  66.888  1.00  0.00    -0.307 A  
HETATM   17  C   UNL     1      -8.300   8.885  67.877  1.00  0.00    -0.118 A  
HETATM   18  F   UNL     1     -10.460   5.998  67.353  1.00  0.00    -0.163 F  
HETATM   19  C   UNL     1      -8.771   7.560  67.975  1.00  0.00    -0.121 A  
HETATM   20  C   UNL     1     -10.848   8.270  66.945  1.00  0.00     0.010 A  
BRANCH  19  21
HETATM   21  C   UNL     1      -7.849   6.544  68.545  1.00  0.00    -0.106 C  
HETATM   22  N   UNL     1      -8.181   5.777  69.663  1.00  0.00    -0.107 N  
HETATM   23  C   UNL     1      -7.194   4.809  70.171  1.00  0.00    -0.050 C  
HETATM   24  O   UNL     1      -6.739   6.462  68.012  1.00  0.00    -0.062 OA 
HETATM   25  C   UNL     1      -6.924   5.023  71.668  1.00  0.00    -0.053 C  
HETATM   26  N   UNL     1      -8.177   5.034  72.436  1.00  0.00    -0.118 N  
HETATM   27  C   UNL     1      -9.175   5.984  71.942  1.00  0.00    -0.150 C  
HETATM   28  C   UNL     1      -8.290   4.234  73.563  1.00  0.00    -0.093 C  
HETATM   29  C   UNL     1      -9.428   5.812  70.438  1.00  0.00    -0.166 C  
HETATM   30  O   UNL     1      -7.396   3.474  73.926  1.00  0.00    -0.054 OA 
BRANCH  28  31
HETATM   31  C   UNL     1      -9.570   4.266  74.336  1.00  0.00    -0.137 C  
HETATM   32  C   UNL     1     -10.874   4.035  73.605  1.00  0.00    -0.338 C  
HETATM   33  C   UNL     1     -10.365   2.998  74.560  1.00  0.00    -0.216 C  
ENDBRANCH  28  31
ENDBRANCH  19  21
ENDBRANCH  13  14
ENDBRANCH   6  13
TORSDOF 4
ENDMDL
MODEL      239
REMARK 921   NORMALIZED FREE ENERGY PREDICTED BY IDOCK:   -3.33 KCAL/MOL
REMARK 922        TOTAL FREE ENERGY PREDICTED BY IDOCK:   -4.86 KCAL/MOL
REMARK 923 INTER-LIGAND FREE ENERGY PREDICTED BY IDOCK:   -4.76 KCAL/MOL
REMARK 924 INTRA-LIGAND FREE ENERGY PREDICTED BY IDOCK:   -0.10 KCAL/MOL
REMARK 927      BINDING AFFINITY PREDICTED BY RF-SCORE:    0.00 PKD
ROOT
HETATM    1  O   UNL     1     -12.861   8.760  72.252  1.00  0.00    -0.369 OA 
HETATM    2  C   UNL     1     -12.386   9.534  71.237  1.00  0.00    -0.345 A  
HETATM    3  H   UNL     1     -12.707   7.830  72.134  1.00  0.00     0.000 HD 
HETATM    4  N   UNL     1     -12.604  10.850  71.404  1.00  0.00    -0.402 NA 
HETATM    5  N   UNL     1     -12.181  11.712  70.447  1.00  0.00    -0.358 NA 
HETATM    6  C   UNL     1     -11.542  11.248  69.341  1.00  0.00    -0.321 A  
HETATM    7  C   UNL     1     -11.281   9.869  69.148  1.00  0.00    -0.151 A  
HETATM    8  C   UNL     1     -10.856   7.075  68.889  1.00  0.00    -0.203 A  
HETATM    9  C   UNL     1     -10.597   9.316  68.036  1.00  0.00    -0.262 A  
HETATM   10  C   UNL     1     -11.737   8.976  70.141  1.00  0.00     0.081 A  
HETATM   11  C   UNL     1     -10.384   7.940  67.912  1.00  0.00    -0.281 A  
HETATM   12  C   UNL     1     -11.527   7.588  69.996  1.00  0.00    -0.049 A  
ENDROOT
BRANCH   6  13
HETATM   13  C   UNL     1     -11.130  12.264  68.298  1.00  0.00    -0.282 C  
BRANCH  13  14
HETATM   14  C   UNL     1      -9.667  12.662  68.241  1.00  0.00    -0.216 A  
HETATM   15  C   UNL     1      -6.974  13.399  68.433  1.00  0.00    -0.105 A  
HETATM   16  C   UNL     1      -9.302  14.014  68.214  1.00  0.00    -0.208 A  
HETATM   17  C   UNL     1      -8.654  11.686  68.265  1.00  0.00    -0.162 A  
HETATM   18  F   UNL     1      -5.716  13.805  68.659  1.00  0.00    -0.074 F  
HETATM   19  C   UNL     1      -7.293  12.048  68.333  1.00  0.00    -0.096 A  
HETATM   20  C   UNL     1      -7.960  14.379  68.321  1.00  0.00    -0.140 A  
BRANCH  19  21
HETATM   21  C   UNL     1      -6.293  10.952  68.410  1.00  0.00    -0.053 C  
HETATM   22  N   UNL     1      -6.527   9.775  69.122  1.00  0.00    -0.044 N  
HETATM   23  C   UNL     1      -5.467   8.752  69.160  1.00  0.00    -0.036 C  
HETATM   24  O   UNL     1      -5.210  11.170  67.860  1.00  0.00    -0.039 OA 
HETATM   25  C   UNL     1      -5.129   8.354  70.605  1.00  0.00    -0.022 C  
HETATM   26  N   UNL     1      -6.339   7.966  71.343  1.00  0.00    -0.034 N  
HETATM   27  C   UNL     1      -7.408   8.965  71.310  1.00  0.00    -0.096 C  
HETATM   28  C   UNL     1      -6.353   6.769  72.043  1.00  0.00    -0.049 C  
HETATM   29  C   UNL     1      -7.731   9.405  69.876  1.00  0.00    -0.114 C  
HETATM   30  O   UNL     1      -5.404   5.989  72.038  1.00  0.00    -0.021 OA 
BRANCH  28  31
HETATM   31  C   UNL     1      -7.591   6.396  72.796  1.00  0.00    -0.102 C  
HETATM   32  C   UNL     1      -8.179   5.015  72.602  1.00  0.00    -0.112 C  
HETATM   33  C   UNL     1      -7.534   5.371  73.908  1.00  0.00    -0.090 C  
ENDBRANCH  28  31
ENDBRANCH  19  21
ENDBRANCH  13  14
ENDBRANCH   6  13
TORSDOF 4
ENDMDL
MODEL      240
REMARK 921   NORMALIZED FREE ENERGY PREDICTED BY IDOCK:   -3.30 KCAL/MOL
REMARK 922        TOTAL FREE ENERGY PREDICTED BY IDOCK:   -4.82 KCAL/MOL
REMARK 923 INTER-LIGAND FREE ENERGY PREDICTED BY IDOCK:   -5.45 KCAL/MOL
REMARK 924 INTRA-LIGAND FREE ENERGY PREDICTED BY IDOCK:    0.63 KCAL/MOL
REMARK 927      BINDING AFFINITY PREDICTED BY RF-SCORE:    0.00 PKD
ROOT
HETATM    1  O   UNL     1      -6.698  15.496  69.411  1.00  0.00    -0.145 OA 
HETATM    2  C   UNL     1      -7.953  15.297  68.921  1.00  0.00    -0.176 A  
HETATM    3  H   UNL     1      -6.523  16.391  69.675  1.00  0.00     0.000 HD 
HETATM    4  N   UNL     1      -8.201  14.030  68.546  1.00  0.00    -0.144 NA 
HETATM    5  N   UNL     1      -9.418  13.723  68.033  1.00  0.00    -0.201 NA 
HETATM    6  C   UNL     1     -10.370  14.683  67.907  1.00  0.00    -0.237 A  
HETATM    7  C   UNL     1     -10.143  16.023  68.311  1.00  0.00    -0.229 A  
HETATM    8  C   UNL     1      -9.532  18.668  69.138  1.00  0.00    -0.119 A  
HETATM    9  C   UNL     1     -11.097  17.070  68.235  1.00  0.00    -0.172 A  
HETATM   10  C   UNL     1      -8.870  16.339  68.831  1.00  0.00    -0.253 A  
HETATM   11  C   UNL     1     -10.796  18.371  68.647  1.00  0.00     0.410 A  
HETATM   12  C   UNL     1      -8.576  17.659  69.230  1.00  0.00     0.270 A  
ENDROOT
BRANCH   6  13
HETATM   13  C   UNL     1     -11.692  14.277  67.293  1.00  0.00    -0.422 C  
BRANCH  13  14
HETATM   14  C   UNL     1     -11.654  13.460  66.015  1.00  0.00    -0.375 A  
HETATM   15  C   UNL     1     -11.366  12.135  63.566  1.00  0.00    -0.453 A  
HETATM   16  C   UNL     1     -12.442  13.827  64.917  1.00  0.00    -0.420 A  
HETATM   17  C   UNL     1     -10.793  12.354  65.892  1.00  0.00    -0.305 A  
HETATM   18  F   UNL     1     -11.169  11.625  62.342  1.00  0.00     0.459 F  
HETATM   19  C   UNL     1     -10.663  11.663  64.671  1.00  0.00    -0.371 A  
HETATM   20  C   UNL     1     -12.289  13.173  63.695  1.00  0.00    -0.482 A  
BRANCH  19  21
HETATM   21  C   UNL     1      -9.689  10.541  64.616  1.00  0.00    -0.309 C  
HETATM   22  N   UNL     1      -9.721   9.479  65.521  1.00  0.00    -0.293 N  
HETATM   23  C   UNL     1      -8.701   8.422  65.402  1.00  0.00    -0.141 C  
HETATM   24  O   UNL     1      -8.804  10.636  63.761  1.00  0.00    -0.183 OA 
HETATM   25  C   UNL     1      -7.971   8.201  66.736  1.00  0.00    -0.103 C  
HETATM   26  N   UNL     1      -8.926   7.968  67.829  1.00  0.00    -0.132 N  
HETATM   27  C   UNL     1      -9.954   9.003  67.958  1.00  0.00    -0.176 C  
HETATM   28  C   UNL     1      -8.750   6.875  68.663  1.00  0.00    -0.122 C  
HETATM   29  C   UNL     1     -10.666   9.267  66.625  1.00  0.00     0.004 C  
HETATM   30  O   UNL     1      -7.847   6.059  68.502  1.00  0.00    -0.097 OA 
BRANCH  28  31
HETATM   31  C   UNL     1      -9.727   6.661  69.776  1.00  0.00    -0.168 C  
HETATM   32  C   UNL     1      -9.298   6.961  71.196  1.00  0.00    -0.162 C  
HETATM   33  C   UNL     1     -10.310   7.840  70.524  1.00  0.00    -0.205 C  
ENDBRANCH  28  31
ENDBRANCH  19  21
ENDBRANCH  13  14
ENDBRANCH   6  13
TORSDOF 4
ENDMDL
MODEL      241
REMARK 921   NORMALIZED FREE ENERGY PREDICTED BY IDOCK:   -3.25 KCAL/MOL
REMARK 922        TOTAL FREE ENERGY PREDICTED BY IDOCK:   -4.76 KCAL/MOL
REMARK 923 INTER-LIGAND FREE ENERGY PREDICTED BY IDOCK:   -4.66 KCAL/MOL
REMARK 924 INTRA-LIGAND FREE ENERGY PREDICTED BY IDOCK:   -0.09 KCAL/MOL
REMARK 927      BINDING AFFINITY PREDICTED BY RF-SCORE:    0.00 PKD
ROOT
HETATM    1  O   UNL     1     -10.733   9.883  70.377  1.00  0.00    -0.279 OA 
HETATM    2  C   UNL     1     -10.502   8.542  70.314  1.00  0.00    -0.220 A  
HETATM    3  H   UNL     1     -10.505  10.276  71.211  1.00  0.00     0.000 HD 
HETATM    4  N   UNL     1     -10.825   7.986  69.134  1.00  0.00    -0.095 NA 
HETATM    5  N   UNL     1     -10.645   6.652  68.965  1.00  0.00    -0.219 NA 
HETATM    6  C   UNL     1     -10.140   5.897  69.975  1.00  0.00    -0.198 A  
HETATM    7  C   UNL     1      -9.773   6.459  71.222  1.00  0.00    -0.189 A  
HETATM    8  C   UNL     1      -9.109   7.725  73.675  1.00  0.00    -0.345 A  
HETATM    9  C   UNL     1      -9.216   5.739  72.310  1.00  0.00    -0.151 A  
HETATM   10  C   UNL     1      -9.976   7.844  71.397  1.00  0.00    -0.208 A  
HETATM   11  C   UNL     1      -8.885   6.364  73.516  1.00  0.00    -0.131 A  
HETATM   12  C   UNL     1      -9.651   8.460  72.623  1.00  0.00    -0.337 A  
ENDROOT
BRANCH   6  13
HETATM   13  C   UNL     1     -10.000   4.410  69.729  1.00  0.00    -0.224 C  
BRANCH  13  14
HETATM   14  C   UNL     1      -9.366   3.969  68.424  1.00  0.00    -0.218 A  
HETATM   15  C   UNL     1      -8.465   3.174  65.895  1.00  0.00    -0.109 A  
HETATM   16  C   UNL     1      -9.299   2.609  68.093  1.00  0.00    -0.258 A  
HETATM   17  C   UNL     1      -8.879   4.915  67.503  1.00  0.00    -0.105 A  
HETATM   18  F   UNL     1      -8.173   2.752  64.657  1.00  0.00    -0.083 F  
HETATM   19  C   UNL     1      -8.397   4.521  66.238  1.00  0.00    -0.110 A  
HETATM   20  C   UNL     1      -8.861   2.216  66.828  1.00  0.00    -0.141 A  
BRANCH  19  21
HETATM   21  C   UNL     1      -7.954   5.592  65.308  1.00  0.00    -0.112 C  
HETATM   22  N   UNL     1      -7.232   6.706  65.739  1.00  0.00    -0.068 N  
HETATM   23  C   UNL     1      -6.855   7.728  64.747  1.00  0.00    -0.051 C  
HETATM   24  O   UNL     1      -8.320   5.474  64.135  1.00  0.00    -0.136 OA 
HETATM   25  C   UNL     1      -7.311   9.127  65.188  1.00  0.00    -0.096 C  
HETATM   26  N   UNL     1      -6.842   9.433  66.547  1.00  0.00    -0.082 N  
HETATM   27  C   UNL     1      -7.199   8.425  67.546  1.00  0.00    -0.088 C  
HETATM   28  C   UNL     1      -6.187  10.632  66.785  1.00  0.00    -0.076 C  
HETATM   29  C   UNL     1      -6.787   7.015  67.104  1.00  0.00    -0.065 C  
HETATM   30  O   UNL     1      -5.941  11.439  65.893  1.00  0.00    -0.086 OA 
BRANCH  28  31
HETATM   31  C   UNL     1      -5.725  10.929  68.177  1.00  0.00    -0.046 C  
HETATM   32  C   UNL     1      -5.138  12.291  68.479  1.00  0.00    -0.051 C  
HETATM   33  C   UNL     1      -6.477  11.918  69.041  1.00  0.00    -0.086 C  
ENDBRANCH  28  31
ENDBRANCH  19  21
ENDBRANCH  13  14
ENDBRANCH   6  13
TORSDOF 4
ENDMDL
MODEL      242
REMARK 921   NORMALIZED FREE ENERGY PREDICTED BY IDOCK:   -3.20 KCAL/MOL
REMARK 922        TOTAL FREE ENERGY PREDICTED BY IDOCK:   -4.70 KCAL/MOL
REMARK 923 INTER-LIGAND FREE ENERGY PREDICTED BY IDOCK:   -3.63 KCAL/MOL
REMARK 924 INTRA-LIGAND FREE ENERGY PREDICTED BY IDOCK:   -1.07 KCAL/MOL
REMARK 927      BINDING AFFINITY PREDICTED BY RF-SCORE:    0.00 PKD
ROOT
HETATM    1  O   UNL     1      -6.634  14.682  70.615  1.00  0.00    -0.256 OA 
HETATM    2  C   UNL     1      -6.766  13.714  69.666  1.00  0.00     0.011 A  
HETATM    3  H   UNL     1      -6.189  14.393  71.404  1.00  0.00     0.000 HD 
HETATM    4  N   UNL     1      -7.396  14.122  68.552  1.00  0.00    -0.112 NA 
HETATM    5  N   UNL     1      -7.591  13.235  67.545  1.00  0.00    -0.164 NA 
HETATM    6  C   UNL     1      -7.150  11.956  67.665  1.00  0.00    -0.112 A  
HETATM    7  C   UNL     1      -6.466  11.503  68.820  1.00  0.00    -0.058 A  
HETATM    8  C   UNL     1      -5.137  10.735  71.208  1.00  0.00    -0.096 A  
HETATM    9  C   UNL     1      -5.954  10.193  69.004  1.00  0.00    -0.037 A  
HETATM   10  C   UNL     1      -6.279  12.427  69.870  1.00  0.00    -0.102 A  
HETATM   11  C   UNL     1      -5.295   9.818  70.179  1.00  0.00    -0.037 A  
HETATM   12  C   UNL     1      -5.625  12.031  71.055  1.00  0.00    -0.019 A  
ENDROOT
BRANCH   6  13
HETATM   13  C   UNL     1      -7.434  11.011  66.517  1.00  0.00    -0.145 C  
BRANCH  13  14
HETATM   14  C   UNL     1      -8.465   9.921  66.741  1.00  0.00    -0.125 A  
HETATM   15  C   UNL     1     -10.404   7.906  66.860  1.00  0.00    -0.330 A  
HETATM   16  C   UNL     1      -9.815  10.250  66.919  1.00  0.00    -0.244 A  
HETATM   17  C   UNL     1      -8.094   8.564  66.726  1.00  0.00    -0.098 A  
HETATM   18  F   UNL     1     -11.379   6.989  66.785  1.00  0.00    -0.444 F  
HETATM   19  C   UNL     1      -9.061   7.542  66.813  1.00  0.00    -0.176 A  
HETATM   20  C   UNL     1     -10.780   9.244  66.966  1.00  0.00    -0.199 A  
BRANCH  19  21
HETATM   21  C   UNL     1      -8.585   6.137  66.733  1.00  0.00    -0.111 C  
HETATM   22  N   UNL     1      -8.532   5.301  67.849  1.00  0.00    -0.101 N  
HETATM   23  C   UNL     1      -8.025   3.928  67.677  1.00  0.00    -0.090 C  
HETATM   24  O   UNL     1      -8.174   5.768  65.630  1.00  0.00    -0.116 OA 
HETATM   25  C   UNL     1      -6.890   3.625  68.668  1.00  0.00    -0.046 C  
HETATM   26  N   UNL     1      -7.298   3.927  70.048  1.00  0.00    -0.042 N  
HETATM   27  C   UNL     1      -7.814   5.284  70.238  1.00  0.00    -0.083 C  
HETATM   28  C   UNL     1      -7.107   2.973  71.036  1.00  0.00    -0.033 C  
HETATM   29  C   UNL     1      -8.921   5.618  69.230  1.00  0.00    -0.113 C  
HETATM   30  O   UNL     1      -6.649   1.859  70.800  1.00  0.00    -0.023 OA 
BRANCH  28  31
HETATM   31  C   UNL     1      -7.521   3.303  72.436  1.00  0.00    -0.056 C  
HETATM   32  C   UNL     1      -7.559   2.197  73.468  1.00  0.00    -0.041 C  
HETATM   33  C   UNL     1      -6.512   3.265  73.563  1.00  0.00    -0.028 C  
ENDBRANCH  28  31
ENDBRANCH  19  21
ENDBRANCH  13  14
ENDBRANCH   6  13
TORSDOF 4
ENDMDL
MODEL      243
REMARK 921   NORMALIZED FREE ENERGY PREDICTED BY IDOCK:   -3.20 KCAL/MOL
REMARK 922        TOTAL FREE ENERGY PREDICTED BY IDOCK:   -4.69 KCAL/MOL
REMARK 923 INTER-LIGAND FREE ENERGY PREDICTED BY IDOCK:   -4.88 KCAL/MOL
REMARK 924 INTRA-LIGAND FREE ENERGY PREDICTED BY IDOCK:    0.18 KCAL/MOL
REMARK 927      BINDING AFFINITY PREDICTED BY RF-SCORE:    0.00 PKD
ROOT
HETATM    1  O   UNL     1      -9.797  10.690  69.958  1.00  0.00    -0.388 OA 
HETATM    2  C   UNL     1      -9.734  10.710  68.598  1.00  0.00    -0.178 A  
HETATM    3  H   UNL     1     -10.481  11.240  70.322  1.00  0.00     0.000 HD 
HETATM    4  N   UNL     1      -8.766   9.933  68.083  1.00  0.00    -0.121 NA 
HETATM    5  N   UNL     1      -8.607   9.887  66.737  1.00  0.00    -0.128 NA 
HETATM    6  C   UNL     1      -9.420  10.613  65.927  1.00  0.00    -0.196 A  
HETATM    7  C   UNL     1     -10.460  11.426  66.440  1.00  0.00    -0.299 A  
HETATM    8  C   UNL     1     -12.483  13.031  67.618  1.00  0.00     0.410 A  
HETATM    9  C   UNL     1     -11.362  12.189  65.655  1.00  0.00    -0.395 A  
HETATM   10  C   UNL     1     -10.611  11.481  67.842  1.00  0.00    -0.224 A  
HETATM   11  C   UNL     1     -12.362  12.975  66.237  1.00  0.00    -0.278 A  
HETATM   12  C   UNL     1     -11.615  12.290  68.416  1.00  0.00    -0.377 A  
ENDROOT
BRANCH   6  13
HETATM   13  C   UNL     1      -9.162  10.541  64.437  1.00  0.00    -0.281 C  
BRANCH  13  14
HETATM   14  C   UNL     1      -8.242   9.445  63.933  1.00  0.00    -0.165 A  
HETATM   15  C   UNL     1      -6.379   7.472  63.246  1.00  0.00    -0.054 A  
HETATM   16  C   UNL     1      -7.157   9.757  63.104  1.00  0.00    -0.116 A  
HETATM   17  C   UNL     1      -8.431   8.108  64.328  1.00  0.00     0.041 A  
HETATM   18  F   UNL     1      -5.392   6.599  63.002  1.00  0.00    -0.026 F  
HETATM   19  C   UNL     1      -7.514   7.102  63.963  1.00  0.00    -0.099 A  
HETATM   20  C   UNL     1      -6.224   8.774  62.772  1.00  0.00    -0.091 A  
BRANCH  19  21
HETATM   21  C   UNL     1      -7.762   5.728  64.470  1.00  0.00    -0.095 C  
HETATM   22  N   UNL     1      -8.476   5.481  65.643  1.00  0.00    -0.135 N  
HETATM   23  C   UNL     1      -8.654   4.085  66.080  1.00  0.00    -0.110 C  
HETATM   24  O   UNL     1      -7.242   4.812  63.826  1.00  0.00    -0.048 OA 
HETATM   25  C   UNL     1      -8.188   3.892  67.532  1.00  0.00    -0.094 C  
HETATM   26  N   UNL     1      -8.827   4.867  68.426  1.00  0.00    -0.101 N  
HETATM   27  C   UNL     1      -8.670   6.260  68.005  1.00  0.00    -0.114 C  
HETATM   28  C   UNL     1      -9.442   4.423  69.587  1.00  0.00    -0.182 C  
HETATM   29  C   UNL     1      -9.092   6.464  66.544  1.00  0.00    -0.151 C  
HETATM   30  O   UNL     1      -9.516   3.234  69.882  1.00  0.00    -0.163 OA 
BRANCH  28  31
HETATM   31  C   UNL     1     -10.079   5.432  70.489  1.00  0.00    -0.306 C  
HETATM   32  C   UNL     1     -10.237   5.105  71.958  1.00  0.00    -0.260 C  
HETATM   33  C   UNL     1      -9.257   6.157  71.533  1.00  0.00    -0.152 C  
ENDBRANCH  28  31
ENDBRANCH  19  21
ENDBRANCH  13  14
ENDBRANCH   6  13
TORSDOF 4
ENDMDL
MODEL      244
REMARK 921   NORMALIZED FREE ENERGY PREDICTED BY IDOCK:   -3.19 KCAL/MOL
REMARK 922        TOTAL FREE ENERGY PREDICTED BY IDOCK:   -4.69 KCAL/MOL
REMARK 923 INTER-LIGAND FREE ENERGY PREDICTED BY IDOCK:   -5.45 KCAL/MOL
REMARK 924 INTRA-LIGAND FREE ENERGY PREDICTED BY IDOCK:    0.77 KCAL/MOL
REMARK 927      BINDING AFFINITY PREDICTED BY RF-SCORE:    0.00 PKD
ROOT
HETATM    1  O   UNL     1     -10.035  14.437  68.572  1.00  0.00    -0.226 OA 
HETATM    2  C   UNL     1     -10.429  13.185  68.933  1.00  0.00    -0.092 A  
HETATM    3  H   UNL     1      -9.313  14.453  67.955  1.00  0.00     0.000 HD 
HETATM    4  N   UNL     1     -11.449  13.162  69.807  1.00  0.00    -0.198 NA 
HETATM    5  N   UNL     1     -11.915  11.965  70.242  1.00  0.00    -0.352 NA 
HETATM    6  C   UNL     1     -11.360  10.810  69.793  1.00  0.00    -0.300 A  
HETATM    7  C   UNL     1     -10.297  10.803  68.856  1.00  0.00    -0.220 A  
HETATM    8  C   UNL     1      -8.153  10.950  67.001  1.00  0.00    -0.131 A  
HETATM    9  C   UNL     1      -9.687   9.639  68.323  1.00  0.00    -0.162 A  
HETATM   10  C   UNL     1      -9.807  12.052  68.419  1.00  0.00    -0.204 A  
HETATM   11  C   UNL     1      -8.635   9.713  67.406  1.00  0.00    -0.125 A  
HETATM   12  C   UNL     1      -8.735  12.112  67.504  1.00  0.00    -0.173 A  
ENDROOT
BRANCH   6  13
HETATM   13  C   UNL     1     -11.907   9.513  70.348  1.00  0.00    -0.181 C  
BRANCH  13  14
HETATM   14  C   UNL     1     -10.962   8.634  71.145  1.00  0.00    -0.320 A  
HETATM   15  C   UNL     1      -9.387   6.782  72.534  1.00  0.00    -0.139 A  
HETATM   16  C   UNL     1     -11.217   8.362  72.496  1.00  0.00    -0.406 A  
HETATM   17  C   UNL     1      -9.844   8.037  70.533  1.00  0.00    -0.184 A  
HETATM   18  F   UNL     1      -8.752   5.808  73.200  1.00  0.00    -0.122 F  
HETATM   19  C   UNL     1      -9.028   7.126  71.233  1.00  0.00    -0.147 A  
HETATM   20  C   UNL     1     -10.438   7.431  73.182  1.00  0.00    -0.406 A  
BRANCH  19  21
HETATM   21  C   UNL     1      -7.901   6.502  70.492  1.00  0.00    -0.106 C  
HETATM   22  N   UNL     1      -8.014   6.098  69.161  1.00  0.00    -0.107 N  
HETATM   23  C   UNL     1      -6.849   5.468  68.515  1.00  0.00    -0.059 C  
HETATM   24  O   UNL     1      -6.874   6.298  71.144  1.00  0.00    -0.063 OA 
HETATM   25  C   UNL     1      -7.223   4.115  67.891  1.00  0.00    -0.064 C  
HETATM   26  N   UNL     1      -8.383   4.246  66.999  1.00  0.00    -0.101 N  
HETATM   27  C   UNL     1      -9.549   4.878  67.619  1.00  0.00    -0.151 C  
HETATM   28  C   UNL     1      -8.316   3.723  65.716  1.00  0.00    -0.105 C  
HETATM   29  C   UNL     1      -9.186   6.213  68.284  1.00  0.00    -0.114 C  
HETATM   30  O   UNL     1      -7.305   3.187  65.273  1.00  0.00    -0.068 OA 
BRANCH  28  31
HETATM   31  C   UNL     1      -9.512   3.858  64.826  1.00  0.00    -0.169 C  
HETATM   32  C   UNL     1      -9.309   3.883  63.327  1.00  0.00    -0.127 C  
HETATM   33  C   UNL     1      -9.966   2.697  63.968  1.00  0.00    -0.129 C  
ENDBRANCH  28  31
ENDBRANCH  19  21
ENDBRANCH  13  14
ENDBRANCH   6  13
TORSDOF 4
ENDMDL
MODEL      245
REMARK 921   NORMALIZED FREE ENERGY PREDICTED BY IDOCK:   -3.18 KCAL/MOL
REMARK 922        TOTAL FREE ENERGY PREDICTED BY IDOCK:   -4.68 KCAL/MOL
REMARK 923 INTER-LIGAND FREE ENERGY PREDICTED BY IDOCK:   -4.63 KCAL/MOL
REMARK 924 INTRA-LIGAND FREE ENERGY PREDICTED BY IDOCK:   -0.05 KCAL/MOL
REMARK 927      BINDING AFFINITY PREDICTED BY RF-SCORE:    0.00 PKD
ROOT
HETATM    1  O   UNL     1      -8.770   6.172  67.779  1.00  0.00    -0.114 OA 
HETATM    2  C   UNL     1      -8.977   7.483  67.475  1.00  0.00    -0.126 A  
HETATM    3  H   UNL     1      -8.298   6.032  68.591  1.00  0.00     0.000 HD 
HETATM    4  N   UNL     1      -9.644   7.680  66.326  1.00  0.00    -0.136 NA 
HETATM    5  N   UNL     1      -9.896   8.950  65.922  1.00  0.00    -0.216 NA 
HETATM    6  C   UNL     1      -9.482  10.002  66.674  1.00  0.00    -0.171 A  
HETATM    7  C   UNL     1      -8.793   9.824  67.900  1.00  0.00    -0.122 A  
HETATM    8  C   UNL     1      -7.400   9.309  70.318  1.00  0.00    -0.100 A  
HETATM    9  C   UNL     1      -8.356  10.872  68.749  1.00  0.00    -0.151 A  
HETATM   10  C   UNL     1      -8.522   8.501  68.307  1.00  0.00    -0.135 A  
HETATM   11  C   UNL     1      -7.674  10.617  69.943  1.00  0.00     0.083 A  
HETATM   12  C   UNL     1      -7.821   8.258  69.507  1.00  0.00    -0.103 A  
ENDROOT
BRANCH   6  13
HETATM   13  C   UNL     1      -9.765  11.392  66.144  1.00  0.00    -0.248 C  
BRANCH  13  14
HETATM   14  C   UNL     1     -10.198  12.451  67.140  1.00  0.00    -0.226 A  
HETATM   15  C   UNL     1     -10.924  14.211  69.192  1.00  0.00    -0.251 A  
HETATM   16  C   UNL     1     -11.520  12.491  67.601  1.00  0.00    -0.392 A  
HETATM   17  C   UNL     1      -9.272  13.377  67.656  1.00  0.00    -0.212 A  
HETATM   18  F   UNL     1     -11.288  14.935  70.260  1.00  0.00    -0.252 F  
HETATM   19  C   UNL     1      -9.636  14.286  68.669  1.00  0.00    -0.192 A  
HETATM   20  C   UNL     1     -11.877  13.361  68.631  1.00  0.00    -0.397 A  
BRANCH  19  21
HETATM   21  C   UNL     1      -8.581  15.191  69.192  1.00  0.00    -0.218 C  
HETATM   22  N   UNL     1      -8.236  16.385  68.557  1.00  0.00    -0.190 N  
HETATM   23  C   UNL     1      -7.161  17.207  69.138  1.00  0.00    -0.213 C  
HETATM   24  O   UNL     1      -7.975  14.793  70.191  1.00  0.00     0.237 OA 
HETATM   25  C   UNL     1      -6.080  17.529  68.094  1.00  0.00    -0.164 C  
HETATM   26  N   UNL     1      -6.671  18.115  66.883  1.00  0.00    -0.181 N  
HETATM   27  C   UNL     1      -7.748  17.318  66.295  1.00  0.00    -0.318 C  
HETATM   28  C   UNL     1      -6.143  19.290  66.370  1.00  0.00    -0.165 C  
HETATM   29  C   UNL     1      -8.818  16.952  67.333  1.00  0.00    -0.204 C  
HETATM   30  O   UNL     1      -5.222  19.893  66.913  1.00  0.00    -0.163 OA 
BRANCH  28  31
HETATM   31  C   UNL     1      -6.753  19.866  65.131  1.00  0.00    -0.308 C  
HETATM   32  C   UNL     1      -7.380  21.242  65.195  1.00  0.00     1.036 C  
HETATM   33  C   UNL     1      -6.105  21.041  64.431  1.00  0.00    -0.312 C  
ENDBRANCH  28  31
ENDBRANCH  19  21
ENDBRANCH  13  14
ENDBRANCH   6  13
TORSDOF 4
ENDMDL
MODEL      246
REMARK 921   NORMALIZED FREE ENERGY PREDICTED BY IDOCK:   -2.98 KCAL/MOL
REMARK 922        TOTAL FREE ENERGY PREDICTED BY IDOCK:   -4.42 KCAL/MOL
REMARK 923 INTER-LIGAND FREE ENERGY PREDICTED BY IDOCK:   -3.66 KCAL/MOL
REMARK 924 INTRA-LIGAND FREE ENERGY PREDICTED BY IDOCK:   -0.76 KCAL/MOL
REMARK 927      BINDING AFFINITY PREDICTED BY RF-SCORE:    0.00 PKD
ROOT
HETATM    1  O   UNL     1      -9.441  18.483  66.133  1.00  0.00    -0.453 OA 
HETATM    2  C   UNL     1      -9.616  17.168  66.440  1.00  0.00    -0.278 A  
HETATM    3  H   UNL     1      -9.605  19.075  66.857  1.00  0.00     0.000 HD 
HETATM    4  N   UNL     1      -9.386  16.330  65.415  1.00  0.00    -0.269 NA 
HETATM    5  N   UNL     1      -9.541  14.997  65.608  1.00  0.00    -0.306 NA 
HETATM    6  C   UNL     1      -9.919  14.521  66.822  1.00  0.00    -0.264 A  
HETATM    7  C   UNL     1     -10.151  15.378  67.926  1.00  0.00    -0.226 A  
HETATM    8  C   UNL     1     -10.605  17.223  70.035  1.00  0.00     0.434 A  
HETATM    9  C   UNL     1     -10.520  14.952  69.227  1.00  0.00    -0.246 A  
HETATM   10  C   UNL     1     -10.001  16.765  67.715  1.00  0.00    -0.268 A  
HETATM   11  C   UNL     1     -10.738  15.861  70.267  1.00  0.00    -0.313 A  
HETATM   12  C   UNL     1     -10.238  17.673  68.769  1.00  0.00    -0.373 A  
ENDROOT
BRANCH   6  13
HETATM   13  C   UNL     1     -10.108  13.025  66.955  1.00  0.00    -0.243 C  
BRANCH  13  14
HETATM   14  C   UNL     1      -8.943  12.131  66.576  1.00  0.00    -0.179 A  
HETATM   15  C   UNL     1      -6.926  10.267  66.033  1.00  0.00    -0.120 A  
HETATM   16  C   UNL     1      -7.815  12.050  67.403  1.00  0.00    -0.162 A  
HETATM   17  C   UNL     1      -8.993  11.333  65.419  1.00  0.00    -0.106 A  
HETATM   18  F   UNL     1      -6.005   9.304  65.894  1.00  0.00    -0.048 F  
HETATM   19  C   UNL     1      -7.968  10.412  65.122  1.00  0.00    -0.134 A  
HETATM   20  C   UNL     1      -6.817  11.113  67.137  1.00  0.00    -0.107 A  
BRANCH  19  21
HETATM   21  C   UNL     1      -8.131   9.571  63.908  1.00  0.00    -0.152 C  
HETATM   22  N   UNL     1      -8.509   8.229  63.974  1.00  0.00    -0.023 N  
HETATM   23  C   UNL     1      -8.623   7.467  62.717  1.00  0.00     0.287 C  
HETATM   24  O   UNL     1      -7.846  10.110  62.836  1.00  0.00    -0.139 OA 
HETATM   25  C   UNL     1      -7.790   6.177  62.770  1.00  0.00    -0.098 C  
HETATM   26  N   UNL     1      -8.118   5.385  63.963  1.00  0.00    -0.118 N  
HETATM   27  C   UNL     1      -8.020   6.125  65.222  1.00  0.00    -0.115 C  
HETATM   28  C   UNL     1      -8.414   4.037  63.823  1.00  0.00    -0.097 C  
HETATM   29  C   UNL     1      -8.813   7.438  65.173  1.00  0.00     0.257 C  
HETATM   30  O   UNL     1      -8.458   3.481  62.730  1.00  0.00    -0.080 OA 
BRANCH  28  31
HETATM   31  C   UNL     1      -8.737   3.245  65.051  1.00  0.00    -0.115 C  
HETATM   32  C   UNL     1     -10.033   3.520  65.781  1.00  0.00     0.111 C  
HETATM   33  C   UNL     1      -9.859   2.230  65.037  1.00  0.00     0.280 C  
ENDBRANCH  28  31
ENDBRANCH  19  21
ENDBRANCH  13  14
ENDBRANCH   6  13
TORSDOF 4
ENDMDL
MODEL      247
REMARK 921   NORMALIZED FREE ENERGY PREDICTED BY IDOCK:   -2.85 KCAL/MOL
REMARK 922        TOTAL FREE ENERGY PREDICTED BY IDOCK:   -4.27 KCAL/MOL
REMARK 923 INTER-LIGAND FREE ENERGY PREDICTED BY IDOCK:   -4.06 KCAL/MOL
REMARK 924 INTRA-LIGAND FREE ENERGY PREDICTED BY IDOCK:   -0.21 KCAL/MOL
REMARK 927      BINDING AFFINITY PREDICTED BY RF-SCORE:    0.00 PKD
ROOT
HETATM    1  O   UNL     1      -9.930   9.591  65.055  1.00  0.00    -0.421 OA 
HETATM    2  C   UNL     1      -8.944   8.662  65.186  1.00  0.00    -0.058 A  
HETATM    3  H   UNL     1      -9.694  10.332  64.509  1.00  0.00     0.000 HD 
HETATM    4  N   UNL     1      -9.278   7.614  65.959  1.00  0.00    -0.115 NA 
HETATM    5  N   UNL     1      -8.365   6.633  66.166  1.00  0.00    -0.123 NA 
HETATM    6  C   UNL     1      -7.136   6.711  65.594  1.00  0.00    -0.061 A  
HETATM    7  C   UNL     1      -6.762   7.793  64.760  1.00  0.00    -0.050 A  
HETATM    8  C   UNL     1      -6.151  10.038  63.134  1.00  0.00    -0.131 A  
HETATM    9  C   UNL     1      -5.510   7.927  64.108  1.00  0.00    -0.044 A  
HETATM   10  C   UNL     1      -7.712   8.818  64.560  1.00  0.00    -0.121 A  
HETATM   11  C   UNL     1      -5.212   9.031  63.304  1.00  0.00    -0.067 A  
HETATM   12  C   UNL     1      -7.393   9.933  63.757  1.00  0.00    -0.130 A  
ENDROOT
BRANCH   6  13
HETATM   13  C   UNL     1      -6.155   5.598  65.898  1.00  0.00    -0.029 C  
BRANCH  13  14
HETATM   14  C   UNL     1      -6.606   4.501  66.842  1.00  0.00    -0.050 A  
HETATM   15  C   UNL     1      -7.163   2.482  68.700  1.00  0.00    -0.047 A  
HETATM   16  C   UNL     1      -6.443   3.154  66.492  1.00  0.00    -0.036 A  
HETATM   17  C   UNL     1      -7.148   4.812  68.103  1.00  0.00    -0.061 A  
HETATM   18  F   UNL     1      -7.285   1.490  69.594  1.00  0.00    -0.035 F  
HETATM   19  C   UNL     1      -7.459   3.800  69.034  1.00  0.00    -0.053 A  
HETATM   20  C   UNL     1      -6.710   2.150  67.424  1.00  0.00    -0.039 A  
BRANCH  19  21
HETATM   21  C   UNL     1      -7.975   4.223  70.361  1.00  0.00    -0.052 C  
HETATM   22  N   UNL     1      -8.999   5.161  70.501  1.00  0.00    -0.131 N  
HETATM   23  C   UNL     1      -9.432   5.535  71.859  1.00  0.00    -0.148 C  
HETATM   24  O   UNL     1      -7.400   3.745  71.342  1.00  0.00    -0.038 OA 
HETATM   25  C   UNL     1      -9.395   7.059  72.055  1.00  0.00    -0.139 C  
HETATM   26  N   UNL     1     -10.146   7.747  70.995  1.00  0.00    -0.186 N  
HETATM   27  C   UNL     1      -9.738   7.382  69.637  1.00  0.00    -0.163 C  
HETATM   28  C   UNL     1     -11.092   8.699  71.342  1.00  0.00    -0.274 C  
HETATM   29  C   UNL     1      -9.728   5.861  69.435  1.00  0.00    -0.152 C  
HETATM   30  O   UNL     1     -11.366   8.964  72.508  1.00  0.00    -0.219 OA 
BRANCH  28  31
HETATM   31  C   UNL     1     -11.839   9.395  70.248  1.00  0.00    -0.063 C  
HETATM   32  C   UNL     1     -12.819  10.490  70.611  1.00  0.00    -0.407 C  
HETATM   33  C   UNL     1     -11.539  10.839  69.911  1.00  0.00    -0.410 C  
ENDBRANCH  28  31
ENDBRANCH  19  21
ENDBRANCH  13  14
ENDBRANCH   6  13
TORSDOF 4
ENDMDL
MODEL      248
REMARK 921   NORMALIZED FREE ENERGY PREDICTED BY IDOCK:   -2.82 KCAL/MOL
REMARK 922        TOTAL FREE ENERGY PREDICTED BY IDOCK:   -4.23 KCAL/MOL
REMARK 923 INTER-LIGAND FREE ENERGY PREDICTED BY IDOCK:   -4.88 KCAL/MOL
REMARK 924 INTRA-LIGAND FREE ENERGY PREDICTED BY IDOCK:    0.66 KCAL/MOL
REMARK 927      BINDING AFFINITY PREDICTED BY RF-SCORE:    0.00 PKD
ROOT
HETATM    1  O   UNL     1      -6.513  11.612  66.060  1.00  0.00    -0.374 OA 
HETATM    2  C   UNL     1      -7.544  10.751  66.285  1.00  0.00    -0.142 A  
HETATM    3  H   UNL     1      -6.675  12.498  66.362  1.00  0.00     0.000 HD 
HETATM    4  N   UNL     1      -7.314   9.498  65.857  1.00  0.00    -0.095 NA 
HETATM    5  N   UNL     1      -8.280   8.561  66.022  1.00  0.00    -0.112 NA 
HETATM    6  C   UNL     1      -9.457   8.887  66.616  1.00  0.00    -0.202 A  
HETATM    7  C   UNL     1      -9.719  10.195  67.094  1.00  0.00    -0.214 A  
HETATM    8  C   UNL     1     -10.109  12.865  67.975  1.00  0.00    -0.235 A  
HETATM    9  C   UNL     1     -10.911  10.601  67.746  1.00  0.00    -0.364 A  
HETATM   10  C   UNL     1      -8.716  11.169  66.907  1.00  0.00    -0.152 A  
HETATM   11  C   UNL     1     -11.100  11.916  68.185  1.00  0.00    -0.294 A  
HETATM   12  C   UNL     1      -8.925  12.495  67.341  1.00  0.00    -0.188 A  
ENDROOT
BRANCH   6  13
HETATM   13  C   UNL     1     -10.503   7.800  66.734  1.00  0.00    -0.318 C  
BRANCH  13  14
HETATM   14  C   UNL     1     -10.020   6.363  66.804  1.00  0.00    -0.225 A  
HETATM   15  C   UNL     1      -8.940   3.783  66.715  1.00  0.00    -0.141 A  
HETATM   16  C   UNL     1     -10.606   5.380  65.996  1.00  0.00    -0.109 A  
HETATM   17  C   UNL     1      -8.948   6.003  67.640  1.00  0.00    -0.111 A  
HETATM   18  F   UNL     1      -8.380   2.578  66.535  1.00  0.00    -0.080 F  
HETATM   19  C   UNL     1      -8.416   4.698  67.624  1.00  0.00    -0.103 A  
HETATM   20  C   UNL     1     -10.058   4.098  65.945  1.00  0.00    -0.169 A  
BRANCH  19  21
HETATM   21  C   UNL     1      -7.248   4.421  68.500  1.00  0.00    -0.060 C  
HETATM   22  N   UNL     1      -7.280   4.636  69.878  1.00  0.00    -0.053 N  
HETATM   23  C   UNL     1      -6.066   4.353  70.664  1.00  0.00    -0.014 C  
HETATM   24  O   UNL     1      -6.220   4.049  67.928  1.00  0.00    -0.034 OA 
HETATM   25  C   UNL     1      -5.656   5.567  71.513  1.00  0.00    -0.016 C  
HETATM   26  N   UNL     1      -6.780   6.044  72.330  1.00  0.00    -0.067 N  
HETATM   27  C   UNL     1      -7.999   6.323  71.570  1.00  0.00    -0.106 C  
HETATM   28  C   UNL     1      -6.591   6.254  73.688  1.00  0.00    -0.074 C  
HETATM   29  C   UNL     1      -8.401   5.136  70.684  1.00  0.00    -0.111 C  
HETATM   30  O   UNL     1      -5.528   6.014  74.252  1.00  0.00    -0.042 OA 
BRANCH  28  31
HETATM   31  C   UNL     1      -7.745   6.749  74.502  1.00  0.00    -0.125 C  
HETATM   32  C   UNL     1      -8.012   8.237  74.565  1.00  0.00    -0.276 C  
HETATM   33  C   UNL     1      -8.962   7.343  73.827  1.00  0.00    -0.275 C  
ENDBRANCH  28  31
ENDBRANCH  19  21
ENDBRANCH  13  14
ENDBRANCH   6  13
TORSDOF 4
ENDMDL
MODEL      249
REMARK 921   NORMALIZED FREE ENERGY PREDICTED BY IDOCK:   -2.74 KCAL/MOL
REMARK 922        TOTAL FREE ENERGY PREDICTED BY IDOCK:   -4.13 KCAL/MOL
REMARK 923 INTER-LIGAND FREE ENERGY PREDICTED BY IDOCK:   -4.09 KCAL/MOL
REMARK 924 INTRA-LIGAND FREE ENERGY PREDICTED BY IDOCK:   -0.04 KCAL/MOL
REMARK 927      BINDING AFFINITY PREDICTED BY RF-SCORE:    0.00 PKD
ROOT
HETATM    1  O   UNL     1     -11.781  16.129  63.206  1.00  0.00    -0.354 OA 
HETATM    2  C   UNL     1     -11.820  15.451  64.386  1.00  0.00    -0.256 A  
HETATM    3  H   UNL     1     -11.501  17.034  63.288  1.00  0.00     0.000 HD 
HETATM    4  N   UNL     1     -12.217  14.173  64.270  1.00  0.00    -0.601 NA 
HETATM    5  N   UNL     1     -12.302  13.408  65.386  1.00  0.00    -0.449 NA 
HETATM    6  C   UNL     1     -11.984  13.929  66.600  1.00  0.00    -0.442 A  
HETATM    7  C   UNL     1     -11.545  15.268  66.750  1.00  0.00    -0.051 A  
HETATM    8  C   UNL     1     -10.706  17.976  66.894  1.00  0.00    -0.214 A  
HETATM    9  C   UNL     1     -11.171  15.871  67.977  1.00  0.00    -0.319 A  
HETATM   10  C   UNL     1     -11.472  16.063  65.586  1.00  0.00     0.345 A  
HETATM   11  C   UNL     1     -10.753  17.203  68.047  1.00  0.00    -0.372 A  
HETATM   12  C   UNL     1     -11.063  17.410  65.672  1.00  0.00     0.348 A  
ENDROOT
BRANCH   6  13
HETATM   13  C   UNL     1     -12.137  13.028  67.806  1.00  0.00    -0.244 C  
BRANCH  13  14
HETATM   14  C   UNL     1     -11.008  12.063  68.112  1.00  0.00    -0.273 A  
HETATM   15  C   UNL     1      -8.843  10.310  68.391  1.00  0.00    -0.129 A  
HETATM   16  C   UNL     1     -11.189  10.685  67.940  1.00  0.00    -0.376 A  
HETATM   17  C   UNL     1      -9.748  12.535  68.524  1.00  0.00    -0.133 A  
HETATM   18  F   UNL     1      -7.815   9.450  68.380  1.00  0.00    -0.087 F  
HETATM   19  C   UNL     1      -8.659  11.656  68.695  1.00  0.00    -0.086 A  
HETATM   20  C   UNL     1     -10.106   9.815  68.068  1.00  0.00    -0.204 A  
BRANCH  19  21
HETATM   21  C   UNL     1      -7.351  12.248  69.079  1.00  0.00     0.017 C  
HETATM   22  N   UNL     1      -7.227  13.569  69.512  1.00  0.00     0.172 N  
HETATM   23  C   UNL     1      -5.885  14.076  69.850  1.00  0.00    -0.122 C  
HETATM   24  O   UNL     1      -6.365  11.522  68.929  1.00  0.00    -0.051 OA 
HETATM   25  C   UNL     1      -5.570  15.371  69.086  1.00  0.00    -0.099 C  
HETATM   26  N   UNL     1      -6.634  16.368  69.274  1.00  0.00    -0.195 N  
HETATM   27  C   UNL     1      -7.976  15.882  68.952  1.00  0.00    -0.204 C  
HETATM   28  C   UNL     1      -6.295  17.657  69.657  1.00  0.00    -0.182 C  
HETATM   29  C   UNL     1      -8.293  14.566  69.675  1.00  0.00     0.373 C  
HETATM   30  O   UNL     1      -5.139  17.995  69.891  1.00  0.00    -0.178 OA 
BRANCH  28  31
HETATM   31  C   UNL     1      -7.392  18.660  69.834  1.00  0.00     0.593 C  
HETATM   32  C   UNL     1      -7.029  20.120  70.003  1.00  0.00     0.020 C  
HETATM   33  C   UNL     1      -7.700  19.662  68.743  1.00  0.00    -0.337 C  
ENDBRANCH  28  31
ENDBRANCH  19  21
ENDBRANCH  13  14
ENDBRANCH   6  13
TORSDOF 4
ENDMDL
MODEL      250
REMARK 921   NORMALIZED FREE ENERGY PREDICTED BY IDOCK:   -2.67 KCAL/MOL
REMARK 922        TOTAL FREE ENERGY PREDICTED BY IDOCK:   -4.05 KCAL/MOL
REMARK 923 INTER-LIGAND FREE ENERGY PREDICTED BY IDOCK:   -3.06 KCAL/MOL
REMARK 924 INTRA-LIGAND FREE ENERGY PREDICTED BY IDOCK:   -0.99 KCAL/MOL
REMARK 927      BINDING AFFINITY PREDICTED BY RF-SCORE:    0.00 PKD
ROOT
HETATM    1  O   UNL     1      -9.998   1.968  64.999  1.00  0.00    -0.327 OA 
HETATM    2  C   UNL     1      -9.150   3.004  65.243  1.00  0.00    -0.149 A  
HETATM    3  H   UNL     1      -9.633   1.291  64.442  1.00  0.00     0.000 HD 
HETATM    4  N   UNL     1      -9.667   3.962  66.031  1.00  0.00    -0.185 NA 
HETATM    5  N   UNL     1      -8.910   5.047  66.330  1.00  0.00    -0.116 NA 
HETATM    6  C   UNL     1      -7.647   5.156  65.842  1.00  0.00    -0.083 A  
HETATM    7  C   UNL     1      -7.069   4.153  65.025  1.00  0.00    -0.062 A  
HETATM    8  C   UNL     1      -6.058   2.074  63.378  1.00  0.00    -0.010 A  
HETATM    9  C   UNL     1      -5.751   4.185  64.503  1.00  0.00    -0.014 A  
HETATM   10  C   UNL     1      -7.866   3.033  64.706  1.00  0.00    -0.078 A  
HETATM   11  C   UNL     1      -5.252   3.158  63.696  1.00  0.00    -0.008 A  
HETATM   12  C   UNL     1      -7.356   2.011  63.879  1.00  0.00    -0.057 A  
ENDROOT
BRANCH   6  13
HETATM   13  C   UNL     1      -6.874   6.410  66.186  1.00  0.00    -0.057 C  
BRANCH  13  14
HETATM   14  C   UNL     1      -7.070   7.624  65.299  1.00  0.00    -0.063 A  
HETATM   15  C   UNL     1      -7.683   9.738  63.569  1.00  0.00    -0.132 A  
HETATM   16  C   UNL     1      -6.573   7.631  63.989  1.00  0.00    -0.053 A  
HETATM   17  C   UNL     1      -7.793   8.741  65.755  1.00  0.00    -0.099 A  
HETATM   18  F   UNL     1      -8.060  10.654  62.665  1.00  0.00    -0.150 F  
HETATM   19  C   UNL     1      -8.083   9.823  64.899  1.00  0.00    -0.140 A  
HETATM   20  C   UNL     1      -6.890   8.680  63.125  1.00  0.00    -0.090 A  
BRANCH  19  21
HETATM   21  C   UNL     1      -8.900  10.936  65.449  1.00  0.00    -0.180 C  
HETATM   22  N   UNL     1      -8.350  11.950  66.235  1.00  0.00    -0.003 N  
HETATM   23  C   UNL     1      -9.243  13.000  66.755  1.00  0.00    -0.228 C  
HETATM   24  O   UNL     1     -10.112  10.877  65.227  1.00  0.00    -0.248 OA 
HETATM   25  C   UNL     1      -9.104  13.145  68.278  1.00  0.00    -0.181 C  
HETATM   26  N   UNL     1      -7.699  13.330  68.667  1.00  0.00    -0.114 N  
HETATM   27  C   UNL     1      -6.794  12.301  68.153  1.00  0.00    -0.078 C  
HETATM   28  C   UNL     1      -7.361  14.377  69.511  1.00  0.00    -0.011 C  
HETATM   29  C   UNL     1      -6.947  12.114  66.637  1.00  0.00     0.252 C  
HETATM   30  O   UNL     1      -8.185  15.190  69.918  1.00  0.00    -0.101 OA 
BRANCH  28  31
HETATM   31  C   UNL     1      -5.926  14.543  69.902  1.00  0.00    -0.132 C  
HETATM   32  C   UNL     1      -5.579  15.497  71.024  1.00  0.00     0.049 C  
HETATM   33  C   UNL     1      -5.427  14.020  71.232  1.00  0.00    -0.207 C  
ENDBRANCH  28  31
ENDBRANCH  19  21
ENDBRANCH  13  14
ENDBRANCH   6  13
TORSDOF 4
ENDMDL
MODEL      251
REMARK 921   NORMALIZED FREE ENERGY PREDICTED BY IDOCK:   -2.60 KCAL/MOL
REMARK 922        TOTAL FREE ENERGY PREDICTED BY IDOCK:   -3.96 KCAL/MOL
REMARK 923 INTER-LIGAND FREE ENERGY PREDICTED BY IDOCK:   -3.39 KCAL/MOL
REMARK 924 INTRA-LIGAND FREE ENERGY PREDICTED BY IDOCK:   -0.56 KCAL/MOL
REMARK 927      BINDING AFFINITY PREDICTED BY RF-SCORE:    0.00 PKD
ROOT
HETATM    1  O   UNL     1     -10.069  14.058  68.109  1.00  0.00    -0.231 OA 
HETATM    2  C   UNL     1      -9.686  12.889  67.525  1.00  0.00    -0.205 A  
HETATM    3  H   UNL     1      -9.372  14.506  68.574  1.00  0.00     0.000 HD 
HETATM    4  N   UNL     1     -10.672  12.256  66.869  1.00  0.00    -0.227 NA 
HETATM    5  N   UNL     1     -10.402  11.075  66.258  1.00  0.00    -0.245 NA 
HETATM    6  C   UNL     1      -9.151  10.549  66.308  1.00  0.00    -0.164 A  
HETATM    7  C   UNL     1      -8.087  11.205  66.976  1.00  0.00    -0.148 A  
HETATM    8  C   UNL     1      -6.065  12.621  68.376  1.00  0.00    -0.063 A  
HETATM    9  C   UNL     1      -6.752  10.731  67.045  1.00  0.00    -0.090 A  
HETATM   10  C   UNL     1      -8.377  12.425  67.621  1.00  0.00    -0.169 A  
HETATM   11  C   UNL     1      -5.756  11.432  67.731  1.00  0.00    -0.046 A  
HETATM   12  C   UNL     1      -7.366  13.115  68.322  1.00  0.00    -0.116 A  
ENDROOT
BRANCH   6  13
HETATM   13  C   UNL     1      -8.930   9.212  65.635  1.00  0.00    -0.249 C  
BRANCH  13  14
HETATM   14  C   UNL     1      -9.410   7.970  66.362  1.00  0.00    -0.259 A  
HETATM   15  C   UNL     1     -10.368   5.569  67.437  1.00  0.00    -0.225 A  
HETATM   16  C   UNL     1     -10.742   7.867  66.784  1.00  0.00    -0.097 A  
HETATM   17  C   UNL     1      -8.544   6.883  66.581  1.00  0.00    -0.124 A  
HETATM   18  F   UNL     1     -10.906   4.406  67.829  1.00  0.00     0.242 F  
HETATM   19  C   UNL     1      -9.011   5.680  67.148  1.00  0.00    -0.112 A  
HETATM   20  C   UNL     1     -11.219   6.666  67.309  1.00  0.00    -0.304 A  
BRANCH  19  21
HETATM   21  C   UNL     1      -8.039   4.566  67.292  1.00  0.00    -0.101 C  
HETATM   22  N   UNL     1      -7.837   3.902  68.503  1.00  0.00    -0.068 N  
HETATM   23  C   UNL     1      -6.835   2.823  68.556  1.00  0.00    -0.047 C  
HETATM   24  O   UNL     1      -7.368   4.301  66.291  1.00  0.00    -0.077 OA 
HETATM   25  C   UNL     1      -5.822   3.057  69.688  1.00  0.00    -0.023 C  
HETATM   26  N   UNL     1      -6.505   3.282  70.970  1.00  0.00    -0.026 N  
HETATM   27  C   UNL     1      -7.510   4.345  70.937  1.00  0.00    -0.052 C  
HETATM   28  C   UNL     1      -6.114   2.553  72.083  1.00  0.00    -0.013 C  
HETATM   29  C   UNL     1      -8.507   4.149  69.786  1.00  0.00    -0.060 C  
HETATM   30  O   UNL     1      -5.244   1.688  72.036  1.00  0.00     0.000 OA 
BRANCH  28  31
HETATM   31  C   UNL     1      -6.814   2.803  73.382  1.00  0.00    -0.027 C  
HETATM   32  C   UNL     1      -8.026   1.967  73.734  1.00  0.00    -0.046 C  
HETATM   33  C   UNL     1      -6.749   1.784  74.498  1.00  0.00    -0.021 C  
ENDBRANCH  28  31
ENDBRANCH  19  21
ENDBRANCH  13  14
ENDBRANCH   6  13
TORSDOF 4
ENDMDL
MODEL      252
REMARK 921   NORMALIZED FREE ENERGY PREDICTED BY IDOCK:   -2.55 KCAL/MOL
REMARK 922        TOTAL FREE ENERGY PREDICTED BY IDOCK:   -3.90 KCAL/MOL
REMARK 923 INTER-LIGAND FREE ENERGY PREDICTED BY IDOCK:   -4.35 KCAL/MOL
REMARK 924 INTRA-LIGAND FREE ENERGY PREDICTED BY IDOCK:    0.46 KCAL/MOL
REMARK 927      BINDING AFFINITY PREDICTED BY RF-SCORE:    0.00 PKD
ROOT
HETATM    1  O   UNL     1     -11.546  12.476  62.597  1.00  0.00    -0.384 OA 
HETATM    2  C   UNL     1     -10.606  12.092  63.504  1.00  0.00    -0.465 A  
HETATM    3  H   UNL     1     -12.278  12.950  62.974  1.00  0.00     0.000 HD 
HETATM    4  N   UNL     1      -9.572  11.421  62.970  1.00  0.00    -0.379 NA 
HETATM    5  N   UNL     1      -8.582  10.981  63.787  1.00  0.00     0.047 NA 
HETATM    6  C   UNL     1      -8.639  11.223  65.122  1.00  0.00     0.164 A  
HETATM    7  C   UNL     1      -9.707  11.944  65.710  1.00  0.00    -0.258 A  
HETATM    8  C   UNL     1     -11.926  13.380  66.745  1.00  0.00    -0.447 A  
HETATM    9  C   UNL     1      -9.819  12.258  67.088  1.00  0.00    -0.207 A  
HETATM   10  C   UNL     1     -10.741  12.387  64.857  1.00  0.00    -0.328 A  
HETATM   11  C   UNL     1     -10.910  12.969  67.596  1.00  0.00    -0.256 A  
HETATM   12  C   UNL     1     -11.843  13.091  65.385  1.00  0.00    -0.428 A  
ENDROOT
BRANCH   6  13
HETATM   13  C   UNL     1      -7.518  10.672  65.977  1.00  0.00    -0.137 C  
BRANCH  13  14
HETATM   14  C   UNL     1      -7.599   9.215  66.391  1.00  0.00    -0.093 A  
HETATM   15  C   UNL     1      -7.475   6.495  67.041  1.00  0.00    -0.087 A  
HETATM   16  C   UNL     1      -8.091   8.253  65.499  1.00  0.00    -0.128 A  
HETATM   17  C   UNL     1      -7.138   8.797  67.652  1.00  0.00    -0.079 A  
HETATM   18  F   UNL     1      -7.314   5.180  67.247  1.00  0.00    -0.075 F  
HETATM   19  C   UNL     1      -7.098   7.431  68.000  1.00  0.00    -0.081 A  
HETATM   20  C   UNL     1      -8.018   6.897  65.821  1.00  0.00    -0.116 A  
BRANCH  19  21
HETATM   21  C   UNL     1      -6.544   7.077  69.332  1.00  0.00    -0.045 C  
HETATM   22  N   UNL     1      -7.165   6.157  70.179  1.00  0.00    -0.074 N  
HETATM   23  C   UNL     1      -6.553   5.885  71.492  1.00  0.00    -0.054 C  
HETATM   24  O   UNL     1      -5.533   7.694  69.678  1.00  0.00    -0.022 OA 
HETATM   25  C   UNL     1      -7.569   6.075  72.629  1.00  0.00    -0.099 C  
HETATM   26  N   UNL     1      -8.790   5.296  72.383  1.00  0.00    -0.128 N  
HETATM   27  C   UNL     1      -9.409   5.545  71.080  1.00  0.00    -0.150 C  
HETATM   28  C   UNL     1      -9.284   4.474  73.384  1.00  0.00    -0.113 C  
HETATM   29  C   UNL     1      -8.399   5.400  69.934  1.00  0.00    -0.100 C  
HETATM   30  O   UNL     1      -8.717   4.331  74.463  1.00  0.00    -0.098 OA 
BRANCH  28  31
HETATM   31  C   UNL     1     -10.535   3.696  73.118  1.00  0.00    -0.259 C  
HETATM   32  C   UNL     1     -10.784   3.165  71.723  1.00  0.00     0.765 C  
HETATM   33  C   UNL     1     -10.470   2.211  72.835  1.00  0.00    -0.241 C  
ENDBRANCH  28  31
ENDBRANCH  19  21
ENDBRANCH  13  14
ENDBRANCH   6  13
TORSDOF 4
ENDMDL
MODEL      253
REMARK 921   NORMALIZED FREE ENERGY PREDICTED BY IDOCK:   -2.49 KCAL/MOL
REMARK 922        TOTAL FREE ENERGY PREDICTED BY IDOCK:   -3.82 KCAL/MOL
REMARK 923 INTER-LIGAND FREE ENERGY PREDICTED BY IDOCK:   -4.19 KCAL/MOL
REMARK 924 INTRA-LIGAND FREE ENERGY PREDICTED BY IDOCK:    0.36 KCAL/MOL
REMARK 927      BINDING AFFINITY PREDICTED BY RF-SCORE:    0.00 PKD
ROOT
HETATM    1  O   UNL     1     -10.731   5.781  72.603  1.00  0.00    -0.213 OA 
HETATM    2  C   UNL     1     -10.498   6.972  71.984  1.00  0.00    -0.208 A  
HETATM    3  H   UNL     1      -9.973   5.422  73.050  1.00  0.00     0.000 HD 
HETATM    4  N   UNL     1     -11.569   7.479  71.351  1.00  0.00    -0.268 NA 
HETATM    5  N   UNL     1     -11.445   8.658  70.693  1.00  0.00    -0.258 NA 
HETATM    6  C   UNL     1     -10.256   9.314  70.681  1.00  0.00    -0.272 A  
HETATM    7  C   UNL     1      -9.115   8.813  71.356  1.00  0.00    -0.313 A  
HETATM    8  C   UNL     1      -6.911   7.669  72.731  1.00  0.00    -0.072 A  
HETATM    9  C   UNL     1      -7.852   9.455  71.410  1.00  0.00     0.281 A  
HETATM   10  C   UNL     1      -9.246   7.579  72.027  1.00  0.00    -0.163 A  
HETATM   11  C   UNL     1      -6.768   8.893  72.092  1.00  0.00     0.022 A  
HETATM   12  C   UNL     1      -8.141   7.016  72.699  1.00  0.00    -0.115 A  
ENDROOT
BRANCH   6  13
HETATM   13  C   UNL     1     -10.181  10.606  69.896  1.00  0.00    -0.011 C  
BRANCH  13  14
HETATM   14  C   UNL     1     -10.044  10.508  68.389  1.00  0.00    -0.181 A  
HETATM   15  C   UNL     1      -9.500  10.376  65.646  1.00  0.00    -0.211 A  
HETATM   16  C   UNL     1     -10.154  11.654  67.592  1.00  0.00    -0.204 A  
HETATM   17  C   UNL     1      -9.755   9.277  67.770  1.00  0.00    -0.182 A  
HETATM   18  F   UNL     1      -9.119  10.393  64.361  1.00  0.00    -0.181 F  
HETATM   19  C   UNL     1      -9.508   9.197  66.385  1.00  0.00    -0.288 A  
HETATM   20  C   UNL     1      -9.871  11.589  66.227  1.00  0.00    -0.245 A  
BRANCH  19  21
HETATM   21  C   UNL     1      -9.157   7.866  65.825  1.00  0.00    -0.030 C  
HETATM   22  N   UNL     1      -9.222   6.696  66.583  1.00  0.00    -0.153 N  
HETATM   23  C   UNL     1      -8.833   5.424  65.949  1.00  0.00    -0.148 C  
HETATM   24  O   UNL     1      -8.738   7.862  64.665  1.00  0.00     0.066 OA 
HETATM   25  C   UNL     1      -7.769   4.690  66.780  1.00  0.00    -0.095 C  
HETATM   26  N   UNL     1      -8.201   4.536  68.176  1.00  0.00    -0.090 N  
HETATM   27  C   UNL     1      -8.600   5.787  68.822  1.00  0.00    -0.109 C  
HETATM   28  C   UNL     1      -8.134   3.286  68.773  1.00  0.00    -0.060 C  
HETATM   29  C   UNL     1      -9.633   6.555  67.986  1.00  0.00    -0.119 C  
HETATM   30  O   UNL     1      -7.768   2.283  68.168  1.00  0.00    -0.054 OA 
BRANCH  28  31
HETATM   31  C   UNL     1      -8.570   3.152  70.199  1.00  0.00    -0.108 C  
HETATM   32  C   UNL     1      -9.859   3.813  70.636  1.00  0.00    -0.159 C  
HETATM   33  C   UNL     1      -9.780   2.317  70.556  1.00  0.00    -0.049 C  
ENDBRANCH  28  31
ENDBRANCH  19  21
ENDBRANCH  13  14
ENDBRANCH   6  13
TORSDOF 4
ENDMDL
MODEL      254
REMARK 921   NORMALIZED FREE ENERGY PREDICTED BY IDOCK:   -2.45 KCAL/MOL
REMARK 922        TOTAL FREE ENERGY PREDICTED BY IDOCK:   -3.77 KCAL/MOL
REMARK 923 INTER-LIGAND FREE ENERGY PREDICTED BY IDOCK:   -5.12 KCAL/MOL
REMARK 924 INTRA-LIGAND FREE ENERGY PREDICTED BY IDOCK:    1.35 KCAL/MOL
REMARK 927      BINDING AFFINITY PREDICTED BY RF-SCORE:    0.00 PKD
ROOT
HETATM    1  O   UNL     1     -11.113  17.100  68.725  1.00  0.00    -0.229 OA 
HETATM    2  C   UNL     1     -10.491  15.898  68.582  1.00  0.00    -0.240 A  
HETATM    3  H   UNL     1     -11.925  17.060  69.215  1.00  0.00     0.000 HD 
HETATM    4  N   UNL     1      -9.342  15.954  67.887  1.00  0.00    -0.207 NA 
HETATM    5  N   UNL     1      -8.645  14.810  67.676  1.00  0.00    -0.164 NA 
HETATM    6  C   UNL     1      -9.103  13.629  68.166  1.00  0.00    -0.195 A  
HETATM    7  C   UNL     1     -10.301  13.542  68.918  1.00  0.00    -0.109 A  
HETATM    8  C   UNL     1     -12.732  13.523  70.382  1.00  0.00    -0.173 A  
HETATM    9  C   UNL     1     -10.825  12.352  69.482  1.00  0.00     0.110 A  
HETATM   10  C   UNL     1     -11.029  14.734  69.122  1.00  0.00    -0.277 A  
HETATM   11  C   UNL     1     -12.020  12.344  70.208  1.00  0.00    -0.371 A  
HETATM   12  C   UNL     1     -12.240  14.710  69.844  1.00  0.00    -0.365 A  
ENDROOT
BRANCH   6  13
HETATM   13  C   UNL     1      -8.293  12.388  67.861  1.00  0.00    -0.165 C  
BRANCH  13  14
HETATM   14  C   UNL     1      -9.050  11.114  67.540  1.00  0.00    -0.146 A  
HETATM   15  C   UNL     1     -10.194   8.656  66.838  1.00  0.00    -0.296 A  
HETATM   16  C   UNL     1      -9.672  10.954  66.295  1.00  0.00    -0.245 A  
HETATM   17  C   UNL     1      -9.101  10.053  68.464  1.00  0.00    -0.127 A  
HETATM   18  F   UNL     1     -10.631   7.466  66.405  1.00  0.00    -0.276 F  
HETATM   19  C   UNL     1      -9.700   8.822  68.129  1.00  0.00    -0.177 A  
HETATM   20  C   UNL     1     -10.230   9.725  65.943  1.00  0.00    -0.245 A  
BRANCH  19  21
HETATM   21  C   UNL     1      -9.659   7.739  69.146  1.00  0.00    -0.155 C  
HETATM   22  N   UNL     1      -8.823   6.629  69.023  1.00  0.00    -0.129 N  
HETATM   23  C   UNL     1      -8.867   5.594  70.071  1.00  0.00    -0.130 C  
HETATM   24  O   UNL     1     -10.460   7.844  70.079  1.00  0.00    -0.220 OA 
HETATM   25  C   UNL     1      -9.108   4.201  69.469  1.00  0.00    -0.121 C  
HETATM   26  N   UNL     1      -8.137   3.910  68.404  1.00  0.00    -0.075 N  
HETATM   27  C   UNL     1      -8.071   4.931  67.357  1.00  0.00    -0.106 C  
HETATM   28  C   UNL     1      -7.439   2.713  68.431  1.00  0.00    -0.048 C  
HETATM   29  C   UNL     1      -7.872   6.335  67.943  1.00  0.00    -0.103 C  
HETATM   30  O   UNL     1      -7.564   1.894  69.337  1.00  0.00    -0.043 OA 
BRANCH  28  31
HETATM   31  C   UNL     1      -6.462   2.431  67.333  1.00  0.00    -0.032 C  
HETATM   32  C   UNL     1      -6.611   3.158  66.015  1.00  0.00    -0.040 C  
HETATM   33  C   UNL     1      -5.455   3.479  66.913  1.00  0.00    -0.020 C  
ENDBRANCH  28  31
ENDBRANCH  19  21
ENDBRANCH  13  14
ENDBRANCH   6  13
TORSDOF 4
ENDMDL
MODEL      255
REMARK 921   NORMALIZED FREE ENERGY PREDICTED BY IDOCK:   -2.29 KCAL/MOL
REMARK 922        TOTAL FREE ENERGY PREDICTED BY IDOCK:   -3.57 KCAL/MOL
REMARK 923 INTER-LIGAND FREE ENERGY PREDICTED BY IDOCK:   -3.12 KCAL/MOL
REMARK 924 INTRA-LIGAND FREE ENERGY PREDICTED BY IDOCK:   -0.44 KCAL/MOL
REMARK 927      BINDING AFFINITY PREDICTED BY RF-SCORE:    0.00 PKD
ROOT
HETATM    1  O   UNL     1      -5.355   6.060  62.475  1.00  0.00    -0.020 OA 
HETATM    2  C   UNL     1      -6.420   6.019  63.324  1.00  0.00    -0.029 A  
HETATM    3  H   UNL     1      -5.032   5.205  62.218  1.00  0.00     0.000 HD 
HETATM    4  N   UNL     1      -6.876   7.229  63.689  1.00  0.00    -0.052 NA 
HETATM    5  N   UNL     1      -7.929   7.304  64.541  1.00  0.00    -0.129 NA 
HETATM    6  C   UNL     1      -8.511   6.170  65.010  1.00  0.00    -0.069 A  
HETATM    7  C   UNL     1      -8.064   4.882  64.627  1.00  0.00    -0.111 A  
HETATM    8  C   UNL     1      -7.037   2.371  63.791  1.00  0.00    -0.041 A  
HETATM    9  C   UNL     1      -8.639   3.658  65.054  1.00  0.00    -0.109 A  
HETATM   10  C   UNL     1      -6.960   4.810  63.752  1.00  0.00    -0.048 A  
HETATM   11  C   UNL     1      -8.136   2.422  64.637  1.00  0.00    -0.082 A  
HETATM   12  C   UNL     1      -6.453   3.557  63.351  1.00  0.00    -0.029 A  
ENDROOT
BRANCH   6  13
HETATM   13  C   UNL     1      -9.658   6.330  65.986  1.00  0.00     0.016 C  
BRANCH  13  14
HETATM   14  C   UNL     1      -9.562   7.444  67.009  1.00  0.00    -0.221 A  
HETATM   15  C   UNL     1      -9.567   9.340  69.069  1.00  0.00    -0.159 A  
HETATM   16  C   UNL     1     -10.486   8.498  66.998  1.00  0.00    -0.362 A  
HETATM   17  C   UNL     1      -8.579   7.416  68.016  1.00  0.00    -0.122 A  
HETATM   18  F   UNL     1      -9.697  10.189  70.099  1.00  0.00    -0.264 F  
HETATM   19  C   UNL     1      -8.556   8.383  69.041  1.00  0.00    -0.131 A  
HETATM   20  C   UNL     1     -10.493   9.434  68.031  1.00  0.00    -0.278 A  
BRANCH  19  21
HETATM   21  C   UNL     1      -7.517   8.244  70.094  1.00  0.00    -0.060 C  
HETATM   22  N   UNL     1      -7.265   7.034  70.741  1.00  0.00    -0.070 N  
HETATM   23  C   UNL     1      -6.229   6.997  71.789  1.00  0.00    -0.038 C  
HETATM   24  O   UNL     1      -6.929   9.281  70.413  1.00  0.00    -0.062 OA 
HETATM   25  C   UNL     1      -6.780   6.410  73.097  1.00  0.00    -0.073 C  
HETATM   26  N   UNL     1      -7.419   5.108  72.865  1.00  0.00    -0.094 N  
HETATM   27  C   UNL     1      -8.446   5.120  71.822  1.00  0.00    -0.125 C  
HETATM   28  C   UNL     1      -7.070   4.028  73.662  1.00  0.00    -0.060 C  
HETATM   29  C   UNL     1      -7.925   5.741  70.519  1.00  0.00    -0.105 C  
HETATM   30  O   UNL     1      -6.209   4.102  74.534  1.00  0.00    -0.034 OA 
BRANCH  28  31
HETATM   31  C   UNL     1      -7.739   2.712  73.416  1.00  0.00    -0.051 C  
HETATM   32  C   UNL     1      -7.610   1.620  74.455  1.00  0.00    -0.032 C  
HETATM   33  C   UNL     1      -8.934   2.292  74.244  1.00  0.00    -0.081 C  
ENDBRANCH  28  31
ENDBRANCH  19  21
ENDBRANCH  13  14
ENDBRANCH   6  13
TORSDOF 4
ENDMDL
MODEL      256
REMARK 921   NORMALIZED FREE ENERGY PREDICTED BY IDOCK:   -2.22 KCAL/MOL
REMARK 922        TOTAL FREE ENERGY PREDICTED BY IDOCK:   -3.49 KCAL/MOL
REMARK 923 INTER-LIGAND FREE ENERGY PREDICTED BY IDOCK:   -3.21 KCAL/MOL
REMARK 924 INTRA-LIGAND FREE ENERGY PREDICTED BY IDOCK:   -0.28 KCAL/MOL
REMARK 927      BINDING AFFINITY PREDICTED BY RF-SCORE:    0.00 PKD
ROOT
HETATM    1  O   UNL     1      -7.481  11.216  63.965  1.00  0.00     0.022 OA 
HETATM    2  C   UNL     1      -8.150  10.187  64.557  1.00  0.00    -0.160 A  
HETATM    3  H   UNL     1      -7.750  12.076  64.264  1.00  0.00     0.000 HD 
HETATM    4  N   UNL     1      -7.769   8.970  64.133  1.00  0.00    -0.118 NA 
HETATM    5  N   UNL     1      -8.378   7.875  64.650  1.00  0.00    -0.093 NA 
HETATM    6  C   UNL     1      -9.353   8.011  65.585  1.00  0.00     0.156 A  
HETATM    7  C   UNL     1      -9.762   9.280  66.064  1.00  0.00    -0.359 A  
HETATM    8  C   UNL     1     -10.492  11.891  66.906  1.00  0.00    -0.253 A  
HETATM    9  C   UNL     1     -10.752   9.498  67.057  1.00  0.00    -0.220 A  
HETATM   10  C   UNL     1      -9.134  10.417  65.513  1.00  0.00    -0.208 A  
HETATM   11  C   UNL     1     -11.107  10.784  67.474  1.00  0.00    -0.374 A  
HETATM   12  C   UNL     1      -9.512  11.710  65.932  1.00  0.00    -0.246 A  
ENDROOT
BRANCH   6  13
HETATM   13  C   UNL     1     -10.014   6.747  66.091  1.00  0.00     0.151 C  
BRANCH  13  14
HETATM   14  C   UNL     1      -9.199   5.468  66.068  1.00  0.00    -0.168 A  
HETATM   15  C   UNL     1      -7.482   3.265  65.889  1.00  0.00    -0.073 A  
HETATM   16  C   UNL     1      -9.282   4.596  64.975  1.00  0.00    -0.152 A  
HETATM   17  C   UNL     1      -8.312   5.160  67.115  1.00  0.00    -0.107 A  
HETATM   18  F   UNL     1      -6.594   2.280  65.691  1.00  0.00    -0.028 F  
HETATM   19  C   UNL     1      -7.463   4.036  67.047  1.00  0.00    -0.073 A  
HETATM   20  C   UNL     1      -8.417   3.505  64.882  1.00  0.00    -0.101 A  
BRANCH  19  21
HETATM   21  C   UNL     1      -6.519   3.818  68.173  1.00  0.00    -0.037 C  
HETATM   22  N   UNL     1      -6.943   3.392  69.433  1.00  0.00    -0.041 N  
HETATM   23  C   UNL     1      -5.936   3.224  70.495  1.00  0.00    -0.018 C  
HETATM   24  O   UNL     1      -5.339   4.101  67.951  1.00  0.00    -0.014 OA 
HETATM   25  C   UNL     1      -6.323   4.009  71.758  1.00  0.00    -0.014 C  
HETATM   26  N   UNL     1      -7.688   3.677  72.191  1.00  0.00    -0.058 N  
HETATM   27  C   UNL     1      -8.702   3.829  71.147  1.00  0.00    -0.081 C  
HETATM   28  C   UNL     1      -7.914   3.328  73.514  1.00  0.00    -0.073 C  
HETATM   29  C   UNL     1      -8.313   3.084  69.863  1.00  0.00    -0.048 C  
HETATM   30  O   UNL     1      -7.009   3.241  74.339  1.00  0.00    -0.043 OA 
BRANCH  28  31
HETATM   31  C   UNL     1      -9.312   3.002  73.937  1.00  0.00    -0.102 C  
HETATM   32  C   UNL     1     -10.113   2.012  73.120  1.00  0.00    -0.183 C  
HETATM   33  C   UNL     1      -9.647   1.635  74.494  1.00  0.00    -0.097 C  
ENDBRANCH  28  31
ENDBRANCH  19  21
ENDBRANCH  13  14
ENDBRANCH   6  13
TORSDOF 4
ENDMDL
MODEL      257
REMARK 921   NORMALIZED FREE ENERGY PREDICTED BY IDOCK:   -2.14 KCAL/MOL
REMARK 922        TOTAL FREE ENERGY PREDICTED BY IDOCK:   -3.39 KCAL/MOL
REMARK 923 INTER-LIGAND FREE ENERGY PREDICTED BY IDOCK:   -3.64 KCAL/MOL
REMARK 924 INTRA-LIGAND FREE ENERGY PREDICTED BY IDOCK:    0.25 KCAL/MOL
REMARK 927      BINDING AFFINITY PREDICTED BY RF-SCORE:    0.00 PKD
ROOT
HETATM    1  O   UNL     1     -10.607   6.466  66.506  1.00  0.00    -0.450 OA 
HETATM    2  C   UNL     1     -10.391   7.688  67.066  1.00  0.00    -0.330 A  
HETATM    3  H   UNL     1     -10.600   5.748  67.129  1.00  0.00     0.000 HD 
HETATM    4  N   UNL     1     -10.400   8.703  66.186  1.00  0.00     0.051 NA 
HETATM    5  N   UNL     1     -10.185   9.964  66.635  1.00  0.00    -0.231 NA 
HETATM    6  C   UNL     1      -9.970  10.193  67.956  1.00  0.00    -0.148 A  
HETATM    7  C   UNL     1      -9.974   9.145  68.910  1.00  0.00    -0.189 A  
HETATM    8  C   UNL     1      -9.984   6.939  70.697  1.00  0.00    -0.198 A  
HETATM    9  C   UNL     1      -9.785   9.311  70.306  1.00  0.00    -0.274 A  
HETATM   10  C   UNL     1     -10.184   7.833  68.434  1.00  0.00    -0.230 A  
HETATM   11  C   UNL     1      -9.795   8.225  71.185  1.00  0.00    -0.219 A  
HETATM   12  C   UNL     1     -10.178   6.744  69.331  1.00  0.00    -0.204 A  
ENDROOT
BRANCH   6  13
HETATM   13  C   UNL     1      -9.701  11.621  68.381  1.00  0.00    -0.199 C  
BRANCH  13  14
HETATM   14  C   UNL     1     -10.609  12.702  67.828  1.00  0.00    -0.233 A  
HETATM   15  C   UNL     1     -12.445  14.669  67.054  1.00  0.00     0.291 A  
HETATM   16  C   UNL     1     -11.718  12.363  67.043  1.00  0.00    -0.423 A  
HETATM   17  C   UNL     1     -10.384  14.058  68.132  1.00  0.00    -0.241 A  
HETATM   18  F   UNL     1     -13.420  15.546  66.776  1.00  0.00     2.454 F  
HETATM   19  C   UNL     1     -11.288  15.058  67.722  1.00  0.00    -0.340 A  
HETATM   20  C   UNL     1     -12.638  13.342  66.669  1.00  0.00    -0.040 A  
BRANCH  19  21
HETATM   21  C   UNL     1     -11.000  16.456  68.135  1.00  0.00    -0.339 C  
HETATM   22  N   UNL     1      -9.943  17.192  67.597  1.00  0.00    -0.274 N  
HETATM   23  C   UNL     1      -9.721  18.565  68.084  1.00  0.00    -0.339 C  
HETATM   24  O   UNL     1     -11.711  16.911  69.035  1.00  0.00     0.237 OA 
HETATM   25  C   UNL     1      -8.272  18.760  68.558  1.00  0.00    -0.346 C  
HETATM   26  N   UNL     1      -7.316  18.348  67.520  1.00  0.00    -0.216 N  
HETATM   27  C   UNL     1      -7.525  16.990  67.016  1.00  0.00    -0.191 C  
HETATM   28  C   UNL     1      -6.290  19.209  67.162  1.00  0.00    -0.187 C  
HETATM   29  C   UNL     1      -8.978  16.764  66.576  1.00  0.00    -0.273 C  
HETATM   30  O   UNL     1      -6.169  20.330  67.646  1.00  0.00    -0.206 OA 
BRANCH  28  31
HETATM   31  C   UNL     1      -5.321  18.768  66.110  1.00  0.00    -0.174 C  
HETATM   32  C   UNL     1      -5.855  18.248  64.794  1.00  0.00     0.006 C  
HETATM   33  C   UNL     1      -5.150  19.570  64.839  1.00  0.00    -0.182 C  
ENDBRANCH  28  31
ENDBRANCH  19  21
ENDBRANCH  13  14
ENDBRANCH   6  13
TORSDOF 4
ENDMDL
MODEL      258
REMARK 921   NORMALIZED FREE ENERGY PREDICTED BY IDOCK:   -1.91 KCAL/MOL
REMARK 922        TOTAL FREE ENERGY PREDICTED BY IDOCK:   -3.11 KCAL/MOL
REMARK 923 INTER-LIGAND FREE ENERGY PREDICTED BY IDOCK:   -5.83 KCAL/MOL
REMARK 924 INTRA-LIGAND FREE ENERGY PREDICTED BY IDOCK:    2.73 KCAL/MOL
REMARK 927      BINDING AFFINITY PREDICTED BY RF-SCORE:    0.00 PKD
ROOT
HETATM    1  O   UNL     1      -9.656   4.721  64.313  1.00  0.00    -0.350 OA 
HETATM    2  C   UNL     1      -9.588   5.494  65.432  1.00  0.00     0.203 A  
HETATM    3  H   UNL     1      -8.988   4.916  63.666  1.00  0.00     0.000 HD 
HETATM    4  N   UNL     1     -10.533   5.218  66.346  1.00  0.00    -0.286 NA 
HETATM    5  N   UNL     1     -10.564   5.937  67.496  1.00  0.00    -0.251 NA 
HETATM    6  C   UNL     1      -9.647   6.915  67.717  1.00  0.00    -0.122 A  
HETATM    7  C   UNL     1      -8.628   7.214  66.780  1.00  0.00    -0.124 A  
HETATM    8  C   UNL     1      -6.662   7.717  64.795  1.00  0.00    -0.050 A  
HETATM    9  C   UNL     1      -7.623   8.200  66.954  1.00  0.00    -0.095 A  
HETATM   10  C   UNL     1      -8.610   6.473  65.579  1.00  0.00    -0.109 A  
HETATM   11  C   UNL     1      -6.652   8.443  65.978  1.00  0.00    -0.053 A  
HETATM   12  C   UNL     1      -7.633   6.738  64.597  1.00  0.00    -0.105 A  
ENDROOT
BRANCH   6  13
HETATM   13  C   UNL     1      -9.764   7.700  69.006  1.00  0.00    -0.160 C  
BRANCH  13  14
HETATM   14  C   UNL     1      -9.361   9.162  68.979  1.00  0.00    -0.151 A  
HETATM   15  C   UNL     1      -8.450  11.793  68.692  1.00  0.00    -0.068 A  
HETATM   16  C   UNL     1      -8.227   9.597  69.677  1.00  0.00    -0.148 A  
HETATM   17  C   UNL     1     -10.086  10.095  68.215  1.00  0.00    -0.179 A  
HETATM   18  F   UNL     1      -7.899  12.997  68.482  1.00  0.00    -0.128 F  
HETATM   19  C   UNL     1      -9.651  11.430  68.088  1.00  0.00    -0.190 A  
HETATM   20  C   UNL     1      -7.769  10.905  69.523  1.00  0.00    -0.022 A  
BRANCH  19  21
HETATM   21  C   UNL     1     -10.447  12.333  67.218  1.00  0.00    -0.218 C  
HETATM   22  N   UNL     1     -10.050  13.640  66.935  1.00  0.00    -0.255 N  
HETATM   23  C   UNL     1     -10.917  14.470  66.079  1.00  0.00    -0.324 C  
HETATM   24  O   UNL     1     -11.521  11.881  66.810  1.00  0.00    -0.364 OA 
HETATM   25  C   UNL     1     -11.257  15.805  66.758  1.00  0.00    -0.021 C  
HETATM   26  N   UNL     1     -10.039  16.499  67.200  1.00  0.00    -0.268 N  
HETATM   27  C   UNL     1      -9.160  15.690  68.045  1.00  0.00    -0.183 C  
HETATM   28  C   UNL     1      -9.855  17.831  66.859  1.00  0.00    -0.312 C  
HETATM   29  C   UNL     1      -8.842  14.334  67.400  1.00  0.00    -0.205 C  
HETATM   30  O   UNL     1     -10.651  18.450  66.161  1.00  0.00    -0.409 OA 
BRANCH  28  31
HETATM   31  C   UNL     1      -8.613  18.523  67.327  1.00  0.00    -0.268 C  
HETATM   32  C   UNL     1      -7.383  18.493  66.447  1.00  0.00    -0.277 C  
HETATM   33  C   UNL     1      -8.129  19.780  66.639  1.00  0.00    -0.341 C  
ENDBRANCH  28  31
ENDBRANCH  19  21
ENDBRANCH  13  14
ENDBRANCH   6  13
TORSDOF 4
ENDMDL
MODEL      259
REMARK 921   NORMALIZED FREE ENERGY PREDICTED BY IDOCK:   -1.83 KCAL/MOL
REMARK 922        TOTAL FREE ENERGY PREDICTED BY IDOCK:   -3.00 KCAL/MOL
REMARK 923 INTER-LIGAND FREE ENERGY PREDICTED BY IDOCK:   -3.55 KCAL/MOL
REMARK 924 INTRA-LIGAND FREE ENERGY PREDICTED BY IDOCK:    0.54 KCAL/MOL
REMARK 927      BINDING AFFINITY PREDICTED BY RF-SCORE:    0.00 PKD
ROOT
HETATM    1  O   UNL     1      -9.765   8.620  63.769  1.00  0.00     0.856 OA 
HETATM    2  C   UNL     1      -9.536   9.441  64.832  1.00  0.00    -0.080 A  
HETATM    3  H   UNL     1      -9.579   7.705  63.940  1.00  0.00     0.000 HD 
HETATM    4  N   UNL     1      -9.798  10.736  64.590  1.00  0.00    -0.279 NA 
HETATM    5  N   UNL     1      -9.594  11.643  65.578  1.00  0.00    -0.227 NA 
HETATM    6  C   UNL     1      -9.137  11.242  66.792  1.00  0.00    -0.174 A  
HETATM    7  C   UNL     1      -8.870   9.880  67.081  1.00  0.00    -0.146 A  
HETATM    8  C   UNL     1      -8.353   7.121  67.501  1.00  0.00    -0.116 A  
HETATM    9  C   UNL     1      -8.417   9.385  68.331  1.00  0.00    -0.120 A  
HETATM   10  C   UNL     1      -9.070   8.944  66.045  1.00  0.00    -0.265 A  
HETATM   11  C   UNL     1      -8.168   8.025  68.538  1.00  0.00    -0.126 A  
HETATM   12  C   UNL     1      -8.801   7.576  66.263  1.00  0.00    -0.184 A  
ENDROOT
BRANCH   6  13
HETATM   13  C   UNL     1      -8.898  12.312  67.835  1.00  0.00    -0.178 C  
BRANCH  13  14
HETATM   14  C   UNL     1      -9.777  13.547  67.791  1.00  0.00    -0.226 A  
HETATM   15  C   UNL     1     -11.484  15.757  67.987  1.00  0.00    -0.264 A  
HETATM   16  C   UNL     1     -11.106  13.454  67.355  1.00  0.00    -0.297 A  
HETATM   17  C   UNL     1      -9.294  14.793  68.231  1.00  0.00    -0.199 A  
HETATM   18  F   UNL     1     -12.372  16.741  68.186  1.00  0.00     0.488 F  
HETATM   19  C   UNL     1     -10.139  15.918  68.306  1.00  0.00    -0.224 A  
HETATM   20  C   UNL     1     -11.957  14.554  67.465  1.00  0.00    -0.358 A  
BRANCH  19  21
HETATM   21  C   UNL     1      -9.558  17.180  68.835  1.00  0.00    -0.237 C  
HETATM   22  N   UNL     1      -8.864  18.080  68.025  1.00  0.00    -0.268 N  
HETATM   23  C   UNL     1      -8.304  19.295  68.643  1.00  0.00    -0.372 C  
HETATM   24  O   UNL     1      -9.666  17.356  70.051  1.00  0.00     0.703 OA 
HETATM   25  C   UNL     1      -6.806  19.438  68.332  1.00  0.00    -0.282 C  
HETATM   26  N   UNL     1      -6.555  19.350  66.887  1.00  0.00    -0.194 N  
HETATM   27  C   UNL     1      -7.111  18.155  66.252  1.00  0.00    -0.263 C  
HETATM   28  C   UNL     1      -5.784  20.325  66.272  1.00  0.00    -0.169 C  
HETATM   29  C   UNL     1      -8.598  17.973  66.585  1.00  0.00    -0.263 C  
HETATM   30  O   UNL     1      -5.334  21.293  66.878  1.00  0.00    -0.207 OA 
BRANCH  28  31
HETATM   31  C   UNL     1      -5.532  20.214  64.801  1.00  0.00    -0.211 C  
HETATM   32  C   UNL     1      -6.536  19.480  63.939  1.00  0.00     0.642 C  
HETATM   33  C   UNL     1      -6.397  20.967  63.814  1.00  0.00    -0.304 C  
ENDBRANCH  28  31
ENDBRANCH  19  21
ENDBRANCH  13  14
ENDBRANCH   6  13
TORSDOF 4
ENDMDL
MODEL      260
REMARK 921   NORMALIZED FREE ENERGY PREDICTED BY IDOCK:   -1.81 KCAL/MOL
REMARK 922        TOTAL FREE ENERGY PREDICTED BY IDOCK:   -2.98 KCAL/MOL
REMARK 923 INTER-LIGAND FREE ENERGY PREDICTED BY IDOCK:   -4.14 KCAL/MOL
REMARK 924 INTRA-LIGAND FREE ENERGY PREDICTED BY IDOCK:    1.16 KCAL/MOL
REMARK 927      BINDING AFFINITY PREDICTED BY RF-SCORE:    0.00 PKD
ROOT
HETATM    1  O   UNL     1     -12.860   8.760  72.253  1.00  0.00    -0.369 OA 
HETATM    2  C   UNL     1     -12.365   9.519  71.236  1.00  0.00    -0.345 A  
HETATM    3  H   UNL     1     -12.732   7.826  72.137  1.00  0.00     0.000 HD 
HETATM    4  N   UNL     1     -12.546  10.840  71.401  1.00  0.00    -0.401 NA 
HETATM    5  N   UNL     1     -12.100  11.689  70.441  1.00  0.00    -0.374 NA 
HETATM    6  C   UNL     1     -11.475  11.205  69.337  1.00  0.00    -0.298 A  
HETATM    7  C   UNL     1     -11.253   9.819  69.146  1.00  0.00    -0.101 A  
HETATM    8  C   UNL     1     -10.905   7.014  68.892  1.00  0.00    -0.203 A  
HETATM    9  C   UNL     1     -10.585   9.245  68.034  1.00  0.00    -0.262 A  
HETATM   10  C   UNL     1     -11.732   8.941  70.141  1.00  0.00     0.120 A  
HETATM   11  C   UNL     1     -10.410   7.864  67.913  1.00  0.00    -0.281 A  
HETATM   12  C   UNL     1     -11.561   7.548  69.999  1.00  0.00     0.029 A  
ENDROOT
BRANCH   6  13
HETATM   13  C   UNL     1     -11.036  12.207  68.290  1.00  0.00    -0.288 C  
BRANCH  13  14
HETATM   14  C   UNL     1      -9.565  12.570  68.237  1.00  0.00    -0.209 A  
HETATM   15  C   UNL     1      -6.817  13.085  68.389  1.00  0.00    -0.097 A  
HETATM   16  C   UNL     1      -9.097  13.729  68.870  1.00  0.00     0.139 A  
HETATM   17  C   UNL     1      -8.638  11.728  67.595  1.00  0.00    -0.153 A  
HETATM   18  F   UNL     1      -5.513  13.305  68.607  1.00  0.00    -0.068 F  
HETATM   19  C   UNL     1      -7.254  11.994  67.643  1.00  0.00    -0.117 A  
HETATM   20  C   UNL     1      -7.727  13.977  68.955  1.00  0.00    -0.069 A  
BRANCH  19  21
HETATM   21  C   UNL     1      -6.344  11.022  66.984  1.00  0.00    -0.088 C  
HETATM   22  N   UNL     1      -6.581   9.647  67.001  1.00  0.00    -0.067 N  
HETATM   23  C   UNL     1      -5.610   8.757  66.339  1.00  0.00    -0.042 C  
HETATM   24  O   UNL     1      -5.324  11.496  66.476  1.00  0.00    -0.127 OA 
HETATM   25  C   UNL     1      -5.128   7.653  67.293  1.00  0.00    -0.026 C  
HETATM   26  N   UNL     1      -6.263   6.935  67.889  1.00  0.00    -0.032 N  
HETATM   27  C   UNL     1      -7.244   7.802  68.544  1.00  0.00    -0.086 C  
HETATM   28  C   UNL     1      -6.285   5.549  67.852  1.00  0.00    -0.037 C  
HETATM   29  C   UNL     1      -7.707   8.936  67.619  1.00  0.00    -0.101 C  
HETATM   30  O   UNL     1      -5.411   4.889  67.299  1.00  0.00    -0.011 OA 
BRANCH  28  31
HETATM   31  C   UNL     1      -7.445   4.836  68.473  1.00  0.00    -0.066 C  
HETATM   32  C   UNL     1      -7.182   3.617  69.330  1.00  0.00    -0.049 C  
HETATM   33  C   UNL     1      -7.665   4.885  69.970  1.00  0.00    -0.059 C  
ENDBRANCH  28  31
ENDBRANCH  19  21
ENDBRANCH  13  14
ENDBRANCH   6  13
TORSDOF 4
ENDMDL
MODEL      261
REMARK 921   NORMALIZED FREE ENERGY PREDICTED BY IDOCK:   -1.77 KCAL/MOL
REMARK 922        TOTAL FREE ENERGY PREDICTED BY IDOCK:   -2.93 KCAL/MOL
REMARK 923 INTER-LIGAND FREE ENERGY PREDICTED BY IDOCK:   -3.86 KCAL/MOL
REMARK 924 INTRA-LIGAND FREE ENERGY PREDICTED BY IDOCK:    0.93 KCAL/MOL
REMARK 927      BINDING AFFINITY PREDICTED BY RF-SCORE:    0.00 PKD
ROOT
HETATM    1  O   UNL     1     -11.714   6.602  68.919  1.00  0.00    -0.575 OA 
HETATM    2  C   UNL     1     -11.367   7.890  68.645  1.00  0.00     0.738 A  
HETATM    3  H   UNL     1     -11.364   5.967  68.305  1.00  0.00     0.000 HD 
HETATM    4  N   UNL     1     -11.861   8.787  69.514  1.00  0.00     0.733 NA 
HETATM    5  N   UNL     1     -11.586  10.102  69.328  1.00  0.00    -0.118 NA 
HETATM    6  C   UNL     1     -10.816  10.499  68.282  1.00  0.00    -0.248 A  
HETATM    7  C   UNL     1     -10.265   9.574  67.361  1.00  0.00    -0.285 A  
HETATM    8  C   UNL     1      -9.255   7.604  65.585  1.00  0.00     0.114 A  
HETATM    9  C   UNL     1      -9.432   9.912  66.264  1.00  0.00    -0.245 A  
HETATM   10  C   UNL     1     -10.567   8.209  67.551  1.00  0.00    -0.291 A  
HETATM   11  C   UNL     1      -8.931   8.940  65.393  1.00  0.00    -0.232 A  
HETATM   12  C   UNL     1     -10.067   7.240  66.656  1.00  0.00    -0.238 A  
ENDROOT
BRANCH   6  13
HETATM   13  C   UNL     1     -10.579  11.985  68.116  1.00  0.00    -0.233 C  
BRANCH  13  14
HETATM   14  C   UNL     1      -9.144  12.475  68.125  1.00  0.00    -0.204 A  
HETATM   15  C   UNL     1      -6.547  13.488  67.872  1.00  0.00    -0.152 A  
HETATM   16  C   UNL     1      -8.117  11.668  67.617  1.00  0.00    -0.140 A  
HETATM   17  C   UNL     1      -8.824  13.761  68.597  1.00  0.00    -0.047 A  
HETATM   18  F   UNL     1      -5.325  13.970  67.604  1.00  0.00    -0.108 F  
HETATM   19  C   UNL     1      -7.513  14.270  68.499  1.00  0.00    -0.121 A  
HETATM   20  C   UNL     1      -6.827  12.179  67.481  1.00  0.00    -0.127 A  
BRANCH  19  21
HETATM   21  C   UNL     1      -7.277  15.658  68.972  1.00  0.00    -0.160 C  
HETATM   22  N   UNL     1      -7.159  16.737  68.094  1.00  0.00    -0.155 N  
HETATM   23  C   UNL     1      -6.903  18.076  68.653  1.00  0.00    -0.249 C  
HETATM   24  O   UNL     1      -7.125  15.796  70.188  1.00  0.00     0.047 OA 
HETATM   25  C   UNL     1      -5.673  18.726  68.002  1.00  0.00    -0.191 C  
HETATM   26  N   UNL     1      -5.785  18.719  66.536  1.00  0.00    -0.150 N  
HETATM   27  C   UNL     1      -6.047  17.399  65.961  1.00  0.00    -0.070 C  
HETATM   28  C   UNL     1      -5.573  19.896  65.834  1.00  0.00    -0.169 C  
HETATM   29  C   UNL     1      -7.249  16.717  66.628  1.00  0.00    -0.241 C  
HETATM   30  O   UNL     1      -5.336  20.964  66.390  1.00  0.00    -0.176 OA 
BRANCH  28  31
HETATM   31  C   UNL     1      -5.681  19.866  64.342  1.00  0.00    -0.282 C  
HETATM   32  C   UNL     1      -6.621  20.834  63.656  1.00  0.00    -0.057 C  
HETATM   33  C   UNL     1      -5.139  21.008  63.509  1.00  0.00    -0.232 C  
ENDBRANCH  28  31
ENDBRANCH  19  21
ENDBRANCH  13  14
ENDBRANCH   6  13
TORSDOF 4
ENDMDL
MODEL      262
REMARK 921   NORMALIZED FREE ENERGY PREDICTED BY IDOCK:   -1.75 KCAL/MOL
REMARK 922        TOTAL FREE ENERGY PREDICTED BY IDOCK:   -2.90 KCAL/MOL
REMARK 923 INTER-LIGAND FREE ENERGY PREDICTED BY IDOCK:   -2.41 KCAL/MOL
REMARK 924 INTRA-LIGAND FREE ENERGY PREDICTED BY IDOCK:   -0.49 KCAL/MOL
REMARK 927      BINDING AFFINITY PREDICTED BY RF-SCORE:    0.00 PKD
ROOT
HETATM    1  O   UNL     1     -10.009   9.593  64.835  1.00  0.00    -0.418 OA 
HETATM    2  C   UNL     1      -9.289   8.563  65.359  1.00  0.00     0.126 A  
HETATM    3  H   UNL     1      -9.685   9.906  63.999  1.00  0.00     0.000 HD 
HETATM    4  N   UNL     1      -9.747   8.121  66.542  1.00  0.00    -0.239 NA 
HETATM    5  N   UNL     1      -9.097   7.103  67.159  1.00  0.00    -0.126 NA 
HETATM    6  C   UNL     1      -8.004   6.540  66.583  1.00  0.00    -0.109 A  
HETATM    7  C   UNL     1      -7.510   6.972  65.328  1.00  0.00    -0.092 A  
HETATM    8  C   UNL     1      -6.622   7.966  62.821  1.00  0.00    -0.084 A  
HETATM    9  C   UNL     1      -6.393   6.415  64.654  1.00  0.00    -0.030 A  
HETATM   10  C   UNL     1      -8.182   8.041  64.697  1.00  0.00    -0.109 A  
HETATM   11  C   UNL     1      -5.960   6.902  63.417  1.00  0.00    -0.039 A  
HETATM   12  C   UNL     1      -7.726   8.532  63.456  1.00  0.00    -0.142 A  
ENDROOT
BRANCH   6  13
HETATM   13  C   UNL     1      -7.308   5.432  67.345  1.00  0.00    -0.083 C  
BRANCH  13  14
HETATM   14  C   UNL     1      -7.203   5.572  68.852  1.00  0.00    -0.066 A  
HETATM   15  C   UNL     1      -6.727   5.745  71.605  1.00  0.00    -0.055 A  
HETATM   16  C   UNL     1      -7.472   4.478  69.685  1.00  0.00    -0.051 A  
HETATM   17  C   UNL     1      -6.789   6.783  69.437  1.00  0.00    -0.061 A  
HETATM   18  F   UNL     1      -6.389   5.732  72.902  1.00  0.00    -0.053 F  
HETATM   19  C   UNL     1      -6.574   6.888  70.826  1.00  0.00    -0.052 A  
HETATM   20  C   UNL     1      -7.223   4.563  71.054  1.00  0.00    -0.044 A  
BRANCH  19  21
HETATM   21  C   UNL     1      -6.084   8.189  71.350  1.00  0.00    -0.036 C  
HETATM   22  N   UNL     1      -6.591   9.411  70.908  1.00  0.00    -0.094 N  
HETATM   23  C   UNL     1      -6.027  10.652  71.470  1.00  0.00     0.459 C  
HETATM   24  O   UNL     1      -5.150   8.129  72.155  1.00  0.00    -0.034 OA 
HETATM   25  C   UNL     1      -5.561  11.604  70.358  1.00  0.00    -0.149 C  
HETATM   26  N   UNL     1      -6.632  11.842  69.381  1.00  0.00    -0.115 N  
HETATM   27  C   UNL     1      -7.212  10.622  68.817  1.00  0.00    -0.087 C  
HETATM   28  C   UNL     1      -6.952  13.144  69.027  1.00  0.00    -0.063 C  
HETATM   29  C   UNL     1      -7.647   9.640  69.913  1.00  0.00    -0.138 C  
HETATM   30  O   UNL     1      -6.404  14.120  69.532  1.00  0.00    -0.107 OA 
BRANCH  28  31
HETATM   31  C   UNL     1      -8.039  13.365  68.023  1.00  0.00    -0.160 C  
HETATM   32  C   UNL     1      -8.858  14.636  68.098  1.00  0.00    -0.173 C  
HETATM   33  C   UNL     1      -7.900  14.435  66.963  1.00  0.00     0.017 C  
ENDBRANCH  28  31
ENDBRANCH  19  21
ENDBRANCH  13  14
ENDBRANCH   6  13
TORSDOF 4
ENDMDL
MODEL      263
REMARK 921   NORMALIZED FREE ENERGY PREDICTED BY IDOCK:   -1.56 KCAL/MOL
REMARK 922        TOTAL FREE ENERGY PREDICTED BY IDOCK:   -2.68 KCAL/MOL
REMARK 923 INTER-LIGAND FREE ENERGY PREDICTED BY IDOCK:   -3.05 KCAL/MOL
REMARK 924 INTRA-LIGAND FREE ENERGY PREDICTED BY IDOCK:    0.38 KCAL/MOL
REMARK 927      BINDING AFFINITY PREDICTED BY RF-SCORE:    0.00 PKD
ROOT
HETATM    1  O   UNL     1     -10.805   3.316  74.537  1.00  0.00    -0.118 OA 
HETATM    2  C   UNL     1     -10.839   4.286  73.581  1.00  0.00    -0.278 A  
HETATM    3  H   UNL     1      -9.929   3.085  74.822  1.00  0.00     0.000 HD 
HETATM    4  N   UNL     1     -12.078   4.612  73.176  1.00  0.00     0.046 NA 
HETATM    5  N   UNL     1     -12.228   5.560  72.218  1.00  0.00     0.139 NA 
HETATM    6  C   UNL     1     -11.139   6.171  71.684  1.00  0.00    -0.276 A  
HETATM    7  C   UNL     1      -9.822   5.861  72.105  1.00  0.00    -0.185 A  
HETATM    8  C   UNL     1      -7.245   5.113  73.031  1.00  0.00    -0.090 A  
HETATM    9  C   UNL     1      -8.643   6.476  71.613  1.00  0.00    -0.128 A  
HETATM   10  C   UNL     1      -9.672   4.864  73.091  1.00  0.00    -0.161 A  
HETATM   11  C   UNL     1      -7.374   6.110  72.073  1.00  0.00    -0.093 A  
HETATM   12  C   UNL     1      -8.386   4.494  73.537  1.00  0.00    -0.102 A  
ENDROOT
BRANCH   6  13
HETATM   13  C   UNL     1     -11.379   7.194  70.594  1.00  0.00    -0.327 C  
BRANCH  13  14
HETATM   14  C   UNL     1     -10.902   6.857  69.195  1.00  0.00    -0.262 A  
HETATM   15  C   UNL     1     -10.296   6.300  66.519  1.00  0.00    -0.099 A  
HETATM   16  C   UNL     1     -11.032   5.553  68.697  1.00  0.00     0.053 A  
HETATM   17  C   UNL     1     -10.369   7.852  68.355  1.00  0.00    -0.235 A  
HETATM   18  F   UNL     1     -10.151   6.013  65.217  1.00  0.00     0.396 F  
HETATM   19  C   UNL     1     -10.034   7.574  67.014  1.00  0.00    -0.304 A  
HETATM   20  C   UNL     1     -10.741   5.281  67.361  1.00  0.00    -0.088 A  
BRANCH  19  21
HETATM   21  C   UNL     1      -9.528   8.698  66.185  1.00  0.00    -0.240 C  
HETATM   22  N   UNL     1      -8.454   9.495  66.581  1.00  0.00    -0.132 N  
HETATM   23  C   UNL     1      -8.036  10.602  65.703  1.00  0.00    -0.146 C  
HETATM   24  O   UNL     1     -10.158   8.931  65.150  1.00  0.00     0.580 OA 
HETATM   25  C   UNL     1      -7.986  11.933  66.470  1.00  0.00     0.041 C  
HETATM   26  N   UNL     1      -7.167  11.813  67.684  1.00  0.00    -0.102 N  
HETATM   27  C   UNL     1      -7.559  10.713  68.567  1.00  0.00    -0.097 C  
HETATM   28  C   UNL     1      -6.174  12.750  67.929  1.00  0.00    -0.115 C  
HETATM   29  C   UNL     1      -7.655   9.382  67.809  1.00  0.00    -0.088 C  
HETATM   30  O   UNL     1      -5.916  13.660  67.146  1.00  0.00    -0.247 OA 
BRANCH  28  31
HETATM   31  C   UNL     1      -5.357  12.616  69.175  1.00  0.00    -0.069 C  
HETATM   32  C   UNL     1      -5.861  13.252  70.453  1.00  0.00    -0.161 C  
HETATM   33  C   UNL     1      -5.843  11.758  70.323  1.00  0.00    -0.163 C  
ENDBRANCH  28  31
ENDBRANCH  19  21
ENDBRANCH  13  14
ENDBRANCH   6  13
TORSDOF 4
ENDMDL
MODEL      264
REMARK 921   NORMALIZED FREE ENERGY PREDICTED BY IDOCK:   -1.30 KCAL/MOL
REMARK 922        TOTAL FREE ENERGY PREDICTED BY IDOCK:   -2.35 KCAL/MOL
REMARK 923 INTER-LIGAND FREE ENERGY PREDICTED BY IDOCK:   -3.40 KCAL/MOL
REMARK 924 INTRA-LIGAND FREE ENERGY PREDICTED BY IDOCK:    1.05 KCAL/MOL
REMARK 927      BINDING AFFINITY PREDICTED BY RF-SCORE:    0.00 PKD
ROOT
HETATM    1  O   UNL     1      -6.907  11.419  70.884  1.00  0.00    -0.023 OA 
HETATM    2  C   UNL     1      -6.850  10.332  70.066  1.00  0.00    -0.146 A  
HETATM    3  H   UNL     1      -6.527  12.205  70.510  1.00  0.00     0.000 HD 
HETATM    4  N   UNL     1      -7.387   9.219  70.596  1.00  0.00    -0.110 NA 
HETATM    5  N   UNL     1      -7.373   8.074  69.870  1.00  0.00    -0.065 NA 
HETATM    6  C   UNL     1      -6.830   8.059  68.625  1.00  0.00    -0.067 A  
HETATM    7  C   UNL     1      -6.275   9.220  68.034  1.00  0.00    -0.050 A  
HETATM    8  C   UNL     1      -5.175  11.622  66.995  1.00  0.00    -0.112 A  
HETATM    9  C   UNL     1      -5.717   9.286  66.732  1.00  0.00    -0.051 A  
HETATM   10  C   UNL     1      -6.279  10.405  68.800  1.00  0.00    -0.047 A  
HETATM   11  C   UNL     1      -5.180  10.471  66.219  1.00  0.00    -0.063 A  
HETATM   12  C   UNL     1      -5.721  11.590  68.276  1.00  0.00    -0.045 A  
ENDROOT
BRANCH   6  13
HETATM   13  C   UNL     1      -6.818   6.737  67.887  1.00  0.00    -0.077 C  
BRANCH  13  14
HETATM   14  C   UNL     1      -6.506   6.763  66.403  1.00  0.00    -0.047 A  
HETATM   15  C   UNL     1      -6.090   6.559  63.642  1.00  0.00    -0.034 A  
HETATM   16  C   UNL     1      -5.376   6.100  65.906  1.00  0.00    -0.013 A  
HETATM   17  C   UNL     1      -7.367   7.407  65.496  1.00  0.00    -0.074 A  
HETATM   18  F   UNL     1      -5.919   6.318  62.335  1.00  0.00    -0.024 F  
HETATM   19  C   UNL     1      -7.150   7.334  64.105  1.00  0.00    -0.067 A  
HETATM   20  C   UNL     1      -5.177   5.990  64.530  1.00  0.00    -0.017 A  
BRANCH  19  21
HETATM   21  C   UNL     1      -8.140   7.998  63.219  1.00  0.00    -0.107 C  
HETATM   22  N   UNL     1      -8.501   9.337  63.372  1.00  0.00    -0.195 N  
HETATM   23  C   UNL     1      -9.509   9.904  62.459  1.00  0.00    -0.129 C  
HETATM   24  O   UNL     1      -8.679   7.276  62.376  1.00  0.00     0.087 OA 
HETATM   25  C   UNL     1     -10.657  10.565  63.238  1.00  0.00     0.591 C  
HETATM   26  N   UNL     1     -10.143  11.537  64.213  1.00  0.00    -0.270 N  
HETATM   27  C   UNL     1      -9.133  10.996  65.124  1.00  0.00    -0.181 C  
HETATM   28  C   UNL     1     -10.679  12.816  64.244  1.00  0.00    -0.394 C  
HETATM   29  C   UNL     1      -7.999  10.295  64.365  1.00  0.00    -0.135 C  
HETATM   30  O   UNL     1     -11.541  13.190  63.455  1.00  0.00    -0.439 OA 
BRANCH  28  31
HETATM   31  C   UNL     1     -10.149  13.788  65.250  1.00  0.00    -0.312 C  
HETATM   32  C   UNL     1     -10.539  15.246  65.137  1.00  0.00    -0.453 C  
HETATM   33  C   UNL     1     -11.073  14.420  66.268  1.00  0.00    -0.331 C  
ENDBRANCH  28  31
ENDBRANCH  19  21
ENDBRANCH  13  14
ENDBRANCH   6  13
TORSDOF 4
ENDMDL
MODEL      265
REMARK 921   NORMALIZED FREE ENERGY PREDICTED BY IDOCK:   -1.04 KCAL/MOL
REMARK 922        TOTAL FREE ENERGY PREDICTED BY IDOCK:   -2.03 KCAL/MOL
REMARK 923 INTER-LIGAND FREE ENERGY PREDICTED BY IDOCK:   -4.39 KCAL/MOL
REMARK 924 INTRA-LIGAND FREE ENERGY PREDICTED BY IDOCK:    2.36 KCAL/MOL
REMARK 927      BINDING AFFINITY PREDICTED BY RF-SCORE:    0.00 PKD
ROOT
HETATM    1  O   UNL     1     -10.461   3.882  65.174  1.00  0.00    -0.434 OA 
HETATM    2  C   UNL     1      -9.797   4.475  66.204  1.00  0.00    -0.230 A  
HETATM    3  H   UNL     1      -9.944   3.244  64.696  1.00  0.00     0.000 HD 
HETATM    4  N   UNL     1     -10.527   5.379  66.879  1.00  0.00    -0.268 NA 
HETATM    5  N   UNL     1      -9.960   6.038  67.919  1.00  0.00    -0.123 NA 
HETATM    6  C   UNL     1      -8.675   5.780  68.274  1.00  0.00    -0.111 A  
HETATM    7  C   UNL     1      -7.887   4.818  67.593  1.00  0.00    -0.090 A  
HETATM    8  C   UNL     1      -6.425   2.884  66.117  1.00  0.00    -0.028 A  
HETATM    9  C   UNL     1      -6.550   4.477  67.924  1.00  0.00    -0.046 A  
HETATM   10  C   UNL     1      -8.478   4.147  66.503  1.00  0.00    -0.104 A  
HETATM   11  C   UNL     1      -5.833   3.521  67.199  1.00  0.00    -0.023 A  
HETATM   12  C   UNL     1      -7.739   3.194  65.771  1.00  0.00    -0.084 A  
ENDROOT
BRANCH   6  13
HETATM   13  C   UNL     1      -8.095   6.578  69.422  1.00  0.00    -0.119 C  
BRANCH  13  14
HETATM   14  C   UNL     1      -8.361   8.071  69.446  1.00  0.00    -0.131 A  
HETATM   15  C   UNL     1      -8.564  10.863  69.425  1.00  0.00     0.110 A  
HETATM   16  C   UNL     1      -8.194   8.800  70.631  1.00  0.00    -0.159 A  
HETATM   17  C   UNL     1      -8.730   8.757  68.275  1.00  0.00    -0.135 A  
HETATM   18  F   UNL     1      -8.516  12.202  69.440  1.00  0.00     0.306 F  
HETATM   19  C   UNL     1      -8.862  10.160  68.261  1.00  0.00    -0.124 A  
HETATM   20  C   UNL     1      -8.284  10.192  70.615  1.00  0.00     0.770 A  
BRANCH  19  21
HETATM   21  C   UNL     1      -9.201  10.806  66.967  1.00  0.00    -0.152 C  
HETATM   22  N   UNL     1      -9.169  12.190  66.791  1.00  0.00    -0.202 N  
HETATM   23  C   UNL     1      -9.543  12.742  65.477  1.00  0.00     0.013 C  
HETATM   24  O   UNL     1      -9.579  10.050  66.068  1.00  0.00    -0.191 OA 
HETATM   25  C   UNL     1     -10.639  13.810  65.613  1.00  0.00    -0.298 C  
HETATM   26  N   UNL     1     -10.256  14.840  66.589  1.00  0.00    -0.264 N  
HETATM   27  C   UNL     1      -9.872  14.312  67.899  1.00  0.00    -0.226 C  
HETATM   28  C   UNL     1     -10.350  16.178  66.237  1.00  0.00    -0.328 C  
HETATM   29  C   UNL     1      -8.807  13.214  67.780  1.00  0.00    -0.191 C  
HETATM   30  O   UNL     1     -10.701  16.544  65.119  1.00  0.00    -0.606 OA 
BRANCH  28  31
HETATM   31  C   UNL     1      -9.965  17.211  67.248  1.00  0.00    -0.274 C  
HETATM   32  C   UNL     1      -8.711  18.028  67.020  1.00  0.00    -0.253 C  
HETATM   33  C   UNL     1     -10.055  18.684  66.913  1.00  0.00    -0.399 C  
ENDBRANCH  28  31
ENDBRANCH  19  21
ENDBRANCH  13  14
ENDBRANCH   6  13
TORSDOF 4
ENDMDL
MODEL      266
REMARK 921   NORMALIZED FREE ENERGY PREDICTED BY IDOCK:   -0.86 KCAL/MOL
REMARK 922        TOTAL FREE ENERGY PREDICTED BY IDOCK:   -1.81 KCAL/MOL
REMARK 923 INTER-LIGAND FREE ENERGY PREDICTED BY IDOCK:   -2.80 KCAL/MOL
REMARK 924 INTRA-LIGAND FREE ENERGY PREDICTED BY IDOCK:    1.00 KCAL/MOL
REMARK 927      BINDING AFFINITY PREDICTED BY RF-SCORE:    0.00 PKD
ROOT
HETATM    1  O   UNL     1     -10.508   6.090  66.279  1.00  0.00    -0.441 OA 
HETATM    2  C   UNL     1     -10.341   7.188  67.067  1.00  0.00    -0.298 A  
HETATM    3  H   UNL     1     -10.691   5.292  66.760  1.00  0.00     0.000 HD 
HETATM    4  N   UNL     1     -10.081   8.316  66.386  1.00  0.00    -0.225 NA 
HETATM    5  N   UNL     1      -9.887   9.469  67.074  1.00  0.00    -0.178 NA 
HETATM    6  C   UNL     1      -9.961   9.477  68.430  1.00  0.00    -0.164 A  
HETATM    7  C   UNL     1     -10.252   8.307  69.173  1.00  0.00    -0.223 A  
HETATM    8  C   UNL     1     -10.817   5.875  70.525  1.00  0.00    -0.366 A  
HETATM    9  C   UNL     1     -10.372   8.245  70.585  1.00  0.00    -0.220 A  
HETATM   10  C   UNL     1     -10.439   7.108  68.452  1.00  0.00    -0.228 A  
HETATM   11  C   UNL     1     -10.655   7.048  71.249  1.00  0.00    -0.238 A  
HETATM   12  C   UNL     1     -10.710   5.904  69.136  1.00  0.00    -0.394 A  
ENDROOT
BRANCH   6  13
HETATM   13  C   UNL     1      -9.697  10.791  69.133  1.00  0.00    -0.181 C  
BRANCH  13  14
HETATM   14  C   UNL     1     -10.895  11.569  69.644  1.00  0.00    -0.053 A  
HETATM   15  C   UNL     1     -13.014  12.935  70.862  1.00  0.00    -0.022 A  
HETATM   16  C   UNL     1     -12.115  10.918  69.876  1.00  0.00    -0.428 A  
HETATM   17  C   UNL     1     -10.792  12.940  69.941  1.00  0.00     0.609 A  
HETATM   18  F   UNL     1     -14.005  13.503  71.562  1.00  0.00    -0.349 F  
HETATM   19  C   UNL     1     -11.863  13.643  70.528  1.00  0.00    -0.277 A  
HETATM   20  C   UNL     1     -13.164  11.598  70.494  1.00  0.00     0.509 A  
BRANCH  19  21
HETATM   21  C   UNL     1     -11.646  15.076  70.858  1.00  0.00    -0.319 C  
HETATM   22  N   UNL     1     -11.355  16.031  69.884  1.00  0.00    -0.333 N  
HETATM   23  C   UNL     1     -11.134  17.425  70.308  1.00  0.00     1.224 C  
HETATM   24  O   UNL     1     -11.673  15.364  72.057  1.00  0.00    -0.383 OA 
HETATM   25  C   UNL     1      -9.795  17.963  69.779  1.00  0.00     0.622 C  
HETATM   26  N   UNL     1      -9.686  17.772  68.326  1.00  0.00    -0.304 N  
HETATM   27  C   UNL     1      -9.910  16.396  67.883  1.00  0.00    -0.238 C  
HETATM   28  C   UNL     1      -9.324  18.846  67.526  1.00  0.00    -0.294 C  
HETATM   29  C   UNL     1     -11.224  15.828  68.435  1.00  0.00    -0.362 C  
HETATM   30  O   UNL     1      -9.132  19.971  67.977  1.00  0.00    -0.322 OA 
BRANCH  28  31
HETATM   31  C   UNL     1      -9.208  18.630  66.050  1.00  0.00     0.002 C  
HETATM   32  C   UNL     1      -9.523  17.263  65.483  1.00  0.00     0.510 C  
HETATM   33  C   UNL     1     -10.445  18.412  65.207  1.00  0.00     0.562 C  
ENDBRANCH  28  31
ENDBRANCH  19  21
ENDBRANCH  13  14
ENDBRANCH   6  13
TORSDOF 4
ENDMDL
MODEL      267
REMARK 921   NORMALIZED FREE ENERGY PREDICTED BY IDOCK:   -0.81 KCAL/MOL
REMARK 922        TOTAL FREE ENERGY PREDICTED BY IDOCK:   -1.74 KCAL/MOL
REMARK 923 INTER-LIGAND FREE ENERGY PREDICTED BY IDOCK:   -1.98 KCAL/MOL
REMARK 924 INTRA-LIGAND FREE ENERGY PREDICTED BY IDOCK:    0.23 KCAL/MOL
REMARK 927      BINDING AFFINITY PREDICTED BY RF-SCORE:    0.00 PKD
ROOT
HETATM    1  O   UNL     1      -5.486   5.167  64.263  1.00  0.00    -0.015 OA 
HETATM    2  C   UNL     1      -6.673   5.708  64.653  1.00  0.00    -0.046 A  
HETATM    3  H   UNL     1      -5.531   4.240  64.058  1.00  0.00     0.000 HD 
HETATM    4  N   UNL     1      -6.609   7.018  64.943  1.00  0.00    -0.042 NA 
HETATM    5  N   UNL     1      -7.734   7.655  65.352  1.00  0.00    -0.097 NA 
HETATM    6  C   UNL     1      -8.905   6.976  65.460  1.00  0.00     0.049 A  
HETATM    7  C   UNL     1      -9.007   5.599  65.142  1.00  0.00     0.005 A  
HETATM    8  C   UNL     1      -9.046   2.835  64.496  1.00  0.00    -0.125 A  
HETATM    9  C   UNL     1     -10.198   4.833  65.204  1.00  0.00     0.026 A  
HETATM   10  C   UNL     1      -7.830   4.938  64.730  1.00  0.00    -0.090 A  
HETATM   11  C   UNL     1     -10.218   3.473  64.881  1.00  0.00     0.009 A  
HETATM   12  C   UNL     1      -7.861   3.562  64.421  1.00  0.00    -0.085 A  
ENDROOT
BRANCH   6  13
HETATM   13  C   UNL     1     -10.112   7.743  65.957  1.00  0.00     0.434 C  
BRANCH  13  14
HETATM   14  C   UNL     1      -9.862   9.011  66.750  1.00  0.00    -0.300 A  
HETATM   15  C   UNL     1      -9.578  11.238  68.423  1.00  0.00    -0.195 A  
HETATM   16  C   UNL     1     -10.719  10.112  66.613  1.00  0.00    -0.156 A  
HETATM   17  C   UNL     1      -8.801   9.090  67.670  1.00  0.00    -0.127 A  
HETATM   18  F   UNL     1      -9.569  12.263  69.287  1.00  0.00     0.132 F  
HETATM   19  C   UNL     1      -8.633  10.219  68.497  1.00  0.00    -0.126 A  
HETATM   20  C   UNL     1     -10.582  11.215  67.456  1.00  0.00    -0.258 A  
BRANCH  19  21
HETATM   21  C   UNL     1      -7.517  10.192  69.478  1.00  0.00    -0.133 C  
HETATM   22  N   UNL     1      -7.152   9.033  70.164  1.00  0.00    -0.047 N  
HETATM   23  C   UNL     1      -6.046   9.108  71.135  1.00  0.00    -0.067 C  
HETATM   24  O   UNL     1      -6.971  11.276  69.704  1.00  0.00    -0.122 OA 
HETATM   25  C   UNL     1      -6.472   8.561  72.507  1.00  0.00    -0.084 C  
HETATM   26  N   UNL     1      -7.048   7.214  72.383  1.00  0.00    -0.067 N  
HETATM   27  C   UNL     1      -8.143   7.116  71.416  1.00  0.00    -0.106 C  
HETATM   28  C   UNL     1      -6.583   6.199  73.205  1.00  0.00    -0.073 C  
HETATM   29  C   UNL     1      -7.749   7.696  70.051  1.00  0.00    -0.092 C  
HETATM   30  O   UNL     1      -5.670   6.365  74.009  1.00  0.00    -0.053 OA 
BRANCH  28  31
HETATM   31  C   UNL     1      -7.188   4.837  73.070  1.00  0.00    -0.081 C  
HETATM   32  C   UNL     1      -6.738   3.943  71.936  1.00  0.00    -0.019 C  
HETATM   33  C   UNL     1      -6.364   3.599  73.346  1.00  0.00    -0.024 C  
ENDBRANCH  28  31
ENDBRANCH  19  21
ENDBRANCH  13  14
ENDBRANCH   6  13
TORSDOF 4
ENDMDL
MODEL      268
REMARK 921   NORMALIZED FREE ENERGY PREDICTED BY IDOCK:   -0.51 KCAL/MOL
REMARK 922        TOTAL FREE ENERGY PREDICTED BY IDOCK:   -1.37 KCAL/MOL
REMARK 923 INTER-LIGAND FREE ENERGY PREDICTED BY IDOCK:   -0.96 KCAL/MOL
REMARK 924 INTRA-LIGAND FREE ENERGY PREDICTED BY IDOCK:   -0.41 KCAL/MOL
REMARK 927      BINDING AFFINITY PREDICTED BY RF-SCORE:    0.00 PKD
ROOT
HETATM    1  O   UNL     1     -11.322  16.980  69.077  1.00  0.00    -0.177 OA 
HETATM    2  C   UNL     1     -10.509  15.887  69.049  1.00  0.00    -0.234 A  
HETATM    3  H   UNL     1     -12.237  16.778  69.233  1.00  0.00     0.000 HD 
HETATM    4  N   UNL     1      -9.215  16.173  68.828  1.00  0.00    -0.213 NA 
HETATM    5  N   UNL     1      -8.319  15.157  68.770  1.00  0.00    -0.163 NA 
HETATM    6  C   UNL     1      -8.728  13.873  68.941  1.00  0.00     0.106 A  
HETATM    7  C   UNL     1     -10.082  13.544  69.195  1.00  0.00     0.194 A  
HETATM    8  C   UNL     1     -12.835  13.039  69.671  1.00  0.00     0.714 A  
HETATM    9  C   UNL     1     -10.576  12.232  69.411  1.00  0.00     0.179 A  
HETATM   10  C   UNL     1     -11.012  14.604  69.240  1.00  0.00    -0.278 A  
HETATM   11  C   UNL     1     -11.932  11.985  69.650  1.00  0.00    -0.360 A  
HETATM   12  C   UNL     1     -12.379  14.339  69.468  1.00  0.00    -0.272 A  
ENDROOT
BRANCH   6  13
HETATM   13  C   UNL     1      -7.679  12.787  68.828  1.00  0.00     0.007 C  
BRANCH  13  14
HETATM   14  C   UNL     1      -7.702  11.911  67.590  1.00  0.00    -0.141 A  
HETATM   15  C   UNL     1      -7.555  10.115  65.448  1.00  0.00    -0.144 A  
HETATM   16  C   UNL     1      -6.768  12.110  66.565  1.00  0.00     0.472 A  
HETATM   17  C   UNL     1      -8.625  10.856  67.471  1.00  0.00    -0.127 A  
HETATM   18  F   UNL     1      -7.356   9.213  64.477  1.00  0.00    -0.094 F  
HETATM   19  C   UNL     1      -8.577   9.964  66.381  1.00  0.00    -0.136 A  
HETATM   20  C   UNL     1      -6.690  11.207  65.505  1.00  0.00     0.343 A  
BRANCH  19  21
HETATM   21  C   UNL     1      -9.556   8.846  66.364  1.00  0.00    -0.238 C  
HETATM   22  N   UNL     1      -9.169   7.512  66.495  1.00  0.00    -0.168 N  
HETATM   23  C   UNL     1     -10.208   6.469  66.445  1.00  0.00     0.031 C  
HETATM   24  O   UNL     1     -10.731   9.160  66.160  1.00  0.00     0.130 OA 
HETATM   25  C   UNL     1      -9.873   5.399  65.394  1.00  0.00     0.268 C  
HETATM   26  N   UNL     1      -8.520   4.863  65.598  1.00  0.00    -0.120 N  
HETATM   27  C   UNL     1      -7.473   5.884  65.660  1.00  0.00    -0.081 C  
HETATM   28  C   UNL     1      -8.334   3.489  65.643  1.00  0.00    -0.106 C  
HETATM   29  C   UNL     1      -7.811   6.983  66.676  1.00  0.00    -0.106 C  
HETATM   30  O   UNL     1      -9.264   2.693  65.563  1.00  0.00    -0.149 OA 
BRANCH  28  31
HETATM   31  C   UNL     1      -6.947   2.963  65.841  1.00  0.00    -0.056 C  
HETATM   32  C   UNL     1      -6.645   1.531  65.456  1.00  0.00    -0.023 C  
HETATM   33  C   UNL     1      -6.064   2.655  64.652  1.00  0.00    -0.019 C  
ENDBRANCH  28  31
ENDBRANCH  19  21
ENDBRANCH  13  14
ENDBRANCH   6  13
TORSDOF 4
ENDMDL
MODEL      269
REMARK 921   NORMALIZED FREE ENERGY PREDICTED BY IDOCK:   -0.50 KCAL/MOL
REMARK 922        TOTAL FREE ENERGY PREDICTED BY IDOCK:   -1.36 KCAL/MOL
REMARK 923 INTER-LIGAND FREE ENERGY PREDICTED BY IDOCK:   -2.83 KCAL/MOL
REMARK 924 INTRA-LIGAND FREE ENERGY PREDICTED BY IDOCK:    1.47 KCAL/MOL
REMARK 927      BINDING AFFINITY PREDICTED BY RF-SCORE:    0.00 PKD
ROOT
HETATM    1  O   UNL     1      -8.067   2.996  65.889  1.00  0.00    -0.085 OA 
HETATM    2  C   UNL     1      -8.023   4.311  65.539  1.00  0.00    -0.094 A  
HETATM    3  H   UNL     1      -7.391   2.737  66.504  1.00  0.00     0.000 HD 
HETATM    4  N   UNL     1      -8.978   4.678  64.668  1.00  0.00    -0.152 NA 
HETATM    5  N   UNL     1      -9.021   5.965  64.243  1.00  0.00     0.365 NA 
HETATM    6  C   UNL     1      -8.113   6.866  64.698  1.00  0.00    -0.082 A  
HETATM    7  C   UNL     1      -7.107   6.513  65.632  1.00  0.00    -0.061 A  
HETATM    8  C   UNL     1      -5.133   5.649  67.479  1.00  0.00    -0.004 A  
HETATM    9  C   UNL     1      -6.145   7.405  66.171  1.00  0.00    -0.037 A  
HETATM   10  C   UNL     1      -7.059   5.169  66.059  1.00  0.00    -0.072 A  
HETATM   11  C   UNL     1      -5.177   6.979  67.085  1.00  0.00    -0.013 A  
HETATM   12  C   UNL     1      -6.068   4.750  66.970  1.00  0.00    -0.031 A  
ENDROOT
BRANCH   6  13
HETATM   13  C   UNL     1      -8.199   8.276  64.154  1.00  0.00    -0.107 C  
BRANCH  13  14
HETATM   14  C   UNL     1      -8.124   9.420  65.147  1.00  0.00    -0.126 A  
HETATM   15  C   UNL     1      -8.280  11.501  67.013  1.00  0.00    -0.167 A  
HETATM   16  C   UNL     1      -8.295  10.743  64.717  1.00  0.00     0.004 A  
HETATM   17  C   UNL     1      -7.933   9.173  66.519  1.00  0.00    -0.100 A  
HETATM   18  F   UNL     1      -8.497  12.509  67.870  1.00  0.00    -0.136 F  
HETATM   19  C   UNL     1      -7.981  10.218  67.463  1.00  0.00    -0.106 A  
HETATM   20  C   UNL     1      -8.384  11.776  65.650  1.00  0.00     0.478 A  
BRANCH  19  21
HETATM   21  C   UNL     1      -7.823   9.859  68.896  1.00  0.00    -0.091 C  
HETATM   22  N   UNL     1      -8.723   9.024  69.561  1.00  0.00    -0.139 N  
HETATM   23  C   UNL     1      -8.497   8.740  70.989  1.00  0.00    -0.179 C  
HETATM   24  O   UNL     1      -6.882  10.396  69.487  1.00  0.00    -0.067 OA 
HETATM   25  C   UNL     1      -9.748   9.054  71.824  1.00  0.00    -0.241 C  
HETATM   26  N   UNL     1     -10.932   8.377  71.276  1.00  0.00    -0.242 N  
HETATM   27  C   UNL     1     -11.170   8.639  69.856  1.00  0.00    -0.041 C  
HETATM   28  C   UNL     1     -11.740   7.633  72.122  1.00  0.00    -0.311 C  
HETATM   29  C   UNL     1      -9.917   8.370  69.011  1.00  0.00    -0.190 C  
HETATM   30  O   UNL     1     -11.484   7.476  73.312  1.00  0.00    -0.230 OA 
BRANCH  28  31
HETATM   31  C   UNL     1     -12.947   6.959  71.547  1.00  0.00    -0.362 C  
HETATM   32  C   UNL     1     -14.264   7.061  72.285  1.00  0.00    -0.083 C  
HETATM   33  C   UNL     1     -14.086   7.777  70.979  1.00  0.00    -0.130 C  
ENDBRANCH  28  31
ENDBRANCH  19  21
ENDBRANCH  13  14
ENDBRANCH   6  13
TORSDOF 4
ENDMDL
MODEL      270
REMARK 921   NORMALIZED FREE ENERGY PREDICTED BY IDOCK:    0.92 KCAL/MOL
REMARK 922        TOTAL FREE ENERGY PREDICTED BY IDOCK:    0.39 KCAL/MOL
REMARK 923 INTER-LIGAND FREE ENERGY PREDICTED BY IDOCK:   -1.54 KCAL/MOL
REMARK 924 INTRA-LIGAND FREE ENERGY PREDICTED BY IDOCK:    1.93 KCAL/MOL
REMARK 927      BINDING AFFINITY PREDICTED BY RF-SCORE:    0.00 PKD
ROOT
HETATM    1  O   UNL     1      -9.290   2.721  68.616  1.00  0.00    -0.168 OA 
HETATM    2  C   UNL     1      -8.781   3.983  68.687  1.00  0.00    -0.098 A  
HETATM    3  H   UNL     1      -8.751   2.113  68.125  1.00  0.00     0.000 HD 
HETATM    4  N   UNL     1      -9.545   4.843  69.381  1.00  0.00    -0.152 NA 
HETATM    5  N   UNL     1      -9.137   6.130  69.506  1.00  0.00    -0.138 NA 
HETATM    6  C   UNL     1      -7.970   6.536  68.941  1.00  0.00    -0.111 A  
HETATM    7  C   UNL     1      -7.136   5.647  68.220  1.00  0.00    -0.074 A  
HETATM    8  C   UNL     1      -5.584   3.754  66.782  1.00  0.00    -0.021 A  
HETATM    9  C   UNL     1      -5.894   5.992  67.628  1.00  0.00    -0.016 A  
HETATM   10  C   UNL     1      -7.573   4.312  68.082  1.00  0.00    -0.068 A  
HETATM   11  C   UNL     1      -5.128   5.058  66.924  1.00  0.00    -0.008 A  
HETATM   12  C   UNL     1      -6.797   3.383  67.357  1.00  0.00    -0.046 A  
ENDROOT
BRANCH   6  13
HETATM   13  C   UNL     1      -7.595   7.995  69.090  1.00  0.00    -0.097 C  
BRANCH  13  14
HETATM   14  C   UNL     1      -7.862   8.914  67.914  1.00  0.00    -0.102 A  
HETATM   15  C   UNL     1      -8.637  10.627  65.839  1.00  0.00    -0.172 A  
HETATM   16  C   UNL     1      -8.293   8.389  66.688  1.00  0.00    -0.110 A  
HETATM   17  C   UNL     1      -7.732  10.309  68.045  1.00  0.00    -0.089 A  
HETATM   18  F   UNL     1      -9.146  11.399  64.868  1.00  0.00    -0.201 F  
HETATM   19  C   UNL     1      -8.093  11.178  66.995  1.00  0.00    -0.148 A  
HETATM   20  C   UNL     1      -8.689   9.245  65.660  1.00  0.00    -0.193 A  
BRANCH  19  21
HETATM   21  C   UNL     1      -7.975  12.639  67.241  1.00  0.00    -0.166 C  
HETATM   22  N   UNL     1      -8.967  13.544  66.859  1.00  0.00    -0.229 N  
HETATM   23  C   UNL     1      -8.752  14.977  67.124  1.00  0.00    -0.220 C  
HETATM   24  O   UNL     1      -6.914  13.018  67.745  1.00  0.00    -0.110 OA 
HETATM   25  C   UNL     1      -8.929  15.812  65.846  1.00  0.00    -0.193 C  
HETATM   26  N   UNL     1     -10.218  15.526  65.202  1.00  0.00    -0.345 N  
HETATM   27  C   UNL     1     -10.455  14.106  64.937  1.00  0.00    -0.438 C  
HETATM   28  C   UNL     1     -11.046  16.579  64.843  1.00  0.00    -0.190 C  
HETATM   29  C   UNL     1     -10.243  13.251  66.194  1.00  0.00    -0.296 C  
HETATM   30  O   UNL     1     -10.767  17.750  65.082  1.00  0.00    -0.638 OA 
BRANCH  28  31
HETATM   31  C   UNL     1     -12.351  16.268  64.179  1.00  0.00     1.076 C  
HETATM   32  C   UNL     1     -12.645  14.840  63.775  1.00  0.00     0.501 C  
HETATM   33  C   UNL     1     -13.409  15.464  64.903  1.00  0.00     1.718 C  
ENDBRANCH  28  31
ENDBRANCH  19  21
ENDBRANCH  13  14
ENDBRANCH   6  13
TORSDOF 4
ENDMDL
MODEL      271
REMARK 921   NORMALIZED FREE ENERGY PREDICTED BY IDOCK:    1.58 KCAL/MOL
REMARK 922        TOTAL FREE ENERGY PREDICTED BY IDOCK:    1.20 KCAL/MOL
REMARK 923 INTER-LIGAND FREE ENERGY PREDICTED BY IDOCK:   -0.54 KCAL/MOL
REMARK 924 INTRA-LIGAND FREE ENERGY PREDICTED BY IDOCK:    1.74 KCAL/MOL
REMARK 927      BINDING AFFINITY PREDICTED BY RF-SCORE:    0.00 PKD
ROOT
HETATM    1  O   UNL     1     -12.389   5.944  65.738  1.00  0.00     1.840 OA 
HETATM    2  C   UNL     1     -11.189   5.664  66.318  1.00  0.00     0.417 A  
HETATM    3  H   UNL     1     -12.600   5.389  64.997  1.00  0.00     0.000 HD 
HETATM    4  N   UNL     1     -10.891   6.450  67.366  1.00  0.00    -0.334 NA 
HETATM    5  N   UNL     1      -9.713   6.265  68.013  1.00  0.00    -0.121 NA 
HETATM    6  C   UNL     1      -8.855   5.294  67.606  1.00  0.00    -0.105 A  
HETATM    7  C   UNL     1      -9.151   4.438  66.517  1.00  0.00    -0.123 A  
HETATM    8  C   UNL     1      -9.872   2.819  64.299  1.00  0.00    -0.118 A  
HETATM    9  C   UNL     1      -8.318   3.388  66.054  1.00  0.00    -0.103 A  
HETATM   10  C   UNL     1     -10.372   4.645  65.839  1.00  0.00    -0.315 A  
HETATM   11  C   UNL     1      -8.677   2.587  64.965  1.00  0.00    -0.112 A  
HETATM   12  C   UNL     1     -10.715   3.840  64.733  1.00  0.00    -0.012 A  
ENDROOT
BRANCH   6  13
HETATM   13  C   UNL     1      -7.543   5.167  68.351  1.00  0.00    -0.079 C  
BRANCH  13  14
HETATM   14  C   UNL     1      -7.011   6.401  69.053  1.00  0.00    -0.072 A  
HETATM   15  C   UNL     1      -5.904   8.754  70.090  1.00  0.00    -0.027 A  
HETATM   16  C   UNL     1      -5.748   6.380  69.661  1.00  0.00    -0.014 A  
HETATM   17  C   UNL     1      -7.748   7.599  69.065  1.00  0.00    -0.117 A  
HETATM   18  F   UNL     1      -5.277   9.875  70.476  1.00  0.00    -0.033 F  
HETATM   19  C   UNL     1      -7.211   8.783  69.611  1.00  0.00    -0.055 A  
HETATM   20  C   UNL     1      -5.195   7.556  70.167  1.00  0.00    -0.023 A  
BRANCH  19  21
HETATM   21  C   UNL     1      -8.038  10.014  69.531  1.00  0.00    -0.161 C  
HETATM   22  N   UNL     1      -8.658  10.423  68.349  1.00  0.00    -0.123 N  
HETATM   23  C   UNL     1      -9.441  11.671  68.360  1.00  0.00    -0.193 C  
HETATM   24  O   UNL     1      -8.093  10.696  70.558  1.00  0.00     0.518 OA 
HETATM   25  C   UNL     1      -8.981  12.627  67.249  1.00  0.00    -0.194 C  
HETATM   26  N   UNL     1      -8.975  11.955  65.942  1.00  0.00    -0.082 N  
HETATM   27  C   UNL     1      -8.209  10.708  65.912  1.00  0.00    -0.159 C  
HETATM   28  C   UNL     1      -9.606  12.559  64.865  1.00  0.00     0.150 C  
HETATM   29  C   UNL     1      -8.627   9.757  67.041  1.00  0.00    -0.124 C  
HETATM   30  O   UNL     1     -10.214  13.621  64.965  1.00  0.00    -0.353 OA 
BRANCH  28  31
HETATM   31  C   UNL     1      -9.581  11.864  63.540  1.00  0.00    -0.197 C  
HETATM   32  C   UNL     1      -8.597  10.734  63.324  1.00  0.00    -0.107 C  
HETATM   33  C   UNL     1     -10.064  10.435  63.413  1.00  0.00    -0.009 C  
ENDBRANCH  28  31
ENDBRANCH  19  21
ENDBRANCH  13  14
ENDBRANCH   6  13
TORSDOF 4
ENDMDL
MODEL      272
REMARK 921   NORMALIZED FREE ENERGY PREDICTED BY IDOCK:    1.93 KCAL/MOL
REMARK 922        TOTAL FREE ENERGY PREDICTED BY IDOCK:    1.64 KCAL/MOL
REMARK 923 INTER-LIGAND FREE ENERGY PREDICTED BY IDOCK:    1.37 KCAL/MOL
REMARK 924 INTRA-LIGAND FREE ENERGY PREDICTED BY IDOCK:    0.26 KCAL/MOL
REMARK 927      BINDING AFFINITY PREDICTED BY RF-SCORE:    0.00 PKD
ROOT
HETATM    1  O   UNL     1     -10.909  10.074  65.079  1.00  0.00     0.289 OA 
HETATM    2  C   UNL     1     -11.425  11.149  65.737  1.00  0.00     0.357 A  
HETATM    3  H   UNL     1     -10.833  10.194  64.140  1.00  0.00     0.000 HD 
HETATM    4  N   UNL     1     -11.534  10.978  67.065  1.00  0.00    -0.395 NA 
HETATM    5  N   UNL     1     -12.046  11.984  67.817  1.00  0.00    -0.499 NA 
HETATM    6  C   UNL     1     -12.436  13.146  67.231  1.00  0.00     0.249 A  
HETATM    7  C   UNL     1     -12.314  13.362  65.836  1.00  0.00    -0.493 A  
HETATM    8  C   UNL     1     -12.034  13.635  63.025  1.00  0.00     0.466 A  
HETATM    9  C   UNL     1     -12.673  14.556  65.161  1.00  0.00    -0.177 A  
HETATM   10  C   UNL     1     -11.794  12.306  65.058  1.00  0.00    -0.412 A  
HETATM   11  C   UNL     1     -12.530  14.691  63.777  1.00  0.00     0.284 A  
HETATM   12  C   UNL     1     -11.668  12.451  63.660  1.00  0.00    -0.596 A  
ENDROOT
BRANCH   6  13
HETATM   13  C   UNL     1     -13.031  14.212  68.127  1.00  0.00     1.913 C  
BRANCH  13  14
HETATM   14  C   UNL     1     -12.184  14.719  69.277  1.00  0.00    -0.234 A  
HETATM   15  C   UNL     1     -10.561  15.370  71.464  1.00  0.00     0.515 A  
HETATM   16  C   UNL     1     -12.748  14.897  70.547  1.00  0.00    -0.399 A  
HETATM   17  C   UNL     1     -10.810  14.971  69.105  1.00  0.00    -0.251 A  
HETATM   18  F   UNL     1      -9.812  15.547  72.561  1.00  0.00     2.054 F  
HETATM   19  C   UNL     1      -9.991  15.328  70.195  1.00  0.00    -0.051 A  
HETATM   20  C   UNL     1     -11.936  15.210  71.637  1.00  0.00    -0.432 A  
BRANCH  19  21
HETATM   21  C   UNL     1      -8.541  15.522  69.931  1.00  0.00     0.193 C  
HETATM   22  N   UNL     1      -8.047  16.639  69.255  1.00  0.00    -0.136 N  
HETATM   23  C   UNL     1      -6.596  16.734  69.020  1.00  0.00    -0.205 C  
HETATM   24  O   UNL     1      -7.800  14.601  70.286  1.00  0.00     0.397 OA 
HETATM   25  C   UNL     1      -6.287  16.969  67.533  1.00  0.00    -0.149 C  
HETATM   26  N   UNL     1      -7.039  18.120  67.012  1.00  0.00    -0.192 N  
HETATM   27  C   UNL     1      -8.482  18.048  67.244  1.00  0.00    -0.234 C  
HETATM   28  C   UNL     1      -6.366  19.108  66.310  1.00  0.00    -0.181 C  
HETATM   29  C   UNL     1      -8.809  17.773  68.718  1.00  0.00    -0.202 C  
HETATM   30  O   UNL     1      -5.151  19.087  66.140  1.00  0.00    -0.142 OA 
BRANCH  28  31
HETATM   31  C   UNL     1      -7.150  20.267  65.779  1.00  0.00    -0.284 C  
HETATM   32  C   UNL     1      -8.640  20.323  66.037  1.00  0.00    -0.091 C  
HETATM   33  C   UNL     1      -7.731  21.298  66.723  1.00  0.00     0.416 C  
ENDBRANCH  28  31
ENDBRANCH  19  21
ENDBRANCH  13  14
ENDBRANCH   6  13
TORSDOF 4
ENDMDL
MODEL      273
REMARK 921   NORMALIZED FREE ENERGY PREDICTED BY IDOCK:    2.99 KCAL/MOL
REMARK 922        TOTAL FREE ENERGY PREDICTED BY IDOCK:    2.94 KCAL/MOL
REMARK 923 INTER-LIGAND FREE ENERGY PREDICTED BY IDOCK:    1.35 KCAL/MOL
REMARK 924 INTRA-LIGAND FREE ENERGY PREDICTED BY IDOCK:    1.59 KCAL/MOL
REMARK 927      BINDING AFFINITY PREDICTED BY RF-SCORE:    0.00 PKD
ROOT
HETATM    1  O   UNL     1     -10.550   9.598  63.611  1.00  0.00     0.999 OA 
HETATM    2  C   UNL     1      -9.892  10.639  64.193  1.00  0.00    -0.335 A  
HETATM    3  H   UNL     1     -11.423   9.814  63.306  1.00  0.00     0.000 HD 
HETATM    4  N   UNL     1      -8.657  10.334  64.625  1.00  0.00    -0.178 NA 
HETATM    5  N   UNL     1      -7.917  11.295  65.231  1.00  0.00     0.325 NA 
HETATM    6  C   UNL     1      -8.419  12.547  65.390  1.00  0.00     1.626 A  
HETATM    7  C   UNL     1      -9.710  12.902  64.927  1.00  0.00     0.072 A  
HETATM    8  C   UNL     1     -12.325  13.457  63.972  1.00  0.00    -0.402 A  
HETATM    9  C   UNL     1     -10.288  14.193  65.034  1.00  0.00    -0.443 A  
HETATM   10  C   UNL     1     -10.481  11.894  64.311  1.00  0.00    -0.370 A  
HETATM   11  C   UNL     1     -11.574  14.466  64.558  1.00  0.00    -0.393 A  
HETATM   12  C   UNL     1     -11.783  12.180  63.848  1.00  0.00    -0.546 A  
ENDROOT
BRANCH   6  13
HETATM   13  C   UNL     1      -7.551  13.559  66.106  1.00  0.00     2.683 C  
BRANCH  13  14
HETATM   14  C   UNL     1      -8.232  14.518  67.064  1.00  0.00    -0.164 A  
HETATM   15  C   UNL     1      -9.679  16.348  68.611  1.00  0.00    -0.239 A  
HETATM   16  C   UNL     1      -7.841  15.862  67.118  1.00  0.00    -0.249 A  
HETATM   17  C   UNL     1      -9.298  14.090  67.877  1.00  0.00    -0.206 A  
HETATM   18  F   UNL     1     -10.417  17.284  69.225  1.00  0.00    -0.318 F  
HETATM   19  C   UNL     1     -10.014  14.999  68.681  1.00  0.00    -0.220 A  
HETATM   20  C   UNL     1      -8.570  16.774  67.880  1.00  0.00    -0.202 A  
BRANCH  19  21
HETATM   21  C   UNL     1     -11.159  14.469  69.465  1.00  0.00    -0.253 C  
HETATM   22  N   UNL     1     -11.178  13.171  69.977  1.00  0.00     0.111 N  
HETATM   23  C   UNL     1     -12.368  12.726  70.724  1.00  0.00    -0.287 C  
HETATM   24  O   UNL     1     -12.128  15.224  69.583  1.00  0.00    -0.323 OA 
HETATM   25  C   UNL     1     -12.927  11.414  70.150  1.00  0.00     0.261 C  
HETATM   26  N   UNL     1     -11.880  10.388  70.058  1.00  0.00    -0.276 N  
HETATM   27  C   UNL     1     -10.685  10.813  69.327  1.00  0.00    -0.229 C  
HETATM   28  C   UNL     1     -12.117   9.127  70.584  1.00  0.00    -0.068 C  
HETATM   29  C   UNL     1     -10.136  12.143  69.860  1.00  0.00     1.751 C  
HETATM   30  O   UNL     1     -13.157   8.839  71.168  1.00  0.00    -0.217 OA 
BRANCH  28  31
HETATM   31  C   UNL     1     -11.041   8.092  70.471  1.00  0.00    -0.257 C  
HETATM   32  C   UNL     1     -10.956   7.258  69.212  1.00  0.00    -0.121 C  
HETATM   33  C   UNL     1      -9.895   8.278  69.501  1.00  0.00    -0.181 C  
ENDBRANCH  28  31
ENDBRANCH  19  21
ENDBRANCH  13  14
ENDBRANCH   6  13
TORSDOF 4
ENDMDL
MODEL      274
REMARK 921   NORMALIZED FREE ENERGY PREDICTED BY IDOCK:    5.23 KCAL/MOL
REMARK 922        TOTAL FREE ENERGY PREDICTED BY IDOCK:    5.71 KCAL/MOL
REMARK 923 INTER-LIGAND FREE ENERGY PREDICTED BY IDOCK:    4.09 KCAL/MOL
REMARK 924 INTRA-LIGAND FREE ENERGY PREDICTED BY IDOCK:    1.62 KCAL/MOL
REMARK 927      BINDING AFFINITY PREDICTED BY RF-SCORE:    0.00 PKD
ROOT
HETATM    1  O   UNL     1      -8.199  20.333  67.060  1.00  0.00    -0.315 OA 
HETATM    2  C   UNL     1      -8.973  19.293  67.477  1.00  0.00    -0.298 A  
HETATM    3  H   UNL     1      -8.117  21.034  67.696  1.00  0.00     0.000 HD 
HETATM    4  N   UNL     1      -9.089  18.303  66.576  1.00  0.00    -0.298 NA 
HETATM    5  N   UNL     1      -9.848  17.221  66.884  1.00  0.00    -0.275 NA 
HETATM    6  C   UNL     1     -10.472  17.144  68.088  1.00  0.00    -0.366 A  
HETATM    7  C   UNL     1     -10.352  18.164  69.064  1.00  0.00    -0.135 A  
HETATM    8  C   UNL     1     -10.037  20.300  70.906  1.00  0.00     1.800 A  
HETATM    9  C   UNL     1     -10.951  18.138  70.349  1.00  0.00     2.434 A  
HETATM   10  C   UNL     1      -9.573  19.293  68.732  1.00  0.00    -0.485 A  
HETATM   11  C   UNL     1     -10.791  19.189  71.257  1.00  0.00     3.695 A  
HETATM   12  C   UNL     1      -9.432  20.352  69.652  1.00  0.00     0.776 A  
ENDROOT
BRANCH   6  13
HETATM   13  C   UNL     1     -11.331  15.925  68.349  1.00  0.00    -0.361 C  
BRANCH  13  14
HETATM   14  C   UNL     1     -10.687  14.561  68.184  1.00  0.00    -0.240 A  
HETATM   15  C   UNL     1      -9.774  11.933  67.877  1.00  0.00    -0.192 A  
HETATM   16  C   UNL     1     -10.362  13.791  69.308  1.00  0.00     0.105 A  
HETATM   17  C   UNL     1     -10.451  14.026  66.905  1.00  0.00    -0.276 A  
HETATM   18  F   UNL     1      -9.466  10.631  67.788  1.00  0.00    -0.149 F  
HETATM   19  C   UNL     1      -9.964  12.713  66.741  1.00  0.00    -0.237 A  
HETATM   20  C   UNL     1      -9.919  12.478  69.153  1.00  0.00     0.361 A  
BRANCH  19  21
HETATM   21  C   UNL     1      -9.796  12.210  65.353  1.00  0.00    -0.211 C  
HETATM   22  N   UNL     1      -9.015  11.094  65.051  1.00  0.00    -0.126 N  
HETATM   23  C   UNL     1      -8.889  10.682  63.642  1.00  0.00    -0.177 C  
HETATM   24  O   UNL     1     -10.336  12.879  64.467  1.00  0.00    -0.351 OA 
HETATM   25  C   UNL     1      -7.415  10.554  63.229  1.00  0.00     0.011 C  
HETATM   26  N   UNL     1      -6.679   9.685  64.157  1.00  0.00    -0.107 N  
HETATM   27  C   UNL     1      -6.798  10.072  65.564  1.00  0.00    -0.120 C  
HETATM   28  C   UNL     1      -5.903   8.653  63.651  1.00  0.00    -0.072 C  
HETATM   29  C   UNL     1      -8.263  10.244  65.984  1.00  0.00    -0.141 C  
HETATM   30  O   UNL     1      -5.839   8.402  62.451  1.00  0.00    -0.081 OA 
BRANCH  28  31
HETATM   31  C   UNL     1      -5.154   7.785  64.612  1.00  0.00    -0.029 C  
HETATM   32  C   UNL     1      -5.920   7.066  65.701  1.00  0.00    -0.036 C  
HETATM   33  C   UNL     1      -5.316   6.281  64.575  1.00  0.00    -0.018 C  
ENDBRANCH  28  31
ENDBRANCH  19  21
ENDBRANCH  13  14
ENDBRANCH   6  13
TORSDOF 4
ENDMDL
MODEL      275
REMARK 921   NORMALIZED FREE ENERGY PREDICTED BY IDOCK:    6.31 KCAL/MOL
REMARK 922        TOTAL FREE ENERGY PREDICTED BY IDOCK:    7.04 KCAL/MOL
REMARK 923 INTER-LIGAND FREE ENERGY PREDICTED BY IDOCK:    7.75 KCAL/MOL
REMARK 924 INTRA-LIGAND FREE ENERGY PREDICTED BY IDOCK:   -0.72 KCAL/MOL
REMARK 927      BINDING AFFINITY PREDICTED BY RF-SCORE:    0.00 PKD
ROOT
HETATM    1  O   UNL     1     -12.035   9.754  62.346  1.00  0.00     4.151 OA 
HETATM    2  C   UNL     1     -11.467  10.862  62.896  1.00  0.00     1.431 A  
HETATM    3  H   UNL     1     -11.409   9.124  62.010  1.00  0.00     0.000 HD 
HETATM    4  N   UNL     1     -12.353  11.754  63.371  1.00  0.00    -0.475 NA 
HETATM    5  N   UNL     1     -11.894  12.901  63.931  1.00  0.00    -0.435 NA 
HETATM    6  C   UNL     1     -10.559  13.137  64.012  1.00  0.00    -0.276 A  
HETATM    7  C   UNL     1      -9.602  12.207  63.537  1.00  0.00     0.003 A  
HETATM    8  C   UNL     1      -7.806  10.260  62.517  1.00  0.00    -0.158 A  
HETATM    9  C   UNL     1      -8.196  12.373  63.613  1.00  0.00     3.750 A  
HETATM   10  C   UNL     1     -10.085  11.022  62.943  1.00  0.00    -0.209 A  
HETATM   11  C   UNL     1      -7.312  11.411  63.115  1.00  0.00     1.193 A  
HETATM   12  C   UNL     1      -9.183  10.066  62.431  1.00  0.00    -0.319 A  
ENDROOT
BRANCH   6  13
HETATM   13  C   UNL     1     -10.121  14.454  64.616  1.00  0.00     0.059 C  
BRANCH  13  14
HETATM   14  C   UNL     1     -10.101  14.563  66.129  1.00  0.00    -0.319 A  
HETATM   15  C   UNL     1     -10.229  14.516  68.925  1.00  0.00    -0.229 A  
HETATM   16  C   UNL     1     -11.113  15.261  66.802  1.00  0.00    -0.278 A  
HETATM   17  C   UNL     1      -9.099  13.927  66.885  1.00  0.00    -0.257 A  
HETATM   18  F   UNL     1     -10.411  14.411  70.249  1.00  0.00     0.033 F  
HETATM   19  C   UNL     1      -9.139  13.922  68.293  1.00  0.00    -0.191 A  
HETATM   20  C   UNL     1     -11.181  15.226  68.194  1.00  0.00    -0.328 A  
BRANCH  19  21
HETATM   21  C   UNL     1      -8.070  13.179  69.009  1.00  0.00     0.326 C  
HETATM   22  N   UNL     1      -7.542  11.980  68.527  1.00  0.00    -0.123 N  
HETATM   23  C   UNL     1      -6.499  11.302  69.318  1.00  0.00    -0.089 C  
HETATM   24  O   UNL     1      -7.720  13.649  70.095  1.00  0.00     1.142 OA 
HETATM   25  C   UNL     1      -6.875   9.839  69.598  1.00  0.00    -0.072 C  
HETATM   26  N   UNL     1      -7.215   9.133  68.355  1.00  0.00    -0.076 N  
HETATM   27  C   UNL     1      -8.244   9.795  67.551  1.00  0.00    -0.114 C  
HETATM   28  C   UNL     1      -6.617   7.912  68.083  1.00  0.00    -0.059 C  
HETATM   29  C   UNL     1      -7.904  11.269  67.295  1.00  0.00    -0.141 C  
HETATM   30  O   UNL     1      -5.774   7.410  68.820  1.00  0.00    -0.021 OA 
BRANCH  28  31
HETATM   31  C   UNL     1      -6.983   7.204  66.816  1.00  0.00    -0.073 C  
HETATM   32  C   UNL     1      -5.880   6.745  65.888  1.00  0.00    -0.030 C  
HETATM   33  C   UNL     1      -6.683   5.731  66.646  1.00  0.00    -0.058 C  
ENDBRANCH  28  31
ENDBRANCH  19  21
ENDBRANCH  13  14
ENDBRANCH   6  13
TORSDOF 4
ENDMDL
MODEL      276
REMARK 921   NORMALIZED FREE ENERGY PREDICTED BY IDOCK:    7.10 KCAL/MOL
REMARK 922        TOTAL FREE ENERGY PREDICTED BY IDOCK:    8.02 KCAL/MOL
REMARK 923 INTER-LIGAND FREE ENERGY PREDICTED BY IDOCK:    5.88 KCAL/MOL
REMARK 924 INTRA-LIGAND FREE ENERGY PREDICTED BY IDOCK:    2.14 KCAL/MOL
REMARK 927      BINDING AFFINITY PREDICTED BY RF-SCORE:    0.00 PKD
ROOT
HETATM    1  O   UNL     1     -11.292  18.593  67.223  1.00  0.00     0.071 OA 
HETATM    2  C   UNL     1     -11.591  17.484  67.954  1.00  0.00     0.934 A  
HETATM    3  H   UNL     1     -11.315  18.456  66.284  1.00  0.00     0.000 HD 
HETATM    4  N   UNL     1     -11.557  17.678  69.283  1.00  0.00     1.742 NA 
HETATM    5  N   UNL     1     -11.830  16.635  70.107  1.00  0.00     0.470 NA 
HETATM    6  C   UNL     1     -12.136  15.417  69.590  1.00  0.00    -0.327 A  
HETATM    7  C   UNL     1     -12.198  15.188  68.193  1.00  0.00     0.147 A  
HETATM    8  C   UNL     1     -12.255  14.876  65.372  1.00  0.00    -0.018 A  
HETATM    9  C   UNL     1     -12.537  13.953  67.583  1.00  0.00     0.426 A  
HETATM   10  C   UNL     1     -11.900  16.273  67.342  1.00  0.00     0.736 A  
HETATM   11  C   UNL     1     -12.570  13.802  66.194  1.00  0.00    -0.423 A  
HETATM   12  C   UNL     1     -11.922  16.103  65.942  1.00  0.00     1.391 A  
ENDROOT
BRANCH   6  13
HETATM   13  C   UNL     1     -12.393  14.291  70.568  1.00  0.00    -0.430 C  
BRANCH  13  14
HETATM   14  C   UNL     1     -11.626  12.997  70.369  1.00  0.00     0.048 A  
HETATM   15  C   UNL     1     -10.375  10.569  69.759  1.00  0.00    -0.166 A  
HETATM   16  C   UNL     1     -12.108  11.799  70.912  1.00  0.00    -0.271 A  
HETATM   17  C   UNL     1     -10.450  12.968  69.599  1.00  0.00     0.698 A  
HETATM   18  F   UNL     1      -9.896   9.373  69.389  1.00  0.00    -0.159 F  
HETATM   19  C   UNL     1      -9.796  11.753  69.310  1.00  0.00     0.343 A  
HETATM   20  C   UNL     1     -11.489  10.589  70.597  1.00  0.00    -0.418 A  
BRANCH  19  21
HETATM   21  C   UNL     1      -8.591  11.809  68.443  1.00  0.00    -0.156 C  
HETATM   22  N   UNL     1      -8.405  10.945  67.363  1.00  0.00    -0.116 N  
HETATM   23  C   UNL     1      -7.167  11.061  66.573  1.00  0.00    -0.143 C  
HETATM   24  O   UNL     1      -7.726  12.625  68.774  1.00  0.00    -0.091 OA 
HETATM   25  C   UNL     1      -6.446   9.708  66.465  1.00  0.00    -0.070 C  
HETATM   26  N   UNL     1      -7.354   8.663  65.974  1.00  0.00    -0.084 N  
HETATM   27  C   UNL     1      -8.595   8.537  66.740  1.00  0.00    -0.114 C  
HETATM   28  C   UNL     1      -6.957   7.862  64.914  1.00  0.00    -0.059 C  
HETATM   29  C   UNL     1      -9.308   9.887  66.893  1.00  0.00    -0.152 C  
HETATM   30  O   UNL     1      -5.887   8.017  64.333  1.00  0.00    -0.050 OA 
BRANCH  28  31
HETATM   31  C   UNL     1      -7.892   6.796  64.434  1.00  0.00    -0.113 C  
HETATM   32  C   UNL     1      -9.245   6.656  65.097  1.00  0.00     0.588 C  
HETATM   33  C   UNL     1      -9.157   7.163  63.689  1.00  0.00     1.647 C  
ENDBRANCH  28  31
ENDBRANCH  19  21
ENDBRANCH  13  14
ENDBRANCH   6  13
TORSDOF 4
ENDMDL
MODEL      277
REMARK 921   NORMALIZED FREE ENERGY PREDICTED BY IDOCK:    8.01 KCAL/MOL
REMARK 922        TOTAL FREE ENERGY PREDICTED BY IDOCK:    9.14 KCAL/MOL
REMARK 923 INTER-LIGAND FREE ENERGY PREDICTED BY IDOCK:   -2.31 KCAL/MOL
REMARK 924 INTRA-LIGAND FREE ENERGY PREDICTED BY IDOCK:   11.45 KCAL/MOL
REMARK 927      BINDING AFFINITY PREDICTED BY RF-SCORE:    0.00 PKD
ROOT
HETATM    1  O   UNL     1     -13.318  12.965  63.696  1.00  0.00     0.082 OA 
HETATM    2  C   UNL     1     -12.454  13.647  64.497  1.00  0.00    -0.287 A  
HETATM    3  H   UNL     1     -13.367  12.035  63.884  1.00  0.00     0.000 HD 
HETATM    4  N   UNL     1     -12.383  14.962  64.231  1.00  0.00    -0.678 NA 
HETATM    5  N   UNL     1     -11.544  15.736  64.964  1.00  0.00    -0.087 NA 
HETATM    6  C   UNL     1     -10.793  15.186  65.953  1.00  0.00    -0.339 A  
HETATM    7  C   UNL     1     -10.862  13.807  66.269  1.00  0.00    -0.283 A  
HETATM    8  C   UNL     1     -11.087  11.021  66.765  1.00  0.00    -0.240 A  
HETATM    9  C   UNL     1     -10.131  13.169  67.303  1.00  0.00    -0.233 A  
HETATM   10  C   UNL     1     -11.726  13.004  65.494  1.00  0.00    -0.408 A  
HETATM   11  C   UNL     1     -10.247  11.798  67.550  1.00  0.00    -0.214 A  
HETATM   12  C   UNL     1     -11.822  11.619  65.744  1.00  0.00     0.192 A  
ENDROOT
BRANCH   6  13
HETATM   13  C   UNL     1      -9.853  16.103  66.705  1.00  0.00    -0.255 C  
BRANCH  13  14
HETATM   14  C   UNL     1      -8.912  15.472  67.714  1.00  0.00    -0.173 A  
HETATM   15  C   UNL     1      -7.401  14.320  69.770  1.00  0.00     0.182 A  
HETATM   16  C   UNL     1      -8.132  16.278  68.555  1.00  0.00    -0.193 A  
HETATM   17  C   UNL     1      -8.842  14.075  67.859  1.00  0.00    -0.185 A  
HETATM   18  F   UNL     1      -6.772  13.831  70.848  1.00  0.00     0.085 F  
HETATM   19  C   UNL     1      -8.061  13.484  68.873  1.00  0.00     0.121 A  
HETATM   20  C   UNL     1      -7.390  15.702  69.585  1.00  0.00    -0.144 A  
BRANCH  19  21
HETATM   21  C   UNL     1      -8.089  12.003  68.987  1.00  0.00     0.212 C  
HETATM   22  N   UNL     1      -7.676  11.165  67.951  1.00  0.00    -0.102 N  
HETATM   23  C   UNL     1      -7.760   9.707  68.147  1.00  0.00    -0.086 C  
HETATM   24  O   UNL     1      -8.563  11.551  70.033  1.00  0.00     1.442 OA 
HETATM   25  C   UNL     1      -8.544   9.036  67.008  1.00  0.00    -0.116 C  
HETATM   26  N   UNL     1      -8.001   9.416  65.697  1.00  0.00    -0.102 N  
HETATM   27  C   UNL     1      -7.900  10.861  65.485  1.00  0.00     0.031 C  
HETATM   28  C   UNL     1      -7.704   8.427  64.772  1.00  0.00    -0.109 C  
HETATM   29  C   UNL     1      -7.156  11.554  66.633  1.00  0.00    -0.069 C  
HETATM   30  O   UNL     1      -7.834   7.231  65.019  1.00  0.00    -0.111 OA 
BRANCH  28  31
HETATM   31  C   UNL     1      -7.161   8.835  63.439  1.00  0.00    -0.089 C  
HETATM   32  C   UNL     1      -5.662   8.955  63.263  1.00  0.00    -0.073 C  
HETATM   33  C   UNL     1      -6.404   7.844  62.582  1.00  0.00    -0.077 C  
ENDBRANCH  28  31
ENDBRANCH  19  21
ENDBRANCH  13  14
ENDBRANCH   6  13
TORSDOF 4
ENDMDL
MODEL      278
REMARK 921   NORMALIZED FREE ENERGY PREDICTED BY IDOCK:    9.43 KCAL/MOL
REMARK 922        TOTAL FREE ENERGY PREDICTED BY IDOCK:   10.89 KCAL/MOL
REMARK 923 INTER-LIGAND FREE ENERGY PREDICTED BY IDOCK:    8.08 KCAL/MOL
REMARK 924 INTRA-LIGAND FREE ENERGY PREDICTED BY IDOCK:    2.81 KCAL/MOL
REMARK 927      BINDING AFFINITY PREDICTED BY RF-SCORE:    0.00 PKD
ROOT
HETATM    1  O   UNL     1     -11.913  19.313  69.191  1.00  0.00     3.897 OA 
HETATM    2  C   UNL     1     -11.602  18.243  68.407  1.00  0.00     1.943 A  
HETATM    3  H   UNL     1     -11.365  20.074  69.041  1.00  0.00     0.000 HD 
HETATM    4  N   UNL     1     -12.376  17.165  68.619  1.00  0.00     1.826 NA 
HETATM    5  N   UNL     1     -12.146  16.040  67.899  1.00  0.00     0.409 NA 
HETATM    6  C   UNL     1     -11.150  16.009  66.975  1.00  0.00    -0.071 A  
HETATM    7  C   UNL     1     -10.331  17.136  66.717  1.00  0.00    -0.302 A  
HETATM    8  C   UNL     1      -8.755  19.465  66.332  1.00  0.00    -0.376 A  
HETATM    9  C   UNL     1      -9.294  17.187  65.751  1.00  0.00     0.076 A  
HETATM   10  C   UNL     1     -10.567  18.300  67.480  1.00  0.00    -0.432 A  
HETATM   11  C   UNL     1      -8.522  18.336  65.559  1.00  0.00     0.948 A  
HETATM   12  C   UNL     1      -9.771  19.448  67.285  1.00  0.00    -0.428 A  
ENDROOT
BRANCH   6  13
HETATM   13  C   UNL     1     -10.927  14.708  66.235  1.00  0.00    -0.327 C  
BRANCH  13  14
HETATM   14  C   UNL     1     -10.106  13.637  66.925  1.00  0.00    -0.260 A  
HETATM   15  C   UNL     1      -8.572  11.844  68.432  1.00  0.00    -0.152 A  
HETATM   16  C   UNL     1      -8.711  13.623  66.801  1.00  0.00    -0.101 A  
HETATM   17  C   UNL     1     -10.723  12.670  67.741  1.00  0.00    -0.239 A  
HETATM   18  F   UNL     1      -7.789  11.103  69.229  1.00  0.00    -0.134 F  
HETATM   19  C   UNL     1      -9.960  11.745  68.481  1.00  0.00    -0.203 A  
HETATM   20  C   UNL     1      -7.948  12.737  67.561  1.00  0.00    -0.177 A  
BRANCH  19  21
HETATM   21  C   UNL     1     -10.692  10.795  69.359  1.00  0.00    -0.233 C  
HETATM   22  N   UNL     1     -10.126  10.259  70.516  1.00  0.00     0.106 N  
HETATM   23  C   UNL     1     -10.921   9.307  71.313  1.00  0.00    -0.351 C  
HETATM   24  O   UNL     1     -11.812  10.454  68.969  1.00  0.00    -0.170 OA 
HETATM   25  C   UNL     1     -10.147   8.002  71.555  1.00  0.00    -0.180 C  
HETATM   26  N   UNL     1      -8.820   8.272  72.125  1.00  0.00    -0.182 N  
HETATM   27  C   UNL     1      -8.017   9.222  71.353  1.00  0.00     0.193 C  
HETATM   28  C   UNL     1      -8.416   7.585  73.260  1.00  0.00    -0.137 C  
HETATM   29  C   UNL     1      -8.789  10.517  71.066  1.00  0.00     3.243 C  
HETATM   30  O   UNL     1      -9.142   6.785  73.842  1.00  0.00    -0.147 OA 
BRANCH  28  31
HETATM   31  C   UNL     1      -7.057   7.867  73.820  1.00  0.00    -0.151 C  
HETATM   32  C   UNL     1      -5.859   7.816  72.896  1.00  0.00    -0.045 C  
HETATM   33  C   UNL     1      -6.319   9.134  73.445  1.00  0.00     0.235 C  
ENDBRANCH  28  31
ENDBRANCH  19  21
ENDBRANCH  13  14
ENDBRANCH   6  13
TORSDOF 4
ENDMDL
MODEL      279
REMARK 921   NORMALIZED FREE ENERGY PREDICTED BY IDOCK:   11.40 KCAL/MOL
REMARK 922        TOTAL FREE ENERGY PREDICTED BY IDOCK:   13.32 KCAL/MOL
REMARK 923 INTER-LIGAND FREE ENERGY PREDICTED BY IDOCK:   10.80 KCAL/MOL
REMARK 924 INTRA-LIGAND FREE ENERGY PREDICTED BY IDOCK:    2.52 KCAL/MOL
REMARK 927      BINDING AFFINITY PREDICTED BY RF-SCORE:    0.00 PKD
ROOT
HETATM    1  O   UNL     1      -8.209  17.106  70.223  1.00  0.00     2.045 OA 
HETATM    2  C   UNL     1      -9.155  16.148  70.424  1.00  0.00     1.697 A  
HETATM    3  H   UNL     1      -8.415  17.944  70.621  1.00  0.00     0.000 HD 
HETATM    4  N   UNL     1      -8.863  14.963  69.860  1.00  0.00     0.210 NA 
HETATM    5  N   UNL     1      -9.743  13.940  69.990  1.00  0.00     1.451 NA 
HETATM    6  C   UNL     1     -10.897  14.113  70.686  1.00  0.00     0.853 A  
HETATM    7  C   UNL     1     -11.222  15.344  71.307  1.00  0.00    -0.407 A  
HETATM    8  C   UNL     1     -11.746  17.879  72.473  1.00  0.00     2.820 A  
HETATM    9  C   UNL     1     -12.392  15.590  72.070  1.00  0.00    -0.478 A  
HETATM   10  C   UNL     1     -10.309  16.409  71.156  1.00  0.00     1.612 A  
HETATM   11  C   UNL     1     -12.646  16.837  72.648  1.00  0.00     0.717 A  
HETATM   12  C   UNL     1     -10.585  17.667  71.732  1.00  0.00     3.272 A  
ENDROOT
BRANCH   6  13
HETATM   13  C   UNL     1     -11.849  12.938  70.759  1.00  0.00     0.092 C  
BRANCH  13  14
HETATM   14  C   UNL     1     -11.451  11.664  70.040  1.00  0.00    -0.266 A  
HETATM   15  C   UNL     1     -10.439   9.365  68.804  1.00  0.00    -0.212 A  
HETATM   16  C   UNL     1     -11.036  11.705  68.703  1.00  0.00    -0.266 A  
HETATM   17  C   UNL     1     -11.443  10.428  70.713  1.00  0.00    -0.422 A  
HETATM   18  F   UNL     1      -9.823   8.331  68.214  1.00  0.00    -0.158 F  
HETATM   19  C   UNL     1     -10.962   9.259  70.090  1.00  0.00    -0.278 A  
HETATM   20  C   UNL     1     -10.521  10.561  68.093  1.00  0.00    -0.217 A  
BRANCH  19  21
HETATM   21  C   UNL     1     -10.940   8.010  70.894  1.00  0.00    -0.243 C  
HETATM   22  N   UNL     1     -10.175   6.901  70.531  1.00  0.00    -0.191 N  
HETATM   23  C   UNL     1     -10.233   5.697  71.379  1.00  0.00    -0.214 C  
HETATM   24  O   UNL     1     -11.692   7.984  71.872  1.00  0.00    -0.273 OA 
HETATM   25  C   UNL     1     -10.580   4.449  70.552  1.00  0.00     0.599 C  
HETATM   26  N   UNL     1      -9.675   4.309  69.402  1.00  0.00    -0.200 N  
HETATM   27  C   UNL     1      -9.596   5.497  68.551  1.00  0.00    -0.127 C  
HETATM   28  C   UNL     1      -9.047   3.093  69.178  1.00  0.00    -0.138 C  
HETATM   29  C   UNL     1      -9.291   6.761  69.367  1.00  0.00    -0.148 C  
HETATM   30  O   UNL     1      -9.179   2.132  69.930  1.00  0.00    -0.099 OA 
BRANCH  28  31
HETATM   31  C   UNL     1      -8.137   2.967  67.997  1.00  0.00    -0.076 C  
HETATM   32  C   UNL     1      -7.414   1.657  67.766  1.00  0.00    -0.054 C  
HETATM   33  C   UNL     1      -8.509   2.076  66.832  1.00  0.00    -0.102 C  
ENDBRANCH  28  31
ENDBRANCH  19  21
ENDBRANCH  13  14
ENDBRANCH   6  13
TORSDOF 4
ENDMDL
MODEL      280
REMARK 921   NORMALIZED FREE ENERGY PREDICTED BY IDOCK:   13.85 KCAL/MOL
REMARK 922        TOTAL FREE ENERGY PREDICTED BY IDOCK:   16.34 KCAL/MOL
REMARK 923 INTER-LIGAND FREE ENERGY PREDICTED BY IDOCK:   16.73 KCAL/MOL
REMARK 924 INTRA-LIGAND FREE ENERGY PREDICTED BY IDOCK:   -0.39 KCAL/MOL
REMARK 927      BINDING AFFINITY PREDICTED BY RF-SCORE:    0.00 PKD
ROOT
HETATM    1  O   UNL     1      -8.689  19.356  67.894  1.00  0.00    -0.301 OA 
HETATM    2  C   UNL     1      -9.550  18.462  68.455  1.00  0.00    -0.345 A  
HETATM    3  H   UNL     1      -8.506  20.112  68.439  1.00  0.00     0.000 HD 
HETATM    4  N   UNL     1      -9.809  17.393  67.684  1.00  0.00    -0.274 NA 
HETATM    5  N   UNL     1     -10.662  16.444  68.142  1.00  0.00    -0.323 NA 
HETATM    6  C   UNL     1     -11.239  16.575  69.365  1.00  0.00    -0.188 A  
HETATM    7  C   UNL     1     -10.970  17.681  70.207  1.00  0.00     1.478 A  
HETATM    8  C   UNL     1     -10.354  19.969  71.770  1.00  0.00     3.473 A  
HETATM    9  C   UNL     1     -11.513  17.871  71.504  1.00  0.00     3.431 A  
HETATM   10  C   UNL     1     -10.092  18.672  69.719  1.00  0.00     0.598 A  
HETATM   11  C   UNL     1     -11.205  18.996  72.275  1.00  0.00     5.184 A  
HETATM   12  C   UNL     1      -9.801  19.809  70.502  1.00  0.00     1.101 A  
ENDROOT
BRANCH   6  13
HETATM   13  C   UNL     1     -12.209  15.496  69.796  1.00  0.00    -0.328 C  
BRANCH  13  14
HETATM   14  C   UNL     1     -11.753  14.054  69.686  1.00  0.00    -0.368 A  
HETATM   15  C   UNL     1     -11.191  11.315  69.542  1.00  0.00    -0.272 A  
HETATM   16  C   UNL     1     -11.307  13.363  70.821  1.00  0.00     0.910 A  
HETATM   17  C   UNL     1     -11.814  13.369  68.458  1.00  0.00    -0.401 A  
HETATM   18  F   UNL     1     -11.041   9.983  69.557  1.00  0.00    -0.221 F  
HETATM   19  C   UNL     1     -11.505  11.997  68.370  1.00  0.00    -0.356 A  
HETATM   20  C   UNL     1     -11.040  11.996  70.750  1.00  0.00     1.916 A  
BRANCH  19  21
HETATM   21  C   UNL     1     -11.650  11.343  67.044  1.00  0.00    -0.051 C  
HETATM   22  N   UNL     1     -10.563  10.809  66.351  1.00  0.00    -0.232 N  
HETATM   23  C   UNL     1     -10.800  10.198  65.031  1.00  0.00     0.942 C  
HETATM   24  O   UNL     1     -12.783  11.358  66.556  1.00  0.00     2.147 OA 
HETATM   25  C   UNL     1      -9.877  10.805  63.963  1.00  0.00    -0.332 C  
HETATM   26  N   UNL     1      -8.470  10.750  64.386  1.00  0.00    -0.063 N  
HETATM   27  C   UNL     1      -8.215  11.343  65.700  1.00  0.00     0.231 C  
HETATM   28  C   UNL     1      -7.521  10.228  63.520  1.00  0.00    -0.098 C  
HETATM   29  C   UNL     1      -9.156  10.778  66.772  1.00  0.00    -0.154 C  
HETATM   30  O   UNL     1      -7.813   9.765  62.422  1.00  0.00    -0.113 OA 
BRANCH  28  31
HETATM   31  C   UNL     1      -6.093  10.189  63.966  1.00  0.00    -0.137 C  
HETATM   32  C   UNL     1      -5.746   9.469  65.250  1.00  0.00    -0.059 C  
HETATM   33  C   UNL     1      -5.315   8.892  63.935  1.00  0.00    -0.061 C  
ENDBRANCH  28  31
ENDBRANCH  19  21
ENDBRANCH  13  14
ENDBRANCH   6  13
TORSDOF 4
ENDMDL
MODEL      281
REMARK 921   NORMALIZED FREE ENERGY PREDICTED BY IDOCK:   15.09 KCAL/MOL
REMARK 922        TOTAL FREE ENERGY PREDICTED BY IDOCK:   17.87 KCAL/MOL
REMARK 923 INTER-LIGAND FREE ENERGY PREDICTED BY IDOCK:   15.56 KCAL/MOL
REMARK 924 INTRA-LIGAND FREE ENERGY PREDICTED BY IDOCK:    2.31 KCAL/MOL
REMARK 927      BINDING AFFINITY PREDICTED BY RF-SCORE:    0.00 PKD
ROOT
HETATM    1  O   UNL     1     -12.467  15.647  73.457  1.00  0.00    -0.431 OA 
HETATM    2  C   UNL     1     -12.025  14.982  72.354  1.00  0.00    -0.348 A  
HETATM    3  H   UNL     1     -13.105  16.326  73.271  1.00  0.00     0.000 HD 
HETATM    4  N   UNL     1     -11.122  14.023  72.618  1.00  0.00     2.847 NA 
HETATM    5  N   UNL     1     -10.607  13.305  71.589  1.00  0.00     5.971 NA 
HETATM    6  C   UNL     1     -11.006  13.552  70.315  1.00  0.00     0.775 A  
HETATM    7  C   UNL     1     -11.970  14.543  70.009  1.00  0.00    -0.388 A  
HETATM    8  C   UNL     1     -13.892  16.582  69.550  1.00  0.00     5.820 A  
HETATM    9  C   UNL     1     -12.454  14.837  68.708  1.00  0.00     0.122 A  
HETATM   10  C   UNL     1     -12.492  15.297  71.082  1.00  0.00    -0.438 A  
HETATM   11  C   UNL     1     -13.404  15.838  68.484  1.00  0.00     3.620 A  
HETATM   12  C   UNL     1     -13.439  16.313  70.840  1.00  0.00     2.184 A  
ENDROOT
BRANCH   6  13
HETATM   13  C   UNL     1     -10.362  12.737  69.214  1.00  0.00     0.291 C  
BRANCH  13  14
HETATM   14  C   UNL     1     -10.695  13.104  67.780  1.00  0.00    -0.252 A  
HETATM   15  C   UNL     1     -11.558  13.902  65.240  1.00  0.00    -0.327 A  
HETATM   16  C   UNL     1     -11.442  12.228  66.981  1.00  0.00    -0.419 A  
HETATM   17  C   UNL     1     -10.304  14.344  67.244  1.00  0.00    -0.260 A  
HETATM   18  F   UNL     1     -12.108  14.287  64.079  1.00  0.00    -0.465 F  
HETATM   19  C   UNL     1     -10.710  14.743  65.955  1.00  0.00    -0.320 A  
HETATM   20  C   UNL     1     -11.881  12.634  65.720  1.00  0.00    -0.497 A  
BRANCH  19  21
HETATM   21  C   UNL     1     -10.297  16.093  65.491  1.00  0.00    -0.367 C  
HETATM   22  N   UNL     1      -9.192  16.760  66.022  1.00  0.00    -0.244 N  
HETATM   23  C   UNL     1      -8.872  18.106  65.514  1.00  0.00     1.079 C  
HETATM   24  O   UNL     1     -11.029  16.623  64.651  1.00  0.00    -0.793 OA 
HETATM   25  C   UNL     1      -8.751  19.120  66.663  1.00  0.00    -0.320 C  
HETATM   26  N   UNL     1      -7.813  18.647  67.690  1.00  0.00    -0.234 N  
HETATM   27  C   UNL     1      -8.109  17.308  68.202  1.00  0.00    -0.229 C  
HETATM   28  C   UNL     1      -6.806  19.492  68.131  1.00  0.00    -0.271 C  
HETATM   29  C   UNL     1      -8.273  16.289  67.066  1.00  0.00    -0.205 C  
HETATM   30  O   UNL     1      -6.634  20.614  67.665  1.00  0.00    -0.267 OA 
BRANCH  28  31
HETATM   31  C   UNL     1      -5.867  18.995  69.185  1.00  0.00    -0.242 C  
HETATM   32  C   UNL     1      -5.412  19.948  70.269  1.00  0.00    -0.283 C  
HETATM   33  C   UNL     1      -6.338  18.820  70.612  1.00  0.00     0.451 C  
ENDBRANCH  28  31
ENDBRANCH  19  21
ENDBRANCH  13  14
ENDBRANCH   6  13
TORSDOF 4
ENDMDL
MODEL      282
REMARK 921   NORMALIZED FREE ENERGY PREDICTED BY IDOCK:   15.15 KCAL/MOL
REMARK 922        TOTAL FREE ENERGY PREDICTED BY IDOCK:   17.95 KCAL/MOL
REMARK 923 INTER-LIGAND FREE ENERGY PREDICTED BY IDOCK:   16.64 KCAL/MOL
REMARK 924 INTRA-LIGAND FREE ENERGY PREDICTED BY IDOCK:    1.31 KCAL/MOL
REMARK 927      BINDING AFFINITY PREDICTED BY RF-SCORE:    0.00 PKD
ROOT
HETATM    1  O   UNL     1      -9.191   7.763  66.181  1.00  0.00    -0.234 OA 
HETATM    2  C   UNL     1      -9.193   8.768  67.100  1.00  0.00    -0.136 A  
HETATM    3  H   UNL     1      -8.359   7.311  66.103  1.00  0.00     0.000 HD 
HETATM    4  N   UNL     1     -10.369   9.408  67.210  1.00  0.00    -0.245 NA 
HETATM    5  N   UNL     1     -10.479  10.434  68.090  1.00  0.00    -0.175 NA 
HETATM    6  C   UNL     1      -9.415  10.801  68.850  1.00  0.00    -0.181 A  
HETATM    7  C   UNL     1      -8.168  10.131  68.770  1.00  0.00    -0.113 A  
HETATM    8  C   UNL     1      -5.728   8.712  68.477  1.00  0.00    -0.038 A  
HETATM    9  C   UNL     1      -7.025  10.440  69.550  1.00  0.00    -0.102 A  
HETATM   10  C   UNL     1      -8.056   9.074  67.842  1.00  0.00    -0.106 A  
HETATM   11  C   UNL     1      -5.825   9.737  69.408  1.00  0.00    -0.033 A  
HETATM   12  C   UNL     1      -6.835   8.382  67.699  1.00  0.00    -0.067 A  
ENDROOT
BRANCH   6  13
HETATM   13  C   UNL     1      -9.599  11.977  69.785  1.00  0.00     1.848 C  
BRANCH  13  14
HETATM   14  C   UNL     1      -8.508  13.030  69.815  1.00  0.00     2.204 A  
HETATM   15  C   UNL     1      -6.301  14.750  69.907  1.00  0.00    -0.158 A  
HETATM   16  C   UNL     1      -8.106  13.599  71.031  1.00  0.00     5.782 A  
HETATM   17  C   UNL     1      -7.847  13.418  68.635  1.00  0.00    -0.073 A  
HETATM   18  F   UNL     1      -5.174  15.467  70.024  1.00  0.00    -0.099 F  
HETATM   19  C   UNL     1      -6.753  14.306  68.668  1.00  0.00    -0.092 A  
HETATM   20  C   UNL     1      -6.999  14.446  71.075  1.00  0.00     1.024 A  
BRANCH  19  21
HETATM   21  C   UNL     1      -6.080  14.617  67.380  1.00  0.00     0.227 C  
HETATM   22  N   UNL     1      -5.877  15.926  66.940  1.00  0.00     0.292 N  
HETATM   23  C   UNL     1      -5.221  16.137  65.638  1.00  0.00     3.829 C  
HETATM   24  O   UNL     1      -5.769  13.646  66.685  1.00  0.00     1.046 OA 
HETATM   25  C   UNL     1      -6.063  17.046  64.730  1.00  0.00     4.114 C  
HETATM   26  N   UNL     1      -6.413  18.298  65.415  1.00  0.00    -0.236 N  
HETATM   27  C   UNL     1      -7.060  18.111  66.715  1.00  0.00    -0.207 C  
HETATM   28  C   UNL     1      -6.183  19.508  64.778  1.00  0.00    -0.270 C  
HETATM   29  C   UNL     1      -6.252  17.171  67.621  1.00  0.00    -0.144 C  
HETATM   30  O   UNL     1      -5.652  19.583  63.674  1.00  0.00    -0.274 OA 
BRANCH  28  31
HETATM   31  C   UNL     1      -6.555  20.772  65.488  1.00  0.00    -0.192 C  
HETATM   32  C   UNL     1      -7.457  20.692  66.700  1.00  0.00    -0.222 C  
HETATM   33  C   UNL     1      -6.015  21.064  66.871  1.00  0.00    -0.329 C  
ENDBRANCH  28  31
ENDBRANCH  19  21
ENDBRANCH  13  14
ENDBRANCH   6  13
TORSDOF 4
ENDMDL
MODEL      283
REMARK 921   NORMALIZED FREE ENERGY PREDICTED BY IDOCK:   18.34 KCAL/MOL
REMARK 922        TOTAL FREE ENERGY PREDICTED BY IDOCK:   21.88 KCAL/MOL
REMARK 923 INTER-LIGAND FREE ENERGY PREDICTED BY IDOCK:   20.67 KCAL/MOL
REMARK 924 INTRA-LIGAND FREE ENERGY PREDICTED BY IDOCK:    1.21 KCAL/MOL
REMARK 927      BINDING AFFINITY PREDICTED BY RF-SCORE:    0.00 PKD
ROOT
HETATM    1  O   UNL     1      -8.822  12.855  71.765  1.00  0.00    14.535 OA 
HETATM    2  C   UNL     1      -9.106  12.573  70.463  1.00  0.00     6.808 A  
HETATM    3  H   UNL     1      -9.113  13.714  72.047  1.00  0.00     0.000 HD 
HETATM    4  N   UNL     1      -8.693  11.358  70.063  1.00  0.00     1.583 NA 
HETATM    5  N   UNL     1      -8.915  10.978  68.781  1.00  0.00    -0.166 NA 
HETATM    6  C   UNL     1      -9.550  11.814  67.919  1.00  0.00    -0.187 A  
HETATM    7  C   UNL     1     -10.013  13.093  68.317  1.00  0.00    -0.236 A  
HETATM    8  C   UNL     1     -10.857  15.635  69.255  1.00  0.00    -0.250 A  
HETATM    9  C   UNL     1     -10.706  14.006  67.483  1.00  0.00    -0.271 A  
HETATM   10  C   UNL     1      -9.766  13.488  69.649  1.00  0.00     1.249 A  
HETATM   11  C   UNL     1     -11.125  15.256  67.947  1.00  0.00    -0.321 A  
HETATM   12  C   UNL     1     -10.183  14.758  70.101  1.00  0.00     0.217 A  
ENDROOT
BRANCH   6  13
HETATM   13  C   UNL     1      -9.731  11.339  66.494  1.00  0.00    -0.230 C  
BRANCH  13  14
HETATM   14  C   UNL     1      -8.939  10.124  66.050  1.00  0.00    -0.174 A  
HETATM   15  C   UNL     1      -7.266   7.969  65.422  1.00  0.00    -0.064 A  
HETATM   16  C   UNL     1      -8.038  10.217  64.982  1.00  0.00    -0.146 A  
HETATM   17  C   UNL     1      -9.057   8.898  66.732  1.00  0.00    -0.177 A  
HETATM   18  F   UNL     1      -6.354   7.020  65.171  1.00  0.00    -0.034 F  
HETATM   19  C   UNL     1      -8.239   7.799  66.404  1.00  0.00    -0.116 A  
HETATM   20  C   UNL     1      -7.198   9.146  64.678  1.00  0.00    -0.098 A  
BRANCH  19  21
HETATM   21  C   UNL     1      -8.393   6.562  67.212  1.00  0.00    -0.113 C  
HETATM   22  N   UNL     1      -8.295   6.561  68.605  1.00  0.00    -0.121 N  
HETATM   23  C   UNL     1      -8.440   5.282  69.320  1.00  0.00    -0.101 C  
HETATM   24  O   UNL     1      -8.547   5.516  66.576  1.00  0.00    -0.116 OA 
HETATM   25  C   UNL     1      -7.248   5.029  70.256  1.00  0.00    -0.054 C  
HETATM   26  N   UNL     1      -7.025   6.174  71.150  1.00  0.00    -0.067 N  
HETATM   27  C   UNL     1      -6.887   7.457  70.459  1.00  0.00    -0.052 C  
HETATM   28  C   UNL     1      -6.896   5.956  72.513  1.00  0.00    -0.078 C  
HETATM   29  C   UNL     1      -8.049   7.708  69.489  1.00  0.00    -0.127 C  
HETATM   30  O   UNL     1      -7.005   4.842  73.018  1.00  0.00    -0.069 OA 
BRANCH  28  31
HETATM   31  C   UNL     1      -6.660   7.134  73.406  1.00  0.00    -0.065 C  
HETATM   32  C   UNL     1      -6.393   8.485  72.780  1.00  0.00    -0.095 C  
HETATM   33  C   UNL     1      -7.685   8.242  73.502  1.00  0.00    -0.193 C  
ENDBRANCH  28  31
ENDBRANCH  19  21
ENDBRANCH  13  14
ENDBRANCH   6  13
TORSDOF 4
ENDMDL
MODEL      284
REMARK 921   NORMALIZED FREE ENERGY PREDICTED BY IDOCK:   20.18 KCAL/MOL
REMARK 922        TOTAL FREE ENERGY PREDICTED BY IDOCK:   24.14 KCAL/MOL
REMARK 923 INTER-LIGAND FREE ENERGY PREDICTED BY IDOCK:   23.59 KCAL/MOL
REMARK 924 INTRA-LIGAND FREE ENERGY PREDICTED BY IDOCK:    0.56 KCAL/MOL
REMARK 927      BINDING AFFINITY PREDICTED BY RF-SCORE:    0.00 PKD
ROOT
HETATM    1  O   UNL     1     -13.407   6.824  65.658  1.00  0.00     7.501 OA 
HETATM    2  C   UNL     1     -12.096   6.481  65.790  1.00  0.00     5.657 A  
HETATM    3  H   UNL     1     -13.905   6.245  65.094  1.00  0.00     0.000 HD 
HETATM    4  N   UNL     1     -11.392   7.301  66.587  1.00  0.00     0.706 NA 
HETATM    5  N   UNL     1     -10.072   7.057  66.780  1.00  0.00    -0.211 NA 
HETATM    6  C   UNL     1      -9.477   5.995  66.178  1.00  0.00    -0.087 A  
HETATM    7  C   UNL     1     -10.199   5.102  65.347  1.00  0.00     0.166 A  
HETATM    8  C   UNL     1     -11.769   3.418  63.688  1.00  0.00     1.688 A  
HETATM    9  C   UNL     1      -9.652   3.960  64.709  1.00  0.00    -0.177 A  
HETATM   10  C   UNL     1     -11.568   5.370  65.139  1.00  0.00     2.292 A  
HETATM   11  C   UNL     1     -10.428   3.128  63.896  1.00  0.00    -0.189 A  
HETATM   12  C   UNL     1     -12.336   4.530  64.305  1.00  0.00     4.148 A  
ENDROOT
BRANCH   6  13
HETATM   13  C   UNL     1      -7.994   5.805  66.408  1.00  0.00    -0.102 C  
BRANCH  13  14
HETATM   14  C   UNL     1      -7.381   6.462  67.630  1.00  0.00    -0.088 A  
HETATM   15  C   UNL     1      -6.167   7.897  69.705  1.00  0.00    -0.033 A  
HETATM   16  C   UNL     1      -6.044   6.218  67.970  1.00  0.00    -0.024 A  
HETATM   17  C   UNL     1      -8.125   7.364  68.413  1.00  0.00    -0.125 A  
HETATM   18  F   UNL     1      -5.505   8.651  70.594  1.00  0.00    -0.027 F  
HETATM   19  C   UNL     1      -7.529   8.071  69.477  1.00  0.00    -0.092 A  
HETATM   20  C   UNL     1      -5.438   6.942  68.996  1.00  0.00    -0.017 A  
BRANCH  19  21
HETATM   21  C   UNL     1      -8.375   9.044  70.215  1.00  0.00    -0.157 C  
HETATM   22  N   UNL     1      -9.099  10.046  69.568  1.00  0.00    -0.213 N  
HETATM   23  C   UNL     1      -9.894  10.980  70.385  1.00  0.00     1.867 C  
HETATM   24  O   UNL     1      -8.350   8.957  71.446  1.00  0.00    -0.191 OA 
HETATM   25  C   UNL     1      -9.543  12.441  70.062  1.00  0.00     3.124 C  
HETATM   26  N   UNL     1      -9.641  12.701  68.619  1.00  0.00    -0.091 N  
HETATM   27  C   UNL     1      -8.865  11.779  67.788  1.00  0.00    -0.163 C  
HETATM   28  C   UNL     1     -10.369  13.794  68.174  1.00  0.00    -0.252 C  
HETATM   29  C   UNL     1      -9.173  10.314  68.126  1.00  0.00    -0.136 C  
HETATM   30  O   UNL     1     -10.979  14.537  68.938  1.00  0.00    -0.238 OA 
BRANCH  28  31
HETATM   31  C   UNL     1     -10.449  14.048  66.702  1.00  0.00    -0.272 C  
HETATM   32  C   UNL     1     -11.158  13.041  65.822  1.00  0.00    -0.302 C  
HETATM   33  C   UNL     1     -11.772  14.389  66.052  1.00  0.00    -0.378 C  
ENDBRANCH  28  31
ENDBRANCH  19  21
ENDBRANCH  13  14
ENDBRANCH   6  13
TORSDOF 4
ENDMDL
MODEL      285
REMARK 921   NORMALIZED FREE ENERGY PREDICTED BY IDOCK:   23.23 KCAL/MOL
REMARK 922        TOTAL FREE ENERGY PREDICTED BY IDOCK:   27.91 KCAL/MOL
REMARK 923 INTER-LIGAND FREE ENERGY PREDICTED BY IDOCK:   16.72 KCAL/MOL
REMARK 924 INTRA-LIGAND FREE ENERGY PREDICTED BY IDOCK:   11.19 KCAL/MOL
REMARK 927      BINDING AFFINITY PREDICTED BY RF-SCORE:    0.00 PKD
ROOT
HETATM    1  O   UNL     1      -9.361  15.833  72.689  1.00  0.00     6.449 OA 
HETATM    2  C   UNL     1     -10.218  15.444  71.705  1.00  0.00     1.585 A  
HETATM    3  H   UNL     1      -8.444  15.719  72.471  1.00  0.00     0.000 HD 
HETATM    4  N   UNL     1     -11.516  15.604  72.013  1.00  0.00    -0.422 NA 
HETATM    5  N   UNL     1     -12.456  15.238  71.108  1.00  0.00    -0.340 NA 
HETATM    6  C   UNL     1     -12.086  14.724  69.906  1.00  0.00    -0.332 A  
HETATM    7  C   UNL     1     -10.726  14.562  69.546  1.00  0.00    -0.168 A  
HETATM    8  C   UNL     1      -7.960  14.272  68.978  1.00  0.00    -0.027 A  
HETATM    9  C   UNL     1     -10.265  14.059  68.302  1.00  0.00    -0.249 A  
HETATM   10  C   UNL     1      -9.752  14.931  70.498  1.00  0.00     0.887 A  
HETATM   11  C   UNL     1      -8.902  13.922  68.022  1.00  0.00    -0.184 A  
HETATM   12  C   UNL     1      -8.381  14.774  70.208  1.00  0.00     1.019 A  
ENDROOT
BRANCH   6  13
HETATM   13  C   UNL     1     -13.190  14.304  68.959  1.00  0.00     2.248 C  
BRANCH  13  14
HETATM   14  C   UNL     1     -12.893  14.341  67.472  1.00  0.00     1.223 A  
HETATM   15  C   UNL     1     -12.505  14.660  64.718  1.00  0.00    -0.273 A  
HETATM   16  C   UNL     1     -13.767  13.734  66.560  1.00  0.00     4.414 A  
HETATM   17  C   UNL     1     -11.767  15.025  66.978  1.00  0.00    -0.199 A  
HETATM   18  F   UNL     1     -12.441  14.896  63.400  1.00  0.00    -0.058 F  
HETATM   19  C   UNL     1     -11.548  15.167  65.593  1.00  0.00    -0.118 A  
HETATM   20  C   UNL     1     -13.578  13.904  65.189  1.00  0.00     1.098 A  
BRANCH  19  21
HETATM   21  C   UNL     1     -10.363  15.952  65.161  1.00  0.00    -0.252 C  
HETATM   22  N   UNL     1      -9.346  16.317  66.044  1.00  0.00    -0.334 N  
HETATM   23  C   UNL     1      -8.219  17.115  65.529  1.00  0.00     1.026 C  
HETATM   24  O   UNL     1     -10.361  16.322  63.984  1.00  0.00     0.986 OA 
HETATM   25  C   UNL     1      -8.008  18.385  66.368  1.00  0.00    -0.262 C  
HETATM   26  N   UNL     1      -7.887  18.062  67.796  1.00  0.00    -0.220 N  
HETATM   27  C   UNL     1      -8.992  17.262  68.325  1.00  0.00    -0.262 C  
HETATM   28  C   UNL     1      -6.822  18.575  68.521  1.00  0.00    -0.264 C  
HETATM   29  C   UNL     1      -9.245  16.009  67.476  1.00  0.00    -0.211 C  
HETATM   30  O   UNL     1      -5.941  19.258  68.007  1.00  0.00    -0.204 OA 
BRANCH  28  31
HETATM   31  C   UNL     1      -6.722  18.242  69.976  1.00  0.00     0.356 C  
HETATM   32  C   UNL     1      -5.355  18.018  70.584  1.00  0.00    -0.261 C  
HETATM   33  C   UNL     1      -6.141  19.240  70.954  1.00  0.00     0.071 C  
ENDBRANCH  28  31
ENDBRANCH  19  21
ENDBRANCH  13  14
ENDBRANCH   6  13
TORSDOF 4
ENDMDL
MODEL      286
REMARK 921   NORMALIZED FREE ENERGY PREDICTED BY IDOCK:   24.05 KCAL/MOL
REMARK 922        TOTAL FREE ENERGY PREDICTED BY IDOCK:   28.93 KCAL/MOL
REMARK 923 INTER-LIGAND FREE ENERGY PREDICTED BY IDOCK:   15.99 KCAL/MOL
REMARK 924 INTRA-LIGAND FREE ENERGY PREDICTED BY IDOCK:   12.94 KCAL/MOL
REMARK 927      BINDING AFFINITY PREDICTED BY RF-SCORE:    0.00 PKD
ROOT
HETATM    1  O   UNL     1     -12.298  10.278  64.423  1.00  0.00     3.881 OA 
HETATM    2  C   UNL     1     -12.025  11.611  64.369  1.00  0.00    -0.050 A  
HETATM    3  H   UNL     1     -12.290   9.916  65.302  1.00  0.00     0.000 HD 
HETATM    4  N   UNL     1     -12.036  12.122  63.127  1.00  0.00    -0.335 NA 
HETATM    5  N   UNL     1     -11.766  13.440  62.956  1.00  0.00     0.161 NA 
HETATM    6  C   UNL     1     -11.495  14.227  64.029  1.00  0.00     0.017 A  
HETATM    7  C   UNL     1     -11.495  13.720  65.352  1.00  0.00    -0.318 A  
HETATM    8  C   UNL     1     -11.506  12.553  67.940  1.00  0.00    -0.369 A  
HETATM    9  C   UNL     1     -11.249  14.486  66.520  1.00  0.00    -0.344 A  
HETATM   10  C   UNL     1     -11.763  12.345  65.522  1.00  0.00    -0.459 A  
HETATM   11  C   UNL     1     -11.259  13.911  67.794  1.00  0.00    -0.316 A  
HETATM   12  C   UNL     1     -11.756  11.775  66.812  1.00  0.00    -0.197 A  
ENDROOT
BRANCH   6  13
HETATM   13  C   UNL     1     -11.167  15.681  63.761  1.00  0.00     1.105 C  
BRANCH  13  14
HETATM   14  C   UNL     1     -11.089  16.616  64.952  1.00  0.00    -0.137 A  
HETATM   15  C   UNL     1     -11.242  18.314  67.173  1.00  0.00     0.442 A  
HETATM   16  C   UNL     1     -11.224  18.000  64.776  1.00  0.00     2.015 A  
HETATM   17  C   UNL     1     -10.932  16.112  66.256  1.00  0.00    -0.031 A  
HETATM   18  F   UNL     1     -11.456  19.149  68.200  1.00  0.00     0.093 F  
HETATM   19  C   UNL     1     -10.978  16.963  67.379  1.00  0.00    -0.073 A  
HETATM   20  C   UNL     1     -11.312  18.842  65.884  1.00  0.00     1.044 A  
BRANCH  19  21
HETATM   21  C   UNL     1     -10.858  16.337  68.721  1.00  0.00    -0.317 C  
HETATM   22  N   UNL     1      -9.729  15.615  69.111  1.00  0.00    -0.231 N  
HETATM   23  C   UNL     1      -9.708  15.011  70.455  1.00  0.00     0.601 C  
HETATM   24  O   UNL     1     -11.846  16.437  69.454  1.00  0.00    -0.124 OA 
HETATM   25  C   UNL     1      -9.388  13.510  70.386  1.00  0.00     4.262 C  
HETATM   26  N   UNL     1      -8.159  13.266  69.619  1.00  0.00     1.110 N  
HETATM   27  C   UNL     1      -8.155  13.865  68.284  1.00  0.00    -0.150 C  
HETATM   28  C   UNL     1      -7.167  12.463  70.164  1.00  0.00     1.484 C  
HETATM   29  C   UNL     1      -8.513  15.356  68.329  1.00  0.00    -0.159 C  
HETATM   30  O   UNL     1      -7.252  11.979  71.288  1.00  0.00     3.630 OA 
BRANCH  28  31
HETATM   31  C   UNL     1      -5.927  12.219  69.363  1.00  0.00    -0.100 C  
HETATM   32  C   UNL     1      -6.057  11.889  67.892  1.00  0.00    -0.057 C  
HETATM   33  C   UNL     1      -5.485  13.211  68.309  1.00  0.00    -0.089 C  
ENDBRANCH  28  31
ENDBRANCH  19  21
ENDBRANCH  13  14
ENDBRANCH   6  13
TORSDOF 4
ENDMDL
MODEL      287
REMARK 921   NORMALIZED FREE ENERGY PREDICTED BY IDOCK:   45.50 KCAL/MOL
REMARK 922        TOTAL FREE ENERGY PREDICTED BY IDOCK:   55.40 KCAL/MOL
REMARK 923 INTER-LIGAND FREE ENERGY PREDICTED BY IDOCK:   50.07 KCAL/MOL
REMARK 924 INTRA-LIGAND FREE ENERGY PREDICTED BY IDOCK:    5.32 KCAL/MOL
REMARK 927      BINDING AFFINITY PREDICTED BY RF-SCORE:    0.00 PKD
ROOT
HETATM    1  O   UNL     1      -9.167  15.760  72.682  1.00  0.00     6.950 OA 
HETATM    2  C   UNL     1      -9.565  14.846  71.754  1.00  0.00     3.941 A  
HETATM    3  H   UNL     1      -8.226  15.804  72.803  1.00  0.00     0.000 HD 
HETATM    4  N   UNL     1     -10.896  14.782  71.584  1.00  0.00     0.501 NA 
HETATM    5  N   UNL     1     -11.402  13.897  70.690  1.00  0.00     0.137 NA 
HETATM    6  C   UNL     1     -10.571  13.094  69.977  1.00  0.00     1.249 A  
HETATM    7  C   UNL     1      -9.163  13.152  70.121  1.00  0.00     3.824 A  
HETATM    8  C   UNL     1      -6.364  13.366  70.541  1.00  0.00     0.157 A  
HETATM    9  C   UNL     1      -8.235  12.366  69.393  1.00  0.00     0.963 A  
HETATM   10  C   UNL     1      -8.643  14.065  71.063  1.00  0.00     5.319 A  
HETATM   11  C   UNL     1      -6.856  12.476  69.597  1.00  0.00     0.164 A  
HETATM   12  C   UNL     1      -7.251  14.156  71.270  1.00  0.00     2.414 A  
ENDROOT
BRANCH   6  13
HETATM   13  C   UNL     1     -11.208  12.105  69.024  1.00  0.00    -0.314 C  
BRANCH  13  14
HETATM   14  C   UNL     1     -10.303  11.405  68.027  1.00  0.00    -0.204 A  
HETATM   15  C   UNL     1      -8.819  10.211  65.976  1.00  0.00    -0.143 A  
HETATM   16  C   UNL     1     -10.549  10.076  67.660  1.00  0.00    -0.323 A  
HETATM   17  C   UNL     1      -9.235  12.090  67.418  1.00  0.00    -0.180 A  
HETATM   18  F   UNL     1      -8.232   9.642  64.914  1.00  0.00    -0.121 F  
HETATM   19  C   UNL     1      -8.464  11.487  66.404  1.00  0.00    -0.138 A  
HETATM   20  C   UNL     1      -9.816   9.487  66.630  1.00  0.00    -0.293 A  
BRANCH  19  21
HETATM   21  C   UNL     1      -7.392  12.303  65.779  1.00  0.00     2.171 C  
HETATM   22  N   UNL     1      -7.027  13.558  66.266  1.00  0.00     2.847 N  
HETATM   23  C   UNL     1      -5.967  14.305  65.566  1.00  0.00    11.399 C  
HETATM   24  O   UNL     1      -6.883  11.834  64.757  1.00  0.00     1.983 OA 
HETATM   25  C   UNL     1      -6.437  15.718  65.189  1.00  0.00     9.359 C  
HETATM   26  N   UNL     1      -6.973  16.428  66.359  1.00  0.00     0.029 N  
HETATM   27  C   UNL     1      -8.022  15.699  67.074  1.00  0.00    -0.233 C  
HETATM   28  C   UNL     1      -6.518  17.706  66.645  1.00  0.00    -0.204 C  
HETATM   29  C   UNL     1      -7.585  14.270  67.423  1.00  0.00    -0.163 C  
HETATM   30  O   UNL     1      -5.645  18.260  65.983  1.00  0.00    -0.148 OA 
BRANCH  28  31
HETATM   31  C   UNL     1      -7.083  18.415  67.835  1.00  0.00    -0.229 C  
HETATM   32  C   UNL     1      -6.868  19.907  67.969  1.00  0.00    -0.309 C  
HETATM   33  C   UNL     1      -8.240  19.377  67.678  1.00  0.00    -0.329 C  
ENDBRANCH  28  31
ENDBRANCH  19  21
ENDBRANCH  13  14
ENDBRANCH   6  13
TORSDOF 4
ENDMDL
MODEL      288
REMARK 921   NORMALIZED FREE ENERGY PREDICTED BY IDOCK:   53.52 KCAL/MOL
REMARK 922        TOTAL FREE ENERGY PREDICTED BY IDOCK:   65.28 KCAL/MOL
REMARK 923 INTER-LIGAND FREE ENERGY PREDICTED BY IDOCK:   60.60 KCAL/MOL
REMARK 924 INTRA-LIGAND FREE ENERGY PREDICTED BY IDOCK:    4.69 KCAL/MOL
REMARK 927      BINDING AFFINITY PREDICTED BY RF-SCORE:    0.00 PKD
ROOT
HETATM    1  O   UNL     1     -11.995  14.734  74.520  1.00  0.00    -0.713 OA 
HETATM    2  C   UNL     1     -11.429  13.888  73.615  1.00  0.00     3.142 A  
HETATM    3  H   UNL     1     -12.721  15.240  74.175  1.00  0.00     0.000 HD 
HETATM    4  N   UNL     1     -10.401  13.173  74.102  1.00  0.00    11.084 NA 
HETATM    5  N   UNL     1      -9.758  12.305  73.283  1.00  0.00    21.579 NA 
HETATM    6  C   UNL     1     -10.155  12.160  71.992  1.00  0.00    14.682 A  
HETATM    7  C   UNL     1     -11.247  12.886  71.457  1.00  0.00     3.808 A  
HETATM    8  C   UNL     1     -13.438  14.430  70.520  1.00  0.00     0.147 A  
HETATM    9  C   UNL     1     -11.735  12.767  70.130  1.00  0.00    -0.239 A  
HETATM   10  C   UNL     1     -11.904  13.798  72.310  1.00  0.00     1.170 A  
HETATM   11  C   UNL     1     -12.817  13.524  69.672  1.00  0.00     0.524 A  
HETATM   12  C   UNL     1     -12.985  14.566  71.831  1.00  0.00    -0.415 A  
ENDROOT
BRANCH   6  13
HETATM   13  C   UNL     1      -9.368  11.201  71.125  1.00  0.00     6.638 C  
BRANCH  13  14
HETATM   14  C   UNL     1      -9.952  10.831  69.775  1.00  0.00     0.111 A  
HETATM   15  C   UNL     1     -11.298  10.183  67.407  1.00  0.00     0.214 A  
HETATM   16  C   UNL     1     -10.246   9.495  69.473  1.00  0.00    -0.225 A  
HETATM   17  C   UNL     1     -10.255  11.823  68.824  1.00  0.00    -0.175 A  
HETATM   18  F   UNL     1     -12.057   9.837  66.358  1.00  0.00     2.449 F  
HETATM   19  C   UNL     1     -10.907  11.503  67.616  1.00  0.00    -0.277 A  
HETATM   20  C   UNL     1     -10.927   9.176  68.298  1.00  0.00    -0.010 A  
BRANCH  19  21
HETATM   21  C   UNL     1     -11.237  12.621  66.695  1.00  0.00    -0.300 C  
HETATM   22  N   UNL     1     -10.751  13.915  66.887  1.00  0.00    -0.283 N  
HETATM   23  C   UNL     1     -11.150  14.965  65.934  1.00  0.00    -0.338 C  
HETATM   24  O   UNL     1     -12.023  12.354  65.782  1.00  0.00    -0.481 OA 
HETATM   25  C   UNL     1     -11.750  16.179  66.661  1.00  0.00     0.879 C  
HETATM   26  N   UNL     1     -10.849  16.663  67.715  1.00  0.00    -0.325 N  
HETATM   27  C   UNL     1     -10.433  15.633  68.669  1.00  0.00    -0.231 C  
HETATM   28  C   UNL     1     -10.529  18.011  67.770  1.00  0.00    -0.408 C  
HETATM   29  C   UNL     1      -9.869  14.395  67.958  1.00  0.00    -0.221 C  
HETATM   30  O   UNL     1     -10.935  18.820  66.941  1.00  0.00    -0.305 OA 
BRANCH  28  31
HETATM   31  C   UNL     1      -9.617  18.486  68.857  1.00  0.00    -0.307 C  
HETATM   32  C   UNL     1      -8.502  19.447  68.510  1.00  0.00    -0.397 C  
HETATM   33  C   UNL     1      -9.665  19.923  69.327  1.00  0.00    -0.180 C  
ENDBRANCH  28  31
ENDBRANCH  19  21
ENDBRANCH  13  14
ENDBRANCH   6  13
TORSDOF 4
ENDMDL
MODEL      289
REMARK 921   NORMALIZED FREE ENERGY PREDICTED BY IDOCK:   55.90 KCAL/MOL
REMARK 922        TOTAL FREE ENERGY PREDICTED BY IDOCK:   68.22 KCAL/MOL
REMARK 923 INTER-LIGAND FREE ENERGY PREDICTED BY IDOCK:   67.69 KCAL/MOL
REMARK 924 INTRA-LIGAND FREE ENERGY PREDICTED BY IDOCK:    0.52 KCAL/MOL
REMARK 927      BINDING AFFINITY PREDICTED BY RF-SCORE:    0.00 PKD
ROOT
HETATM    1  O   UNL     1      -8.681  16.589  73.689  1.00  0.00    15.598 OA 
HETATM    2  C   UNL     1      -9.115  15.559  72.912  1.00  0.00     9.803 A  
HETATM    3  H   UNL     1      -7.736  16.637  73.776  1.00  0.00     0.000 HD 
HETATM    4  N   UNL     1     -10.452  15.490  72.790  1.00  0.00     2.164 NA 
HETATM    5  N   UNL     1     -10.993  14.494  72.046  1.00  0.00     1.131 NA 
HETATM    6  C   UNL     1     -10.192  13.585  71.432  1.00  0.00     6.798 A  
HETATM    7  C   UNL     1      -8.780  13.644  71.527  1.00  0.00    10.265 A  
HETATM    8  C   UNL     1      -5.967  13.875  71.834  1.00  0.00     0.181 A  
HETATM    9  C   UNL     1      -7.881  12.749  70.893  1.00  0.00     6.598 A  
HETATM   10  C   UNL     1      -8.223  14.674  72.314  1.00  0.00     6.503 A  
HETATM   11  C   UNL     1      -6.496  12.867  71.041  1.00  0.00     1.432 A  
HETATM   12  C   UNL     1      -6.824  14.773  72.467  1.00  0.00     2.505 A  
ENDROOT
BRANCH   6  13
HETATM   13  C   UNL     1     -10.866  12.480  70.648  1.00  0.00     2.592 C  
BRANCH  13  14
HETATM   14  C   UNL     1     -10.313  12.153  69.274  1.00  0.00     0.204 A  
HETATM   15  C   UNL     1      -9.570  11.583  66.636  1.00  0.00    -0.197 A  
HETATM   16  C   UNL     1     -10.290  10.828  68.817  1.00  0.00    -0.209 A  
HETATM   17  C   UNL     1      -9.862  13.173  68.417  1.00  0.00    -0.206 A  
HETATM   18  F   UNL     1      -9.355  11.273  65.350  1.00  0.00    -0.213 F  
HETATM   19  C   UNL     1      -9.459  12.892  67.096  1.00  0.00    -0.229 A  
HETATM   20  C   UNL     1      -9.930  10.549  67.499  1.00  0.00    -0.204 A  
BRANCH  19  21
HETATM   21  C   UNL     1      -9.049  14.038  66.243  1.00  0.00    -0.016 C  
HETATM   22  N   UNL     1      -8.905  15.331  66.748  1.00  0.00    -0.251 N  
HETATM   23  C   UNL     1      -8.517  16.409  65.821  1.00  0.00     0.307 C  
HETATM   24  O   UNL     1      -8.907  13.793  65.042  1.00  0.00     1.710 OA 
HETATM   25  C   UNL     1      -9.500  17.588  65.894  1.00  0.00     0.031 C  
HETATM   26  N   UNL     1      -9.675  18.045  67.280  1.00  0.00    -0.289 N  
HETATM   27  C   UNL     1     -10.053  16.988  68.218  1.00  0.00    -0.306 C  
HETATM   28  C   UNL     1      -9.546  19.395  67.570  1.00  0.00    -0.326 C  
HETATM   29  C   UNL     1      -9.105  15.784  68.130  1.00  0.00    -0.185 C  
HETATM   30  O   UNL     1      -9.245  20.228  66.720  1.00  0.00    -0.350 OA 
BRANCH  28  31
HETATM   31  C   UNL     1      -9.737  19.843  68.985  1.00  0.00    -0.292 C  
HETATM   32  C   UNL     1      -9.942  21.316  69.266  1.00  0.00     1.647 C  
HETATM   33  C   UNL     1     -11.081  20.358  69.452  1.00  0.00     1.499 C  
ENDBRANCH  28  31
ENDBRANCH  19  21
ENDBRANCH  13  14
ENDBRANCH   6  13
TORSDOF 4
ENDMDL
MODEL      290
REMARK 921   NORMALIZED FREE ENERGY PREDICTED BY IDOCK:   57.88 KCAL/MOL
REMARK 922        TOTAL FREE ENERGY PREDICTED BY IDOCK:   70.67 KCAL/MOL
REMARK 923 INTER-LIGAND FREE ENERGY PREDICTED BY IDOCK:   55.52 KCAL/MOL
REMARK 924 INTRA-LIGAND FREE ENERGY PREDICTED BY IDOCK:   15.15 KCAL/MOL
REMARK 927      BINDING AFFINITY PREDICTED BY RF-SCORE:    0.00 PKD
ROOT
HETATM    1  O   UNL     1      -9.810  15.310  64.084  1.00  0.00     0.399 OA 
HETATM    2  C   UNL     1     -10.312  14.792  65.239  1.00  0.00    -0.398 A  
HETATM    3  H   UNL     1      -9.076  15.900  64.211  1.00  0.00     0.000 HD 
HETATM    4  N   UNL     1     -11.350  13.959  65.060  1.00  0.00    -0.322 NA 
HETATM    5  N   UNL     1     -11.934  13.393  66.145  1.00  0.00    -0.391 NA 
HETATM    6  C   UNL     1     -11.468  13.664  67.392  1.00  0.00    -0.336 A  
HETATM    7  C   UNL     1     -10.363  14.523  67.610  1.00  0.00    -0.237 A  
HETATM    8  C   UNL     1      -8.157  16.288  67.890  1.00  0.00    -0.153 A  
HETATM    9  C   UNL     1      -9.806  14.830  68.878  1.00  0.00    -0.222 A  
HETATM   10  C   UNL     1      -9.769  15.120  66.478  1.00  0.00    -0.290 A  
HETATM   11  C   UNL     1      -8.716  15.695  69.014  1.00  0.00    -0.240 A  
HETATM   12  C   UNL     1      -8.679  16.002  66.630  1.00  0.00    -0.309 A  
ENDROOT
BRANCH   6  13
HETATM   13  C   UNL     1     -12.191  13.026  68.559  1.00  0.00    -0.038 C  
BRANCH  13  14
HETATM   14  C   UNL     1     -11.372  12.183  69.518  1.00  0.00    -0.277 A  
HETATM   15  C   UNL     1      -9.687  10.562  71.057  1.00  0.00     2.517 A  
HETATM   16  C   UNL     1     -11.666  10.824  69.693  1.00  0.00    -0.395 A  
HETATM   17  C   UNL     1     -10.277  12.734  70.208  1.00  0.00     3.008 A  
HETATM   18  F   UNL     1      -8.841   9.720  71.667  1.00  0.00     0.313 F  
HETATM   19  C   UNL     1      -9.439  11.931  71.008  1.00  0.00     9.036 A  
HETATM   20  C   UNL     1     -10.818  10.017  70.451  1.00  0.00    -0.380 A  
BRANCH  19  21
HETATM   21  C   UNL     1      -8.274  12.586  71.657  1.00  0.00    14.402 C  
HETATM   22  N   UNL     1      -8.138  13.974  71.723  1.00  0.00     6.246 N  
HETATM   23  C   UNL     1      -6.936  14.533  72.367  1.00  0.00     2.879 C  
HETATM   24  O   UNL     1      -7.395  11.830  72.078  1.00  0.00     7.017 OA 
HETATM   25  C   UNL     1      -6.222  15.531  71.442  1.00  0.00     0.966 C  
HETATM   26  N   UNL     1      -7.152  16.558  70.952  1.00  0.00     2.551 N  
HETATM   27  C   UNL     1      -8.357  16.022  70.317  1.00  0.00     1.477 C  
HETATM   28  C   UNL     1      -6.804  17.895  71.059  1.00  0.00     3.106 C  
HETATM   29  C   UNL     1      -9.062  14.993  71.211  1.00  0.00     3.299 C  
HETATM   30  O   UNL     1      -5.761  18.266  71.590  1.00  0.00     0.149 OA 
BRANCH  28  31
HETATM   31  C   UNL     1      -7.760  18.926  70.547  1.00  0.00     2.244 C  
HETATM   32  C   UNL     1      -7.248  19.999  69.610  1.00  0.00    -0.016 C  
HETATM   33  C   UNL     1      -8.170  18.937  69.090  1.00  0.00    -0.081 C  
ENDBRANCH  28  31
ENDBRANCH  19  21
ENDBRANCH  13  14
ENDBRANCH   6  13
TORSDOF 4
ENDMDL
