MODEL        1
REMARK 921   NORMALIZED FREE ENERGY PREDICTED BY IDOCK:   -8.31 KCAL/MOL
REMARK 922        TOTAL FREE ENERGY PREDICTED BY IDOCK:  -12.38 KCAL/MOL
REMARK 923 INTER-LIGAND FREE ENERGY PREDICTED BY IDOCK:  -11.23 KCAL/MOL
REMARK 924 INTRA-LIGAND FREE ENERGY PREDICTED BY IDOCK:   -1.15 KCAL/MOL
REMARK 927      BINDING AFFINITY PREDICTED BY RF-SCORE:    0.00 PKD
ROOT
HETATM    1  C   UNL     1     -12.073  15.343  72.569  1.00  0.00    -0.522 C  
HETATM    2  C   UNL     1     -11.744  15.974  71.221  1.00  0.00    -0.516 C  
ENDROOT
BRANCH   2   3
HETATM    3  C   UNL     1     -12.235  15.161  70.015  1.00  0.00    -0.379 C  
BRANCH   3   4
HETATM    4  C   UNL     1     -11.568  15.561  68.735  1.00  0.00    -0.378 A  
HETATM    5  N   UNL     1     -10.849  16.666  68.677  1.00  0.00    -0.340 NA 
HETATM    6  C   UNL     1     -10.487  16.856  67.373  1.00  0.00    -0.310 A  
HETATM    7  C   UNL     1      -9.704  18.088  66.972  1.00  0.00    -0.303 C  
HETATM    8  C   UNL     1     -11.019  15.839  66.584  1.00  0.00    -0.179 A  
HETATM    9  N   UNL     1     -11.594  14.936  67.499  1.00  0.00    -0.353 NA 
HETATM   10  O   UNL     1     -10.492  18.819  66.009  1.00  0.00    -0.454 OA 
HETATM   11  C   UNL     1      -8.375  17.732  66.296  1.00  0.00    -0.240 C  
HETATM   12  C   UNL     1      -9.406  19.028  68.152  1.00  0.00    -0.385 C  
HETATM   13  C   UNL     1     -11.001  15.653  65.152  1.00  0.00    -0.398 C  
HETATM   14  O   UNL     1     -10.975  16.805  64.445  1.00  0.00    -0.974 OA 
HETATM   15  O   UNL     1     -11.060  14.568  64.580  1.00  0.00    -0.382 OA 
HETATM   16  H   UNL     1     -10.001  19.592  65.758  1.00  0.00     0.000 HD 
BRANCH   9  17
HETATM   17  C   UNL     1     -12.122  13.625  67.048  1.00  0.00    -0.380 C  
BRANCH  17  18
HETATM   18  C   UNL     1     -11.448  12.376  67.546  1.00  0.00    -0.410 A  
HETATM   19  C   UNL     1     -10.387  11.807  66.834  1.00  0.00    -0.247 A  
HETATM   20  C   UNL     1      -9.954  10.509  67.137  1.00  0.00    -0.234 A  
HETATM   21  C   UNL     1     -10.597   9.717  68.115  1.00  0.00    -0.273 A  
HETATM   22  C   UNL     1     -11.503  10.390  68.950  1.00  0.00    -0.251 A  
HETATM   23  C   UNL     1     -11.906  11.709  68.687  1.00  0.00    -0.370 A  
BRANCH  21  24
HETATM   24  C   UNL     1     -10.477   8.217  68.069  1.00  0.00    -0.242 A  
HETATM   25  C   UNL     1     -10.702   7.303  69.134  1.00  0.00    -0.201 A  
HETATM   26  C   UNL     1     -10.712   5.907  68.860  1.00  0.00    -0.370 A  
HETATM   27  C   UNL     1     -10.238   7.642  66.787  1.00  0.00    -0.333 A  
HETATM   28  C   UNL     1     -10.220   6.269  66.546  1.00  0.00    -0.163 A  
HETATM   29  C   UNL     1     -10.476   5.397  67.584  1.00  0.00    -0.217 A  
BRANCH  25  30
HETATM   30  C   UNL     1     -10.890   7.699  70.531  1.00  0.00    -0.241 A  
HETATM   31  N   UNL     1     -11.669   8.210  72.484  1.00  0.00    -0.400 NA 
HETATM   32  H   UNL     1     -12.939   7.493  70.911  1.00  0.00     0.000 HD 
HETATM   33  N   UNL     1     -10.371   8.457  72.564  1.00  0.00    -0.321 NA 
HETATM   34  N   UNL     1     -12.006   7.748  71.234  1.00  0.00    -0.298 NA 
HETATM   35  N   UNL     1      -9.887   8.142  71.357  1.00  0.00    -0.167 NA 
ENDBRANCH  25  30
ENDBRANCH  21  24
ENDBRANCH  17  18
ENDBRANCH   9  17
ENDBRANCH   3   4
ENDBRANCH   2   3
TORSDOF 6
ENDMDL
MODEL        2
REMARK 921   NORMALIZED FREE ENERGY PREDICTED BY IDOCK:   -8.30 KCAL/MOL
REMARK 922        TOTAL FREE ENERGY PREDICTED BY IDOCK:  -12.37 KCAL/MOL
REMARK 923 INTER-LIGAND FREE ENERGY PREDICTED BY IDOCK:  -11.42 KCAL/MOL
REMARK 924 INTRA-LIGAND FREE ENERGY PREDICTED BY IDOCK:   -0.95 KCAL/MOL
REMARK 927      BINDING AFFINITY PREDICTED BY RF-SCORE:    0.00 PKD
ROOT
HETATM    1  C   UNL     1     -12.128  12.460  64.872  1.00  0.00    -0.470 C  
HETATM    2  C   UNL     1     -11.938  12.702  66.365  1.00  0.00    -0.425 C  
ENDROOT
BRANCH   2   3
HETATM    3  C   UNL     1     -10.794  11.890  66.987  1.00  0.00    -0.303 C  
BRANCH   3   4
HETATM    4  C   UNL     1     -11.121  11.385  68.359  1.00  0.00    -0.242 A  
HETATM    5  N   UNL     1     -10.777  10.162  68.717  1.00  0.00    -0.210 NA 
HETATM    6  C   UNL     1     -11.322   9.922  69.947  1.00  0.00    -0.222 A  
HETATM    7  C   UNL     1     -11.158   8.566  70.601  1.00  0.00    -0.252 C  
HETATM    8  C   UNL     1     -12.052  11.033  70.363  1.00  0.00    -0.373 A  
HETATM    9  N   UNL     1     -11.795  12.018  69.390  1.00  0.00    -0.323 NA 
HETATM   10  O   UNL     1     -12.475   8.015  70.812  1.00  0.00    -0.506 OA 
HETATM   11  C   UNL     1     -10.481   8.666  71.973  1.00  0.00    -0.422 C  
HETATM   12  C   UNL     1     -10.359   7.571  69.743  1.00  0.00    -0.221 C  
HETATM   13  C   UNL     1     -12.881  11.230  71.529  1.00  0.00    -0.414 C  
HETATM   14  O   UNL     1     -13.479  10.104  71.980  1.00  0.00    -0.403 OA 
HETATM   15  O   UNL     1     -13.100  12.313  72.065  1.00  0.00    -0.435 OA 
HETATM   16  H   UNL     1     -12.372   7.164  71.222  1.00  0.00     0.000 HD 
BRANCH   9  17
HETATM   17  C   UNL     1     -12.267  13.413  69.573  1.00  0.00    -0.205 C  
BRANCH  17  18
HETATM   18  C   UNL     1     -11.252  14.522  69.525  1.00  0.00    -0.300 A  
HETATM   19  C   UNL     1     -11.618  15.836  69.828  1.00  0.00    -0.359 A  
HETATM   20  C   UNL     1     -10.758  16.896  69.511  1.00  0.00    -0.205 A  
HETATM   21  C   UNL     1      -9.535  16.688  68.834  1.00  0.00    -0.251 A  
HETATM   22  C   UNL     1      -9.104  15.354  68.745  1.00  0.00    -0.207 A  
HETATM   23  C   UNL     1      -9.939  14.285  69.107  1.00  0.00    -0.033 A  
BRANCH  21  24
HETATM   24  C   UNL     1      -8.898  17.813  68.064  1.00  0.00    -0.259 A  
HETATM   25  C   UNL     1      -9.160  18.193  66.719  1.00  0.00    -0.287 A  
HETATM   26  C   UNL     1      -8.590  19.394  66.214  1.00  0.00    -0.360 A  
HETATM   27  C   UNL     1      -8.033  18.672  68.802  1.00  0.00    -0.317 A  
HETATM   28  C   UNL     1      -7.458  19.829  68.276  1.00  0.00    -0.346 A  
HETATM   29  C   UNL     1      -7.752  20.201  66.981  1.00  0.00    -0.350 A  
BRANCH  25  30
HETATM   30  C   UNL     1      -9.962  17.401  65.783  1.00  0.00    -0.062 A  
HETATM   31  N   UNL     1     -10.796  15.865  64.508  1.00  0.00    -0.496 NA 
HETATM   32  H   UNL     1      -9.118  15.484  65.789  1.00  0.00     0.000 HD 
HETATM   33  N   UNL     1     -11.532  16.939  64.268  1.00  0.00    -1.039 NA 
HETATM   34  N   UNL     1      -9.819  16.136  65.436  1.00  0.00    -0.472 NA 
HETATM   35  N   UNL     1     -11.018  17.891  65.055  1.00  0.00    -0.649 NA 
ENDBRANCH  25  30
ENDBRANCH  21  24
ENDBRANCH  17  18
ENDBRANCH   9  17
ENDBRANCH   3   4
ENDBRANCH   2   3
TORSDOF 6
ENDMDL
MODEL        3
REMARK 921   NORMALIZED FREE ENERGY PREDICTED BY IDOCK:   -8.25 KCAL/MOL
REMARK 922        TOTAL FREE ENERGY PREDICTED BY IDOCK:  -12.29 KCAL/MOL
REMARK 923 INTER-LIGAND FREE ENERGY PREDICTED BY IDOCK:  -10.29 KCAL/MOL
REMARK 924 INTRA-LIGAND FREE ENERGY PREDICTED BY IDOCK:   -2.00 KCAL/MOL
REMARK 927      BINDING AFFINITY PREDICTED BY RF-SCORE:    0.00 PKD
ROOT
HETATM    1  C   UNL     1      -8.123  12.780  68.449  1.00  0.00    -0.129 C  
HETATM    2  C   UNL     1      -7.825  14.275  68.438  1.00  0.00    -0.140 C  
ENDROOT
BRANCH   2   3
HETATM    3  C   UNL     1      -7.244  14.786  67.113  1.00  0.00     0.040 C  
BRANCH   3   4
HETATM    4  C   UNL     1      -7.587  16.219  66.843  1.00  0.00    -0.244 A  
HETATM    5  N   UNL     1      -6.703  17.170  67.076  1.00  0.00    -0.172 NA 
HETATM    6  C   UNL     1      -7.326  18.370  66.883  1.00  0.00    -0.208 A  
HETATM    7  C   UNL     1      -6.582  19.664  67.141  1.00  0.00    -0.197 C  
HETATM    8  C   UNL     1      -8.658  18.159  66.535  1.00  0.00    -0.263 A  
HETATM    9  N   UNL     1      -8.771  16.765  66.376  1.00  0.00    -0.280 NA 
HETATM   10  O   UNL     1      -7.293  20.384  68.170  1.00  0.00    -0.254 OA 
HETATM   11  C   UNL     1      -6.542  20.564  65.900  1.00  0.00    -0.260 C  
HETATM   12  C   UNL     1      -5.138  19.448  67.625  1.00  0.00    -0.172 C  
HETATM   13  C   UNL     1      -9.735  19.098  66.327  1.00  0.00    -0.365 C  
HETATM   14  O   UNL     1      -9.636  20.226  67.066  1.00  0.00    -0.390 OA 
HETATM   15  O   UNL     1     -10.706  18.909  65.599  1.00  0.00    -0.532 OA 
HETATM   16  H   UNL     1      -6.827  21.196  68.332  1.00  0.00     0.000 HD 
BRANCH   9  17
HETATM   17  C   UNL     1     -10.014  16.157  65.838  1.00  0.00    -0.356 C  
BRANCH  17  18
HETATM   18  C   UNL     1     -10.868  15.339  66.769  1.00  0.00    -0.312 A  
HETATM   19  C   UNL     1     -11.093  15.759  68.082  1.00  0.00    -0.341 A  
HETATM   20  C   UNL     1     -11.641  14.872  69.019  1.00  0.00    -0.330 A  
HETATM   21  C   UNL     1     -11.928  13.527  68.695  1.00  0.00    -0.378 A  
HETATM   22  C   UNL     1     -11.896  13.206  67.328  1.00  0.00    -0.420 A  
HETATM   23  C   UNL     1     -11.397  14.106  66.372  1.00  0.00    -0.342 A  
BRANCH  21  24
HETATM   24  C   UNL     1     -12.012  12.489  69.782  1.00  0.00    -0.359 A  
HETATM   25  C   UNL     1     -12.661  12.612  71.040  1.00  0.00    -0.316 A  
HETATM   26  C   UNL     1     -12.789  11.465  71.871  1.00  0.00    -0.381 A  
HETATM   27  C   UNL     1     -11.497  11.199  69.464  1.00  0.00    -0.374 A  
HETATM   28  C   UNL     1     -11.605  10.094  70.308  1.00  0.00    -0.379 A  
HETATM   29  C   UNL     1     -12.269  10.222  71.509  1.00  0.00    -0.449 A  
BRANCH  25  30
HETATM   30  C   UNL     1     -13.187  13.871  71.574  1.00  0.00    -0.352 A  
HETATM   31  N   UNL     1     -14.314  15.671  71.985  1.00  0.00    -0.462 NA 
HETATM   32  H   UNL     1     -14.930  14.268  70.484  1.00  0.00     0.000 HD 
HETATM   33  N   UNL     1     -13.286  15.720  72.817  1.00  0.00    -0.520 NA 
HETATM   34  N   UNL     1     -14.264  14.540  71.207  1.00  0.00    -0.314 NA 
HETATM   35  N   UNL     1     -12.587  14.608  72.565  1.00  0.00    -0.341 NA 
ENDBRANCH  25  30
ENDBRANCH  21  24
ENDBRANCH  17  18
ENDBRANCH   9  17
ENDBRANCH   3   4
ENDBRANCH   2   3
TORSDOF 6
ENDMDL
MODEL        4
REMARK 921   NORMALIZED FREE ENERGY PREDICTED BY IDOCK:   -8.08 KCAL/MOL
REMARK 922        TOTAL FREE ENERGY PREDICTED BY IDOCK:  -12.07 KCAL/MOL
REMARK 923 INTER-LIGAND FREE ENERGY PREDICTED BY IDOCK:  -10.46 KCAL/MOL
REMARK 924 INTRA-LIGAND FREE ENERGY PREDICTED BY IDOCK:   -1.61 KCAL/MOL
REMARK 927      BINDING AFFINITY PREDICTED BY RF-SCORE:    0.00 PKD
ROOT
HETATM    1  C   UNL     1     -12.182  12.791  65.045  1.00  0.00    -0.527 C  
HETATM    2  C   UNL     1     -12.052  14.308  64.994  1.00  0.00    -0.428 C  
ENDROOT
BRANCH   2   3
HETATM    3  C   UNL     1     -10.627  14.804  64.717  1.00  0.00    -0.355 C  
BRANCH   3   4
HETATM    4  C   UNL     1     -10.129  15.753  65.763  1.00  0.00    -0.371 A  
HETATM    5  N   UNL     1     -10.439  17.034  65.701  1.00  0.00    -0.559 NA 
HETATM    6  C   UNL     1      -9.740  17.678  66.683  1.00  0.00    -0.301 A  
HETATM    7  C   UNL     1      -9.835  19.183  66.824  1.00  0.00    -0.342 C  
HETATM    8  C   UNL     1      -8.947  16.764  67.372  1.00  0.00    -0.204 A  
HETATM    9  N   UNL     1      -9.317  15.506  66.858  1.00  0.00    -0.222 NA 
HETATM   10  O   UNL     1      -8.509  19.727  66.653  1.00  0.00    -0.302 OA 
HETATM   11  C   UNL     1     -10.323  19.602  68.216  1.00  0.00    -0.539 C  
HETATM   12  C   UNL     1     -10.753  19.834  65.776  1.00  0.00    -0.474 C  
HETATM   13  C   UNL     1      -7.969  16.967  68.415  1.00  0.00    -0.239 C  
HETATM   14  O   UNL     1      -7.332  18.158  68.353  1.00  0.00    -0.251 OA 
HETATM   15  O   UNL     1      -7.666  16.139  69.270  1.00  0.00    -0.229 OA 
HETATM   16  H   UNL     1      -8.568  20.671  66.741  1.00  0.00     0.000 HD 
BRANCH   9  17
HETATM   17  C   UNL     1      -8.805  14.253  67.466  1.00  0.00    -0.199 C  
BRANCH  17  18
HETATM   18  C   UNL     1      -9.803  13.232  67.941  1.00  0.00    -0.234 A  
HETATM   19  C   UNL     1     -10.813  13.588  68.838  1.00  0.00    -0.255 A  
HETATM   20  C   UNL     1     -11.554  12.594  69.493  1.00  0.00    -0.348 A  
HETATM   21  C   UNL     1     -11.276  11.220  69.318  1.00  0.00    -0.336 A  
HETATM   22  C   UNL     1     -10.415  10.899  68.256  1.00  0.00    -0.205 A  
HETATM   23  C   UNL     1      -9.705  11.890  67.559  1.00  0.00    -0.185 A  
BRANCH  21  24
HETATM   24  C   UNL     1     -11.695  10.225  70.368  1.00  0.00    -0.404 A  
HETATM   25  C   UNL     1     -10.887   9.231  70.983  1.00  0.00    -0.385 A  
HETATM   26  C   UNL     1     -11.409   8.496  72.083  1.00  0.00    -0.442 A  
HETATM   27  C   UNL     1     -13.010  10.383  70.895  1.00  0.00    -0.475 A  
HETATM   28  C   UNL     1     -13.513   9.628  71.954  1.00  0.00    -0.496 A  
HETATM   29  C   UNL     1     -12.704   8.692  72.563  1.00  0.00    -0.357 A  
BRANCH  25  30
HETATM   30  C   UNL     1      -9.540   8.874  70.534  1.00  0.00    -0.202 A  
HETATM   31  N   UNL     1      -7.798   7.957  69.636  1.00  0.00    -0.103 NA 
HETATM   32  H   UNL     1      -9.781   7.234  69.254  1.00  0.00     0.000 HD 
HETATM   33  N   UNL     1      -7.315   8.938  70.382  1.00  0.00    -0.061 NA 
HETATM   34  N   UNL     1      -9.169   7.900  69.724  1.00  0.00    -0.150 NA 
HETATM   35  N   UNL     1      -8.390   9.506  70.940  1.00  0.00    -0.281 NA 
ENDBRANCH  25  30
ENDBRANCH  21  24
ENDBRANCH  17  18
ENDBRANCH   9  17
ENDBRANCH   3   4
ENDBRANCH   2   3
TORSDOF 6
ENDMDL
MODEL        5
REMARK 921   NORMALIZED FREE ENERGY PREDICTED BY IDOCK:   -8.08 KCAL/MOL
REMARK 922        TOTAL FREE ENERGY PREDICTED BY IDOCK:  -12.07 KCAL/MOL
REMARK 923 INTER-LIGAND FREE ENERGY PREDICTED BY IDOCK:  -11.00 KCAL/MOL
REMARK 924 INTRA-LIGAND FREE ENERGY PREDICTED BY IDOCK:   -1.07 KCAL/MOL
REMARK 927      BINDING AFFINITY PREDICTED BY RF-SCORE:    0.00 PKD
ROOT
HETATM    1  C   UNL     1     -12.388  15.983  72.909  1.00  0.00    -0.609 C  
HETATM    2  C   UNL     1     -11.597  15.940  71.607  1.00  0.00    -0.541 C  
ENDROOT
BRANCH   2   3
HETATM    3  C   UNL     1     -12.441  15.586  70.376  1.00  0.00    -0.443 C  
BRANCH   3   4
HETATM    4  C   UNL     1     -11.667  15.677  69.096  1.00  0.00    -0.390 A  
HETATM    5  N   UNL     1     -10.972  16.763  68.816  1.00  0.00    -0.309 NA 
HETATM    6  C   UNL     1     -10.495  16.631  67.542  1.00  0.00    -0.317 A  
HETATM    7  C   UNL     1      -9.707  17.755  66.904  1.00  0.00    -0.300 C  
HETATM    8  C   UNL     1     -10.928  15.423  67.000  1.00  0.00    -0.306 A  
HETATM    9  N   UNL     1     -11.564  14.758  68.065  1.00  0.00    -0.333 NA 
HETATM   10  O   UNL     1     -10.419  18.179  65.722  1.00  0.00    -0.584 OA 
HETATM   11  C   UNL     1      -8.313  17.300  66.455  1.00  0.00    -0.312 C  
HETATM   12  C   UNL     1      -9.541  18.978  67.822  1.00  0.00    -0.365 C  
HETATM   13  C   UNL     1     -10.772  14.880  65.671  1.00  0.00    -0.342 C  
HETATM   14  O   UNL     1     -10.708  15.813  64.695  1.00  0.00    -0.497 OA 
HETATM   15  O   UNL     1     -10.753  13.683  65.395  1.00  0.00    -0.289 OA 
HETATM   16  H   UNL     1      -9.925  18.885  65.322  1.00  0.00     0.000 HD 
BRANCH   9  17
HETATM   17  C   UNL     1     -12.018  13.352  67.925  1.00  0.00    -0.323 C  
BRANCH  17  18
HETATM   18  C   UNL     1     -11.537  12.344  68.933  1.00  0.00    -0.364 A  
HETATM   19  C   UNL     1     -10.502  11.459  68.618  1.00  0.00    -0.224 A  
HETATM   20  C   UNL     1     -10.252  10.350  69.437  1.00  0.00    -0.257 A  
HETATM   21  C   UNL     1     -11.056  10.056  70.562  1.00  0.00    -0.400 A  
HETATM   22  C   UNL     1     -11.934  11.073  70.969  1.00  0.00    -0.334 A  
HETATM   23  C   UNL     1     -12.156  12.214  70.181  1.00  0.00    -0.368 A  
BRANCH  21  24
HETATM   24  C   UNL     1     -11.113   8.652  71.102  1.00  0.00    -0.324 A  
HETATM   25  C   UNL     1     -10.069   7.934  71.745  1.00  0.00    -0.236 A  
HETATM   26  C   UNL     1     -10.359   6.679  72.349  1.00  0.00    -0.217 A  
HETATM   27  C   UNL     1     -12.391   8.022  71.085  1.00  0.00    -0.234 A  
HETATM   28  C   UNL     1     -12.646   6.775  71.655  1.00  0.00    -0.380 A  
HETATM   29  C   UNL     1     -11.629   6.108  72.306  1.00  0.00    -0.362 A  
BRANCH  25  30
HETATM   30  C   UNL     1      -8.675   8.384  71.800  1.00  0.00    -0.180 A  
HETATM   31  N   UNL     1      -6.625   8.929  71.377  1.00  0.00    -0.077 NA 
HETATM   32  H   UNL     1      -7.972   8.301  69.830  1.00  0.00     0.000 HD 
HETATM   33  N   UNL     1      -6.749   9.075  72.687  1.00  0.00    -0.313 NA 
HETATM   34  N   UNL     1      -7.803   8.497  70.816  1.00  0.00    -0.087 NA 
HETATM   35  N   UNL     1      -8.016   8.737  72.951  1.00  0.00    -0.385 NA 
ENDBRANCH  25  30
ENDBRANCH  21  24
ENDBRANCH  17  18
ENDBRANCH   9  17
ENDBRANCH   3   4
ENDBRANCH   2   3
TORSDOF 6
ENDMDL
MODEL        6
REMARK 921   NORMALIZED FREE ENERGY PREDICTED BY IDOCK:   -8.04 KCAL/MOL
REMARK 922        TOTAL FREE ENERGY PREDICTED BY IDOCK:  -12.01 KCAL/MOL
REMARK 923 INTER-LIGAND FREE ENERGY PREDICTED BY IDOCK:  -10.78 KCAL/MOL
REMARK 924 INTRA-LIGAND FREE ENERGY PREDICTED BY IDOCK:   -1.23 KCAL/MOL
REMARK 927      BINDING AFFINITY PREDICTED BY RF-SCORE:    0.00 PKD
ROOT
HETATM    1  C   UNL     1     -12.491  15.655  72.648  1.00  0.00    -0.526 C  
HETATM    2  C   UNL     1     -11.776  16.032  71.356  1.00  0.00    -0.536 C  
ENDROOT
BRANCH   2   3
HETATM    3  C   UNL     1     -12.260  15.255  70.124  1.00  0.00    -0.402 C  
BRANCH   3   4
HETATM    4  C   UNL     1     -11.587  15.694  68.860  1.00  0.00    -0.383 A  
HETATM    5  N   UNL     1     -10.923  16.833  68.821  1.00  0.00    -0.309 NA 
HETATM    6  C   UNL     1     -10.545  17.047  67.525  1.00  0.00    -0.310 A  
HETATM    7  C   UNL     1      -9.815  18.319  67.145  1.00  0.00    -0.324 C  
HETATM    8  C   UNL     1     -11.010  16.009  66.722  1.00  0.00    -0.112 A  
HETATM    9  N   UNL     1     -11.558  15.075  67.621  1.00  0.00    -0.336 NA 
HETATM   10  O   UNL     1     -10.619  19.014  66.169  1.00  0.00    -0.439 OA 
HETATM   11  C   UNL     1      -8.457  18.032  66.495  1.00  0.00    -0.285 C  
HETATM   12  C   UNL     1      -9.588  19.267  68.335  1.00  0.00    -0.450 C  
HETATM   13  C   UNL     1     -10.953  15.832  65.290  1.00  0.00    -0.344 C  
HETATM   14  O   UNL     1     -10.971  16.987  64.587  1.00  0.00    -0.968 OA 
HETATM   15  O   UNL     1     -10.947  14.748  64.712  1.00  0.00    -0.390 OA 
HETATM   16  H   UNL     1     -10.162  19.812  65.931  1.00  0.00     0.000 HD 
BRANCH   9  17
HETATM   17  C   UNL     1     -12.012  13.741  67.154  1.00  0.00    -0.405 C  
BRANCH  17  18
HETATM   18  C   UNL     1     -11.173  12.541  67.502  1.00  0.00    -0.342 A  
HETATM   19  C   UNL     1     -11.657  11.248  67.287  1.00  0.00    -0.171 A  
HETATM   20  C   UNL     1     -11.007  10.149  67.865  1.00  0.00    -0.335 A  
HETATM   21  C   UNL     1      -9.892  10.307  68.718  1.00  0.00    -0.184 A  
HETATM   22  C   UNL     1      -9.307  11.583  68.733  1.00  0.00    -0.088 A  
HETATM   23  C   UNL     1      -9.924  12.683  68.114  1.00  0.00    -0.225 A  
BRANCH  21  24
HETATM   24  C   UNL     1      -9.541   9.228  69.708  1.00  0.00    -0.203 A  
HETATM   25  C   UNL     1     -10.326   8.775  70.802  1.00  0.00    -0.264 A  
HETATM   26  C   UNL     1      -9.910   7.624  71.526  1.00  0.00    -0.192 A  
HETATM   27  C   UNL     1      -8.349   8.492  69.442  1.00  0.00    -0.119 A  
HETATM   28  C   UNL     1      -7.943   7.385  70.186  1.00  0.00    -0.112 A  
HETATM   29  C   UNL     1      -8.735   6.938  71.222  1.00  0.00    -0.134 A  
BRANCH  25  30
HETATM   30  C   UNL     1     -11.542   9.444  71.274  1.00  0.00    -0.364 A  
HETATM   31  N   UNL     1     -13.089  10.858  71.809  1.00  0.00    -0.480 NA 
HETATM   32  H   UNL     1     -11.308  11.465  70.780  1.00  0.00     0.000 HD 
HETATM   33  N   UNL     1     -13.526   9.693  72.262  1.00  0.00    -0.442 NA 
HETATM   34  N   UNL     1     -11.863  10.722  71.203  1.00  0.00    -0.262 NA 
HETATM   35  N   UNL     1     -12.570   8.817  71.932  1.00  0.00    -0.346 NA 
ENDBRANCH  25  30
ENDBRANCH  21  24
ENDBRANCH  17  18
ENDBRANCH   9  17
ENDBRANCH   3   4
ENDBRANCH   2   3
TORSDOF 6
ENDMDL
MODEL        7
REMARK 921   NORMALIZED FREE ENERGY PREDICTED BY IDOCK:   -8.01 KCAL/MOL
REMARK 922        TOTAL FREE ENERGY PREDICTED BY IDOCK:  -11.97 KCAL/MOL
REMARK 923 INTER-LIGAND FREE ENERGY PREDICTED BY IDOCK:  -10.79 KCAL/MOL
REMARK 924 INTRA-LIGAND FREE ENERGY PREDICTED BY IDOCK:   -1.18 KCAL/MOL
REMARK 927      BINDING AFFINITY PREDICTED BY RF-SCORE:    0.00 PKD
ROOT
HETATM    1  C   UNL     1      -9.223  10.215  65.296  1.00  0.00    -0.257 C  
HETATM    2  C   UNL     1      -9.454  11.332  66.306  1.00  0.00    -0.227 C  
ENDROOT
BRANCH   2   3
HETATM    3  C   UNL     1     -10.924  11.517  66.706  1.00  0.00    -0.347 C  
BRANCH   3   4
HETATM    4  C   UNL     1     -11.188  11.151  68.134  1.00  0.00    -0.292 A  
HETATM    5  N   UNL     1     -10.798   9.981  68.603  1.00  0.00    -0.231 NA 
HETATM    6  C   UNL     1     -11.292   9.858  69.871  1.00  0.00    -0.222 A  
HETATM    7  C   UNL     1     -11.067   8.582  70.656  1.00  0.00    -0.252 C  
HETATM    8  C   UNL     1     -12.038  10.988  70.197  1.00  0.00    -0.356 A  
HETATM    9  N   UNL     1     -11.842  11.872  69.119  1.00  0.00    -0.311 NA 
HETATM   10  O   UNL     1     -12.360   8.025  70.973  1.00  0.00    -0.447 OA 
HETATM   11  C   UNL     1     -10.345   8.842  71.984  1.00  0.00    -0.378 C  
HETATM   12  C   UNL     1     -10.272   7.522  69.876  1.00  0.00    -0.210 C  
HETATM   13  C   UNL     1     -12.830  11.286  71.368  1.00  0.00    -0.410 C  
HETATM   14  O   UNL     1     -13.379  10.199  71.955  1.00  0.00    -0.434 OA 
HETATM   15  O   UNL     1     -13.060  12.414  71.796  1.00  0.00    -0.416 OA 
HETATM   16  H   UNL     1     -12.219   7.225  71.465  1.00  0.00     0.000 HD 
BRANCH   9  17
HETATM   17  C   UNL     1     -12.347  13.267  69.174  1.00  0.00     0.026 C  
BRANCH  17  18
HETATM   18  C   UNL     1     -11.345  14.384  69.270  1.00  0.00    -0.319 A  
HETATM   19  C   UNL     1     -11.751  15.677  69.611  1.00  0.00    -0.373 A  
HETATM   20  C   UNL     1     -10.880  16.760  69.424  1.00  0.00    -0.250 A  
HETATM   21  C   UNL     1      -9.603  16.597  68.841  1.00  0.00    -0.252 A  
HETATM   22  C   UNL     1      -9.149  15.274  68.717  1.00  0.00    -0.200 A  
HETATM   23  C   UNL     1      -9.998  14.180  68.951  1.00  0.00    -0.132 A  
BRANCH  21  24
HETATM   24  C   UNL     1      -8.917  17.768  68.188  1.00  0.00    -0.271 A  
HETATM   25  C   UNL     1      -9.130  18.265  66.873  1.00  0.00    -0.282 A  
HETATM   26  C   UNL     1      -8.518  19.490  66.488  1.00  0.00    -0.365 A  
HETATM   27  C   UNL     1      -8.057  18.540  69.021  1.00  0.00    -0.126 A  
HETATM   28  C   UNL     1      -7.441  19.722  68.611  1.00  0.00    -0.329 A  
HETATM   29  C   UNL     1      -7.686  20.209  67.345  1.00  0.00    -0.341 A  
BRANCH  25  30
HETATM   30  C   UNL     1      -9.920  17.575  65.851  1.00  0.00    -0.139 A  
HETATM   31  N   UNL     1     -11.305  17.021  64.284  1.00  0.00    -1.036 NA 
HETATM   32  H   UNL     1     -11.116  19.047  64.964  1.00  0.00     0.000 HD 
HETATM   33  N   UNL     1     -10.720  15.886  64.633  1.00  0.00    -0.525 NA 
HETATM   34  N   UNL     1     -10.826  18.071  65.031  1.00  0.00    -0.583 NA 
HETATM   35  N   UNL     1      -9.863  16.226  65.603  1.00  0.00    -0.503 NA 
ENDBRANCH  25  30
ENDBRANCH  21  24
ENDBRANCH  17  18
ENDBRANCH   9  17
ENDBRANCH   3   4
ENDBRANCH   2   3
TORSDOF 6
ENDMDL
MODEL        8
REMARK 921   NORMALIZED FREE ENERGY PREDICTED BY IDOCK:   -7.94 KCAL/MOL
REMARK 922        TOTAL FREE ENERGY PREDICTED BY IDOCK:  -11.87 KCAL/MOL
REMARK 923 INTER-LIGAND FREE ENERGY PREDICTED BY IDOCK:  -10.53 KCAL/MOL
REMARK 924 INTRA-LIGAND FREE ENERGY PREDICTED BY IDOCK:   -1.34 KCAL/MOL
REMARK 927      BINDING AFFINITY PREDICTED BY RF-SCORE:    0.00 PKD
ROOT
HETATM    1  C   UNL     1     -11.922  16.105  72.482  1.00  0.00    -0.660 C  
HETATM    2  C   UNL     1     -11.583  14.911  71.597  1.00  0.00    -0.347 C  
ENDROOT
BRANCH   2   3
HETATM    3  C   UNL     1     -12.478  14.780  70.357  1.00  0.00    -0.405 C  
BRANCH   3   4
HETATM    4  C   UNL     1     -11.701  14.784  69.077  1.00  0.00    -0.312 A  
HETATM    5  N   UNL     1     -11.066  15.873  68.687  1.00  0.00    -0.316 NA 
HETATM    6  C   UNL     1     -10.574  15.639  67.435  1.00  0.00    -0.301 A  
HETATM    7  C   UNL     1      -9.846  16.736  66.686  1.00  0.00    -0.277 C  
HETATM    8  C   UNL     1     -10.933  14.359  67.019  1.00  0.00    -0.304 A  
HETATM    9  N   UNL     1     -11.538  13.771  68.146  1.00  0.00    -0.314 NA 
HETATM   10  O   UNL     1     -10.572  16.995  65.466  1.00  0.00    -0.542 OA 
HETATM   11  C   UNL     1      -8.424  16.318  66.289  1.00  0.00    -0.369 C  
HETATM   12  C   UNL     1      -9.757  18.053  67.474  1.00  0.00    -0.289 C  
HETATM   13  C   UNL     1     -10.736  13.692  65.753  1.00  0.00    -0.280 C  
HETATM   14  O   UNL     1     -10.718  14.523  64.687  1.00  0.00    -0.399 OA 
HETATM   15  O   UNL     1     -10.647  12.477  65.602  1.00  0.00    -0.258 OA 
HETATM   16  H   UNL     1     -10.116  17.682  64.996  1.00  0.00     0.000 HD 
BRANCH   9  17
HETATM   17  C   UNL     1     -11.910  12.334  68.150  1.00  0.00    -0.311 C  
BRANCH  17  18
HETATM   18  C   UNL     1     -11.421  11.475  69.284  1.00  0.00    -0.370 A  
HETATM   19  C   UNL     1     -10.156  10.883  69.235  1.00  0.00    -0.164 A  
HETATM   20  C   UNL     1      -9.820   9.869  70.142  1.00  0.00    -0.272 A  
HETATM   21  C   UNL     1     -10.747   9.374  71.087  1.00  0.00    -0.417 A  
HETATM   22  C   UNL     1     -11.917  10.133  71.252  1.00  0.00    -0.473 A  
HETATM   23  C   UNL     1     -12.241  11.186  70.380  1.00  0.00    -0.457 A  
BRANCH  21  24
HETATM   24  C   UNL     1     -10.569   7.998  71.671  1.00  0.00    -0.280 A  
HETATM   25  C   UNL     1     -10.296   6.794  70.968  1.00  0.00    -0.228 A  
HETATM   26  C   UNL     1      -9.984   5.617  71.704  1.00  0.00    -0.222 A  
HETATM   27  C   UNL     1     -10.541   7.917  73.094  1.00  0.00    -0.342 A  
HETATM   28  C   UNL     1     -10.265   6.743  73.796  1.00  0.00    -0.378 A  
HETATM   29  C   UNL     1      -9.967   5.592  73.098  1.00  0.00    -0.191 A  
BRANCH  25  30
HETATM   30  C   UNL     1     -10.351   6.662  69.510  1.00  0.00    -0.202 A  
HETATM   31  N   UNL     1     -10.935   6.384  67.446  1.00  0.00    -0.365 NA 
HETATM   32  H   UNL     1     -12.373   6.398  69.037  1.00  0.00     0.000 HD 
HETATM   33  N   UNL     1      -9.617   6.510  67.409  1.00  0.00    -0.122 NA 
HETATM   34  N   UNL     1     -11.401   6.470  68.736  1.00  0.00    -0.237 NA 
HETATM   35  N   UNL     1      -9.253   6.681  68.685  1.00  0.00    -0.129 NA 
ENDBRANCH  25  30
ENDBRANCH  21  24
ENDBRANCH  17  18
ENDBRANCH   9  17
ENDBRANCH   3   4
ENDBRANCH   2   3
TORSDOF 6
ENDMDL
MODEL        9
REMARK 921   NORMALIZED FREE ENERGY PREDICTED BY IDOCK:   -7.81 KCAL/MOL
REMARK 922        TOTAL FREE ENERGY PREDICTED BY IDOCK:  -11.71 KCAL/MOL
REMARK 923 INTER-LIGAND FREE ENERGY PREDICTED BY IDOCK:  -10.47 KCAL/MOL
REMARK 924 INTRA-LIGAND FREE ENERGY PREDICTED BY IDOCK:   -1.23 KCAL/MOL
REMARK 927      BINDING AFFINITY PREDICTED BY RF-SCORE:    0.00 PKD
ROOT
HETATM    1  C   UNL     1     -12.337  12.173  63.604  1.00  0.00    -0.673 C  
HETATM    2  C   UNL     1     -11.111  12.966  64.039  1.00  0.00    -0.455 C  
ENDROOT
BRANCH   2   3
HETATM    3  C   UNL     1     -11.400  14.024  65.112  1.00  0.00    -0.328 C  
BRANCH   3   4
HETATM    4  C   UNL     1     -11.327  13.474  66.504  1.00  0.00    -0.319 A  
HETATM    5  N   UNL     1     -11.084  12.192  66.700  1.00  0.00    -0.289 NA 
HETATM    6  C   UNL     1     -11.218  11.946  68.038  1.00  0.00    -0.257 A  
HETATM    7  C   UNL     1     -11.065  10.537  68.572  1.00  0.00    -0.275 C  
HETATM    8  C   UNL     1     -11.579  13.118  68.698  1.00  0.00    -0.321 A  
HETATM    9  N   UNL     1     -11.506  14.123  67.714  1.00  0.00    -0.306 NA 
HETATM   10  O   UNL     1     -12.307  10.169  69.209  1.00  0.00    -0.487 OA 
HETATM   11  C   UNL     1      -9.962  10.440  69.633  1.00  0.00    -0.209 C  
HETATM   12  C   UNL     1     -10.770   9.501  67.475  1.00  0.00    -0.311 C  
HETATM   13  C   UNL     1     -11.927  13.349  70.080  1.00  0.00    -0.326 C  
HETATM   14  O   UNL     1     -12.512  12.292  70.688  1.00  0.00    -0.315 OA 
HETATM   15  O   UNL     1     -11.778  14.411  70.678  1.00  0.00    -0.292 OA 
HETATM   16  H   UNL     1     -12.210   9.286  69.544  1.00  0.00     0.000 HD 
BRANCH   9  17
HETATM   17  C   UNL     1     -11.660  15.555  68.073  1.00  0.00    -0.268 C  
BRANCH  17  18
HETATM   18  C   UNL     1     -10.417  16.384  68.247  1.00  0.00    -0.302 A  
HETATM   19  C   UNL     1     -10.494  17.686  68.747  1.00  0.00    -0.287 A  
HETATM   20  C   UNL     1      -9.391  18.546  68.642  1.00  0.00    -0.352 A  
HETATM   21  C   UNL     1      -8.201  18.156  67.988  1.00  0.00    -0.266 A  
HETATM   22  C   UNL     1      -8.081  16.787  67.697  1.00  0.00    -0.188 A  
HETATM   23  C   UNL     1      -9.165  15.906  67.846  1.00  0.00    -0.198 A  
BRANCH  21  24
HETATM   24  C   UNL     1      -7.266  19.200  67.438  1.00  0.00    -0.228 A  
HETATM   25  C   UNL     1      -6.159  19.798  68.100  1.00  0.00    -0.261 A  
HETATM   26  C   UNL     1      -5.281  20.638  67.361  1.00  0.00    -0.215 A  
HETATM   27  C   UNL     1      -7.428  19.529  66.061  1.00  0.00    -0.312 A  
HETATM   28  C   UNL     1      -6.573  20.382  65.364  1.00  0.00    -0.302 A  
HETATM   29  C   UNL     1      -5.483  20.926  66.012  1.00  0.00    -0.244 A  
BRANCH  25  30
HETATM   30  C   UNL     1      -5.871  19.639  69.527  1.00  0.00    -0.259 A  
HETATM   31  N   UNL     1      -5.256  18.948  71.483  1.00  0.00    -0.432 NA 
HETATM   32  H   UNL     1      -4.841  17.825  69.703  1.00  0.00     0.000 HD 
HETATM   33  N   UNL     1      -5.879  20.094  71.711  1.00  0.00    -0.511 NA 
HETATM   34  N   UNL     1      -5.249  18.651  70.141  1.00  0.00    -0.201 NA 
HETATM   35  N   UNL     1      -6.261  20.523  70.503  1.00  0.00    -0.484 NA 
ENDBRANCH  25  30
ENDBRANCH  21  24
ENDBRANCH  17  18
ENDBRANCH   9  17
ENDBRANCH   3   4
ENDBRANCH   2   3
TORSDOF 6
ENDMDL
MODEL       10
REMARK 921   NORMALIZED FREE ENERGY PREDICTED BY IDOCK:   -7.64 KCAL/MOL
REMARK 922        TOTAL FREE ENERGY PREDICTED BY IDOCK:  -11.48 KCAL/MOL
REMARK 923 INTER-LIGAND FREE ENERGY PREDICTED BY IDOCK:  -10.12 KCAL/MOL
REMARK 924 INTRA-LIGAND FREE ENERGY PREDICTED BY IDOCK:   -1.35 KCAL/MOL
REMARK 927      BINDING AFFINITY PREDICTED BY RF-SCORE:    0.00 PKD
ROOT
HETATM    1  C   UNL     1     -12.895  11.889  63.341  1.00  0.00    -0.393 C  
HETATM    2  C   UNL     1     -12.081  13.156  63.580  1.00  0.00    -0.583 C  
ENDROOT
BRANCH   2   3
HETATM    3  C   UNL     1     -10.674  12.899  64.136  1.00  0.00    -0.443 C  
BRANCH   3   4
HETATM    4  C   UNL     1     -10.672  12.627  65.609  1.00  0.00    -0.269 A  
HETATM    5  N   UNL     1     -10.315  11.442  66.066  1.00  0.00    -0.242 NA 
HETATM    6  C   UNL     1     -10.546  11.432  67.413  1.00  0.00    -0.218 A  
HETATM    7  C   UNL     1     -10.294  10.174  68.219  1.00  0.00    -0.186 C  
HETATM    8  C   UNL     1     -11.088  12.652  67.807  1.00  0.00    -0.247 A  
HETATM    9  N   UNL     1     -11.031  13.460  66.656  1.00  0.00    -0.285 NA 
HETATM   10  O   UNL     1     -11.543   9.781  68.826  1.00  0.00    -0.481 OA 
HETATM   11  C   UNL     1      -9.290  10.408  69.354  1.00  0.00    -0.186 C  
HETATM   12  C   UNL     1      -9.791   8.998  67.366  1.00  0.00    -0.244 C  
HETATM   13  C   UNL     1     -11.585  13.089  69.091  1.00  0.00    -0.316 C  
HETATM   14  O   UNL     1     -12.109  12.099  69.848  1.00  0.00    -0.298 OA 
HETATM   15  O   UNL     1     -11.605  14.253  69.481  1.00  0.00    -0.267 OA 
HETATM   16  H   UNL     1     -11.386   8.993  69.331  1.00  0.00     0.000 HD 
BRANCH   9  17
HETATM   17  C   UNL     1     -11.368  14.904  66.719  1.00  0.00    -0.328 C  
BRANCH  17  18
HETATM   18  C   UNL     1     -10.260  15.904  66.530  1.00  0.00    -0.297 A  
HETATM   19  C   UNL     1      -8.924  15.523  66.679  1.00  0.00    -0.320 A  
HETATM   20  C   UNL     1      -7.923  16.498  66.785  1.00  0.00    -0.290 A  
HETATM   21  C   UNL     1      -8.224  17.878  66.803  1.00  0.00    -0.273 A  
HETATM   22  C   UNL     1      -9.534  18.224  66.434  1.00  0.00    -0.290 A  
HETATM   23  C   UNL     1     -10.535  17.251  66.275  1.00  0.00    -0.268 A  
BRANCH  21  24
HETATM   24  C   UNL     1      -7.257  18.854  67.417  1.00  0.00    -0.225 A  
HETATM   25  C   UNL     1      -6.437  19.796  66.738  1.00  0.00    -0.202 A  
HETATM   26  C   UNL     1      -5.714  20.759  67.495  1.00  0.00    -0.292 A  
HETATM   27  C   UNL     1      -7.258  18.932  68.840  1.00  0.00    -0.349 A  
HETATM   28  C   UNL     1      -6.515  19.865  69.564  1.00  0.00    -0.389 A  
HETATM   29  C   UNL     1      -5.753  20.794  68.888  1.00  0.00    -0.398 A  
BRANCH  25  30
HETATM   30  C   UNL     1      -6.248  19.825  65.286  1.00  0.00    -0.244 A  
HETATM   31  N   UNL     1      -5.881  19.361  63.205  1.00  0.00    -0.365 NA 
HETATM   32  H   UNL     1      -5.939  17.835  64.711  1.00  0.00     0.000 HD 
HETATM   33  N   UNL     1      -6.023  20.677  63.237  1.00  0.00    -0.246 NA 
HETATM   34  N   UNL     1      -6.011  18.821  64.462  1.00  0.00    -0.393 NA 
HETATM   35  N   UNL     1      -6.248  20.967  64.523  1.00  0.00    -0.293 NA 
ENDBRANCH  25  30
ENDBRANCH  21  24
ENDBRANCH  17  18
ENDBRANCH   9  17
ENDBRANCH   3   4
ENDBRANCH   2   3
TORSDOF 6
ENDMDL
MODEL       11
REMARK 921   NORMALIZED FREE ENERGY PREDICTED BY IDOCK:   -7.62 KCAL/MOL
REMARK 922        TOTAL FREE ENERGY PREDICTED BY IDOCK:  -11.45 KCAL/MOL
REMARK 923 INTER-LIGAND FREE ENERGY PREDICTED BY IDOCK:   -9.83 KCAL/MOL
REMARK 924 INTRA-LIGAND FREE ENERGY PREDICTED BY IDOCK:   -1.62 KCAL/MOL
REMARK 927      BINDING AFFINITY PREDICTED BY RF-SCORE:    0.00 PKD
ROOT
HETATM    1  C   UNL     1     -11.460  14.579  69.510  1.00  0.00    -0.330 C  
HETATM    2  C   UNL     1     -11.791  13.199  70.065  1.00  0.00    -0.360 C  
ENDROOT
BRANCH   2   3
HETATM    3  C   UNL     1     -11.901  12.105  68.995  1.00  0.00    -0.361 C  
BRANCH   3   4
HETATM    4  C   UNL     1     -11.717  10.727  69.552  1.00  0.00    -0.312 A  
HETATM    5  N   UNL     1     -12.572  10.247  70.436  1.00  0.00    -0.248 NA 
HETATM    6  C   UNL     1     -12.084   9.048  70.874  1.00  0.00    -0.198 A  
HETATM    7  C   UNL     1     -12.817   8.277  71.952  1.00  0.00    -0.344 C  
HETATM    8  C   UNL     1     -10.867   8.780  70.254  1.00  0.00    -0.231 A  
HETATM    9  N   UNL     1     -10.715   9.805  69.300  1.00  0.00    -0.218 NA 
HETATM   10  O   UNL     1     -11.921   8.126  73.073  1.00  0.00    -0.609 OA 
HETATM   11  C   UNL     1     -13.208   6.869  71.489  1.00  0.00    -0.322 C  
HETATM   12  C   UNL     1     -14.085   8.989  72.452  1.00  0.00    -0.478 C  
HETATM   13  C   UNL     1      -9.928   7.701  70.454  1.00  0.00    -0.188 C  
HETATM   14  O   UNL     1      -9.909   7.209  71.713  1.00  0.00    -0.163 OA 
HETATM   15  O   UNL     1      -9.153   7.272  69.602  1.00  0.00    -0.141 OA 
HETATM   16  H   UNL     1     -12.380   7.642  73.750  1.00  0.00     0.000 HD 
BRANCH   9  17
HETATM   17  C   UNL     1      -9.606   9.771  68.314  1.00  0.00    -0.143 C  
BRANCH  17  18
HETATM   18  C   UNL     1      -9.164  11.068  67.694  1.00  0.00    -0.151 A  
HETATM   19  C   UNL     1      -8.410  11.988  68.427  1.00  0.00    -0.151 A  
HETATM   20  C   UNL     1      -8.245  13.297  67.955  1.00  0.00    -0.163 A  
HETATM   21  C   UNL     1      -8.870  13.747  66.770  1.00  0.00    -0.156 A  
HETATM   22  C   UNL     1      -9.431  12.750  65.956  1.00  0.00    -0.127 A  
HETATM   23  C   UNL     1      -9.556  11.423  66.398  1.00  0.00    -0.228 A  
BRANCH  21  24
HETATM   24  C   UNL     1      -9.113  15.218  66.557  1.00  0.00    -0.334 A  
HETATM   25  C   UNL     1     -10.291  15.831  66.051  1.00  0.00    -0.356 A  
HETATM   26  C   UNL     1     -10.405  17.248  66.084  1.00  0.00    -0.320 A  
HETATM   27  C   UNL     1      -8.101  16.100  67.036  1.00  0.00    -0.245 A  
HETATM   28  C   UNL     1      -8.220  17.489  67.030  1.00  0.00    -0.240 A  
HETATM   29  C   UNL     1      -9.385  18.066  66.568  1.00  0.00    -0.294 A  
BRANCH  25  30
HETATM   30  C   UNL     1     -11.406  15.096  65.449  1.00  0.00    -0.298 A  
HETATM   31  N   UNL     1     -13.117  13.836  65.043  1.00  0.00    -0.737 NA 
HETATM   32  H   UNL     1     -12.362  14.113  67.032  1.00  0.00     0.000 HD 
HETATM   33  N   UNL     1     -12.747  14.292  63.857  1.00  0.00    -0.700 NA 
HETATM   34  N   UNL     1     -12.297  14.318  66.035  1.00  0.00    -0.423 NA 
HETATM   35  N   UNL     1     -11.687  15.071  64.105  1.00  0.00    -0.261 NA 
ENDBRANCH  25  30
ENDBRANCH  21  24
ENDBRANCH  17  18
ENDBRANCH   9  17
ENDBRANCH   3   4
ENDBRANCH   2   3
TORSDOF 6
ENDMDL
MODEL       12
REMARK 921   NORMALIZED FREE ENERGY PREDICTED BY IDOCK:   -7.62 KCAL/MOL
REMARK 922        TOTAL FREE ENERGY PREDICTED BY IDOCK:  -11.44 KCAL/MOL
REMARK 923 INTER-LIGAND FREE ENERGY PREDICTED BY IDOCK:  -10.56 KCAL/MOL
REMARK 924 INTRA-LIGAND FREE ENERGY PREDICTED BY IDOCK:   -0.88 KCAL/MOL
REMARK 927      BINDING AFFINITY PREDICTED BY RF-SCORE:    0.00 PKD
ROOT
HETATM    1  C   UNL     1      -8.757   8.141  65.605  1.00  0.00    -0.176 C  
HETATM    2  C   UNL     1      -9.971   8.101  66.525  1.00  0.00    -0.302 C  
ENDROOT
BRANCH   2   3
HETATM    3  C   UNL     1     -10.401   9.477  67.051  1.00  0.00    -0.319 C  
BRANCH   3   4
HETATM    4  C   UNL     1     -10.769   9.455  68.503  1.00  0.00    -0.161 A  
HETATM    5  N   UNL     1     -10.384   8.453  69.271  1.00  0.00    -0.213 NA 
HETATM    6  C   UNL     1     -10.975   8.617  70.491  1.00  0.00    -0.238 A  
HETATM    7  C   UNL     1     -10.778   7.581  71.578  1.00  0.00    -0.218 C  
HETATM    8  C   UNL     1     -11.777   9.756  70.477  1.00  0.00    -0.268 A  
HETATM    9  N   UNL     1     -11.520  10.361  69.232  1.00  0.00    -0.237 NA 
HETATM   10  O   UNL     1     -12.076   7.056  71.929  1.00  0.00    -0.302 OA 
HETATM   11  C   UNL     1     -10.173   8.188  72.851  1.00  0.00    -0.341 C  
HETATM   12  C   UNL     1      -9.892   6.403  71.140  1.00  0.00    -0.198 C  
HETATM   13  C   UNL     1     -12.669  10.290  71.479  1.00  0.00    -0.452 C  
HETATM   14  O   UNL     1     -13.233   9.353  72.274  1.00  0.00    -0.422 OA 
HETATM   15  O   UNL     1     -12.965  11.476  71.601  1.00  0.00    -0.437 OA 
HETATM   16  H   UNL     1     -11.952   6.407  72.611  1.00  0.00     0.000 HD 
BRANCH   9  17
HETATM   17  C   UNL     1     -12.067  11.702  68.908  1.00  0.00    -0.190 C  
BRANCH  17  18
HETATM   18  C   UNL     1     -11.133  12.880  68.939  1.00  0.00    -0.301 A  
HETATM   19  C   UNL     1     -11.526  14.086  69.524  1.00  0.00    -0.331 A  
HETATM   20  C   UNL     1     -10.779  15.251  69.304  1.00  0.00    -0.252 A  
HETATM   21  C   UNL     1      -9.653  15.265  68.450  1.00  0.00    -0.206 A  
HETATM   22  C   UNL     1      -9.164  14.008  68.061  1.00  0.00    -0.201 A  
HETATM   23  C   UNL     1      -9.879  12.827  68.321  1.00  0.00    -0.224 A  
BRANCH  21  24
HETATM   24  C   UNL     1      -9.193  16.556  67.828  1.00  0.00    -0.202 A  
HETATM   25  C   UNL     1      -9.643  17.133  66.610  1.00  0.00    -0.279 A  
HETATM   26  C   UNL     1      -9.223  18.448  66.268  1.00  0.00    -0.217 A  
HETATM   27  C   UNL     1      -8.304  17.351  68.609  1.00  0.00    -0.264 A  
HETATM   28  C   UNL     1      -7.878  18.626  68.238  1.00  0.00    -0.331 A  
HETATM   29  C   UNL     1      -8.353  19.185  67.070  1.00  0.00    -0.294 A  
BRANCH  25  30
HETATM   30  C   UNL     1     -10.499  16.444  65.641  1.00  0.00    -0.347 A  
HETATM   31  N   UNL     1     -11.619  15.005  64.477  1.00  0.00    -0.376 NA 
HETATM   32  H   UNL     1     -10.528  14.436  66.234  1.00  0.00     0.000 HD 
HETATM   33  N   UNL     1     -11.792  16.156  63.847  1.00  0.00    -0.860 NA 
HETATM   34  N   UNL     1     -10.819  15.165  65.583  1.00  0.00    -0.343 NA 
HETATM   35  N   UNL     1     -11.099  17.048  64.564  1.00  0.00    -1.062 NA 
ENDBRANCH  25  30
ENDBRANCH  21  24
ENDBRANCH  17  18
ENDBRANCH   9  17
ENDBRANCH   3   4
ENDBRANCH   2   3
TORSDOF 6
ENDMDL
MODEL       13
REMARK 921   NORMALIZED FREE ENERGY PREDICTED BY IDOCK:   -7.58 KCAL/MOL
REMARK 922        TOTAL FREE ENERGY PREDICTED BY IDOCK:  -11.39 KCAL/MOL
REMARK 923 INTER-LIGAND FREE ENERGY PREDICTED BY IDOCK:  -10.09 KCAL/MOL
REMARK 924 INTRA-LIGAND FREE ENERGY PREDICTED BY IDOCK:   -1.29 KCAL/MOL
REMARK 927      BINDING AFFINITY PREDICTED BY RF-SCORE:    0.00 PKD
ROOT
HETATM    1  C   UNL     1      -8.052  12.286  67.517  1.00  0.00    -0.170 C  
HETATM    2  C   UNL     1      -8.094  11.454  68.793  1.00  0.00    -0.112 C  
ENDROOT
BRANCH   2   3
HETATM    3  C   UNL     1      -8.946  10.183  68.682  1.00  0.00    -0.136 C  
BRANCH   3   4
HETATM    4  C   UNL     1      -9.275   9.587  70.016  1.00  0.00    -0.234 A  
HETATM    5  N   UNL     1      -8.317   9.094  70.778  1.00  0.00    -0.197 NA 
HETATM    6  C   UNL     1      -8.911   8.492  71.852  1.00  0.00    -0.231 A  
HETATM    7  C   UNL     1      -8.069   7.770  72.882  1.00  0.00    -0.126 C  
HETATM    8  C   UNL     1     -10.296   8.598  71.744  1.00  0.00    -0.316 A  
HETATM    9  N   UNL     1     -10.508   9.429  70.627  1.00  0.00    -0.267 NA 
HETATM   10  O   UNL     1      -8.492   6.390  72.909  1.00  0.00    -0.118 OA 
HETATM   11  C   UNL     1      -8.272   8.336  74.293  1.00  0.00    -0.241 C  
HETATM   12  C   UNL     1      -6.565   7.799  72.564  1.00  0.00    -0.065 C  
HETATM   13  C   UNL     1     -11.347   8.046  72.566  1.00  0.00    -0.406 C  
HETATM   14  O   UNL     1     -11.030   6.871  73.155  1.00  0.00    -0.285 OA 
HETATM   15  O   UNL     1     -12.466   8.533  72.702  1.00  0.00    -0.370 OA 
HETATM   16  H   UNL     1      -7.963   5.937  73.555  1.00  0.00     0.000 HD 
BRANCH   9  17
HETATM   17  C   UNL     1     -11.867   9.917  70.286  1.00  0.00    -0.184 C  
BRANCH  17  18
HETATM   18  C   UNL     1     -11.991  11.214  69.534  1.00  0.00    -0.425 A  
HETATM   19  C   UNL     1     -11.955  11.233  68.137  1.00  0.00    -0.182 A  
HETATM   20  C   UNL     1     -11.784  12.446  67.455  1.00  0.00    -0.425 A  
HETATM   21  C   UNL     1     -11.589  13.666  68.141  1.00  0.00    -0.367 A  
HETATM   22  C   UNL     1     -11.849  13.642  69.521  1.00  0.00    -0.394 A  
HETATM   23  C   UNL     1     -12.072  12.437  70.207  1.00  0.00    -0.377 A  
BRANCH  21  24
HETATM   24  C   UNL     1     -10.912  14.820  67.450  1.00  0.00    -0.313 A  
HETATM   25  C   UNL     1     -10.892  15.096  66.056  1.00  0.00    -0.335 A  
HETATM   26  C   UNL     1     -10.350  16.330  65.601  1.00  0.00    -0.385 A  
HETATM   27  C   UNL     1     -10.341  15.814  68.296  1.00  0.00    -0.239 A  
HETATM   28  C   UNL     1      -9.785  17.004  67.825  1.00  0.00    -0.258 A  
HETATM   29  C   UNL     1      -9.805  17.271  66.473  1.00  0.00    -0.306 A  
BRANCH  25  30
HETATM   30  C   UNL     1     -11.363  14.166  65.027  1.00  0.00    -0.350 A  
HETATM   31  N   UNL     1     -11.556  12.679  63.468  1.00  0.00    -0.499 NA 
HETATM   32  H   UNL     1      -9.671  13.105  64.398  1.00  0.00     0.000 HD 
HETATM   33  N   UNL     1     -12.778  13.164  63.623  1.00  0.00    -0.701 NA 
HETATM   34  N   UNL     1     -10.671  13.291  64.323  1.00  0.00    -0.409 NA 
HETATM   35  N   UNL     1     -12.661  14.085  64.586  1.00  0.00    -0.669 NA 
ENDBRANCH  25  30
ENDBRANCH  21  24
ENDBRANCH  17  18
ENDBRANCH   9  17
ENDBRANCH   3   4
ENDBRANCH   2   3
TORSDOF 6
ENDMDL
MODEL       14
REMARK 921   NORMALIZED FREE ENERGY PREDICTED BY IDOCK:   -7.54 KCAL/MOL
REMARK 922        TOTAL FREE ENERGY PREDICTED BY IDOCK:  -11.34 KCAL/MOL
REMARK 923 INTER-LIGAND FREE ENERGY PREDICTED BY IDOCK:  -10.06 KCAL/MOL
REMARK 924 INTRA-LIGAND FREE ENERGY PREDICTED BY IDOCK:   -1.28 KCAL/MOL
REMARK 927      BINDING AFFINITY PREDICTED BY RF-SCORE:    0.00 PKD
ROOT
HETATM    1  C   UNL     1     -11.693  12.078  63.651  1.00  0.00    -0.587 C  
HETATM    2  C   UNL     1     -11.802  13.528  64.106  1.00  0.00    -0.483 C  
ENDROOT
BRANCH   2   3
HETATM    3  C   UNL     1     -10.478  14.130  64.595  1.00  0.00    -0.366 C  
BRANCH   3   4
HETATM    4  C   UNL     1     -10.656  15.054  65.761  1.00  0.00    -0.339 A  
HETATM    5  N   UNL     1     -10.138  16.267  65.734  1.00  0.00    -0.420 NA 
HETATM    6  C   UNL     1     -10.326  16.825  66.967  1.00  0.00    -0.300 A  
HETATM    7  C   UNL     1      -9.776  18.202  67.271  1.00  0.00    -0.297 C  
HETATM    8  C   UNL     1     -10.969  15.914  67.802  1.00  0.00    -0.315 A  
HETATM    9  N   UNL     1     -11.300  14.831  66.967  1.00  0.00    -0.347 NA 
HETATM   10  O   UNL     1      -8.848  18.075  68.370  1.00  0.00    -0.281 OA 
HETATM   11  C   UNL     1     -10.874  19.177  67.714  1.00  0.00    -0.398 C  
HETATM   12  C   UNL     1      -9.024  18.831  66.086  1.00  0.00    -0.150 C  
HETATM   13  C   UNL     1     -11.296  15.996  69.207  1.00  0.00    -0.356 C  
HETATM   14  O   UNL     1     -10.434  16.742  69.933  1.00  0.00    -0.198 OA 
HETATM   15  O   UNL     1     -12.230  15.411  69.749  1.00  0.00    -0.337 OA 
HETATM   16  H   UNL     1      -8.503  18.939  68.561  1.00  0.00     0.000 HD 
BRANCH   9  17
HETATM   17  C   UNL     1     -12.152  13.720  67.459  1.00  0.00    -0.331 C  
BRANCH  17  18
HETATM   18  C   UNL     1     -11.478  12.473  67.962  1.00  0.00    -0.368 A  
HETATM   19  C   UNL     1     -10.383  11.932  67.282  1.00  0.00    -0.228 A  
HETATM   20  C   UNL     1      -9.941  10.636  67.580  1.00  0.00    -0.197 A  
HETATM   21  C   UNL     1     -10.607   9.818  68.520  1.00  0.00    -0.252 A  
HETATM   22  C   UNL     1     -11.554  10.464  69.332  1.00  0.00    -0.272 A  
HETATM   23  C   UNL     1     -11.968  11.781  69.074  1.00  0.00    -0.341 A  
BRANCH  21  24
HETATM   24  C   UNL     1     -10.462   8.321  68.456  1.00  0.00    -0.199 A  
HETATM   25  C   UNL     1     -10.288   7.425  69.545  1.00  0.00    -0.218 A  
HETATM   26  C   UNL     1     -10.346   6.024  69.308  1.00  0.00    -0.294 A  
HETATM   27  C   UNL     1     -10.649   7.724  67.175  1.00  0.00    -0.401 A  
HETATM   28  C   UNL     1     -10.670   6.347  66.960  1.00  0.00    -0.434 A  
HETATM   29  C   UNL     1     -10.535   5.492  68.033  1.00  0.00    -0.240 A  
BRANCH  25  30
HETATM   30  C   UNL     1     -10.011   7.848  70.920  1.00  0.00    -0.182 A  
HETATM   31  N   UNL     1     -10.098   8.352  73.022  1.00  0.00    -0.136 NA 
HETATM   32  H   UNL     1     -11.768   7.480  71.996  1.00  0.00     0.000 HD 
HETATM   33  N   UNL     1      -8.882   8.710  72.641  1.00  0.00    -0.396 NA 
HETATM   34  N   UNL     1     -10.809   7.824  71.971  1.00  0.00    -0.233 NA 
HETATM   35  N   UNL     1      -8.826   8.400  71.340  1.00  0.00    -0.163 NA 
ENDBRANCH  25  30
ENDBRANCH  21  24
ENDBRANCH  17  18
ENDBRANCH   9  17
ENDBRANCH   3   4
ENDBRANCH   2   3
TORSDOF 6
ENDMDL
MODEL       15
REMARK 921   NORMALIZED FREE ENERGY PREDICTED BY IDOCK:   -7.52 KCAL/MOL
REMARK 922        TOTAL FREE ENERGY PREDICTED BY IDOCK:  -11.31 KCAL/MOL
REMARK 923 INTER-LIGAND FREE ENERGY PREDICTED BY IDOCK:   -9.68 KCAL/MOL
REMARK 924 INTRA-LIGAND FREE ENERGY PREDICTED BY IDOCK:   -1.63 KCAL/MOL
REMARK 927      BINDING AFFINITY PREDICTED BY RF-SCORE:    0.00 PKD
ROOT
HETATM    1  C   UNL     1      -9.831   7.182  66.738  1.00  0.00    -0.272 C  
HETATM    2  C   UNL     1     -10.469   7.437  68.098  1.00  0.00    -0.241 C  
ENDROOT
BRANCH   2   3
HETATM    3  C   UNL     1     -11.274   6.250  68.643  1.00  0.00    -0.328 C  
BRANCH   3   4
HETATM    4  C   UNL     1     -10.645   5.629  69.853  1.00  0.00    -0.328 A  
HETATM    5  N   UNL     1      -9.615   4.815  69.723  1.00  0.00    -0.160 NA 
HETATM    6  C   UNL     1      -9.345   4.291  70.956  1.00  0.00    -0.152 A  
HETATM    7  C   UNL     1      -8.247   3.261  71.121  1.00  0.00    -0.062 C  
HETATM    8  C   UNL     1     -10.256   4.782  71.887  1.00  0.00    -0.193 A  
HETATM    9  N   UNL     1     -10.999   5.752  71.186  1.00  0.00    -0.253 NA 
HETATM   10  O   UNL     1      -8.846   2.055  71.639  1.00  0.00    -0.065 OA 
HETATM   11  C   UNL     1      -7.182   3.709  72.129  1.00  0.00    -0.050 C  
HETATM   12  C   UNL     1      -7.540   2.910  69.801  1.00  0.00    -0.044 C  
HETATM   13  C   UNL     1     -10.444   4.456  73.281  1.00  0.00    -0.187 C  
HETATM   14  O   UNL     1     -10.116   3.184  73.601  1.00  0.00    -0.104 OA 
HETATM   15  O   UNL     1     -10.912   5.214  74.127  1.00  0.00    -0.285 OA 
HETATM   16  H   UNL     1      -8.158   1.409  71.743  1.00  0.00     0.000 HD 
BRANCH   9  17
HETATM   17  C   UNL     1     -11.969   6.626  71.891  1.00  0.00    -0.341 C  
BRANCH  17  18
HETATM   18  C   UNL     1     -11.924   8.105  71.619  1.00  0.00    -0.340 A  
HETATM   19  C   UNL     1     -13.105   8.845  71.512  1.00  0.00    -0.376 A  
HETATM   20  C   UNL     1     -13.075  10.143  70.983  1.00  0.00    -0.458 A  
HETATM   21  C   UNL     1     -11.882  10.722  70.494  1.00  0.00    -0.453 A  
HETATM   22  C   UNL     1     -10.695  10.045  70.817  1.00  0.00    -0.272 A  
HETATM   23  C   UNL     1     -10.711   8.764  71.394  1.00  0.00    -0.356 A  
BRANCH  21  24
HETATM   24  C   UNL     1     -11.943  11.847  69.495  1.00  0.00    -0.355 A  
HETATM   25  C   UNL     1     -12.149  13.227  69.765  1.00  0.00    -0.355 A  
HETATM   26  C   UNL     1     -12.001  14.169  68.710  1.00  0.00    -0.367 A  
HETATM   27  C   UNL     1     -11.632  11.509  68.146  1.00  0.00    -0.378 A  
HETATM   28  C   UNL     1     -11.524  12.447  67.120  1.00  0.00    -0.423 A  
HETATM   29  C   UNL     1     -11.692  13.786  67.406  1.00  0.00    -0.417 A  
BRANCH  25  30
HETATM   30  C   UNL     1     -12.549  13.759  71.070  1.00  0.00    -0.371 A  
HETATM   31  N   UNL     1     -13.560  14.255  72.916  1.00  0.00    -0.645 NA 
HETATM   32  H   UNL     1     -14.357  12.815  71.541  1.00  0.00     0.000 HD 
HETATM   33  N   UNL     1     -12.476  15.015  72.912  1.00  0.00    -0.374 NA 
HETATM   34  N   UNL     1     -13.622  13.479  71.784  1.00  0.00    -0.372 NA 
HETATM   35  N   UNL     1     -11.849  14.710  71.770  1.00  0.00    -0.300 NA 
ENDBRANCH  25  30
ENDBRANCH  21  24
ENDBRANCH  17  18
ENDBRANCH   9  17
ENDBRANCH   3   4
ENDBRANCH   2   3
TORSDOF 6
ENDMDL
MODEL       16
REMARK 921   NORMALIZED FREE ENERGY PREDICTED BY IDOCK:   -7.50 KCAL/MOL
REMARK 922        TOTAL FREE ENERGY PREDICTED BY IDOCK:  -11.29 KCAL/MOL
REMARK 923 INTER-LIGAND FREE ENERGY PREDICTED BY IDOCK:   -9.95 KCAL/MOL
REMARK 924 INTRA-LIGAND FREE ENERGY PREDICTED BY IDOCK:   -1.34 KCAL/MOL
REMARK 927      BINDING AFFINITY PREDICTED BY RF-SCORE:    0.00 PKD
ROOT
HETATM    1  C   UNL     1     -14.113  13.901  72.396  1.00  0.00    -0.586 C  
HETATM    2  C   UNL     1     -13.318  12.656  72.025  1.00  0.00    -0.555 C  
ENDROOT
BRANCH   2   3
HETATM    3  C   UNL     1     -12.490  12.803  70.742  1.00  0.00    -0.357 C  
BRANCH   3   4
HETATM    4  C   UNL     1     -11.996  11.490  70.216  1.00  0.00    -0.368 A  
HETATM    5  N   UNL     1     -11.851  10.460  71.029  1.00  0.00    -0.362 NA 
HETATM    6  C   UNL     1     -11.255   9.455  70.320  1.00  0.00    -0.246 A  
HETATM    7  C   UNL     1     -10.894   8.153  71.004  1.00  0.00    -0.235 C  
HETATM    8  C   UNL     1     -11.000   9.883  69.020  1.00  0.00    -0.190 A  
HETATM    9  N   UNL     1     -11.612  11.148  68.930  1.00  0.00    -0.290 NA 
HETATM   10  O   UNL     1      -9.466   7.976  70.890  1.00  0.00    -0.158 OA 
HETATM   11  C   UNL     1     -11.558   6.945  70.331  1.00  0.00    -0.385 C  
HETATM   12  C   UNL     1     -11.257   8.131  72.498  1.00  0.00    -0.459 C  
HETATM   13  C   UNL     1     -10.308   9.229  67.934  1.00  0.00    -0.227 C  
HETATM   14  O   UNL     1      -9.328   8.386  68.331  1.00  0.00    -0.136 OA 
HETATM   15  O   UNL     1     -10.515   9.432  66.741  1.00  0.00    -0.243 OA 
HETATM   16  H   UNL     1      -9.239   7.159  71.318  1.00  0.00     0.000 HD 
BRANCH   9  17
HETATM   17  C   UNL     1     -11.703  11.862  67.632  1.00  0.00    -0.275 C  
BRANCH  17  18
HETATM   18  C   UNL     1     -10.859  13.091  67.434  1.00  0.00    -0.269 A  
HETATM   19  C   UNL     1      -9.541  12.985  66.983  1.00  0.00    -0.236 A  
HETATM   20  C   UNL     1      -8.677  14.086  67.071  1.00  0.00    -0.220 A  
HETATM   21  C   UNL     1      -9.081  15.305  67.661  1.00  0.00    -0.184 A  
HETATM   22  C   UNL     1     -10.458  15.445  67.898  1.00  0.00    -0.256 A  
HETATM   23  C   UNL     1     -11.342  14.362  67.764  1.00  0.00    -0.331 A  
BRANCH  21  24
HETATM   24  C   UNL     1      -8.050  16.257  68.206  1.00  0.00    -0.167 A  
HETATM   25  C   UNL     1      -8.107  17.677  68.212  1.00  0.00    -0.278 A  
HETATM   26  C   UNL     1      -7.121  18.409  68.930  1.00  0.00    -0.292 A  
HETATM   27  C   UNL     1      -6.959  15.669  68.910  1.00  0.00    -0.130 A  
HETATM   28  C   UNL     1      -5.984  16.407  69.581  1.00  0.00    -0.191 A  
HETATM   29  C   UNL     1      -6.075  17.783  69.606  1.00  0.00    -0.240 A  
BRANCH  25  30
HETATM   30  C   UNL     1      -9.108  18.462  67.485  1.00  0.00    -0.271 A  
HETATM   31  N   UNL     1     -10.806  19.659  66.879  1.00  0.00    -0.457 NA 
HETATM   32  H   UNL     1     -10.447  19.162  68.935  1.00  0.00     0.000 HD 
HETATM   33  N   UNL     1     -10.175  19.373  65.751  1.00  0.00    -0.482 NA 
HETATM   34  N   UNL     1     -10.163  19.099  67.957  1.00  0.00    -0.382 NA 
HETATM   35  N   UNL     1      -9.125  18.632  66.123  1.00  0.00    -0.486 NA 
ENDBRANCH  25  30
ENDBRANCH  21  24
ENDBRANCH  17  18
ENDBRANCH   9  17
ENDBRANCH   3   4
ENDBRANCH   2   3
TORSDOF 6
ENDMDL
MODEL       17
REMARK 921   NORMALIZED FREE ENERGY PREDICTED BY IDOCK:   -7.49 KCAL/MOL
REMARK 922        TOTAL FREE ENERGY PREDICTED BY IDOCK:  -11.27 KCAL/MOL
REMARK 923 INTER-LIGAND FREE ENERGY PREDICTED BY IDOCK:  -10.00 KCAL/MOL
REMARK 924 INTRA-LIGAND FREE ENERGY PREDICTED BY IDOCK:   -1.27 KCAL/MOL
REMARK 927      BINDING AFFINITY PREDICTED BY RF-SCORE:    0.00 PKD
ROOT
HETATM    1  C   UNL     1     -13.165  11.490  71.821  1.00  0.00    -0.456 C  
HETATM    2  C   UNL     1     -12.811  10.348  70.876  1.00  0.00    -0.482 C  
ENDROOT
BRANCH   2   3
HETATM    3  C   UNL     1     -11.345   9.902  70.956  1.00  0.00    -0.460 C  
BRANCH   3   4
HETATM    4  C   UNL     1     -10.905   9.130  69.750  1.00  0.00    -0.211 A  
HETATM    5  N   UNL     1     -10.510   7.877  69.870  1.00  0.00    -0.225 NA 
HETATM    6  C   UNL     1     -10.034   7.475  68.654  1.00  0.00    -0.172 A  
HETATM    7  C   UNL     1      -9.441   6.092  68.488  1.00  0.00    -0.120 C  
HETATM    8  C   UNL     1     -10.118   8.527  67.745  1.00  0.00    -0.211 A  
HETATM    9  N   UNL     1     -10.813   9.541  68.431  1.00  0.00    -0.179 NA 
HETATM   10  O   UNL     1      -8.071   6.247  68.060  1.00  0.00    -0.113 OA 
HETATM   11  C   UNL     1     -10.166   5.279  67.408  1.00  0.00    -0.240 C  
HETATM   12  C   UNL     1      -9.441   5.271  69.788  1.00  0.00    -0.207 C  
HETATM   13  C   UNL     1      -9.659   8.627  66.379  1.00  0.00    -0.247 C  
HETATM   14  O   UNL     1      -8.563   7.884  66.108  1.00  0.00    -0.134 OA 
HETATM   15  O   UNL     1     -10.153   9.353  65.520  1.00  0.00    -0.217 OA 
HETATM   16  H   UNL     1      -7.699   5.379  67.956  1.00  0.00     0.000 HD 
BRANCH   9  17
HETATM   17  C   UNL     1     -11.250  10.775  67.731  1.00  0.00    -0.316 C  
BRANCH  17  18
HETATM   18  C   UNL     1     -10.527  12.059  68.031  1.00  0.00    -0.224 A  
HETATM   19  C   UNL     1     -11.116  13.036  68.838  1.00  0.00    -0.307 A  
HETATM   20  C   UNL     1     -10.576  14.329  68.884  1.00  0.00    -0.252 A  
HETATM   21  C   UNL     1      -9.471  14.705  68.087  1.00  0.00    -0.212 A  
HETATM   22  C   UNL     1      -8.779  13.654  67.465  1.00  0.00    -0.198 A  
HETATM   23  C   UNL     1      -9.284  12.343  67.456  1.00  0.00    -0.183 A  
BRANCH  21  24
HETATM   24  C   UNL     1      -9.238  16.155  67.757  1.00  0.00    -0.202 A  
HETATM   25  C   UNL     1      -9.861  16.915  66.730  1.00  0.00    -0.284 A  
HETATM   26  C   UNL     1      -9.646  18.320  66.679  1.00  0.00    -0.315 A  
HETATM   27  C   UNL     1      -8.397  16.878  68.652  1.00  0.00    -0.261 A  
HETATM   28  C   UNL     1      -8.174  18.252  68.564  1.00  0.00    -0.329 A  
HETATM   29  C   UNL     1      -8.815  18.980  67.583  1.00  0.00    -0.319 A  
BRANCH  25  30
HETATM   30  C   UNL     1     -10.698  16.340  65.675  1.00  0.00    -0.286 A  
HETATM   31  N   UNL     1     -11.858  15.052  64.381  1.00  0.00    -0.392 NA 
HETATM   32  H   UNL     1     -10.982  14.333  66.202  1.00  0.00     0.000 HD 
HETATM   33  N   UNL     1     -11.859  16.228  63.773  1.00  0.00    -0.839 NA 
HETATM   34  N   UNL     1     -11.141  15.103  65.552  1.00  0.00    -0.345 NA 
HETATM   35  N   UNL     1     -11.141  17.026  64.571  1.00  0.00    -1.062 NA 
ENDBRANCH  25  30
ENDBRANCH  21  24
ENDBRANCH  17  18
ENDBRANCH   9  17
ENDBRANCH   3   4
ENDBRANCH   2   3
TORSDOF 6
ENDMDL
MODEL       18
REMARK 921   NORMALIZED FREE ENERGY PREDICTED BY IDOCK:   -7.40 KCAL/MOL
REMARK 922        TOTAL FREE ENERGY PREDICTED BY IDOCK:  -11.14 KCAL/MOL
REMARK 923 INTER-LIGAND FREE ENERGY PREDICTED BY IDOCK:   -9.10 KCAL/MOL
REMARK 924 INTRA-LIGAND FREE ENERGY PREDICTED BY IDOCK:   -2.04 KCAL/MOL
REMARK 927      BINDING AFFINITY PREDICTED BY RF-SCORE:    0.00 PKD
ROOT
HETATM    1  C   UNL     1     -11.769  11.119  69.518  1.00  0.00    -0.405 C  
HETATM    2  C   UNL     1     -10.346  10.622  69.296  1.00  0.00    -0.240 C  
ENDROOT
BRANCH   2   3
HETATM    3  C   UNL     1      -9.470  11.580  68.477  1.00  0.00    -0.175 C  
BRANCH   3   4
HETATM    4  C   UNL     1      -9.413  11.216  67.025  1.00  0.00    -0.177 A  
HETATM    5  N   UNL     1      -8.464  10.416  66.578  1.00  0.00    -0.129 NA 
HETATM    6  C   UNL     1      -8.565  10.376  65.216  1.00  0.00    -0.176 A  
HETATM    7  C   UNL     1      -7.562   9.586  64.401  1.00  0.00    -0.122 C  
HETATM    8  C   UNL     1      -9.606  11.201  64.797  1.00  0.00    -0.240 A  
HETATM    9  N   UNL     1     -10.231  11.623  65.985  1.00  0.00    -0.224 NA 
HETATM   10  O   UNL     1      -6.896  10.505  63.509  1.00  0.00    -0.317 OA 
HETATM   11  C   UNL     1      -8.239   8.519  63.531  1.00  0.00    -0.133 C  
HETATM   12  C   UNL     1      -6.490   8.897  65.260  1.00  0.00    -0.067 C  
HETATM   13  C   UNL     1     -10.041  11.564  63.468  1.00  0.00    -0.409 C  
HETATM   14  O   UNL     1      -9.049  11.589  62.549  1.00  0.00    -0.320 OA 
HETATM   15  O   UNL     1     -11.186  11.887  63.164  1.00  0.00    -0.301 OA 
HETATM   16  H   UNL     1      -6.267  10.010  62.998  1.00  0.00     0.000 HD 
BRANCH   9  17
HETATM   17  C   UNL     1     -11.501  12.392  65.949  1.00  0.00    -0.374 C  
BRANCH  17  18
HETATM   18  C   UNL     1     -11.443  13.876  66.187  1.00  0.00    -0.351 A  
HETATM   19  C   UNL     1     -11.106  14.751  65.152  1.00  0.00    -0.389 A  
HETATM   20  C   UNL     1     -10.777  16.083  65.436  1.00  0.00    -0.399 A  
HETATM   21  C   UNL     1     -10.719  16.570  66.762  1.00  0.00    -0.155 A  
HETATM   22  C   UNL     1     -11.271  15.735  67.747  1.00  0.00    -0.286 A  
HETATM   23  C   UNL     1     -11.652  14.413  67.462  1.00  0.00    -0.398 A  
BRANCH  21  24
HETATM   24  C   UNL     1      -9.895  17.789  67.082  1.00  0.00    -0.311 A  
HETATM   25  C   UNL     1      -8.524  17.826  67.458  1.00  0.00    -0.227 A  
HETATM   26  C   UNL     1      -7.865  19.083  67.551  1.00  0.00    -0.263 A  
HETATM   27  C   UNL     1     -10.520  19.050  66.859  1.00  0.00    -0.505 A  
HETATM   28  C   UNL     1      -9.862  20.273  66.988  1.00  0.00    -0.607 A  
HETATM   29  C   UNL     1      -8.524  20.289  67.319  1.00  0.00    -0.415 A  
BRANCH  25  30
HETATM   30  C   UNL     1      -7.733  16.642  67.801  1.00  0.00    -0.163 A  
HETATM   31  N   UNL     1      -6.673  15.038  68.792  1.00  0.00    -0.095 NA 
HETATM   32  H   UNL     1      -7.830  16.475  69.886  1.00  0.00     0.000 HD 
HETATM   33  N   UNL     1      -6.406  14.874  67.506  1.00  0.00    -0.314 NA 
HETATM   34  N   UNL     1      -7.485  16.128  68.991  1.00  0.00    -0.198 NA 
HETATM   35  N   UNL     1      -7.060  15.865  66.890  1.00  0.00    -0.212 NA 
ENDBRANCH  25  30
ENDBRANCH  21  24
ENDBRANCH  17  18
ENDBRANCH   9  17
ENDBRANCH   3   4
ENDBRANCH   2   3
TORSDOF 6
ENDMDL
MODEL       19
REMARK 921   NORMALIZED FREE ENERGY PREDICTED BY IDOCK:   -7.39 KCAL/MOL
REMARK 922        TOTAL FREE ENERGY PREDICTED BY IDOCK:  -11.13 KCAL/MOL
REMARK 923 INTER-LIGAND FREE ENERGY PREDICTED BY IDOCK:   -9.77 KCAL/MOL
REMARK 924 INTRA-LIGAND FREE ENERGY PREDICTED BY IDOCK:   -1.36 KCAL/MOL
REMARK 927      BINDING AFFINITY PREDICTED BY RF-SCORE:    0.00 PKD
ROOT
HETATM    1  C   UNL     1     -14.362   8.199  71.608  1.00  0.00    -0.570 C  
HETATM    2  C   UNL     1     -13.988   9.444  72.404  1.00  0.00    -0.354 C  
ENDROOT
BRANCH   2   3
HETATM    3  C   UNL     1     -12.725  10.153  71.898  1.00  0.00    -0.493 C  
BRANCH   3   4
HETATM    4  C   UNL     1     -11.603   9.204  71.610  1.00  0.00    -0.379 A  
HETATM    5  N   UNL     1     -11.185   8.366  72.540  1.00  0.00    -0.368 NA 
HETATM    6  C   UNL     1     -10.074   7.734  72.058  1.00  0.00    -0.191 A  
HETATM    7  C   UNL     1      -9.320   6.751  72.929  1.00  0.00    -0.135 C  
HETATM    8  C   UNL     1      -9.775   8.212  70.785  1.00  0.00    -0.170 A  
HETATM    9  N   UNL     1     -10.853   9.056  70.455  1.00  0.00    -0.238 NA 
HETATM   10  O   UNL     1      -7.972   7.244  73.087  1.00  0.00    -0.097 OA 
HETATM   11  C   UNL     1      -9.223   5.364  72.283  1.00  0.00    -0.155 C  
HETATM   12  C   UNL     1      -9.932   6.587  74.330  1.00  0.00    -0.374 C  
HETATM   13  C   UNL     1      -8.658   7.931  69.914  1.00  0.00    -0.139 C  
HETATM   14  O   UNL     1      -7.510   7.634  70.564  1.00  0.00    -0.076 OA 
HETATM   15  O   UNL     1      -8.684   7.999  68.688  1.00  0.00    -0.131 OA 
HETATM   16  H   UNL     1      -7.499   6.627  73.633  1.00  0.00     0.000 HD 
BRANCH   9  17
HETATM   17  C   UNL     1     -10.983   9.631  69.093  1.00  0.00    -0.151 C  
BRANCH  17  18
HETATM   18  C   UNL     1     -10.720  11.101  68.911  1.00  0.00    -0.246 A  
HETATM   19  C   UNL     1     -11.757  12.030  69.033  1.00  0.00    -0.382 A  
HETATM   20  C   UNL     1     -11.576  13.347  68.589  1.00  0.00    -0.362 A  
HETATM   21  C   UNL     1     -10.381  13.765  67.960  1.00  0.00    -0.246 A  
HETATM   22  C   UNL     1      -9.297  12.877  68.054  1.00  0.00    -0.213 A  
HETATM   23  C   UNL     1      -9.455  11.571  68.545  1.00  0.00    -0.175 A  
BRANCH  21  24
HETATM   24  C   UNL     1     -10.385  14.968  67.056  1.00  0.00    -0.269 A  
HETATM   25  C   UNL     1     -10.977  15.075  65.768  1.00  0.00    -0.351 A  
HETATM   26  C   UNL     1     -11.034  16.346  65.133  1.00  0.00    -0.242 A  
HETATM   27  C   UNL     1      -9.850  16.170  67.603  1.00  0.00    -0.236 A  
HETATM   28  C   UNL     1      -9.887  17.401  66.949  1.00  0.00    -0.289 A  
HETATM   29  C   UNL     1     -10.497  17.494  65.715  1.00  0.00    -0.212 A  
BRANCH  25  30
HETATM   30  C   UNL     1     -11.513  13.939  65.013  1.00  0.00    -0.339 A  
HETATM   31  N   UNL     1     -12.756  12.432  64.084  1.00  0.00    -0.707 NA 
HETATM   32  H   UNL     1     -13.595  14.057  65.205  1.00  0.00     0.000 HD 
HETATM   33  N   UNL     1     -11.516  12.073  63.791  1.00  0.00    -0.426 NA 
HETATM   34  N   UNL     1     -12.770  13.578  64.843  1.00  0.00    -0.682 NA 
HETATM   35  N   UNL     1     -10.745  13.003  64.366  1.00  0.00    -0.373 NA 
ENDBRANCH  25  30
ENDBRANCH  21  24
ENDBRANCH  17  18
ENDBRANCH   9  17
ENDBRANCH   3   4
ENDBRANCH   2   3
TORSDOF 6
ENDMDL
MODEL       20
REMARK 921   NORMALIZED FREE ENERGY PREDICTED BY IDOCK:   -7.39 KCAL/MOL
REMARK 922        TOTAL FREE ENERGY PREDICTED BY IDOCK:  -11.13 KCAL/MOL
REMARK 923 INTER-LIGAND FREE ENERGY PREDICTED BY IDOCK:   -9.55 KCAL/MOL
REMARK 924 INTRA-LIGAND FREE ENERGY PREDICTED BY IDOCK:   -1.58 KCAL/MOL
REMARK 927      BINDING AFFINITY PREDICTED BY RF-SCORE:    0.00 PKD
ROOT
HETATM    1  C   UNL     1     -12.596  10.889  70.861  1.00  0.00    -0.494 C  
HETATM    2  C   UNL     1     -11.490  11.461  69.983  1.00  0.00    -0.331 C  
ENDROOT
BRANCH   2   3
HETATM    3  C   UNL     1     -11.892  11.646  68.514  1.00  0.00    -0.357 C  
BRANCH   3   4
HETATM    4  C   UNL     1     -11.129  10.752  67.586  1.00  0.00    -0.319 A  
HETATM    5  N   UNL     1     -10.584   9.637  68.035  1.00  0.00    -0.236 NA 
HETATM    6  C   UNL     1      -9.838   9.104  67.022  1.00  0.00    -0.207 A  
HETATM    7  C   UNL     1      -9.029   7.845  67.254  1.00  0.00    -0.127 C  
HETATM    8  C   UNL     1      -9.904   9.931  65.904  1.00  0.00    -0.274 A  
HETATM    9  N   UNL     1     -10.854  10.915  66.238  1.00  0.00    -0.179 NA 
HETATM   10  O   UNL     1      -7.641   8.161  67.015  1.00  0.00    -0.093 OA 
HETATM   11  C   UNL     1      -9.415   6.724  66.280  1.00  0.00    -0.116 C  
HETATM   12  C   UNL     1      -9.151   7.299  68.686  1.00  0.00    -0.133 C  
HETATM   13  C   UNL     1      -9.219   9.851  64.635  1.00  0.00    -0.258 C  
HETATM   14  O   UNL     1      -7.994   9.281  64.701  1.00  0.00    -0.113 OA 
HETATM   15  O   UNL     1      -9.644  10.300  63.573  1.00  0.00    -0.293 OA 
HETATM   16  H   UNL     1      -7.134   7.371  67.160  1.00  0.00     0.000 HD 
BRANCH   9  17
HETATM   17  C   UNL     1     -11.328  11.893  65.228  1.00  0.00    -0.275 C  
BRANCH  17  18
HETATM   18  C   UNL     1     -10.832  13.310  65.321  1.00  0.00    -0.314 A  
HETATM   19  C   UNL     1      -9.727  13.628  66.115  1.00  0.00    -0.269 A  
HETATM   20  C   UNL     1      -9.445  14.965  66.424  1.00  0.00    -0.327 A  
HETATM   21  C   UNL     1     -10.283  16.022  66.001  1.00  0.00    -0.360 A  
HETATM   22  C   UNL     1     -11.246  15.690  65.034  1.00  0.00    -0.335 A  
HETATM   23  C   UNL     1     -11.503  14.356  64.678  1.00  0.00    -0.390 A  
BRANCH  21  24
HETATM   24  C   UNL     1     -10.274  17.334  66.739  1.00  0.00    -0.318 A  
HETATM   25  C   UNL     1     -10.457  17.538  68.134  1.00  0.00    -0.386 A  
HETATM   26  C   UNL     1     -10.241  18.833  68.680  1.00  0.00    -0.366 A  
HETATM   27  C   UNL     1      -9.915  18.483  65.977  1.00  0.00    -0.239 A  
HETATM   28  C   UNL     1      -9.740  19.752  66.529  1.00  0.00    -0.529 A  
HETATM   29  C   UNL     1      -9.887  19.925  67.889  1.00  0.00    -0.529 A  
BRANCH  25  30
HETATM   30  C   UNL     1     -10.897  16.497  69.066  1.00  0.00    -0.329 A  
HETATM   31  N   UNL     1     -11.058  14.987  70.606  1.00  0.00    -0.239 NA 
HETATM   32  H   UNL     1      -9.262  16.123  70.319  1.00  0.00     0.000 HD 
HETATM   33  N   UNL     1     -12.233  14.971  69.996  1.00  0.00    -0.325 NA 
HETATM   34  N   UNL     1     -10.221  15.918  70.040  1.00  0.00    -0.249 NA 
HETATM   35  N   UNL     1     -12.136  15.904  69.042  1.00  0.00    -0.240 NA 
ENDBRANCH  25  30
ENDBRANCH  21  24
ENDBRANCH  17  18
ENDBRANCH   9  17
ENDBRANCH   3   4
ENDBRANCH   2   3
TORSDOF 6
ENDMDL
MODEL       21
REMARK 921   NORMALIZED FREE ENERGY PREDICTED BY IDOCK:   -7.33 KCAL/MOL
REMARK 922        TOTAL FREE ENERGY PREDICTED BY IDOCK:  -11.06 KCAL/MOL
REMARK 923 INTER-LIGAND FREE ENERGY PREDICTED BY IDOCK:   -9.90 KCAL/MOL
REMARK 924 INTRA-LIGAND FREE ENERGY PREDICTED BY IDOCK:   -1.16 KCAL/MOL
REMARK 927      BINDING AFFINITY PREDICTED BY RF-SCORE:    0.00 PKD
ROOT
HETATM    1  C   UNL     1     -10.731  11.658  63.638  1.00  0.00    -0.500 C  
HETATM    2  C   UNL     1     -11.040  11.990  65.093  1.00  0.00    -0.369 C  
ENDROOT
BRANCH   2   3
HETATM    3  C   UNL     1      -9.839  12.535  65.877  1.00  0.00    -0.257 C  
BRANCH   3   4
HETATM    4  C   UNL     1     -10.187  13.724  66.720  1.00  0.00    -0.268 A  
HETATM    5  N   UNL     1      -9.617  14.892  66.490  1.00  0.00    -0.260 NA 
HETATM    6  C   UNL     1     -10.004  15.744  67.485  1.00  0.00    -0.236 A  
HETATM    7  C   UNL     1      -9.457  17.155  67.534  1.00  0.00    -0.247 C  
HETATM    8  C   UNL     1     -10.832  15.074  68.383  1.00  0.00    -0.256 A  
HETATM    9  N   UNL     1     -11.053  13.813  67.797  1.00  0.00    -0.262 NA 
HETATM   10  O   UNL     1      -8.756  17.313  68.786  1.00  0.00    -0.276 OA 
HETATM   11  C   UNL     1     -10.572  18.207  67.501  1.00  0.00    -0.419 C  
HETATM   12  C   UNL     1      -8.470  17.464  66.396  1.00  0.00    -0.292 C  
HETATM   13  C   UNL     1     -11.409  15.509  69.633  1.00  0.00    -0.315 C  
HETATM   14  O   UNL     1     -10.663  16.418  70.301  1.00  0.00    -0.264 OA 
HETATM   15  O   UNL     1     -12.453  15.079  70.116  1.00  0.00    -0.333 OA 
HETATM   16  H   UNL     1      -8.412  18.198  68.817  1.00  0.00     0.000 HD 
BRANCH   9  17
HETATM   17  C   UNL     1     -12.031  12.861  68.380  1.00  0.00    -0.248 C  
BRANCH  17  18
HETATM   18  C   UNL     1     -11.544  11.877  69.407  1.00  0.00    -0.388 A  
HETATM   19  C   UNL     1     -10.468  11.029  69.127  1.00  0.00    -0.238 A  
HETATM   20  C   UNL     1     -10.201   9.934  69.960  1.00  0.00    -0.319 A  
HETATM   21  C   UNL     1     -11.027   9.616  71.062  1.00  0.00    -0.431 A  
HETATM   22  C   UNL     1     -11.954  10.602  71.438  1.00  0.00    -0.261 A  
HETATM   23  C   UNL     1     -12.194  11.730  70.637  1.00  0.00    -0.443 A  
BRANCH  21  24
HETATM   24  C   UNL     1     -11.048   8.214  71.609  1.00  0.00    -0.310 A  
HETATM   25  C   UNL     1     -10.099   7.615  72.481  1.00  0.00    -0.284 A  
HETATM   26  C   UNL     1     -10.376   6.335  73.035  1.00  0.00    -0.230 A  
HETATM   27  C   UNL     1     -12.214   7.444  71.325  1.00  0.00    -0.374 A  
HETATM   28  C   UNL     1     -12.451   6.176  71.854  1.00  0.00     0.020 A  
HETATM   29  C   UNL     1     -11.536   5.625  72.727  1.00  0.00    -0.328 A  
BRANCH  25  30
HETATM   30  C   UNL     1      -8.810   8.218  72.831  1.00  0.00    -0.232 A  
HETATM   31  N   UNL     1      -6.828   9.082  72.836  1.00  0.00    -0.313 NA 
HETATM   32  H   UNL     1      -7.840   8.584  71.012  1.00  0.00     0.000 HD 
HETATM   33  N   UNL     1      -7.149   8.971  74.115  1.00  0.00    -0.383 NA 
HETATM   34  N   UNL     1      -7.839   8.616  72.031  1.00  0.00    -0.295 NA 
HETATM   35  N   UNL     1      -8.375   8.435  74.115  1.00  0.00    -0.290 NA 
ENDBRANCH  25  30
ENDBRANCH  21  24
ENDBRANCH  17  18
ENDBRANCH   9  17
ENDBRANCH   3   4
ENDBRANCH   2   3
TORSDOF 6
ENDMDL
MODEL       22
REMARK 921   NORMALIZED FREE ENERGY PREDICTED BY IDOCK:   -7.33 KCAL/MOL
REMARK 922        TOTAL FREE ENERGY PREDICTED BY IDOCK:  -11.05 KCAL/MOL
REMARK 923 INTER-LIGAND FREE ENERGY PREDICTED BY IDOCK:   -9.24 KCAL/MOL
REMARK 924 INTRA-LIGAND FREE ENERGY PREDICTED BY IDOCK:   -1.82 KCAL/MOL
REMARK 927      BINDING AFFINITY PREDICTED BY RF-SCORE:    0.00 PKD
ROOT
HETATM    1  C   UNL     1      -9.333   4.424  66.407  1.00  0.00    -0.161 C  
HETATM    2  C   UNL     1      -9.651   4.173  67.876  1.00  0.00    -0.203 C  
ENDROOT
BRANCH   2   3
HETATM    3  C   UNL     1      -8.509   4.538  68.833  1.00  0.00    -0.093 C  
BRANCH   3   4
HETATM    4  C   UNL     1      -8.928   5.508  69.894  1.00  0.00    -0.127 A  
HETATM    5  N   UNL     1      -9.668   5.105  70.910  1.00  0.00    -0.177 NA 
HETATM    6  C   UNL     1     -10.018   6.211  71.632  1.00  0.00    -0.177 A  
HETATM    7  C   UNL     1     -10.930   6.079  72.833  1.00  0.00    -0.269 C  
HETATM    8  C   UNL     1      -9.492   7.352  71.030  1.00  0.00    -0.157 A  
HETATM    9  N   UNL     1      -8.675   6.867  69.991  1.00  0.00    -0.141 NA 
HETATM   10  O   UNL     1     -12.109   6.872  72.582  1.00  0.00    -0.495 OA 
HETATM   11  C   UNL     1     -10.281   6.620  74.112  1.00  0.00    -0.390 C  
HETATM   12  C   UNL     1     -11.380   4.632  73.097  1.00  0.00    -0.355 C  
HETATM   13  C   UNL     1      -9.663   8.749  71.353  1.00  0.00    -0.280 C  
HETATM   14  O   UNL     1     -10.858   9.045  71.913  1.00  0.00    -0.350 OA 
HETATM   15  O   UNL     1      -8.849   9.635  71.108  1.00  0.00    -0.172 OA 
HETATM   16  H   UNL     1     -12.682   6.790  73.336  1.00  0.00     0.000 HD 
BRANCH   9  17
HETATM   17  C   UNL     1      -7.802   7.782  69.215  1.00  0.00    -0.116 C  
BRANCH  17  18
HETATM   18  C   UNL     1      -8.380   8.463  68.004  1.00  0.00    -0.128 A  
HETATM   19  C   UNL     1      -7.803   9.632  67.502  1.00  0.00    -0.095 A  
HETATM   20  C   UNL     1      -8.496  10.412  66.566  1.00  0.00    -0.132 A  
HETATM   21  C   UNL     1      -9.805  10.085  66.145  1.00  0.00    -0.309 A  
HETATM   22  C   UNL     1     -10.259   8.803  66.497  1.00  0.00    -0.314 A  
HETATM   23  C   UNL     1      -9.547   7.991  67.395  1.00  0.00    -0.196 A  
BRANCH  21  24
HETATM   24  C   UNL     1     -10.704  11.150  65.577  1.00  0.00    -0.251 A  
HETATM   25  C   UNL     1     -11.458  12.115  66.299  1.00  0.00    -0.433 A  
HETATM   26  C   UNL     1     -12.114  13.157  65.588  1.00  0.00    -0.501 A  
HETATM   27  C   UNL     1     -10.698  11.290  64.159  1.00  0.00    -0.436 A  
HETATM   28  C   UNL     1     -11.376  12.302  63.479  1.00  0.00    -0.549 A  
HETATM   29  C   UNL     1     -12.073  13.250  64.198  1.00  0.00    -0.494 A  
BRANCH  25  30
HETATM   30  C   UNL     1     -11.644  12.092  67.752  1.00  0.00    -0.342 A  
HETATM   31  N   UNL     1     -12.139  11.601  69.800  1.00  0.00    -0.303 NA 
HETATM   32  H   UNL     1     -12.485  10.226  68.191  1.00  0.00     0.000 HD 
HETATM   33  N   UNL     1     -11.646  12.829  69.858  1.00  0.00    -0.226 NA 
HETATM   34  N   UNL     1     -12.150  11.136  68.507  1.00  0.00    -0.594 NA 
HETATM   35  N   UNL     1     -11.339  13.135  68.592  1.00  0.00    -0.269 NA 
ENDBRANCH  25  30
ENDBRANCH  21  24
ENDBRANCH  17  18
ENDBRANCH   9  17
ENDBRANCH   3   4
ENDBRANCH   2   3
TORSDOF 6
ENDMDL
MODEL       23
REMARK 921   NORMALIZED FREE ENERGY PREDICTED BY IDOCK:   -7.31 KCAL/MOL
REMARK 922        TOTAL FREE ENERGY PREDICTED BY IDOCK:  -11.03 KCAL/MOL
REMARK 923 INTER-LIGAND FREE ENERGY PREDICTED BY IDOCK:   -9.36 KCAL/MOL
REMARK 924 INTRA-LIGAND FREE ENERGY PREDICTED BY IDOCK:   -1.67 KCAL/MOL
REMARK 927      BINDING AFFINITY PREDICTED BY RF-SCORE:    0.00 PKD
ROOT
HETATM    1  C   UNL     1      -9.870   6.106  66.312  1.00  0.00    -0.081 C  
HETATM    2  C   UNL     1     -10.340   5.486  67.623  1.00  0.00    -0.256 C  
ENDROOT
BRANCH   2   3
HETATM    3  C   UNL     1     -11.082   6.464  68.545  1.00  0.00    -0.385 C  
BRANCH   3   4
HETATM    4  C   UNL     1     -10.396   6.652  69.863  1.00  0.00    -0.200 A  
HETATM    5  N   UNL     1     -10.763   5.939  70.911  1.00  0.00    -0.261 NA 
HETATM    6  C   UNL     1     -10.081   6.415  71.995  1.00  0.00    -0.178 A  
HETATM    7  C   UNL     1     -10.339   5.837  73.371  1.00  0.00    -0.225 C  
HETATM    8  C   UNL     1      -9.271   7.480  71.610  1.00  0.00    -0.134 A  
HETATM    9  N   UNL     1      -9.380   7.527  70.207  1.00  0.00    -0.161 NA 
HETATM   10  O   UNL     1     -10.806   6.908  74.218  1.00  0.00    -0.420 OA 
HETATM   11  C   UNL     1      -9.063   5.275  74.009  1.00  0.00    -0.118 C  
HETATM   12  C   UNL     1     -11.407   4.731  73.374  1.00  0.00    -0.397 C  
HETATM   13  C   UNL     1      -8.444   8.364  72.398  1.00  0.00    -0.172 C  
HETATM   14  O   UNL     1      -8.899   8.576  73.653  1.00  0.00    -0.249 OA 
HETATM   15  O   UNL     1      -7.440   8.942  71.990  1.00  0.00    -0.314 OA 
HETATM   16  H   UNL     1     -10.968   6.547  75.082  1.00  0.00     0.000 HD 
BRANCH   9  17
HETATM   17  C   UNL     1      -8.523   8.435  69.405  1.00  0.00    -0.125 C  
BRANCH  17  18
HETATM   18  C   UNL     1      -9.187   9.530  68.615  1.00  0.00    -0.135 A  
HETATM   19  C   UNL     1      -8.927   9.681  67.250  1.00  0.00    -0.146 A  
HETATM   20  C   UNL     1      -9.314  10.854  66.587  1.00  0.00    -0.191 A  
HETATM   21  C   UNL     1      -9.920  11.932  67.271  1.00  0.00    -0.200 A  
HETATM   22  C   UNL     1     -10.360  11.660  68.576  1.00  0.00    -0.224 A  
HETATM   23  C   UNL     1     -10.021  10.467  69.234  1.00  0.00    -0.246 A  
BRANCH  21  24
HETATM   24  C   UNL     1      -9.855  13.322  66.695  1.00  0.00    -0.276 A  
HETATM   25  C   UNL     1     -10.643  13.854  65.639  1.00  0.00    -0.306 A  
HETATM   26  C   UNL     1     -10.565  15.243  65.347  1.00  0.00    -0.413 A  
HETATM   27  C   UNL     1      -9.002  14.244  67.370  1.00  0.00    -0.205 A  
HETATM   28  C   UNL     1      -8.917  15.597  67.045  1.00  0.00    -0.244 A  
HETATM   29  C   UNL     1      -9.715  16.104  66.040  1.00  0.00    -0.376 A  
BRANCH  25  30
HETATM   30  C   UNL     1     -11.521  13.051  64.784  1.00  0.00    -0.327 A  
HETATM   31  N   UNL     1     -12.405  11.859  63.210  1.00  0.00    -0.507 NA 
HETATM   32  H   UNL     1     -10.348  12.464  63.152  1.00  0.00     0.000 HD 
HETATM   33  N   UNL     1     -13.390  12.066  64.069  1.00  0.00    -0.625 NA 
HETATM   34  N   UNL     1     -11.247  12.465  63.634  1.00  0.00    -0.442 NA 
HETATM   35  N   UNL     1     -12.846  12.804  65.044  1.00  0.00    -0.821 NA 
ENDBRANCH  25  30
ENDBRANCH  21  24
ENDBRANCH  17  18
ENDBRANCH   9  17
ENDBRANCH   3   4
ENDBRANCH   2   3
TORSDOF 6
ENDMDL
MODEL       24
REMARK 921   NORMALIZED FREE ENERGY PREDICTED BY IDOCK:   -7.28 KCAL/MOL
REMARK 922        TOTAL FREE ENERGY PREDICTED BY IDOCK:  -10.99 KCAL/MOL
REMARK 923 INTER-LIGAND FREE ENERGY PREDICTED BY IDOCK:   -9.94 KCAL/MOL
REMARK 924 INTRA-LIGAND FREE ENERGY PREDICTED BY IDOCK:   -1.05 KCAL/MOL
REMARK 927      BINDING AFFINITY PREDICTED BY RF-SCORE:    0.00 PKD
ROOT
HETATM    1  C   UNL     1     -13.564  13.963  72.392  1.00  0.00    -0.676 C  
HETATM    2  C   UNL     1     -13.165  12.725  71.598  1.00  0.00    -0.410 C  
ENDROOT
BRANCH   2   3
HETATM    3  C   UNL     1     -12.309  13.025  70.361  1.00  0.00    -0.351 C  
BRANCH   3   4
HETATM    4  C   UNL     1     -11.721  11.791  69.748  1.00  0.00    -0.335 A  
HETATM    5  N   UNL     1     -11.497  10.723  70.490  1.00  0.00    -0.313 NA 
HETATM    6  C   UNL     1     -10.832   9.814  69.715  1.00  0.00    -0.257 A  
HETATM    7  C   UNL     1     -10.373   8.499  70.310  1.00  0.00    -0.205 C  
HETATM    8  C   UNL     1     -10.615  10.346  68.447  1.00  0.00    -0.208 A  
HETATM    9  N   UNL     1     -11.319  11.566  68.442  1.00  0.00    -0.252 NA 
HETATM   10  O   UNL     1      -8.936   8.436  70.185  1.00  0.00    -0.138 OA 
HETATM   11  C   UNL     1     -10.949   7.294  69.557  1.00  0.00    -0.182 C  
HETATM   12  C   UNL     1     -10.726   8.350  71.799  1.00  0.00    -0.355 C  
HETATM   13  C   UNL     1      -9.881   9.820  67.320  1.00  0.00    -0.181 C  
HETATM   14  O   UNL     1      -8.840   9.027  67.659  1.00  0.00    -0.124 OA 
HETATM   15  O   UNL     1     -10.108  10.087  66.143  1.00  0.00    -0.245 OA 
HETATM   16  H   UNL     1      -8.648   7.611  70.557  1.00  0.00     0.000 HD 
BRANCH   9  17
HETATM   17  C   UNL     1     -11.467  12.357  67.196  1.00  0.00    -0.357 C  
BRANCH  17  18
HETATM   18  C   UNL     1     -10.628  13.595  67.032  1.00  0.00    -0.274 A  
HETATM   19  C   UNL     1      -9.934  14.133  68.119  1.00  0.00    -0.232 A  
HETATM   20  C   UNL     1      -9.394  15.423  68.038  1.00  0.00    -0.196 A  
HETATM   21  C   UNL     1      -9.575  16.238  66.898  1.00  0.00    -0.244 A  
HETATM   22  C   UNL     1     -10.079  15.592  65.758  1.00  0.00    -0.394 A  
HETATM   23  C   UNL     1     -10.577  14.280  65.815  1.00  0.00    -0.315 A  
BRANCH  21  24
HETATM   24  C   UNL     1      -9.457  17.734  67.013  1.00  0.00    -0.271 A  
HETATM   25  C   UNL     1      -8.353  18.543  66.629  1.00  0.00    -0.285 A  
HETATM   26  C   UNL     1      -8.490  19.959  66.649  1.00  0.00    -0.381 A  
HETATM   27  C   UNL     1     -10.629  18.429  67.432  1.00  0.00    -0.445 A  
HETATM   28  C   UNL     1     -10.730  19.819  67.475  1.00  0.00    -0.494 A  
HETATM   29  C   UNL     1      -9.662  20.588  67.065  1.00  0.00    -0.548 A  
BRANCH  25  30
HETATM   30  C   UNL     1      -7.043  18.015  66.241  1.00  0.00    -0.272 A  
HETATM   31  N   UNL     1      -5.167  16.948  66.095  1.00  0.00    -0.275 NA 
HETATM   32  H   UNL     1      -6.606  16.502  67.621  1.00  0.00     0.000 HD 
HETATM   33  N   UNL     1      -5.132  17.826  65.105  1.00  0.00    -0.108 NA 
HETATM   34  N   UNL     1      -6.336  17.056  66.809  1.00  0.00    -0.198 NA 
HETATM   35  N   UNL     1      -6.292  18.488  65.194  1.00  0.00    -0.422 NA 
ENDBRANCH  25  30
ENDBRANCH  21  24
ENDBRANCH  17  18
ENDBRANCH   9  17
ENDBRANCH   3   4
ENDBRANCH   2   3
TORSDOF 6
ENDMDL
MODEL       25
REMARK 921   NORMALIZED FREE ENERGY PREDICTED BY IDOCK:   -7.28 KCAL/MOL
REMARK 922        TOTAL FREE ENERGY PREDICTED BY IDOCK:  -10.98 KCAL/MOL
REMARK 923 INTER-LIGAND FREE ENERGY PREDICTED BY IDOCK:   -9.27 KCAL/MOL
REMARK 924 INTRA-LIGAND FREE ENERGY PREDICTED BY IDOCK:   -1.71 KCAL/MOL
REMARK 927      BINDING AFFINITY PREDICTED BY RF-SCORE:    0.00 PKD
ROOT
HETATM    1  C   UNL     1     -13.753  15.172  71.709  1.00  0.00    -0.578 C  
HETATM    2  C   UNL     1     -12.633  15.579  70.759  1.00  0.00    -0.505 C  
ENDROOT
BRANCH   2   3
HETATM    3  C   UNL     1     -12.269  14.505  69.726  1.00  0.00    -0.360 C  
BRANCH   3   4
HETATM    4  C   UNL     1     -11.638  15.076  68.493  1.00  0.00    -0.326 A  
HETATM    5  N   UNL     1     -10.859  16.138  68.576  1.00  0.00    -0.296 NA 
HETATM    6  C   UNL     1     -10.546  16.521  67.302  1.00  0.00    -0.285 A  
HETATM    7  C   UNL     1      -9.712  17.762  67.064  1.00  0.00    -0.290 C  
HETATM    8  C   UNL     1     -11.172  15.676  66.389  1.00  0.00    -0.038 A  
HETATM    9  N   UNL     1     -11.756  14.665  67.176  1.00  0.00    -0.385 NA 
HETATM   10  O   UNL     1     -10.499  18.679  66.275  1.00  0.00    -0.416 OA 
HETATM   11  C   UNL     1      -8.437  17.455  66.267  1.00  0.00    -0.260 C  
HETATM   12  C   UNL     1      -9.306  18.479  68.362  1.00  0.00    -0.359 C  
HETATM   13  C   UNL     1     -11.229  15.727  64.947  1.00  0.00    -0.350 C  
HETATM   14  O   UNL     1     -11.169  16.977  64.435  1.00  0.00    -1.167 OA 
HETATM   15  O   UNL     1     -11.377  14.755  64.211  1.00  0.00    -0.236 OA 
HETATM   16  H   UNL     1      -9.976  19.458  66.126  1.00  0.00     0.000 HD 
BRANCH   9  17
HETATM   17  C   UNL     1     -12.380  13.473  66.548  1.00  0.00    -0.327 C  
BRANCH  17  18
HETATM   18  C   UNL     1     -11.671  12.152  66.668  1.00  0.00    -0.385 A  
HETATM   19  C   UNL     1     -11.749  11.407  67.848  1.00  0.00    -0.300 A  
HETATM   20  C   UNL     1     -10.872  10.334  68.060  1.00  0.00    -0.325 A  
HETATM   21  C   UNL     1      -9.857  10.005  67.134  1.00  0.00    -0.231 A  
HETATM   22  C   UNL     1      -9.950  10.626  65.877  1.00  0.00    -0.312 A  
HETATM   23  C   UNL     1     -10.860  11.668  65.637  1.00  0.00    -0.330 A  
BRANCH  21  24
HETATM   24  C   UNL     1      -8.645   9.234  67.584  1.00  0.00    -0.116 A  
HETATM   25  C   UNL     1      -7.414   9.764  68.055  1.00  0.00    -0.082 A  
HETATM   26  C   UNL     1      -6.443   8.881  68.604  1.00  0.00    -0.054 A  
HETATM   27  C   UNL     1      -8.795   7.819  67.671  1.00  0.00    -0.128 A  
HETATM   28  C   UNL     1      -7.816   6.968  68.183  1.00  0.00    -0.118 A  
HETATM   29  C   UNL     1      -6.641   7.502  68.668  1.00  0.00    -0.053 A  
BRANCH  25  30
HETATM   30  C   UNL     1      -7.046  11.180  67.980  1.00  0.00    -0.073 A  
HETATM   31  N   UNL     1      -6.398  13.153  67.377  1.00  0.00    -0.273 NA 
HETATM   32  H   UNL     1      -6.562  11.538  65.975  1.00  0.00     0.000 HD 
HETATM   33  N   UNL     1      -6.613  13.253  68.679  1.00  0.00    -0.084 NA 
HETATM   34  N   UNL     1      -6.656  11.879  66.931  1.00  0.00    -0.123 NA 
HETATM   35  N   UNL     1      -7.013  12.033  69.055  1.00  0.00    -0.106 NA 
ENDBRANCH  25  30
ENDBRANCH  21  24
ENDBRANCH  17  18
ENDBRANCH   9  17
ENDBRANCH   3   4
ENDBRANCH   2   3
TORSDOF 6
ENDMDL
MODEL       26
REMARK 921   NORMALIZED FREE ENERGY PREDICTED BY IDOCK:   -7.27 KCAL/MOL
REMARK 922        TOTAL FREE ENERGY PREDICTED BY IDOCK:  -10.98 KCAL/MOL
REMARK 923 INTER-LIGAND FREE ENERGY PREDICTED BY IDOCK:   -9.37 KCAL/MOL
REMARK 924 INTRA-LIGAND FREE ENERGY PREDICTED BY IDOCK:   -1.61 KCAL/MOL
REMARK 927      BINDING AFFINITY PREDICTED BY RF-SCORE:    0.00 PKD
ROOT
HETATM    1  C   UNL     1     -12.145  12.630  63.635  1.00  0.00    -0.632 C  
HETATM    2  C   UNL     1     -12.120  14.057  64.167  1.00  0.00    -0.456 C  
ENDROOT
BRANCH   2   3
HETATM    3  C   UNL     1     -12.151  14.154  65.698  1.00  0.00    -0.425 C  
BRANCH   3   4
HETATM    4  C   UNL     1     -10.962  14.871  66.259  1.00  0.00    -0.338 A  
HETATM    5  N   UNL     1     -11.071  16.123  66.664  1.00  0.00    -0.049 NA 
HETATM    6  C   UNL     1      -9.819  16.564  66.985  1.00  0.00    -0.257 A  
HETATM    7  C   UNL     1      -9.606  17.998  67.424  1.00  0.00    -0.272 C  
HETATM    8  C   UNL     1      -8.890  15.553  66.752  1.00  0.00    -0.265 A  
HETATM    9  N   UNL     1      -9.662  14.424  66.419  1.00  0.00    -0.290 NA 
HETATM   10  O   UNL     1      -8.698  18.616  66.488  1.00  0.00    -0.294 OA 
HETATM   11  C   UNL     1      -8.959  18.086  68.812  1.00  0.00    -0.221 C  
HETATM   12  C   UNL     1     -10.902  18.825  67.444  1.00  0.00    -0.414 C  
HETATM   13  C   UNL     1      -7.448  15.562  66.844  1.00  0.00    -0.082 C  
HETATM   14  O   UNL     1      -6.884  16.762  66.578  1.00  0.00    -0.220 OA 
HETATM   15  O   UNL     1      -6.750  14.580  67.082  1.00  0.00    -0.218 OA 
HETATM   16  H   UNL     1      -8.564  19.515  66.763  1.00  0.00     0.000 HD 
BRANCH   9  17
HETATM   17  C   UNL     1      -9.033  13.089  66.262  1.00  0.00     0.097 C  
BRANCH  17  18
HETATM   18  C   UNL     1      -9.509  11.968  67.145  1.00  0.00    -0.187 A  
HETATM   19  C   UNL     1     -10.684  11.274  66.843  1.00  0.00    -0.319 A  
HETATM   20  C   UNL     1     -11.271  10.437  67.802  1.00  0.00    -0.309 A  
HETATM   21  C   UNL     1     -10.742  10.309  69.106  1.00  0.00    -0.259 A  
HETATM   22  C   UNL     1      -9.456  10.841  69.300  1.00  0.00    -0.103 A  
HETATM   23  C   UNL     1      -8.835  11.640  68.326  1.00  0.00    -0.167 A  
BRANCH  21  24
HETATM   24  C   UNL     1     -11.623   9.852  70.237  1.00  0.00    -0.319 A  
HETATM   25  C   UNL     1     -11.602   8.588  70.888  1.00  0.00    -0.295 A  
HETATM   26  C   UNL     1     -12.391   8.395  72.055  1.00  0.00    -0.413 A  
HETATM   27  C   UNL     1     -12.484  10.836  70.804  1.00  0.00    -0.481 A  
HETATM   28  C   UNL     1     -13.274  10.615  71.932  1.00  0.00    -0.528 A  
HETATM   29  C   UNL     1     -13.215   9.395  72.571  1.00  0.00    -0.403 A  
BRANCH  25  30
HETATM   30  C   UNL     1     -10.839   7.431  70.411  1.00  0.00    -0.243 A  
HETATM   31  N   UNL     1      -9.313   5.983  69.909  1.00  0.00    -0.147 NA 
HETATM   32  H   UNL     1      -8.872   7.741  71.056  1.00  0.00     0.000 HD 
HETATM   33  N   UNL     1     -10.420   5.511  69.358  1.00  0.00    -0.284 NA 
HETATM   34  N   UNL     1      -9.554   7.171  70.557  1.00  0.00    -0.169 NA 
HETATM   35  N   UNL     1     -11.366   6.405  69.666  1.00  0.00    -0.413 NA 
ENDBRANCH  25  30
ENDBRANCH  21  24
ENDBRANCH  17  18
ENDBRANCH   9  17
ENDBRANCH   3   4
ENDBRANCH   2   3
TORSDOF 6
ENDMDL
MODEL       27
REMARK 921   NORMALIZED FREE ENERGY PREDICTED BY IDOCK:   -7.27 KCAL/MOL
REMARK 922        TOTAL FREE ENERGY PREDICTED BY IDOCK:  -10.97 KCAL/MOL
REMARK 923 INTER-LIGAND FREE ENERGY PREDICTED BY IDOCK:   -9.34 KCAL/MOL
REMARK 924 INTRA-LIGAND FREE ENERGY PREDICTED BY IDOCK:   -1.63 KCAL/MOL
REMARK 927      BINDING AFFINITY PREDICTED BY RF-SCORE:    0.00 PKD
ROOT
HETATM    1  C   UNL     1     -14.398   8.524  71.905  1.00  0.00    -0.536 C  
HETATM    2  C   UNL     1     -13.350   9.588  72.206  1.00  0.00    -0.526 C  
ENDROOT
BRANCH   2   3
HETATM    3  C   UNL     1     -13.056  10.526  71.028  1.00  0.00    -0.419 C  
BRANCH   3   4
HETATM    4  C   UNL     1     -11.719  10.270  70.402  1.00  0.00    -0.319 A  
HETATM    5  N   UNL     1     -10.832   9.511  71.016  1.00  0.00    -0.329 NA 
HETATM    6  C   UNL     1      -9.670   9.571  70.300  1.00  0.00    -0.263 A  
HETATM    7  C   UNL     1      -8.434   8.849  70.793  1.00  0.00    -0.182 C  
HETATM    8  C   UNL     1      -9.834  10.418  69.206  1.00  0.00    -0.225 A  
HETATM    9  N   UNL     1     -11.203  10.748  69.209  1.00  0.00    -0.250 NA 
HETATM   10  O   UNL     1      -7.400   9.835  71.002  1.00  0.00    -0.329 OA 
HETATM   11  C   UNL     1      -7.902   7.845  69.763  1.00  0.00    -0.104 C  
HETATM   12  C   UNL     1      -8.654   8.105  72.121  1.00  0.00    -0.226 C  
HETATM   13  C   UNL     1      -8.883  10.876  68.221  1.00  0.00    -0.140 C  
HETATM   14  O   UNL     1      -7.615  10.974  68.680  1.00  0.00    -0.107 OA 
HETATM   15  O   UNL     1      -9.161  11.213  67.074  1.00  0.00    -0.160 OA 
HETATM   16  H   UNL     1      -6.625   9.382  71.312  1.00  0.00     0.000 HD 
BRANCH   9  17
HETATM   17  C   UNL     1     -11.806  11.509  68.087  1.00  0.00    -0.236 C  
BRANCH  17  18
HETATM   18  C   UNL     1     -11.722  13.011  68.118  1.00  0.00    -0.391 A  
HETATM   19  C   UNL     1     -11.694  13.747  66.930  1.00  0.00    -0.424 A  
HETATM   20  C   UNL     1     -11.333  15.101  66.950  1.00  0.00    -0.264 A  
HETATM   21  C   UNL     1     -10.934  15.749  68.141  1.00  0.00    -0.330 A  
HETATM   22  C   UNL     1     -11.183  15.048  69.333  1.00  0.00    -0.299 A  
HETATM   23  C   UNL     1     -11.595  13.706  69.325  1.00  0.00    -0.363 A  
BRANCH  21  24
HETATM   24  C   UNL     1     -10.083  16.989  68.077  1.00  0.00    -0.305 A  
HETATM   25  C   UNL     1      -8.667  17.056  67.976  1.00  0.00    -0.218 A  
HETATM   26  C   UNL     1      -8.046  18.316  67.749  1.00  0.00    -0.256 A  
HETATM   27  C   UNL     1     -10.780  18.227  67.975  1.00  0.00    -0.290 A  
HETATM   28  C   UNL     1     -10.149  19.457  67.785  1.00  0.00    -0.508 A  
HETATM   29  C   UNL     1      -8.777  19.500  67.654  1.00  0.00    -0.361 A  
BRANCH  25  30
HETATM   30  C   UNL     1      -7.776  15.904  68.130  1.00  0.00    -0.132 A  
HETATM   31  N   UNL     1      -6.596  14.242  68.855  1.00  0.00    -0.090 NA 
HETATM   32  H   UNL     1      -7.922  15.334  70.140  1.00  0.00     0.000 HD 
HETATM   33  N   UNL     1      -6.274  14.350  67.576  1.00  0.00    -0.340 NA 
HETATM   34  N   UNL     1      -7.517  15.197  69.214  1.00  0.00    -0.178 NA 
HETATM   35  N   UNL     1      -7.002  15.378  67.125  1.00  0.00    -0.244 NA 
ENDBRANCH  25  30
ENDBRANCH  21  24
ENDBRANCH  17  18
ENDBRANCH   9  17
ENDBRANCH   3   4
ENDBRANCH   2   3
TORSDOF 6
ENDMDL
MODEL       28
REMARK 921   NORMALIZED FREE ENERGY PREDICTED BY IDOCK:   -7.27 KCAL/MOL
REMARK 922        TOTAL FREE ENERGY PREDICTED BY IDOCK:  -10.97 KCAL/MOL
REMARK 923 INTER-LIGAND FREE ENERGY PREDICTED BY IDOCK:  -10.15 KCAL/MOL
REMARK 924 INTRA-LIGAND FREE ENERGY PREDICTED BY IDOCK:   -0.82 KCAL/MOL
REMARK 927      BINDING AFFINITY PREDICTED BY RF-SCORE:    0.00 PKD
ROOT
HETATM    1  C   UNL     1     -13.847  13.479  72.209  1.00  0.00    -0.680 C  
HETATM    2  C   UNL     1     -13.231  12.095  72.372  1.00  0.00    -0.053 C  
ENDROOT
BRANCH   2   3
HETATM    3  C   UNL     1     -13.226  11.258  71.085  1.00  0.00    -0.085 C  
BRANCH   3   4
HETATM    4  C   UNL     1     -11.919  10.567  70.847  1.00  0.00    -0.377 A  
HETATM    5  N   UNL     1     -11.524   9.597  71.649  1.00  0.00    -0.367 NA 
HETATM    6  C   UNL     1     -10.250   9.256  71.288  1.00  0.00    -0.313 A  
HETATM    7  C   UNL     1      -9.493   8.205  72.074  1.00  0.00    -0.215 C  
HETATM    8  C   UNL     1      -9.828  10.060  70.233  1.00  0.00    -0.085 A  
HETATM    9  N   UNL     1     -10.967  10.803  69.869  1.00  0.00    -0.263 NA 
HETATM   10  O   UNL     1      -8.304   8.825  72.608  1.00  0.00    -0.407 OA 
HETATM   11  C   UNL     1      -9.039   7.039  71.188  1.00  0.00    -0.153 C  
HETATM   12  C   UNL     1     -10.297   7.630  73.251  1.00  0.00    -0.405 C  
HETATM   13  C   UNL     1      -8.546  10.150  69.575  1.00  0.00    -0.164 C  
HETATM   14  O   UNL     1      -7.492   9.866  70.374  1.00  0.00    -0.162 OA 
HETATM   15  O   UNL     1      -8.373  10.505  68.412  1.00  0.00    -0.116 OA 
HETATM   16  H   UNL     1      -7.829   8.167  73.100  1.00  0.00     0.000 HD 
BRANCH   9  17
HETATM   17  C   UNL     1     -10.963  11.663  68.659  1.00  0.00    -0.220 C  
BRANCH  17  18
HETATM   18  C   UNL     1     -10.638  13.123  68.823  1.00  0.00    -0.225 A  
HETATM   19  C   UNL     1     -11.651  14.054  69.070  1.00  0.00    -0.345 A  
HETATM   20  C   UNL     1     -11.392  15.425  68.940  1.00  0.00    -0.322 A  
HETATM   21  C   UNL     1     -10.137  15.910  68.507  1.00  0.00    -0.217 A  
HETATM   22  C   UNL     1      -9.093  14.970  68.482  1.00  0.00    -0.188 A  
HETATM   23  C   UNL     1      -9.333  13.598  68.662  1.00  0.00    -0.057 A  
BRANCH  21  24
HETATM   24  C   UNL     1     -10.028  17.278  67.890  1.00  0.00    -0.297 A  
HETATM   25  C   UNL     1     -10.510  17.690  66.618  1.00  0.00    -0.286 A  
HETATM   26  C   UNL     1     -10.473  19.070  66.275  1.00  0.00    -0.534 A  
HETATM   27  C   UNL     1      -9.500  18.306  68.724  1.00  0.00    -0.298 A  
HETATM   28  C   UNL     1      -9.443  19.649  68.355  1.00  0.00    -0.452 A  
HETATM   29  C   UNL     1      -9.948  20.036  67.131  1.00  0.00    -0.580 A  
BRANCH  25  30
HETATM   30  C   UNL     1     -11.020  16.772  65.596  1.00  0.00     0.004 A  
HETATM   31  N   UNL     1     -11.796  15.848  63.801  1.00  0.00    -0.625 NA 
HETATM   32  H   UNL     1     -11.264  17.924  63.865  1.00  0.00     0.000 HD 
HETATM   33  N   UNL     1     -11.774  14.874  64.698  1.00  0.00    -0.420 NA 
HETATM   34  N   UNL     1     -11.340  17.026  64.342  1.00  0.00    -1.052 NA 
HETATM   35  N   UNL     1     -11.295  15.444  65.810  1.00  0.00    -0.191 NA 
ENDBRANCH  25  30
ENDBRANCH  21  24
ENDBRANCH  17  18
ENDBRANCH   9  17
ENDBRANCH   3   4
ENDBRANCH   2   3
TORSDOF 6
ENDMDL
MODEL       29
REMARK 921   NORMALIZED FREE ENERGY PREDICTED BY IDOCK:   -7.27 KCAL/MOL
REMARK 922        TOTAL FREE ENERGY PREDICTED BY IDOCK:  -10.97 KCAL/MOL
REMARK 923 INTER-LIGAND FREE ENERGY PREDICTED BY IDOCK:   -9.51 KCAL/MOL
REMARK 924 INTRA-LIGAND FREE ENERGY PREDICTED BY IDOCK:   -1.46 KCAL/MOL
REMARK 927      BINDING AFFINITY PREDICTED BY RF-SCORE:    0.00 PKD
ROOT
HETATM    1  C   UNL     1     -12.506   8.265  72.083  1.00  0.00    -0.398 C  
HETATM    2  C   UNL     1     -12.666   9.759  71.825  1.00  0.00    -0.519 C  
ENDROOT
BRANCH   2   3
HETATM    3  C   UNL     1     -12.374  10.177  70.377  1.00  0.00    -0.268 C  
BRANCH   3   4
HETATM    4  C   UNL     1     -12.118  11.646  70.238  1.00  0.00    -0.358 A  
HETATM    5  N   UNL     1     -12.654  12.499  71.091  1.00  0.00    -0.327 NA 
HETATM    6  C   UNL     1     -12.377  13.760  70.644  1.00  0.00    -0.375 A  
HETATM    7  C   UNL     1     -12.921  14.965  71.382  1.00  0.00    -0.354 C  
HETATM    8  C   UNL     1     -11.657  13.690  69.455  1.00  0.00    -0.312 A  
HETATM    9  N   UNL     1     -11.377  12.321  69.283  1.00  0.00    -0.263 NA 
HETATM   10  O   UNL     1     -13.757  15.704  70.465  1.00  0.00    -0.835 OA 
HETATM   11  C   UNL     1     -11.806  15.911  71.844  1.00  0.00    -0.595 C  
HETATM   12  C   UNL     1     -13.774  14.594  72.606  1.00  0.00    -0.545 C  
HETATM   13  C   UNL     1     -11.220  14.735  68.558  1.00  0.00    -0.276 C  
HETATM   14  O   UNL     1     -12.032  15.815  68.529  1.00  0.00    -0.314 OA 
HETATM   15  O   UNL     1     -10.238  14.670  67.823  1.00  0.00    -0.227 OA 
HETATM   16  H   UNL     1     -14.098  16.460  70.928  1.00  0.00     0.000 HD 
BRANCH   9  17
HETATM   17  C   UNL     1     -10.472  11.857  68.201  1.00  0.00    -0.207 C  
BRANCH  17  18
HETATM   18  C   UNL     1     -10.005  10.427  68.227  1.00  0.00    -0.168 A  
HETATM   19  C   UNL     1     -10.645   9.455  67.454  1.00  0.00    -0.326 A  
HETATM   20  C   UNL     1     -10.401   8.095  67.690  1.00  0.00    -0.313 A  
HETATM   21  C   UNL     1      -9.558   7.660  68.738  1.00  0.00    -0.153 A  
HETATM   22  C   UNL     1      -8.771   8.653  69.344  1.00  0.00    -0.139 A  
HETATM   23  C   UNL     1      -8.973  10.017  69.076  1.00  0.00    -0.163 A  
BRANCH  21  24
HETATM   24  C   UNL     1      -9.706   6.270  69.298  1.00  0.00    -0.157 A  
HETATM   25  C   UNL     1      -9.477   5.041  68.622  1.00  0.00    -0.188 A  
HETATM   26  C   UNL     1      -9.497   3.828  69.364  1.00  0.00    -0.257 A  
HETATM   27  C   UNL     1      -9.981   6.179  70.694  1.00  0.00    -0.229 A  
HETATM   28  C   UNL     1     -10.028   4.975  71.395  1.00  0.00    -0.259 A  
HETATM   29  C   UNL     1      -9.768   3.794  70.731  1.00  0.00    -0.235 A  
BRANCH  25  30
HETATM   30  C   UNL     1      -9.252   4.926  67.179  1.00  0.00    -0.123 A  
HETATM   31  N   UNL     1      -8.443   4.909  65.173  1.00  0.00    -0.133 NA 
HETATM   32  H   UNL     1      -7.219   5.327  66.884  1.00  0.00     0.000 HD 
HETATM   33  N   UNL     1      -9.729   4.634  65.020  1.00  0.00    -0.119 NA 
HETATM   34  N   UNL     1      -8.135   5.098  66.499  1.00  0.00    -0.108 NA 
HETATM   35  N   UNL     1     -10.232   4.645  66.259  1.00  0.00    -0.267 NA 
ENDBRANCH  25  30
ENDBRANCH  21  24
ENDBRANCH  17  18
ENDBRANCH   9  17
ENDBRANCH   3   4
ENDBRANCH   2   3
TORSDOF 6
ENDMDL
MODEL       30
REMARK 921   NORMALIZED FREE ENERGY PREDICTED BY IDOCK:   -7.23 KCAL/MOL
REMARK 922        TOTAL FREE ENERGY PREDICTED BY IDOCK:  -10.91 KCAL/MOL
REMARK 923 INTER-LIGAND FREE ENERGY PREDICTED BY IDOCK:   -9.68 KCAL/MOL
REMARK 924 INTRA-LIGAND FREE ENERGY PREDICTED BY IDOCK:   -1.23 KCAL/MOL
REMARK 927      BINDING AFFINITY PREDICTED BY RF-SCORE:    0.00 PKD
ROOT
HETATM    1  C   UNL     1     -13.316  12.408  71.891  1.00  0.00    -0.450 C  
HETATM    2  C   UNL     1     -12.338  11.696  70.963  1.00  0.00    -0.405 C  
ENDROOT
BRANCH   2   3
HETATM    3  C   UNL     1     -12.165  12.376  69.599  1.00  0.00    -0.171 C  
BRANCH   3   4
HETATM    4  C   UNL     1     -11.628  11.448  68.552  1.00  0.00    -0.318 A  
HETATM    5  N   UNL     1     -11.192  10.248  68.888  1.00  0.00    -0.229 NA 
HETATM    6  C   UNL     1     -10.633   9.686  67.775  1.00  0.00    -0.264 A  
HETATM    7  C   UNL     1      -9.979   8.322  67.858  1.00  0.00    -0.183 C  
HETATM    8  C   UNL     1     -10.705  10.579  66.709  1.00  0.00    -0.188 A  
HETATM    9  N   UNL     1     -11.476  11.654  67.191  1.00  0.00    -0.478 NA 
HETATM   10  O   UNL     1      -8.594   8.473  67.481  1.00  0.00    -0.127 OA 
HETATM   11  C   UNL     1     -10.609   7.320  66.884  1.00  0.00    -0.375 C  
HETATM   12  C   UNL     1     -10.022   7.714  69.270  1.00  0.00    -0.180 C  
HETATM   13  C   UNL     1     -10.173  10.488  65.369  1.00  0.00    -0.270 C  
HETATM   14  O   UNL     1      -9.035   9.764  65.273  1.00  0.00    -0.166 OA 
HETATM   15  O   UNL     1     -10.644  11.049  64.383  1.00  0.00    -0.352 OA 
HETATM   16  H   UNL     1      -8.183   7.618  67.533  1.00  0.00     0.000 HD 
BRANCH   9  17
HETATM   17  C   UNL     1     -11.920  12.742  66.285  1.00  0.00    -0.395 C  
BRANCH  17  18
HETATM   18  C   UNL     1     -11.050  13.963  66.158  1.00  0.00    -0.299 A  
HETATM   19  C   UNL     1     -10.112  14.274  67.146  1.00  0.00    -0.254 A  
HETATM   20  C   UNL     1      -9.512  15.541  67.171  1.00  0.00    -0.223 A  
HETATM   21  C   UNL     1      -9.869  16.554  66.252  1.00  0.00    -0.336 A  
HETATM   22  C   UNL     1     -10.640  16.140  65.153  1.00  0.00    -0.366 A  
HETATM   23  C   UNL     1     -11.204  14.855  65.092  1.00  0.00    -0.389 A  
BRANCH  21  24
HETATM   24  C   UNL     1      -9.628  18.000  66.591  1.00  0.00    -0.315 A  
HETATM   25  C   UNL     1      -8.400  18.711  66.510  1.00  0.00    -0.304 A  
HETATM   26  C   UNL     1      -8.399  20.120  66.703  1.00  0.00    -0.338 A  
HETATM   27  C   UNL     1     -10.783  18.775  66.904  1.00  0.00    -0.406 A  
HETATM   28  C   UNL     1     -10.754  20.152  67.123  1.00  0.00    -0.230 A  
HETATM   29  C   UNL     1      -9.559  20.831  67.005  1.00  0.00    -0.411 A  
BRANCH  25  30
HETATM   30  C   UNL     1      -7.099  18.079  66.273  1.00  0.00    -0.272 A  
HETATM   31  N   UNL     1      -5.256  16.954  66.397  1.00  0.00    -0.363 NA 
HETATM   32  H   UNL     1      -6.743  16.865  67.940  1.00  0.00     0.000 HD 
HETATM   33  N   UNL     1      -5.171  17.614  65.252  1.00  0.00    -0.112 NA 
HETATM   34  N   UNL     1      -6.437  17.236  67.041  1.00  0.00    -0.158 NA 
HETATM   35  N   UNL     1      -6.310  18.311  65.173  1.00  0.00    -0.354 NA 
ENDBRANCH  25  30
ENDBRANCH  21  24
ENDBRANCH  17  18
ENDBRANCH   9  17
ENDBRANCH   3   4
ENDBRANCH   2   3
TORSDOF 6
ENDMDL
MODEL       31
REMARK 921   NORMALIZED FREE ENERGY PREDICTED BY IDOCK:   -7.23 KCAL/MOL
REMARK 922        TOTAL FREE ENERGY PREDICTED BY IDOCK:  -10.91 KCAL/MOL
REMARK 923 INTER-LIGAND FREE ENERGY PREDICTED BY IDOCK:   -9.62 KCAL/MOL
REMARK 924 INTRA-LIGAND FREE ENERGY PREDICTED BY IDOCK:   -1.30 KCAL/MOL
REMARK 927      BINDING AFFINITY PREDICTED BY RF-SCORE:    0.00 PKD
ROOT
HETATM    1  C   UNL     1     -12.526  12.112  63.604  1.00  0.00    -0.658 C  
HETATM    2  C   UNL     1     -11.491  13.102  64.125  1.00  0.00    -0.449 C  
ENDROOT
BRANCH   2   3
HETATM    3  C   UNL     1     -11.898  13.803  65.428  1.00  0.00    -0.371 C  
BRANCH   3   4
HETATM    4  C   UNL     1     -10.755  14.510  66.088  1.00  0.00    -0.310 A  
HETATM    5  N   UNL     1     -10.884  15.765  66.476  1.00  0.00    -0.276 NA 
HETATM    6  C   UNL     1      -9.660  16.194  66.904  1.00  0.00    -0.230 A  
HETATM    7  C   UNL     1      -9.470  17.627  67.354  1.00  0.00    -0.256 C  
HETATM    8  C   UNL     1      -8.725  15.172  66.758  1.00  0.00    -0.273 A  
HETATM    9  N   UNL     1      -9.478  14.049  66.363  1.00  0.00    -0.279 NA 
HETATM   10  O   UNL     1      -8.476  18.231  66.498  1.00  0.00    -0.262 OA 
HETATM   11  C   UNL     1      -8.946  17.716  68.792  1.00  0.00    -0.207 C  
HETATM   12  C   UNL     1     -10.753  18.469  67.257  1.00  0.00    -0.417 C  
HETATM   13  C   UNL     1      -7.297  15.165  66.975  1.00  0.00     0.020 C  
HETATM   14  O   UNL     1      -6.699  16.357  66.754  1.00  0.00    -0.201 OA 
HETATM   15  O   UNL     1      -6.634  14.177  67.277  1.00  0.00    -0.274 OA 
HETATM   16  H   UNL     1      -8.357  19.130  66.781  1.00  0.00     0.000 HD 
BRANCH   9  17
HETATM   17  C   UNL     1      -8.853  12.707  66.267  1.00  0.00     0.106 C  
BRANCH  17  18
HETATM   18  C   UNL     1      -9.323  11.633  67.209  1.00  0.00    -0.170 A  
HETATM   19  C   UNL     1     -10.467  10.883  66.922  1.00  0.00    -0.299 A  
HETATM   20  C   UNL     1     -11.059  10.094  67.917  1.00  0.00    -0.303 A  
HETATM   21  C   UNL     1     -10.566  10.070  69.241  1.00  0.00    -0.249 A  
HETATM   22  C   UNL     1      -9.304  10.653  69.436  1.00  0.00    -0.082 A  
HETATM   23  C   UNL     1      -8.677  11.404  68.428  1.00  0.00    -0.157 A  
BRANCH  21  24
HETATM   24  C   UNL     1     -11.468   9.661  70.375  1.00  0.00    -0.325 A  
HETATM   25  C   UNL     1     -12.412  10.473  71.060  1.00  0.00    -0.501 A  
HETATM   26  C   UNL     1     -13.303   9.868  71.989  1.00  0.00    -0.532 A  
HETATM   27  C   UNL     1     -11.470   8.276  70.711  1.00  0.00    -0.268 A  
HETATM   28  C   UNL     1     -12.331   7.709  71.650  1.00  0.00    -0.354 A  
HETATM   29  C   UNL     1     -13.264   8.505  72.280  1.00  0.00    -0.361 A  
BRANCH  25  30
HETATM   30  C   UNL     1     -12.511  11.926  70.905  1.00  0.00    -0.300 A  
HETATM   31  N   UNL     1     -12.945  14.036  71.104  1.00  0.00    -0.337 NA 
HETATM   32  H   UNL     1     -13.574  12.607  72.576  1.00  0.00     0.000 HD 
HETATM   33  N   UNL     1     -12.285  13.935  69.961  1.00  0.00    -0.339 NA 
HETATM   34  N   UNL     1     -13.098  12.805  71.695  1.00  0.00    -0.381 NA 
HETATM   35  N   UNL     1     -12.016  12.630  69.835  1.00  0.00    -0.323 NA 
ENDBRANCH  25  30
ENDBRANCH  21  24
ENDBRANCH  17  18
ENDBRANCH   9  17
ENDBRANCH   3   4
ENDBRANCH   2   3
TORSDOF 6
ENDMDL
MODEL       32
REMARK 921   NORMALIZED FREE ENERGY PREDICTED BY IDOCK:   -7.21 KCAL/MOL
REMARK 922        TOTAL FREE ENERGY PREDICTED BY IDOCK:  -10.90 KCAL/MOL
REMARK 923 INTER-LIGAND FREE ENERGY PREDICTED BY IDOCK:   -9.39 KCAL/MOL
REMARK 924 INTRA-LIGAND FREE ENERGY PREDICTED BY IDOCK:   -1.50 KCAL/MOL
REMARK 927      BINDING AFFINITY PREDICTED BY RF-SCORE:    0.00 PKD
ROOT
HETATM    1  C   UNL     1     -13.765   9.461  72.166  1.00  0.00    -0.490 C  
HETATM    2  C   UNL     1     -13.133  10.807  71.831  1.00  0.00    -0.557 C  
ENDROOT
BRANCH   2   3
HETATM    3  C   UNL     1     -12.621  10.914  70.388  1.00  0.00    -0.376 C  
BRANCH   3   4
HETATM    4  C   UNL     1     -11.374  10.119  70.154  1.00  0.00    -0.303 A  
HETATM    5  N   UNL     1     -10.768   9.520  71.162  1.00  0.00    -0.338 NA 
HETATM    6  C   UNL     1      -9.596   9.000  70.690  1.00  0.00    -0.237 A  
HETATM    7  C   UNL     1      -8.638   8.303  71.633  1.00  0.00    -0.155 C  
HETATM    8  C   UNL     1      -9.456   9.305  69.338  1.00  0.00    -0.168 A  
HETATM    9  N   UNL     1     -10.677   9.904  68.976  1.00  0.00    -0.216 NA 
HETATM   10  O   UNL     1      -7.386   9.020  71.602  1.00  0.00    -0.276 OA 
HETATM   11  C   UNL     1      -8.347   6.861  71.198  1.00  0.00    -0.119 C  
HETATM   12  C   UNL     1      -9.132   8.275  73.089  1.00  0.00    -0.305 C  
HETATM   13  C   UNL     1      -8.359   9.065  68.430  1.00  0.00    -0.124 C  
HETATM   14  O   UNL     1      -7.142   9.062  69.018  1.00  0.00    -0.062 OA 
HETATM   15  O   UNL     1      -8.467   8.928  67.214  1.00  0.00    -0.114 OA 
HETATM   16  H   UNL     1      -6.785   8.583  72.193  1.00  0.00     0.000 HD 
BRANCH   9  17
HETATM   17  C   UNL     1     -10.981  10.222  67.559  1.00  0.00    -0.280 C  
BRANCH  17  18
HETATM   18  C   UNL     1     -10.777  11.635  67.085  1.00  0.00    -0.288 A  
HETATM   19  C   UNL     1      -9.561  12.290  67.300  1.00  0.00    -0.187 A  
HETATM   20  C   UNL     1      -9.468  13.676  67.119  1.00  0.00    -0.244 A  
HETATM   21  C   UNL     1     -10.592  14.461  66.775  1.00  0.00    -0.282 A  
HETATM   22  C   UNL     1     -11.730  13.752  66.357  1.00  0.00    -0.404 A  
HETATM   23  C   UNL     1     -11.815  12.356  66.486  1.00  0.00    -0.407 A  
BRANCH  21  24
HETATM   24  C   UNL     1     -10.607  15.934  67.084  1.00  0.00    -0.316 A  
HETATM   25  C   UNL     1     -10.856  16.547  68.342  1.00  0.00    -0.348 A  
HETATM   26  C   UNL     1     -10.655  17.947  68.484  1.00  0.00    -0.221 A  
HETATM   27  C   UNL     1     -10.200  16.804  66.031  1.00  0.00    -0.361 A  
HETATM   28  C   UNL     1     -10.041  18.181  66.184  1.00  0.00    -0.338 A  
HETATM   29  C   UNL     1     -10.252  18.754  67.421  1.00  0.00    -0.444 A  
BRANCH  25  30
HETATM   30  C   UNL     1     -11.352  15.831  69.521  1.00  0.00    -0.328 A  
HETATM   31  N   UNL     1     -11.602  14.851  71.433  1.00  0.00    -0.332 NA 
HETATM   32  H   UNL     1      -9.780  15.852  70.904  1.00  0.00     0.000 HD 
HETATM   33  N   UNL     1     -12.748  14.652  70.800  1.00  0.00    -0.343 NA 
HETATM   34  N   UNL     1     -10.728  15.571  70.654  1.00  0.00    -0.305 NA 
HETATM   35  N   UNL     1     -12.596  15.257  69.617  1.00  0.00    -0.128 NA 
ENDBRANCH  25  30
ENDBRANCH  21  24
ENDBRANCH  17  18
ENDBRANCH   9  17
ENDBRANCH   3   4
ENDBRANCH   2   3
TORSDOF 6
ENDMDL
MODEL       33
REMARK 921   NORMALIZED FREE ENERGY PREDICTED BY IDOCK:   -7.21 KCAL/MOL
REMARK 922        TOTAL FREE ENERGY PREDICTED BY IDOCK:  -10.89 KCAL/MOL
REMARK 923 INTER-LIGAND FREE ENERGY PREDICTED BY IDOCK:   -9.70 KCAL/MOL
REMARK 924 INTRA-LIGAND FREE ENERGY PREDICTED BY IDOCK:   -1.20 KCAL/MOL
REMARK 927      BINDING AFFINITY PREDICTED BY RF-SCORE:    0.00 PKD
ROOT
HETATM    1  C   UNL     1     -11.065  12.492  63.734  1.00  0.00    -0.503 C  
HETATM    2  C   UNL     1     -10.771  11.480  64.834  1.00  0.00    -0.357 C  
ENDROOT
BRANCH   2   3
HETATM    3  C   UNL     1      -9.650  11.905  65.792  1.00  0.00    -0.241 C  
BRANCH   3   4
HETATM    4  C   UNL     1     -10.010  13.109  66.608  1.00  0.00    -0.270 A  
HETATM    5  N   UNL     1      -9.423  14.268  66.376  1.00  0.00    -0.286 NA 
HETATM    6  C   UNL     1      -9.829  15.138  67.349  1.00  0.00    -0.224 A  
HETATM    7  C   UNL     1      -9.270  16.545  67.393  1.00  0.00    -0.216 C  
HETATM    8  C   UNL     1     -10.686  14.489  68.233  1.00  0.00    -0.240 A  
HETATM    9  N   UNL     1     -10.903  13.221  67.660  1.00  0.00    -0.254 NA 
HETATM   10  O   UNL     1      -8.601  16.715  68.660  1.00  0.00    -0.233 OA 
HETATM   11  C   UNL     1     -10.374  17.607  67.315  1.00  0.00    -0.354 C  
HETATM   12  C   UNL     1      -8.251  16.829  66.277  1.00  0.00    -0.359 C  
HETATM   13  C   UNL     1     -11.293  14.947  69.461  1.00  0.00    -0.281 C  
HETATM   14  O   UNL     1     -10.556  15.858  70.136  1.00  0.00    -0.308 OA 
HETATM   15  O   UNL     1     -12.353  14.533  69.922  1.00  0.00    -0.320 OA 
HETATM   16  H   UNL     1      -8.251  17.598  68.688  1.00  0.00     0.000 HD 
BRANCH   9  17
HETATM   17  C   UNL     1     -11.906  12.287  68.229  1.00  0.00    -0.310 C  
BRANCH  17  18
HETATM   18  C   UNL     1     -11.475  11.369  69.340  1.00  0.00    -0.378 A  
HETATM   19  C   UNL     1     -10.203  10.790  69.332  1.00  0.00    -0.187 A  
HETATM   20  C   UNL     1      -9.908   9.729  70.199  1.00  0.00    -0.306 A  
HETATM   21  C   UNL     1     -10.884   9.175  71.058  1.00  0.00    -0.362 A  
HETATM   22  C   UNL     1     -12.069   9.915  71.197  1.00  0.00    -0.466 A  
HETATM   23  C   UNL     1     -12.353  11.012  70.368  1.00  0.00    -0.442 A  
BRANCH  21  24
HETATM   24  C   UNL     1     -10.724   7.770  71.574  1.00  0.00    -0.255 A  
HETATM   25  C   UNL     1     -10.338   6.620  70.834  1.00  0.00    -0.237 A  
HETATM   26  C   UNL     1     -10.069   5.407  71.527  1.00  0.00    -0.253 A  
HETATM   27  C   UNL     1     -10.848   7.598  72.984  1.00  0.00    -0.457 A  
HETATM   28  C   UNL     1     -10.611   6.390  73.639  1.00  0.00    -0.288 A  
HETATM   29  C   UNL     1     -10.202   5.293  72.910  1.00  0.00    -0.218 A  
BRANCH  25  30
HETATM   30  C   UNL     1     -10.230   6.580  69.374  1.00  0.00    -0.183 A  
HETATM   31  N   UNL     1      -9.582   6.663  67.312  1.00  0.00    -0.128 NA 
HETATM   32  H   UNL     1      -8.220   6.975  68.939  1.00  0.00     0.000 HD 
HETATM   33  N   UNL     1     -10.880   6.411  67.247  1.00  0.00    -0.345 NA 
HETATM   34  N   UNL     1      -9.167   6.777  68.617  1.00  0.00    -0.133 NA 
HETATM   35  N   UNL     1     -11.284   6.360  68.521  1.00  0.00    -0.305 NA 
ENDBRANCH  25  30
ENDBRANCH  21  24
ENDBRANCH  17  18
ENDBRANCH   9  17
ENDBRANCH   3   4
ENDBRANCH   2   3
TORSDOF 6
ENDMDL
MODEL       34
REMARK 921   NORMALIZED FREE ENERGY PREDICTED BY IDOCK:   -7.17 KCAL/MOL
REMARK 922        TOTAL FREE ENERGY PREDICTED BY IDOCK:  -10.83 KCAL/MOL
REMARK 923 INTER-LIGAND FREE ENERGY PREDICTED BY IDOCK:   -9.51 KCAL/MOL
REMARK 924 INTRA-LIGAND FREE ENERGY PREDICTED BY IDOCK:   -1.32 KCAL/MOL
REMARK 927      BINDING AFFINITY PREDICTED BY RF-SCORE:    0.00 PKD
ROOT
HETATM    1  C   UNL     1     -13.586  15.045  71.479  1.00  0.00    -0.536 C  
HETATM    2  C   UNL     1     -12.271  14.479  70.955  1.00  0.00    -0.409 C  
ENDROOT
BRANCH   2   3
HETATM    3  C   UNL     1     -11.903  14.962  69.545  1.00  0.00    -0.360 C  
BRANCH   3   4
HETATM    4  C   UNL     1     -11.435  13.851  68.656  1.00  0.00    -0.298 A  
HETATM    5  N   UNL     1     -11.219  12.648  69.152  1.00  0.00    -0.258 NA 
HETATM    6  C   UNL     1     -10.667  11.885  68.162  1.00  0.00    -0.215 A  
HETATM    7  C   UNL     1     -10.242  10.460  68.446  1.00  0.00    -0.165 C  
HETATM    8  C   UNL     1     -10.515  12.650  67.008  1.00  0.00    -0.232 A  
HETATM    9  N   UNL     1     -11.145  13.874  67.302  1.00  0.00    -0.293 NA 
HETATM   10  O   UNL     1      -8.825  10.362  68.190  1.00  0.00    -0.128 OA 
HETATM   11  C   UNL     1     -10.941   9.454  67.524  1.00  0.00    -0.088 C  
HETATM   12  C   UNL     1     -10.491  10.031  69.902  1.00  0.00    -0.317 C  
HETATM   13  C   UNL     1      -9.899  12.328  65.742  1.00  0.00    -0.244 C  
HETATM   14  O   UNL     1      -8.883  11.440  65.830  1.00  0.00    -0.200 OA 
HETATM   15  O   UNL     1     -10.197  12.834  64.663  1.00  0.00    -0.321 OA 
HETATM   16  H   UNL     1      -8.558   9.468  68.369  1.00  0.00     0.000 HD 
BRANCH   9  17
HETATM   17  C   UNL     1     -11.340  14.904  66.251  1.00  0.00    -0.306 C  
BRANCH  17  18
HETATM   18  C   UNL     1     -10.359  16.041  66.176  1.00  0.00    -0.340 A  
HETATM   19  C   UNL     1      -8.995  15.795  65.998  1.00  0.00    -0.322 A  
HETATM   20  C   UNL     1      -8.062  16.818  66.213  1.00  0.00    -0.365 A  
HETATM   21  C   UNL     1      -8.451  18.100  66.664  1.00  0.00    -0.282 A  
HETATM   22  C   UNL     1      -9.828  18.374  66.619  1.00  0.00    -0.362 A  
HETATM   23  C   UNL     1     -10.770  17.366  66.355  1.00  0.00    -0.084 A  
BRANCH  21  24
HETATM   24  C   UNL     1      -7.457  18.987  67.365  1.00  0.00    -0.247 A  
HETATM   25  C   UNL     1      -6.569  19.923  66.770  1.00  0.00    -0.218 A  
HETATM   26  C   UNL     1      -5.824  20.801  67.605  1.00  0.00    -0.317 A  
HETATM   27  C   UNL     1      -7.503  18.982  68.790  1.00  0.00    -0.369 A  
HETATM   28  C   UNL     1      -6.739  19.830  69.591  1.00  0.00    -0.351 A  
HETATM   29  C   UNL     1      -5.909  20.757  68.996  1.00  0.00    -0.377 A  
BRANCH  25  30
HETATM   30  C   UNL     1      -6.329  20.026  65.328  1.00  0.00    -0.261 A  
HETATM   31  N   UNL     1      -6.160  20.659  63.266  1.00  0.00    -0.224 NA 
HETATM   32  H   UNL     1      -6.784  22.005  64.815  1.00  0.00     0.000 HD 
HETATM   33  N   UNL     1      -5.820  19.380  63.255  1.00  0.00    -0.389 NA 
HETATM   34  N   UNL     1      -6.483  21.071  64.537  1.00  0.00    -0.231 NA 
HETATM   35  N   UNL     1      -5.925  18.985  64.529  1.00  0.00    -0.400 NA 
ENDBRANCH  25  30
ENDBRANCH  21  24
ENDBRANCH  17  18
ENDBRANCH   9  17
ENDBRANCH   3   4
ENDBRANCH   2   3
TORSDOF 6
ENDMDL
MODEL       35
REMARK 921   NORMALIZED FREE ENERGY PREDICTED BY IDOCK:   -7.16 KCAL/MOL
REMARK 922        TOTAL FREE ENERGY PREDICTED BY IDOCK:  -10.83 KCAL/MOL
REMARK 923 INTER-LIGAND FREE ENERGY PREDICTED BY IDOCK:   -9.09 KCAL/MOL
REMARK 924 INTRA-LIGAND FREE ENERGY PREDICTED BY IDOCK:   -1.74 KCAL/MOL
REMARK 927      BINDING AFFINITY PREDICTED BY RF-SCORE:    0.00 PKD
ROOT
HETATM    1  C   UNL     1      -8.589   8.911  69.219  1.00  0.00    -0.133 C  
HETATM    2  C   UNL     1      -9.251   9.785  68.160  1.00  0.00    -0.132 C  
ENDROOT
BRANCH   2   3
HETATM    3  C   UNL     1     -10.772   9.910  68.315  1.00  0.00    -0.276 C  
BRANCH   3   4
HETATM    4  C   UNL     1     -11.192  11.237  68.869  1.00  0.00    -0.253 A  
HETATM    5  N   UNL     1     -10.660  12.350  68.401  1.00  0.00    -0.231 NA 
HETATM    6  C   UNL     1     -11.111  13.381  69.176  1.00  0.00    -0.213 A  
HETATM    7  C   UNL     1     -10.620  14.792  68.928  1.00  0.00    -0.250 C  
HETATM    8  C   UNL     1     -11.941  12.887  70.180  1.00  0.00    -0.301 A  
HETATM    9  N   UNL     1     -12.095  11.520  69.880  1.00  0.00    -0.319 NA 
HETATM   10  O   UNL     1      -9.966  15.250  70.130  1.00  0.00    -0.483 OA 
HETATM   11  C   UNL     1     -11.772  15.761  68.639  1.00  0.00    -0.353 C  
HETATM   12  C   UNL     1      -9.610  14.888  67.772  1.00  0.00    -0.208 C  
HETATM   13  C   UNL     1     -12.575  13.559  71.290  1.00  0.00    -0.341 C  
HETATM   14  O   UNL     1     -11.885  14.623  71.760  1.00  0.00    -0.338 OA 
HETATM   15  O   UNL     1     -13.617  13.199  71.832  1.00  0.00    -0.432 OA 
HETATM   16  H   UNL     1      -9.658  16.135  69.974  1.00  0.00     0.000 HD 
BRANCH   9  17
HETATM   17  C   UNL     1     -13.055  10.677  70.634  1.00  0.00    -0.169 C  
BRANCH  17  18
HETATM   18  C   UNL     1     -12.537   9.433  71.304  1.00  0.00    -0.403 A  
HETATM   19  C   UNL     1     -11.200   9.341  71.699  1.00  0.00    -0.449 A  
HETATM   20  C   UNL     1     -10.657   8.099  72.056  1.00  0.00    -0.334 A  
HETATM   21  C   UNL     1     -11.409   6.905  71.977  1.00  0.00    -0.301 A  
HETATM   22  C   UNL     1     -12.792   7.064  71.792  1.00  0.00    -0.365 A  
HETATM   23  C   UNL     1     -13.355   8.313  71.484  1.00  0.00    -0.309 A  
BRANCH  21  24
HETATM   24  C   UNL     1     -10.709   5.578  71.857  1.00  0.00    -0.292 A  
HETATM   25  C   UNL     1     -10.119   5.019  70.692  1.00  0.00    -0.313 A  
HETATM   26  C   UNL     1      -9.345   3.831  70.807  1.00  0.00    -0.218 A  
HETATM   27  C   UNL     1     -10.500   4.864  73.073  1.00  0.00    -0.251 A  
HETATM   28  C   UNL     1      -9.764   3.682  73.158  1.00  0.00    -0.162 A  
HETATM   29  C   UNL     1      -9.169   3.172  72.023  1.00  0.00    -0.174 A  
BRANCH  25  30
HETATM   30  C   UNL     1     -10.285   5.567  69.343  1.00  0.00    -0.259 A  
HETATM   31  N   UNL     1     -11.020   6.434  67.503  1.00  0.00    -0.355 NA 
HETATM   32  H   UNL     1     -12.268   6.227  69.235  1.00  0.00     0.000 HD 
HETATM   33  N   UNL     1      -9.761   6.116  67.245  1.00  0.00    -0.123 NA 
HETATM   34  N   UNL     1     -11.360   6.095  68.791  1.00  0.00    -0.241 NA 
HETATM   35  N   UNL     1      -9.304   5.578  68.382  1.00  0.00    -0.109 NA 
ENDBRANCH  25  30
ENDBRANCH  21  24
ENDBRANCH  17  18
ENDBRANCH   9  17
ENDBRANCH   3   4
ENDBRANCH   2   3
TORSDOF 6
ENDMDL
MODEL       36
REMARK 921   NORMALIZED FREE ENERGY PREDICTED BY IDOCK:   -7.16 KCAL/MOL
REMARK 922        TOTAL FREE ENERGY PREDICTED BY IDOCK:  -10.82 KCAL/MOL
REMARK 923 INTER-LIGAND FREE ENERGY PREDICTED BY IDOCK:   -8.93 KCAL/MOL
REMARK 924 INTRA-LIGAND FREE ENERGY PREDICTED BY IDOCK:   -1.89 KCAL/MOL
REMARK 927      BINDING AFFINITY PREDICTED BY RF-SCORE:    0.00 PKD
ROOT
HETATM    1  C   UNL     1      -7.537   7.673  66.787  1.00  0.00    -0.098 C  
HETATM    2  C   UNL     1      -8.899   8.075  66.233  1.00  0.00    -0.191 C  
ENDROOT
BRANCH   2   3
HETATM    3  C   UNL     1      -8.832   9.111  65.103  1.00  0.00    -0.241 C  
BRANCH   3   4
HETATM    4  C   UNL     1      -9.421  10.432  65.492  1.00  0.00    -0.215 A  
HETATM    5  N   UNL     1     -10.416  10.948  64.795  1.00  0.00    -0.325 NA 
HETATM    6  C   UNL     1     -10.650  12.205  65.277  1.00  0.00    -0.281 A  
HETATM    7  C   UNL     1     -11.700  13.084  64.631  1.00  0.00    -0.361 C  
HETATM    8  C   UNL     1      -9.751  12.492  66.301  1.00  0.00    -0.254 A  
HETATM    9  N   UNL     1      -9.059  11.285  66.522  1.00  0.00    -0.178 NA 
HETATM   10  O   UNL     1     -11.043  14.275  64.147  1.00  0.00    -0.594 OA 
HETATM   11  C   UNL     1     -12.773  13.532  65.631  1.00  0.00    -0.478 C  
HETATM   12  C   UNL     1     -12.403  12.414  63.439  1.00  0.00    -0.603 C  
HETATM   13  C   UNL     1      -9.535  13.708  67.049  1.00  0.00    -0.252 C  
HETATM   14  O   UNL     1      -9.804  14.838  66.357  1.00  0.00    -0.254 OA 
HETATM   15  O   UNL     1      -9.093  13.765  68.193  1.00  0.00    -0.183 OA 
HETATM   16  H   UNL     1     -11.701  14.827  63.742  1.00  0.00     0.000 HD 
BRANCH   9  17
HETATM   17  C   UNL     1      -8.122  11.141  67.663  1.00  0.00    -0.117 C  
BRANCH  17  18
HETATM   18  C   UNL     1      -8.637  10.526  68.935  1.00  0.00    -0.153 A  
HETATM   19  C   UNL     1      -7.759   9.929  69.844  1.00  0.00    -0.177 A  
HETATM   20  C   UNL     1      -8.258   9.118  70.873  1.00  0.00    -0.220 A  
HETATM   21  C   UNL     1      -9.636   8.830  70.995  1.00  0.00    -0.290 A  
HETATM   22  C   UNL     1     -10.497   9.613  70.210  1.00  0.00    -0.338 A  
HETATM   23  C   UNL     1     -10.007  10.469  69.210  1.00  0.00    -0.233 A  
BRANCH  21  24
HETATM   24  C   UNL     1     -10.087   7.600  71.737  1.00  0.00    -0.210 A  
HETATM   25  C   UNL     1     -10.361   6.318  71.190  1.00  0.00    -0.255 A  
HETATM   26  C   UNL     1     -10.607   5.227  72.069  1.00  0.00    -0.279 A  
HETATM   27  C   UNL     1     -10.117   7.697  73.159  1.00  0.00    -0.382 A  
HETATM   28  C   UNL     1     -10.393   6.621  74.001  1.00  0.00    -0.377 A  
HETATM   29  C   UNL     1     -10.622   5.375  73.455  1.00  0.00    -0.297 A  
BRANCH  25  30
HETATM   30  C   UNL     1     -10.449   6.038  69.754  1.00  0.00    -0.255 A  
HETATM   31  N   UNL     1     -11.026   5.881  67.676  1.00  0.00    -0.241 NA 
HETATM   32  H   UNL     1     -12.183   7.004  69.090  1.00  0.00     0.000 HD 
HETATM   33  N   UNL     1      -9.916   5.165  67.772  1.00  0.00    -0.159 NA 
HETATM   34  N   UNL     1     -11.371   6.420  68.892  1.00  0.00    -0.308 NA 
HETATM   35  N   UNL     1      -9.557   5.260  69.057  1.00  0.00    -0.134 NA 
ENDBRANCH  25  30
ENDBRANCH  21  24
ENDBRANCH  17  18
ENDBRANCH   9  17
ENDBRANCH   3   4
ENDBRANCH   2   3
TORSDOF 6
ENDMDL
MODEL       37
REMARK 921   NORMALIZED FREE ENERGY PREDICTED BY IDOCK:   -7.15 KCAL/MOL
REMARK 922        TOTAL FREE ENERGY PREDICTED BY IDOCK:  -10.81 KCAL/MOL
REMARK 923 INTER-LIGAND FREE ENERGY PREDICTED BY IDOCK:   -9.05 KCAL/MOL
REMARK 924 INTRA-LIGAND FREE ENERGY PREDICTED BY IDOCK:   -1.76 KCAL/MOL
REMARK 927      BINDING AFFINITY PREDICTED BY RF-SCORE:    0.00 PKD
ROOT
HETATM    1  C   UNL     1     -10.194   6.843  67.108  1.00  0.00    -0.308 C  
HETATM    2  C   UNL     1     -10.861   5.847  68.050  1.00  0.00    -0.321 C  
ENDROOT
BRANCH   2   3
HETATM    3  C   UNL     1     -11.400   6.475  69.342  1.00  0.00    -0.395 C  
BRANCH   3   4
HETATM    4  C   UNL     1     -10.385   6.502  70.442  1.00  0.00    -0.198 A  
HETATM    5  N   UNL     1      -9.712   5.410  70.753  1.00  0.00    -0.172 NA 
HETATM    6  C   UNL     1      -8.975   5.682  71.871  1.00  0.00    -0.139 A  
HETATM    7  C   UNL     1      -8.139   4.596  72.515  1.00  0.00    -0.103 C  
HETATM    8  C   UNL     1      -9.213   6.991  72.284  1.00  0.00    -0.133 A  
HETATM    9  N   UNL     1     -10.016   7.548  71.271  1.00  0.00    -0.186 NA 
HETATM   10  O   UNL     1      -8.615   4.416  73.866  1.00  0.00    -0.101 OA 
HETATM   11  C   UNL     1      -6.658   4.983  72.602  1.00  0.00    -0.056 C  
HETATM   12  C   UNL     1      -8.241   3.243  71.793  1.00  0.00    -0.061 C  
HETATM   13  C   UNL     1      -8.752   7.706  73.452  1.00  0.00    -0.202 C  
HETATM   14  O   UNL     1      -8.543   6.923  74.534  1.00  0.00    -0.157 OA 
HETATM   15  O   UNL     1      -8.605   8.923  73.521  1.00  0.00    -0.194 OA 
HETATM   16  H   UNL     1      -8.091   3.735  74.271  1.00  0.00     0.000 HD 
BRANCH   9  17
HETATM   17  C   UNL     1     -10.345   8.995  71.268  1.00  0.00    -0.313 C  
BRANCH  17  18
HETATM   18  C   UNL     1     -10.237   9.748  69.970  1.00  0.00    -0.308 A  
HETATM   19  C   UNL     1     -11.384  10.114  69.261  1.00  0.00    -0.211 A  
HETATM   20  C   UNL     1     -11.279  10.554  67.934  1.00  0.00    -0.358 A  
HETATM   21  C   UNL     1     -10.040  10.591  67.256  1.00  0.00    -0.242 A  
HETATM   22  C   UNL     1      -8.897  10.431  68.057  1.00  0.00    -0.130 A  
HETATM   23  C   UNL     1      -8.992  10.039  69.403  1.00  0.00    -0.205 A  
BRANCH  21  24
HETATM   24  C   UNL     1     -10.001  10.559  65.751  1.00  0.00    -0.318 A  
HETATM   25  C   UNL     1     -10.610  11.479  64.855  1.00  0.00    -0.360 A  
HETATM   26  C   UNL     1     -10.319  11.390  63.466  1.00  0.00    -0.476 A  
HETATM   27  C   UNL     1      -9.156   9.574  65.163  1.00  0.00    -0.281 A  
HETATM   28  C   UNL     1      -8.911   9.484  63.793  1.00  0.00    -0.238 A  
HETATM   29  C   UNL     1      -9.481  10.407  62.942  1.00  0.00    -0.354 A  
BRANCH  25  30
HETATM   30  C   UNL     1     -11.565  12.513  65.262  1.00  0.00    -0.364 A  
HETATM   31  N   UNL     1     -13.275  13.815  65.504  1.00  0.00    -0.592 NA 
HETATM   32  H   UNL     1     -13.319  12.123  64.187  1.00  0.00     0.000 HD 
HETATM   33  N   UNL     1     -12.346  14.329  66.295  1.00  0.00    -0.428 NA 
HETATM   34  N   UNL     1     -12.806  12.698  64.855  1.00  0.00    -0.842 NA 
HETATM   35  N   UNL     1     -11.286  13.525  66.146  1.00  0.00    -0.303 NA 
ENDBRANCH  25  30
ENDBRANCH  21  24
ENDBRANCH  17  18
ENDBRANCH   9  17
ENDBRANCH   3   4
ENDBRANCH   2   3
TORSDOF 6
ENDMDL
MODEL       38
REMARK 921   NORMALIZED FREE ENERGY PREDICTED BY IDOCK:   -7.14 KCAL/MOL
REMARK 922        TOTAL FREE ENERGY PREDICTED BY IDOCK:  -10.80 KCAL/MOL
REMARK 923 INTER-LIGAND FREE ENERGY PREDICTED BY IDOCK:   -9.31 KCAL/MOL
REMARK 924 INTRA-LIGAND FREE ENERGY PREDICTED BY IDOCK:   -1.49 KCAL/MOL
REMARK 927      BINDING AFFINITY PREDICTED BY RF-SCORE:    0.00 PKD
ROOT
HETATM    1  C   UNL     1     -13.332  11.579  71.998  1.00  0.00    -0.397 C  
HETATM    2  C   UNL     1     -12.352  10.861  71.077  1.00  0.00    -0.498 C  
ENDROOT
BRANCH   2   3
HETATM    3  C   UNL     1     -11.920  11.688  69.859  1.00  0.00    -0.414 C  
BRANCH   3   4
HETATM    4  C   UNL     1     -11.423  10.840  68.729  1.00  0.00    -0.295 A  
HETATM    5  N   UNL     1     -10.965   9.624  68.961  1.00  0.00    -0.178 NA 
HETATM    6  C   UNL     1     -10.450   9.146  67.789  1.00  0.00    -0.247 A  
HETATM    7  C   UNL     1      -9.784   7.786  67.749  1.00  0.00    -0.153 C  
HETATM    8  C   UNL     1     -10.574  10.110  66.792  1.00  0.00    -0.169 A  
HETATM    9  N   UNL     1     -11.331  11.141  67.380  1.00  0.00    -0.453 NA 
HETATM   10  O   UNL     1      -8.418   7.976  67.325  1.00  0.00    -0.123 OA 
HETATM   11  C   UNL     1     -10.450   6.847  66.735  1.00  0.00    -0.300 C  
HETATM   12  C   UNL     1      -9.763   7.081  69.115  1.00  0.00    -0.156 C  
HETATM   13  C   UNL     1     -10.100  10.117  65.428  1.00  0.00    -0.272 C  
HETATM   14  O   UNL     1      -8.962   9.413  65.233  1.00  0.00    -0.179 OA 
HETATM   15  O   UNL     1     -10.616  10.741  64.504  1.00  0.00    -0.336 OA 
HETATM   16  H   UNL     1      -8.000   7.123  67.300  1.00  0.00     0.000 HD 
BRANCH   9  17
HETATM   17  C   UNL     1     -11.820  12.286  66.571  1.00  0.00    -0.306 C  
BRANCH  17  18
HETATM   18  C   UNL     1     -11.122  13.610  66.716  1.00  0.00    -0.315 A  
HETATM   19  C   UNL     1     -10.046  13.942  65.888  1.00  0.00    -0.331 A  
HETATM   20  C   UNL     1      -9.226  15.034  66.205  1.00  0.00    -0.324 A  
HETATM   21  C   UNL     1      -9.416  15.793  67.382  1.00  0.00    -0.213 A  
HETATM   22  C   UNL     1     -10.623  15.573  68.065  1.00  0.00    -0.270 A  
HETATM   23  C   UNL     1     -11.479  14.512  67.724  1.00  0.00    -0.362 A  
BRANCH  21  24
HETATM   24  C   UNL     1      -8.276  16.588  67.960  1.00  0.00    -0.172 A  
HETATM   25  C   UNL     1      -8.168  18.003  68.044  1.00  0.00    -0.261 A  
HETATM   26  C   UNL     1      -7.096  18.574  68.783  1.00  0.00    -0.310 A  
HETATM   27  C   UNL     1      -7.253  15.840  68.611  1.00  0.00    -0.135 A  
HETATM   28  C   UNL     1      -6.191  16.422  69.304  1.00  0.00    -0.178 A  
HETATM   29  C   UNL     1      -6.121  17.795  69.405  1.00  0.00    -0.241 A  
BRANCH  25  30
HETATM   30  C   UNL     1      -9.080  18.937  67.379  1.00  0.00    -0.279 A  
HETATM   31  N   UNL     1     -10.644  20.340  66.866  1.00  0.00    -0.212 NA 
HETATM   32  H   UNL     1     -10.357  19.651  68.876  1.00  0.00     0.000 HD 
HETATM   33  N   UNL     1     -10.034  20.082  65.719  1.00  0.00    -0.385 NA 
HETATM   34  N   UNL     1     -10.071  19.636  67.898  1.00  0.00    -0.396 NA 
HETATM   35  N   UNL     1      -9.066  19.214  66.034  1.00  0.00    -0.447 NA 
ENDBRANCH  25  30
ENDBRANCH  21  24
ENDBRANCH  17  18
ENDBRANCH   9  17
ENDBRANCH   3   4
ENDBRANCH   2   3
TORSDOF 6
ENDMDL
MODEL       39
REMARK 921   NORMALIZED FREE ENERGY PREDICTED BY IDOCK:   -7.14 KCAL/MOL
REMARK 922        TOTAL FREE ENERGY PREDICTED BY IDOCK:  -10.79 KCAL/MOL
REMARK 923 INTER-LIGAND FREE ENERGY PREDICTED BY IDOCK:   -9.50 KCAL/MOL
REMARK 924 INTRA-LIGAND FREE ENERGY PREDICTED BY IDOCK:   -1.29 KCAL/MOL
REMARK 927      BINDING AFFINITY PREDICTED BY RF-SCORE:    0.00 PKD
ROOT
HETATM    1  C   UNL     1     -11.912  13.348  64.805  1.00  0.00    -0.429 C  
HETATM    2  C   UNL     1     -11.888  14.862  64.974  1.00  0.00    -0.299 C  
ENDROOT
BRANCH   2   3
HETATM    3  C   UNL     1     -10.553  15.513  64.591  1.00  0.00    -0.085 C  
BRANCH   3   4
HETATM    4  C   UNL     1     -10.045  16.456  65.638  1.00  0.00    -0.286 A  
HETATM    5  N   UNL     1     -10.335  17.741  65.571  1.00  0.00    -0.616 NA 
HETATM    6  C   UNL     1      -9.630  18.375  66.556  1.00  0.00    -0.327 A  
HETATM    7  C   UNL     1      -9.702  19.882  66.694  1.00  0.00    -0.424 C  
HETATM    8  C   UNL     1      -8.854  17.450  67.250  1.00  0.00    -0.232 A  
HETATM    9  N   UNL     1      -9.242  16.198  66.736  1.00  0.00    -0.217 NA 
HETATM   10  O   UNL     1      -8.367  20.405  66.528  1.00  0.00    -0.501 OA 
HETATM   11  C   UNL     1     -10.190  20.311  68.083  1.00  0.00    -0.399 C  
HETATM   12  C   UNL     1     -10.605  20.545  65.641  1.00  0.00     0.236 C  
HETATM   13  C   UNL     1      -7.878  17.640  68.297  1.00  0.00    -0.256 C  
HETATM   14  O   UNL     1      -7.223  18.821  68.236  1.00  0.00    -0.245 OA 
HETATM   15  O   UNL     1      -7.593  16.808  69.155  1.00  0.00    -0.240 OA 
HETATM   16  H   UNL     1      -8.412  21.350  66.615  1.00  0.00     0.000 HD 
BRANCH   9  17
HETATM   17  C   UNL     1      -8.752  14.937  67.348  1.00  0.00    -0.194 C  
BRANCH  17  18
HETATM   18  C   UNL     1      -9.768  13.941  67.837  1.00  0.00    -0.231 A  
HETATM   19  C   UNL     1     -10.999  14.368  68.341  1.00  0.00    -0.261 A  
HETATM   20  C   UNL     1     -11.816  13.476  69.049  1.00  0.00    -0.385 A  
HETATM   21  C   UNL     1     -11.410  12.151  69.326  1.00  0.00    -0.327 A  
HETATM   22  C   UNL     1     -10.282  11.697  68.624  1.00  0.00    -0.215 A  
HETATM   23  C   UNL     1      -9.483  12.572  67.869  1.00  0.00    -0.196 A  
BRANCH  21  24
HETATM   24  C   UNL     1     -12.020  11.400  70.478  1.00  0.00    -0.451 A  
HETATM   25  C   UNL     1     -12.836  11.928  71.515  1.00  0.00    -0.421 A  
HETATM   26  C   UNL     1     -13.470  11.035  72.423  1.00  0.00     0.193 A  
HETATM   27  C   UNL     1     -11.872   9.982  70.456  1.00  0.00    -0.387 A  
HETATM   28  C   UNL     1     -12.477   9.127  71.377  1.00  0.00    -0.396 A  
HETATM   29  C   UNL     1     -13.294   9.654  72.355  1.00  0.00    -0.426 A  
BRANCH  25  30
HETATM   30  C   UNL     1     -13.048  13.359  71.746  1.00  0.00    -0.388 A  
HETATM   31  N   UNL     1     -13.773  15.397  71.785  1.00  0.00    -0.486 NA 
HETATM   32  H   UNL     1     -14.861  13.826  70.810  1.00  0.00     0.000 HD 
HETATM   33  N   UNL     1     -12.624  15.436  72.441  1.00  0.00    -0.346 NA 
HETATM   34  N   UNL     1     -14.045  14.124  71.344  1.00  0.00    -0.252 NA 
HETATM   35  N   UNL     1     -12.172  14.177  72.417  1.00  0.00    -0.012 NA 
ENDBRANCH  25  30
ENDBRANCH  21  24
ENDBRANCH  17  18
ENDBRANCH   9  17
ENDBRANCH   3   4
ENDBRANCH   2   3
TORSDOF 6
ENDMDL
MODEL       40
REMARK 921   NORMALIZED FREE ENERGY PREDICTED BY IDOCK:   -7.14 KCAL/MOL
REMARK 922        TOTAL FREE ENERGY PREDICTED BY IDOCK:  -10.79 KCAL/MOL
REMARK 923 INTER-LIGAND FREE ENERGY PREDICTED BY IDOCK:   -9.37 KCAL/MOL
REMARK 924 INTRA-LIGAND FREE ENERGY PREDICTED BY IDOCK:   -1.42 KCAL/MOL
REMARK 927      BINDING AFFINITY PREDICTED BY RF-SCORE:    0.00 PKD
ROOT
HETATM    1  C   UNL     1     -13.217  15.287  71.121  1.00  0.00    -0.567 C  
HETATM    2  C   UNL     1     -12.283  15.580  69.953  1.00  0.00    -0.351 C  
ENDROOT
BRANCH   2   3
HETATM    3  C   UNL     1     -10.802  15.317  70.258  1.00  0.00    -0.303 C  
BRANCH   3   4
HETATM    4  C   UNL     1      -9.880  16.089  69.365  1.00  0.00    -0.254 A  
HETATM    5  N   UNL     1     -10.202  17.307  68.971  1.00  0.00    -0.327 NA 
HETATM    6  C   UNL     1      -9.264  17.708  68.062  1.00  0.00    -0.271 A  
HETATM    7  C   UNL     1      -9.398  19.050  67.372  1.00  0.00    -0.303 C  
HETATM    8  C   UNL     1      -8.332  16.692  67.867  1.00  0.00    -0.185 A  
HETATM    9  N   UNL     1      -8.665  15.710  68.820  1.00  0.00    -0.182 NA 
HETATM   10  O   UNL     1      -9.488  18.809  65.952  1.00  0.00    -0.470 OA 
HETATM   11  C   UNL     1      -8.173  19.942  67.605  1.00  0.00    -0.349 C  
HETATM   12  C   UNL     1     -10.651  19.831  67.801  1.00  0.00    -0.501 C  
HETATM   13  C   UNL     1      -7.223  16.598  66.946  1.00  0.00    -0.226 C  
HETATM   14  O   UNL     1      -7.407  17.267  65.787  1.00  0.00    -0.361 OA 
HETATM   15  O   UNL     1      -6.206  15.933  67.132  1.00  0.00    -0.298 OA 
HETATM   16  H   UNL     1      -9.572  19.651  65.519  1.00  0.00     0.000 HD 
BRANCH   9  17
HETATM   17  C   UNL     1      -7.790  14.532  69.039  1.00  0.00    -0.106 C  
BRANCH  17  18
HETATM   18  C   UNL     1      -8.071  13.279  68.255  1.00  0.00    -0.156 A  
HETATM   19  C   UNL     1      -7.033  12.579  67.636  1.00  0.00    -0.139 A  
HETATM   20  C   UNL     1      -7.321  11.591  66.684  1.00  0.00    -0.069 A  
HETATM   21  C   UNL     1      -8.645  11.310  66.278  1.00  0.00    -0.172 A  
HETATM   22  C   UNL     1      -9.661  11.870  67.071  1.00  0.00    -0.196 A  
HETATM   23  C   UNL     1      -9.379  12.823  68.063  1.00  0.00    -0.213 A  
BRANCH  21  24
HETATM   24  C   UNL     1      -8.905  10.660  64.945  1.00  0.00    -0.204 A  
HETATM   25  C   UNL     1      -9.770  11.121  63.917  1.00  0.00    -0.325 A  
HETATM   26  C   UNL     1      -9.754  10.469  62.653  1.00  0.00    -0.214 A  
HETATM   27  C   UNL     1      -8.097   9.529  64.628  1.00  0.00    -0.136 A  
HETATM   28  C   UNL     1      -8.121   8.885  63.391  1.00  0.00    -0.167 A  
HETATM   29  C   UNL     1      -8.941   9.367  62.393  1.00  0.00    -0.258 A  
BRANCH  25  30
HETATM   30  C   UNL     1     -10.726  12.220  64.078  1.00  0.00    -0.396 A  
HETATM   31  N   UNL     1     -11.710  14.133  64.304  1.00  0.00    -0.374 NA 
HETATM   32  H   UNL     1      -9.595  13.979  63.980  1.00  0.00     0.000 HD 
HETATM   33  N   UNL     1     -12.679  13.239  64.423  1.00  0.00    -0.667 NA 
HETATM   34  N   UNL     1     -10.498  13.519  64.097  1.00  0.00    -0.285 NA 
HETATM   35  N   UNL     1     -12.073  12.055  64.284  1.00  0.00    -0.346 NA 
ENDBRANCH  25  30
ENDBRANCH  21  24
ENDBRANCH  17  18
ENDBRANCH   9  17
ENDBRANCH   3   4
ENDBRANCH   2   3
TORSDOF 6
ENDMDL
MODEL       41
REMARK 921   NORMALIZED FREE ENERGY PREDICTED BY IDOCK:   -7.13 KCAL/MOL
REMARK 922        TOTAL FREE ENERGY PREDICTED BY IDOCK:  -10.79 KCAL/MOL
REMARK 923 INTER-LIGAND FREE ENERGY PREDICTED BY IDOCK:   -9.22 KCAL/MOL
REMARK 924 INTRA-LIGAND FREE ENERGY PREDICTED BY IDOCK:   -1.56 KCAL/MOL
REMARK 927      BINDING AFFINITY PREDICTED BY RF-SCORE:    0.00 PKD
ROOT
HETATM    1  C   UNL     1     -14.081   8.894  72.285  1.00  0.00    -0.512 C  
HETATM    2  C   UNL     1     -13.797   7.433  71.956  1.00  0.00    -0.239 C  
ENDROOT
BRANCH   2   3
HETATM    3  C   UNL     1     -13.116   7.221  70.597  1.00  0.00     0.209 C  
BRANCH   3   4
HETATM    4  C   UNL     1     -11.629   7.077  70.710  1.00  0.00    -0.338 A  
HETATM    5  N   UNL     1     -11.061   5.898  70.539  1.00  0.00    -0.304 NA 
HETATM    6  C   UNL     1      -9.735   6.031  70.839  1.00  0.00    -0.174 A  
HETATM    7  C   UNL     1      -8.820   4.825  70.801  1.00  0.00    -0.121 C  
HETATM    8  C   UNL     1      -9.470   7.341  71.233  1.00  0.00    -0.155 A  
HETATM    9  N   UNL     1     -10.675   8.035  71.008  1.00  0.00    -0.218 NA 
HETATM   10  O   UNL     1      -8.266   4.649  72.122  1.00  0.00    -0.105 OA 
HETATM   11  C   UNL     1      -7.645   5.022  69.836  1.00  0.00    -0.060 C  
HETATM   12  C   UNL     1      -9.546   3.525  70.416  1.00  0.00    -0.241 C  
HETATM   13  C   UNL     1      -8.258   7.945  71.734  1.00  0.00    -0.117 C  
HETATM   14  O   UNL     1      -7.462   7.098  72.426  1.00  0.00    -0.086 OA 
HETATM   15  O   UNL     1      -7.961   9.131  71.619  1.00  0.00    -0.342 OA 
HETATM   16  H   UNL     1      -7.692   3.892  72.099  1.00  0.00     0.000 HD 
BRANCH   9  17
HETATM   17  C   UNL     1     -10.744   9.510  71.151  1.00  0.00    -0.338 C  
BRANCH  17  18
HETATM   18  C   UNL     1     -10.819  10.345  69.902  1.00  0.00    -0.353 A  
HETATM   19  C   UNL     1      -9.810  10.276  68.938  1.00  0.00    -0.200 A  
HETATM   20  C   UNL     1      -9.735  11.246  67.929  1.00  0.00    -0.185 A  
HETATM   21  C   UNL     1     -10.623  12.344  67.882  1.00  0.00    -0.231 A  
HETATM   22  C   UNL     1     -11.743  12.262  68.724  1.00  0.00    -0.390 A  
HETATM   23  C   UNL     1     -11.855  11.264  69.706  1.00  0.00    -0.437 A  
BRANCH  21  24
HETATM   24  C   UNL     1     -10.231  13.601  67.151  1.00  0.00    -0.244 A  
HETATM   25  C   UNL     1     -10.650  14.010  65.856  1.00  0.00    -0.302 A  
HETATM   26  C   UNL     1     -10.316  15.315  65.399  1.00  0.00    -0.421 A  
HETATM   27  C   UNL     1      -9.460  14.545  67.890  1.00  0.00    -0.212 A  
HETATM   28  C   UNL     1      -9.116  15.808  67.409  1.00  0.00    -0.206 A  
HETATM   29  C   UNL     1      -9.561  16.202  66.165  1.00  0.00    -0.359 A  
BRANCH  25  30
HETATM   30  C   UNL     1     -11.384  13.154  64.922  1.00  0.00    -0.309 A  
HETATM   31  N   UNL     1     -11.994  11.727  63.414  1.00  0.00    -0.431 NA 
HETATM   32  H   UNL     1      -9.943  11.943  64.004  1.00  0.00     0.000 HD 
HETATM   33  N   UNL     1     -13.114  12.329  63.781  1.00  0.00    -0.774 NA 
HETATM   34  N   UNL     1     -10.917  12.229  64.104  1.00  0.00    -0.331 NA 
HETATM   35  N   UNL     1     -12.740  13.212  64.713  1.00  0.00    -0.700 NA 
ENDBRANCH  25  30
ENDBRANCH  21  24
ENDBRANCH  17  18
ENDBRANCH   9  17
ENDBRANCH   3   4
ENDBRANCH   2   3
TORSDOF 6
ENDMDL
MODEL       42
REMARK 921   NORMALIZED FREE ENERGY PREDICTED BY IDOCK:   -7.12 KCAL/MOL
REMARK 922        TOTAL FREE ENERGY PREDICTED BY IDOCK:  -10.77 KCAL/MOL
REMARK 923 INTER-LIGAND FREE ENERGY PREDICTED BY IDOCK:   -9.34 KCAL/MOL
REMARK 924 INTRA-LIGAND FREE ENERGY PREDICTED BY IDOCK:   -1.43 KCAL/MOL
REMARK 927      BINDING AFFINITY PREDICTED BY RF-SCORE:    0.00 PKD
ROOT
HETATM    1  C   UNL     1     -11.859  12.015  63.535  1.00  0.00    -0.587 C  
HETATM    2  C   UNL     1     -11.909  13.477  63.963  1.00  0.00    -0.476 C  
ENDROOT
BRANCH   2   3
HETATM    3  C   UNL     1     -10.570  14.024  64.475  1.00  0.00    -0.332 C  
BRANCH   3   4
HETATM    4  C   UNL     1     -10.730  14.964  65.630  1.00  0.00    -0.342 A  
HETATM    5  N   UNL     1     -10.142  16.145  65.613  1.00  0.00    -0.452 NA 
HETATM    6  C   UNL     1     -10.334  16.721  66.837  1.00  0.00    -0.294 A  
HETATM    7  C   UNL     1      -9.715  18.067  67.151  1.00  0.00    -0.297 C  
HETATM    8  C   UNL     1     -11.054  15.855  67.657  1.00  0.00    -0.266 A  
HETATM    9  N   UNL     1     -11.422  14.786  66.817  1.00  0.00    -0.353 NA 
HETATM   10  O   UNL     1      -8.830  17.894  68.278  1.00  0.00    -0.261 OA 
HETATM   11  C   UNL     1     -10.768  19.106  67.555  1.00  0.00    -0.555 C  
HETATM   12  C   UNL     1      -8.892  18.643  65.987  1.00  0.00     0.008 C  
HETATM   13  C   UNL     1     -11.418  15.965  69.050  1.00  0.00    -0.380 C  
HETATM   14  O   UNL     1     -10.537  16.665  69.799  1.00  0.00    -0.302 OA 
HETATM   15  O   UNL     1     -12.400  15.438  69.566  1.00  0.00    -0.277 OA 
HETATM   16  H   UNL     1      -8.442  18.738  68.475  1.00  0.00     0.000 HD 
BRANCH   9  17
HETATM   17  C   UNL     1     -12.351  13.730  67.288  1.00  0.00    -0.164 C  
BRANCH  17  18
HETATM   18  C   UNL     1     -11.765  12.469  67.862  1.00  0.00    -0.416 A  
HETATM   19  C   UNL     1     -11.908  12.170  69.219  1.00  0.00    -0.370 A  
HETATM   20  C   UNL     1     -11.131  11.159  69.802  1.00  0.00    -0.271 A  
HETATM   21  C   UNL     1     -10.151  10.454  69.068  1.00  0.00    -0.227 A  
HETATM   22  C   UNL     1     -10.189  10.625  67.674  1.00  0.00    -0.229 A  
HETATM   23  C   UNL     1     -11.001  11.601  67.074  1.00  0.00    -0.338 A  
BRANCH  21  24
HETATM   24  C   UNL     1      -9.013   9.777  69.784  1.00  0.00    -0.239 A  
HETATM   25  C   UNL     1      -9.058   8.554  70.506  1.00  0.00    -0.174 A  
HETATM   26  C   UNL     1      -7.843   7.977  70.969  1.00  0.00    -0.090 A  
HETATM   27  C   UNL     1      -7.724  10.358  69.610  1.00  0.00    -0.152 A  
HETATM   28  C   UNL     1      -6.548   9.792  70.101  1.00  0.00    -0.091 A  
HETATM   29  C   UNL     1      -6.605   8.586  70.769  1.00  0.00    -0.041 A  
BRANCH  25  30
HETATM   30  C   UNL     1     -10.294   7.846  70.850  1.00  0.00    -0.200 A  
HETATM   31  N   UNL     1     -12.009   6.531  70.929  1.00  0.00    -0.348 NA 
HETATM   32  H   UNL     1     -10.476   6.303  69.446  1.00  0.00     0.000 HD 
HETATM   33  N   UNL     1     -12.194   7.385  71.923  1.00  0.00    -0.305 NA 
HETATM   34  N   UNL     1     -10.844   6.806  70.253  1.00  0.00    -0.253 NA 
HETATM   35  N   UNL     1     -11.134   8.201  71.876  1.00  0.00    -0.266 NA 
ENDBRANCH  25  30
ENDBRANCH  21  24
ENDBRANCH  17  18
ENDBRANCH   9  17
ENDBRANCH   3   4
ENDBRANCH   2   3
TORSDOF 6
ENDMDL
MODEL       43
REMARK 921   NORMALIZED FREE ENERGY PREDICTED BY IDOCK:   -7.12 KCAL/MOL
REMARK 922        TOTAL FREE ENERGY PREDICTED BY IDOCK:  -10.77 KCAL/MOL
REMARK 923 INTER-LIGAND FREE ENERGY PREDICTED BY IDOCK:   -9.21 KCAL/MOL
REMARK 924 INTRA-LIGAND FREE ENERGY PREDICTED BY IDOCK:   -1.56 KCAL/MOL
REMARK 927      BINDING AFFINITY PREDICTED BY RF-SCORE:    0.00 PKD
ROOT
HETATM    1  C   UNL     1     -12.882  11.021  71.339  1.00  0.00    -0.548 C  
HETATM    2  C   UNL     1     -12.902   9.497  71.316  1.00  0.00    -0.414 C  
ENDROOT
BRANCH   2   3
HETATM    3  C   UNL     1     -12.274   8.845  72.554  1.00  0.00    -0.299 C  
BRANCH   3   4
HETATM    4  C   UNL     1     -11.229   7.829  72.208  1.00  0.00    -0.312 A  
HETATM    5  N   UNL     1     -11.406   6.560  72.525  1.00  0.00    -0.270 NA 
HETATM    6  C   UNL     1     -10.250   5.895  72.227  1.00  0.00    -0.189 A  
HETATM    7  C   UNL     1     -10.117   4.420  72.542  1.00  0.00    -0.177 C  
HETATM    8  C   UNL     1      -9.309   6.789  71.723  1.00  0.00    -0.147 A  
HETATM    9  N   UNL     1     -10.005   8.006  71.586  1.00  0.00    -0.177 NA 
HETATM   10  O   UNL     1      -9.013   4.261  73.457  1.00  0.00    -0.094 OA 
HETATM   11  C   UNL     1      -9.796   3.590  71.293  1.00  0.00    -0.205 C  
HETATM   12  C   UNL     1     -11.371   3.826  73.205  1.00  0.00    -0.179 C  
HETATM   13  C   UNL     1      -7.924   6.592  71.361  1.00  0.00    -0.107 C  
HETATM   14  O   UNL     1      -7.296   5.634  72.078  1.00  0.00    -0.089 OA 
HETATM   15  O   UNL     1      -7.313   7.251  70.524  1.00  0.00    -0.071 OA 
HETATM   16  H   UNL     1      -8.929   3.336  73.655  1.00  0.00     0.000 HD 
BRANCH   9  17
HETATM   17  C   UNL     1      -9.379   9.172  70.915  1.00  0.00    -0.269 C  
BRANCH  17  18
HETATM   18  C   UNL     1      -9.908   9.589  69.570  1.00  0.00    -0.205 A  
HETATM   19  C   UNL     1     -10.401   8.638  68.673  1.00  0.00    -0.219 A  
HETATM   20  C   UNL     1     -10.624   8.986  67.333  1.00  0.00    -0.309 A  
HETATM   21  C   UNL     1     -10.310  10.270  66.833  1.00  0.00    -0.298 A  
HETATM   22  C   UNL     1     -10.029  11.251  67.797  1.00  0.00    -0.193 A  
HETATM   23  C   UNL     1      -9.854  10.923  69.152  1.00  0.00    -0.164 A  
BRANCH  21  24
HETATM   24  C   UNL     1     -10.064  10.467  65.361  1.00  0.00    -0.354 A  
HETATM   25  C   UNL     1     -10.421  11.594  64.573  1.00  0.00    -0.359 A  
HETATM   26  C   UNL     1      -9.950  11.681  63.233  1.00  0.00    -0.442 A  
HETATM   27  C   UNL     1      -9.274   9.472  64.715  1.00  0.00    -0.267 A  
HETATM   28  C   UNL     1      -8.850   9.562  63.389  1.00  0.00    -0.236 A  
HETATM   29  C   UNL     1      -9.175  10.680  62.649  1.00  0.00    -0.331 A  
BRANCH  25  30
HETATM   30  C   UNL     1     -11.287  12.681  65.036  1.00  0.00    -0.309 A  
HETATM   31  N   UNL     1     -12.127  14.464  65.927  1.00  0.00    -0.374 NA 
HETATM   32  H   UNL     1     -10.022  14.057  65.979  1.00  0.00     0.000 HD 
HETATM   33  N   UNL     1     -13.168  13.812  65.432  1.00  0.00    -0.662 NA 
HETATM   34  N   UNL     1     -10.961  13.776  65.696  1.00  0.00    -0.285 NA 
HETATM   35  N   UNL     1     -12.651  12.708  64.882  1.00  0.00    -0.656 NA 
ENDBRANCH  25  30
ENDBRANCH  21  24
ENDBRANCH  17  18
ENDBRANCH   9  17
ENDBRANCH   3   4
ENDBRANCH   2   3
TORSDOF 6
ENDMDL
MODEL       44
REMARK 921   NORMALIZED FREE ENERGY PREDICTED BY IDOCK:   -7.11 KCAL/MOL
REMARK 922        TOTAL FREE ENERGY PREDICTED BY IDOCK:  -10.76 KCAL/MOL
REMARK 923 INTER-LIGAND FREE ENERGY PREDICTED BY IDOCK:   -9.17 KCAL/MOL
REMARK 924 INTRA-LIGAND FREE ENERGY PREDICTED BY IDOCK:   -1.59 KCAL/MOL
REMARK 927      BINDING AFFINITY PREDICTED BY RF-SCORE:    0.00 PKD
ROOT
HETATM    1  C   UNL     1     -13.190   9.876  71.289  1.00  0.00    -0.465 C  
HETATM    2  C   UNL     1     -11.930  10.628  70.878  1.00  0.00    -0.469 C  
ENDROOT
BRANCH   2   3
HETATM    3  C   UNL     1     -12.077  11.427  69.576  1.00  0.00    -0.370 C  
BRANCH   3   4
HETATM    4  C   UNL     1     -11.359  10.795  68.423  1.00  0.00    -0.302 A  
HETATM    5  N   UNL     1     -10.629   9.711  68.608  1.00  0.00    -0.216 NA 
HETATM    6  C   UNL     1      -9.982   9.443  67.434  1.00  0.00    -0.199 A  
HETATM    7  C   UNL     1      -9.008   8.286  67.349  1.00  0.00    -0.134 C  
HETATM    8  C   UNL     1     -10.306  10.410  66.487  1.00  0.00    -0.224 A  
HETATM    9  N   UNL     1     -11.305  11.193  67.098  1.00  0.00    -0.438 NA 
HETATM   10  O   UNL     1      -7.716   8.822  66.993  1.00  0.00    -0.093 OA 
HETATM   11  C   UNL     1      -9.400   7.282  66.258  1.00  0.00    -0.160 C  
HETATM   12  C   UNL     1      -8.856   7.522  68.674  1.00  0.00    -0.127 C  
HETATM   13  C   UNL     1      -9.810  10.616  65.146  1.00  0.00    -0.284 C  
HETATM   14  O   UNL     1      -8.531  10.217  64.962  1.00  0.00    -0.148 OA 
HETATM   15  O   UNL     1     -10.435  11.156  64.237  1.00  0.00    -0.322 OA 
HETATM   16  H   UNL     1      -7.105   8.097  66.940  1.00  0.00     0.000 HD 
BRANCH   9  17
HETATM   17  C   UNL     1     -12.031  12.237  66.333  1.00  0.00    -0.209 C  
BRANCH  17  18
HETATM   18  C   UNL     1     -11.707  13.679  66.610  1.00  0.00    -0.420 A  
HETATM   19  C   UNL     1     -10.895  14.407  65.735  1.00  0.00    -0.308 A  
HETATM   20  C   UNL     1     -10.367  15.643  66.132  1.00  0.00    -0.329 A  
HETATM   21  C   UNL     1     -10.582  16.166  67.427  1.00  0.00    -0.311 A  
HETATM   22  C   UNL     1     -11.569  15.523  68.191  1.00  0.00    -0.313 A  
HETATM   23  C   UNL     1     -12.144  14.309  67.780  1.00  0.00    -0.316 A  
BRANCH  21  24
HETATM   24  C   UNL     1      -9.629  17.181  67.999  1.00  0.00    -0.267 A  
HETATM   25  C   UNL     1      -8.232  17.026  68.212  1.00  0.00    -0.227 A  
HETATM   26  C   UNL     1      -7.459  18.156  68.598  1.00  0.00    -0.300 A  
HETATM   27  C   UNL     1     -10.159  18.483  68.231  1.00  0.00    -0.424 A  
HETATM   28  C   UNL     1      -9.388  19.571  68.641  1.00  0.00    -0.430 A  
HETATM   29  C   UNL     1      -8.028  19.411  68.809  1.00  0.00    -0.391 A  
BRANCH  25  30
HETATM   30  C   UNL     1      -7.520  15.751  68.098  1.00  0.00    -0.124 A  
HETATM   31  N   UNL     1      -6.284  14.081  67.494  1.00  0.00    -0.337 NA 
HETATM   32  H   UNL     1      -6.297  15.930  66.408  1.00  0.00     0.000 HD 
HETATM   33  N   UNL     1      -6.929  13.652  68.567  1.00  0.00    -0.096 NA 
HETATM   34  N   UNL     1      -6.642  15.372  67.188  1.00  0.00    -0.282 NA 
HETATM   35  N   UNL     1      -7.695  14.683  68.942  1.00  0.00    -0.136 NA 
ENDBRANCH  25  30
ENDBRANCH  21  24
ENDBRANCH  17  18
ENDBRANCH   9  17
ENDBRANCH   3   4
ENDBRANCH   2   3
TORSDOF 6
ENDMDL
MODEL       45
REMARK 921   NORMALIZED FREE ENERGY PREDICTED BY IDOCK:   -7.10 KCAL/MOL
REMARK 922        TOTAL FREE ENERGY PREDICTED BY IDOCK:  -10.74 KCAL/MOL
REMARK 923 INTER-LIGAND FREE ENERGY PREDICTED BY IDOCK:   -8.71 KCAL/MOL
REMARK 924 INTRA-LIGAND FREE ENERGY PREDICTED BY IDOCK:   -2.03 KCAL/MOL
REMARK 927      BINDING AFFINITY PREDICTED BY RF-SCORE:    0.00 PKD
ROOT
HETATM    1  C   UNL     1     -10.881  10.118  70.139  1.00  0.00    -0.368 C  
HETATM    2  C   UNL     1     -10.140  10.105  68.807  1.00  0.00    -0.198 C  
ENDROOT
BRANCH   2   3
HETATM    3  C   UNL     1     -10.903   9.408  67.674  1.00  0.00    -0.222 C  
BRANCH   3   4
HETATM    4  C   UNL     1     -10.033   9.093  66.496  1.00  0.00    -0.288 A  
HETATM    5  N   UNL     1      -9.320   7.983  66.473  1.00  0.00    -0.193 NA 
HETATM    6  C   UNL     1      -8.522   8.027  65.365  1.00  0.00    -0.139 A  
HETATM    7  C   UNL     1      -7.531   6.914  65.097  1.00  0.00    -0.094 C  
HETATM    8  C   UNL     1      -8.732   9.221  64.680  1.00  0.00    -0.192 A  
HETATM    9  N   UNL     1      -9.811   9.833  65.346  1.00  0.00    -0.319 NA 
HETATM   10  O   UNL     1      -6.210   7.495  65.069  1.00  0.00    -0.038 OA 
HETATM   11  C   UNL     1      -7.764   6.249  63.734  1.00  0.00    -0.107 C  
HETATM   12  C   UNL     1      -7.543   5.817  66.175  1.00  0.00    -0.090 C  
HETATM   13  C   UNL     1      -8.067   9.769  63.521  1.00  0.00    -0.150 C  
HETATM   14  O   UNL     1      -6.771   9.404  63.402  1.00  0.00    -0.091 OA 
HETATM   15  O   UNL     1      -8.575  10.548  62.718  1.00  0.00    -0.171 OA 
HETATM   16  H   UNL     1      -5.589   6.797  64.901  1.00  0.00     0.000 HD 
BRANCH   9  17
HETATM   17  C   UNL     1     -10.445  11.061  64.804  1.00  0.00    -0.316 C  
BRANCH  17  18
HETATM   18  C   UNL     1     -10.639  12.230  65.730  1.00  0.00    -0.289 A  
HETATM   19  C   UNL     1      -9.566  12.746  66.461  1.00  0.00    -0.257 A  
HETATM   20  C   UNL     1      -9.799  13.634  67.520  1.00  0.00    -0.227 A  
HETATM   21  C   UNL     1     -11.106  13.992  67.920  1.00  0.00    -0.274 A  
HETATM   22  C   UNL     1     -12.137  13.635  67.035  1.00  0.00    -0.423 A  
HETATM   23  C   UNL     1     -11.906  12.786  65.941  1.00  0.00    -0.490 A  
BRANCH  21  24
HETATM   24  C   UNL     1     -11.356  14.498  69.315  1.00  0.00    -0.317 A  
HETATM   25  C   UNL     1     -11.008  15.770  69.845  1.00  0.00    -0.335 A  
HETATM   26  C   UNL     1     -11.482  16.138  71.134  1.00  0.00    -0.433 A  
HETATM   27  C   UNL     1     -12.143  13.660  70.158  1.00  0.00    -0.431 A  
HETATM   28  C   UNL     1     -12.570  14.029  71.433  1.00  0.00    -0.451 A  
HETATM   29  C   UNL     1     -12.253  15.281  71.918  1.00  0.00    -0.433 A  
BRANCH  25  30
HETATM   30  C   UNL     1     -10.146  16.737  69.161  1.00  0.00    -0.280 A  
HETATM   31  N   UNL     1      -8.495  17.900  68.386  1.00  0.00    -0.291 NA 
HETATM   32  H   UNL     1      -8.181  16.153  69.590  1.00  0.00     0.000 HD 
HETATM   33  N   UNL     1      -9.579  18.525  67.954  1.00  0.00    -0.292 NA 
HETATM   34  N   UNL     1      -8.828  16.799  69.137  1.00  0.00    -0.173 NA 
HETATM   35  N   UNL     1     -10.602  17.808  68.432  1.00  0.00    -0.334 NA 
ENDBRANCH  25  30
ENDBRANCH  21  24
ENDBRANCH  17  18
ENDBRANCH   9  17
ENDBRANCH   3   4
ENDBRANCH   2   3
TORSDOF 6
ENDMDL
MODEL       46
REMARK 921   NORMALIZED FREE ENERGY PREDICTED BY IDOCK:   -7.09 KCAL/MOL
REMARK 922        TOTAL FREE ENERGY PREDICTED BY IDOCK:  -10.73 KCAL/MOL
REMARK 923 INTER-LIGAND FREE ENERGY PREDICTED BY IDOCK:   -9.31 KCAL/MOL
REMARK 924 INTRA-LIGAND FREE ENERGY PREDICTED BY IDOCK:   -1.42 KCAL/MOL
REMARK 927      BINDING AFFINITY PREDICTED BY RF-SCORE:    0.00 PKD
ROOT
HETATM    1  C   UNL     1     -12.109   9.998  71.287  1.00  0.00    -0.487 C  
HETATM    2  C   UNL     1     -11.589  10.851  70.136  1.00  0.00    -0.425 C  
ENDROOT
BRANCH   2   3
HETATM    3  C   UNL     1     -10.882  10.049  69.035  1.00  0.00    -0.253 C  
BRANCH   3   4
HETATM    4  C   UNL     1     -10.801  10.793  67.737  1.00  0.00    -0.269 A  
HETATM    5  N   UNL     1     -11.164  12.060  67.673  1.00  0.00    -0.262 NA 
HETATM    6  C   UNL     1     -11.128  12.435  66.359  1.00  0.00    -0.301 A  
HETATM    7  C   UNL     1     -11.559  13.828  65.953  1.00  0.00    -0.333 C  
HETATM    8  C   UNL     1     -10.747  11.351  65.571  1.00  0.00    -0.253 A  
HETATM    9  N   UNL     1     -10.404  10.341  66.490  1.00  0.00    -0.228 NA 
HETATM   10  O   UNL     1     -12.670  13.699  65.041  1.00  0.00    -0.622 OA 
HETATM   11  C   UNL     1     -10.448  14.583  65.213  1.00  0.00    -0.411 C  
HETATM   12  C   UNL     1     -12.018  14.692  67.140  1.00  0.00    -0.310 C  
HETATM   13  C   UNL     1     -10.659  11.219  64.136  1.00  0.00    -0.373 C  
HETATM   14  O   UNL     1     -11.541  11.983  63.454  1.00  0.00    -0.423 OA 
HETATM   15  O   UNL     1      -9.906  10.450  63.543  1.00  0.00    -0.309 OA 
HETATM   16  H   UNL     1     -12.940  14.573  64.786  1.00  0.00     0.000 HD 
BRANCH   9  17
HETATM   17  C   UNL     1      -9.784   9.072  66.032  1.00  0.00    -0.269 C  
BRANCH  17  18
HETATM   18  C   UNL     1      -9.792   7.896  66.970  1.00  0.00    -0.293 A  
HETATM   19  C   UNL     1     -10.924   7.085  67.085  1.00  0.00    -0.393 A  
HETATM   20  C   UNL     1     -11.033   6.178  68.148  1.00  0.00    -0.398 A  
HETATM   21  C   UNL     1     -10.050   6.091  69.159  1.00  0.00    -0.229 A  
HETATM   22  C   UNL     1      -8.840   6.754  68.895  1.00  0.00    -0.128 A  
HETATM   23  C   UNL     1      -8.702   7.626  67.803  1.00  0.00    -0.127 A  
BRANCH  21  24
HETATM   24  C   UNL     1     -10.403   5.527  70.509  1.00  0.00    -0.342 A  
HETATM   25  C   UNL     1      -9.838   4.386  71.140  1.00  0.00    -0.258 A  
HETATM   26  C   UNL     1     -10.172   4.105  72.494  1.00  0.00    -0.240 A  
HETATM   27  C   UNL     1     -11.310   6.296  71.295  1.00  0.00    -0.356 A  
HETATM   28  C   UNL     1     -11.649   5.983  72.611  1.00  0.00    -0.266 A  
HETATM   29  C   UNL     1     -11.064   4.892  73.220  1.00  0.00    -0.410 A  
BRANCH  25  30
HETATM   30  C   UNL     1      -8.946   3.435  70.472  1.00  0.00    -0.095 A  
HETATM   31  N   UNL     1      -7.268   2.261  69.777  1.00  0.00    -0.036 NA 
HETATM   32  H   UNL     1      -7.062   3.713  71.342  1.00  0.00     0.000 HD 
HETATM   33  N   UNL     1      -8.288   1.862  69.034  1.00  0.00    -0.048 NA 
HETATM   34  N   UNL     1      -7.656   3.235  70.665  1.00  0.00    -0.040 NA 
HETATM   35  N   UNL     1      -9.328   2.588  69.461  1.00  0.00    -0.123 NA 
ENDBRANCH  25  30
ENDBRANCH  21  24
ENDBRANCH  17  18
ENDBRANCH   9  17
ENDBRANCH   3   4
ENDBRANCH   2   3
TORSDOF 6
ENDMDL
MODEL       47
REMARK 921   NORMALIZED FREE ENERGY PREDICTED BY IDOCK:   -7.09 KCAL/MOL
REMARK 922        TOTAL FREE ENERGY PREDICTED BY IDOCK:  -10.73 KCAL/MOL
REMARK 923 INTER-LIGAND FREE ENERGY PREDICTED BY IDOCK:   -9.74 KCAL/MOL
REMARK 924 INTRA-LIGAND FREE ENERGY PREDICTED BY IDOCK:   -0.99 KCAL/MOL
REMARK 927      BINDING AFFINITY PREDICTED BY RF-SCORE:    0.00 PKD
ROOT
HETATM    1  C   UNL     1     -14.409   7.882  71.732  1.00  0.00    -0.589 C  
HETATM    2  C   UNL     1     -12.952   7.436  71.784  1.00  0.00    -0.365 C  
ENDROOT
BRANCH   2   3
HETATM    3  C   UNL     1     -12.025   8.417  72.514  1.00  0.00    -0.418 C  
BRANCH   3   4
HETATM    4  C   UNL     1     -10.642   8.444  71.940  1.00  0.00    -0.300 A  
HETATM    5  N   UNL     1      -9.603   8.132  72.692  1.00  0.00    -0.258 NA 
HETATM    6  C   UNL     1      -8.475   8.382  71.963  1.00  0.00    -0.183 A  
HETATM    7  C   UNL     1      -7.108   8.183  72.584  1.00  0.00    -0.097 C  
HETATM    8  C   UNL     1      -8.824   8.889  70.714  1.00  0.00    -0.208 A  
HETATM    9  N   UNL     1     -10.228   8.789  70.664  1.00  0.00    -0.193 NA 
HETATM   10  O   UNL     1      -6.422   9.453  72.558  1.00  0.00    -0.293 OA 
HETATM   11  C   UNL     1      -6.253   7.188  71.790  1.00  0.00    -0.037 C  
HETATM   12  C   UNL     1      -7.168   7.707  74.045  1.00  0.00    -0.136 C  
HETATM   13  C   UNL     1      -7.999   9.389  69.639  1.00  0.00    -0.109 C  
HETATM   14  O   UNL     1      -6.842   9.956  70.047  1.00  0.00    -0.077 OA 
HETATM   15  O   UNL     1      -8.306   9.376  68.450  1.00  0.00    -0.116 OA 
HETATM   16  H   UNL     1      -5.565   9.328  72.948  1.00  0.00     0.000 HD 
BRANCH   9  17
HETATM   17  C   UNL     1     -10.970   9.080  69.412  1.00  0.00    -0.065 C  
BRANCH  17  18
HETATM   18  C   UNL     1     -11.451  10.485  69.178  1.00  0.00    -0.314 A  
HETATM   19  C   UNL     1     -11.485  11.021  67.888  1.00  0.00    -0.358 A  
HETATM   20  C   UNL     1     -11.658  12.400  67.704  1.00  0.00    -0.421 A  
HETATM   21  C   UNL     1     -11.744  13.293  68.795  1.00  0.00    -0.366 A  
HETATM   22  C   UNL     1     -11.925  12.704  70.057  1.00  0.00    -0.377 A  
HETATM   23  C   UNL     1     -11.805  11.317  70.245  1.00  0.00    -0.446 A  
BRANCH  21  24
HETATM   24  C   UNL     1     -11.413  14.749  68.606  1.00  0.00    -0.325 A  
HETATM   25  C   UNL     1     -11.419  15.769  69.596  1.00  0.00    -0.348 A  
HETATM   26  C   UNL     1     -10.907  17.055  69.271  1.00  0.00    -0.127 A  
HETATM   27  C   UNL     1     -10.912  15.121  67.324  1.00  0.00    -0.327 A  
HETATM   28  C   UNL     1     -10.444  16.398  67.017  1.00  0.00    -0.291 A  
HETATM   29  C   UNL     1     -10.425  17.366  68.000  1.00  0.00    -0.383 A  
BRANCH  25  30
HETATM   30  C   UNL     1     -11.963  15.600  70.946  1.00  0.00    -0.397 A  
HETATM   31  N   UNL     1     -12.269  15.264  73.061  1.00  0.00    -0.392 NA 
HETATM   32  H   UNL     1     -10.307  15.305  72.194  1.00  0.00     0.000 HD 
HETATM   33  N   UNL     1     -13.487  15.401  72.562  1.00  0.00    -0.456 NA 
HETATM   34  N   UNL     1     -11.318  15.378  72.075  1.00  0.00    -0.424 NA 
HETATM   35  N   UNL     1     -13.301  15.608  71.253  1.00  0.00    -0.537 NA 
ENDBRANCH  25  30
ENDBRANCH  21  24
ENDBRANCH  17  18
ENDBRANCH   9  17
ENDBRANCH   3   4
ENDBRANCH   2   3
TORSDOF 6
ENDMDL
MODEL       48
REMARK 921   NORMALIZED FREE ENERGY PREDICTED BY IDOCK:   -7.08 KCAL/MOL
REMARK 922        TOTAL FREE ENERGY PREDICTED BY IDOCK:  -10.72 KCAL/MOL
REMARK 923 INTER-LIGAND FREE ENERGY PREDICTED BY IDOCK:   -8.94 KCAL/MOL
REMARK 924 INTRA-LIGAND FREE ENERGY PREDICTED BY IDOCK:   -1.78 KCAL/MOL
REMARK 927      BINDING AFFINITY PREDICTED BY RF-SCORE:    0.00 PKD
ROOT
HETATM    1  C   UNL     1      -9.859   8.757  71.222  1.00  0.00    -0.336 C  
HETATM    2  C   UNL     1     -11.159   8.067  71.618  1.00  0.00    -0.300 C  
ENDROOT
BRANCH   2   3
HETATM    3  C   UNL     1     -11.909   7.426  70.443  1.00  0.00    -0.114 C  
BRANCH   3   4
HETATM    4  C   UNL     1     -11.055   6.481  69.655  1.00  0.00    -0.376 A  
HETATM    5  N   UNL     1     -10.641   5.351  70.195  1.00  0.00    -0.296 NA 
HETATM    6  C   UNL     1      -9.773   4.766  69.317  1.00  0.00    -0.196 A  
HETATM    7  C   UNL     1      -9.072   3.475  69.685  1.00  0.00    -0.135 C  
HETATM    8  C   UNL     1      -9.624   5.575  68.194  1.00  0.00    -0.119 A  
HETATM    9  N   UNL     1     -10.565   6.607  68.366  1.00  0.00    -0.219 NA 
HETATM   10  O   UNL     1      -7.650   3.722  69.663  1.00  0.00    -0.051 OA 
HETATM   11  C   UNL     1      -9.355   2.357  68.675  1.00  0.00    -0.244 C  
HETATM   12  C   UNL     1      -9.442   2.962  71.087  1.00  0.00    -0.225 C  
HETATM   13  C   UNL     1      -8.754   5.441  67.048  1.00  0.00    -0.107 C  
HETATM   14  O   UNL     1      -7.584   4.817  67.311  1.00  0.00    -0.085 OA 
HETATM   15  O   UNL     1      -8.987   5.890  65.929  1.00  0.00    -0.153 OA 
HETATM   16  H   UNL     1      -7.210   2.912  69.894  1.00  0.00     0.000 HD 
BRANCH   9  17
HETATM   17  C   UNL     1     -10.829   7.588  67.284  1.00  0.00    -0.227 C  
BRANCH  17  18
HETATM   18  C   UNL     1     -10.288   8.984  67.439  1.00  0.00    -0.335 A  
HETATM   19  C   UNL     1     -11.052   9.979  68.055  1.00  0.00    -0.263 A  
HETATM   20  C   UNL     1     -10.673  11.324  67.946  1.00  0.00    -0.250 A  
HETATM   21  C   UNL     1      -9.558  11.725  67.176  1.00  0.00    -0.189 A  
HETATM   22  C   UNL     1      -8.698  10.695  66.760  1.00  0.00    -0.133 A  
HETATM   23  C   UNL     1      -9.044   9.342  66.910  1.00  0.00    -0.160 A  
BRANCH  21  24
HETATM   24  C   UNL     1      -9.469  13.134  66.654  1.00  0.00    -0.260 A  
HETATM   25  C   UNL     1     -10.362  13.775  65.752  1.00  0.00    -0.315 A  
HETATM   26  C   UNL     1     -10.218  15.168  65.507  1.00  0.00    -0.405 A  
HETATM   27  C   UNL     1      -8.454  13.955  67.225  1.00  0.00    -0.212 A  
HETATM   28  C   UNL     1      -8.311  15.314  66.944  1.00  0.00    -0.278 A  
HETATM   29  C   UNL     1      -9.208  15.928  66.095  1.00  0.00    -0.384 A  
BRANCH  25  30
HETATM   30  C   UNL     1     -11.420  13.083  65.012  1.00  0.00    -0.313 A  
HETATM   31  N   UNL     1     -13.259  12.161  64.344  1.00  0.00    -0.681 NA 
HETATM   32  H   UNL     1     -13.131  13.209  66.211  1.00  0.00     0.000 HD 
HETATM   33  N   UNL     1     -12.384  11.898  63.387  1.00  0.00    -0.539 NA 
HETATM   34  N   UNL     1     -12.678  12.886  65.357  1.00  0.00    -0.621 NA 
HETATM   35  N   UNL     1     -11.245  12.466  63.798  1.00  0.00    -0.415 NA 
ENDBRANCH  25  30
ENDBRANCH  21  24
ENDBRANCH  17  18
ENDBRANCH   9  17
ENDBRANCH   3   4
ENDBRANCH   2   3
TORSDOF 6
ENDMDL
MODEL       49
REMARK 921   NORMALIZED FREE ENERGY PREDICTED BY IDOCK:   -7.08 KCAL/MOL
REMARK 922        TOTAL FREE ENERGY PREDICTED BY IDOCK:  -10.71 KCAL/MOL
REMARK 923 INTER-LIGAND FREE ENERGY PREDICTED BY IDOCK:   -9.40 KCAL/MOL
REMARK 924 INTRA-LIGAND FREE ENERGY PREDICTED BY IDOCK:   -1.31 KCAL/MOL
REMARK 927      BINDING AFFINITY PREDICTED BY RF-SCORE:    0.00 PKD
ROOT
HETATM    1  C   UNL     1     -11.754  15.386  72.716  1.00  0.00    -0.535 C  
HETATM    2  C   UNL     1     -11.899  16.007  71.331  1.00  0.00    -0.531 C  
ENDROOT
BRANCH   2   3
HETATM    3  C   UNL     1     -11.770  15.001  70.180  1.00  0.00    -0.340 C  
BRANCH   3   4
HETATM    4  C   UNL     1     -11.223  15.618  68.929  1.00  0.00    -0.311 A  
HETATM    5  N   UNL     1     -10.757  16.852  68.945  1.00  0.00    -0.335 NA 
HETATM    6  C   UNL     1     -10.465  17.201  67.656  1.00  0.00    -0.355 A  
HETATM    7  C   UNL     1      -9.969  18.596  67.339  1.00  0.00    -0.332 C  
HETATM    8  C   UNL     1     -10.781  16.148  66.801  1.00  0.00    -0.235 A  
HETATM    9  N   UNL     1     -11.135  15.085  67.653  1.00  0.00    -0.306 NA 
HETATM   10  O   UNL     1     -10.911  19.203  66.429  1.00  0.00    -0.367 OA 
HETATM   11  C   UNL     1      -8.605  18.578  66.638  1.00  0.00    -0.295 C  
HETATM   12  C   UNL     1      -9.860  19.498  68.579  1.00  0.00    -0.518 C  
HETATM   13  C   UNL     1     -10.746  16.066  65.359  1.00  0.00    -0.383 C  
HETATM   14  O   UNL     1     -10.978  17.241  64.732  1.00  0.00    -0.950 OA 
HETATM   15  O   UNL     1     -10.581  15.033  64.715  1.00  0.00    -0.402 OA 
HETATM   16  H   UNL     1     -10.599  20.078  66.230  1.00  0.00     0.000 HD 
BRANCH   9  17
HETATM   17  C   UNL     1     -11.379  13.724  67.115  1.00  0.00    -0.324 C  
BRANCH  17  18
HETATM   18  C   UNL     1     -10.849  12.547  67.887  1.00  0.00    -0.251 A  
HETATM   19  C   UNL     1      -9.486  12.441  68.178  1.00  0.00    -0.214 A  
HETATM   20  C   UNL     1      -8.958  11.227  68.638  1.00  0.00    -0.148 A  
HETATM   21  C   UNL     1      -9.756  10.068  68.769  1.00  0.00    -0.174 A  
HETATM   22  C   UNL     1     -11.143  10.266  68.682  1.00  0.00    -0.290 A  
HETATM   23  C   UNL     1     -11.687  11.494  68.270  1.00  0.00    -0.371 A  
BRANCH  21  24
HETATM   24  C   UNL     1      -9.116   8.706  68.755  1.00  0.00    -0.142 A  
HETATM   25  C   UNL     1      -8.358   8.121  67.704  1.00  0.00    -0.127 A  
HETATM   26  C   UNL     1      -7.681   6.893  67.937  1.00  0.00    -0.112 A  
HETATM   27  C   UNL     1      -9.164   7.974  69.977  1.00  0.00    -0.156 A  
HETATM   28  C   UNL     1      -8.518   6.753  70.173  1.00  0.00    -0.139 A  
HETATM   29  C   UNL     1      -7.759   6.218  69.154  1.00  0.00    -0.100 A  
BRANCH  25  30
HETATM   30  C   UNL     1      -8.252   8.685  66.356  1.00  0.00    -0.111 A  
HETATM   31  N   UNL     1      -8.575   9.331  64.317  1.00  0.00    -0.194 NA 
HETATM   32  H   UNL     1     -10.123   8.387  65.464  1.00  0.00     0.000 HD 
HETATM   33  N   UNL     1      -7.316   9.647  64.574  1.00  0.00    -0.119 NA 
HETATM   34  N   UNL     1      -9.164   8.731  65.404  1.00  0.00    -0.145 NA 
HETATM   35  N   UNL     1      -7.113   9.248  65.835  1.00  0.00    -0.089 NA 
ENDBRANCH  25  30
ENDBRANCH  21  24
ENDBRANCH  17  18
ENDBRANCH   9  17
ENDBRANCH   3   4
ENDBRANCH   2   3
TORSDOF 6
ENDMDL
MODEL       50
REMARK 921   NORMALIZED FREE ENERGY PREDICTED BY IDOCK:   -7.07 KCAL/MOL
REMARK 922        TOTAL FREE ENERGY PREDICTED BY IDOCK:  -10.70 KCAL/MOL
REMARK 923 INTER-LIGAND FREE ENERGY PREDICTED BY IDOCK:   -9.04 KCAL/MOL
REMARK 924 INTRA-LIGAND FREE ENERGY PREDICTED BY IDOCK:   -1.66 KCAL/MOL
REMARK 927      BINDING AFFINITY PREDICTED BY RF-SCORE:    0.00 PKD
ROOT
HETATM    1  C   UNL     1      -9.777   9.203  65.811  1.00  0.00    -0.299 C  
HETATM    2  C   UNL     1      -9.578   7.970  66.684  1.00  0.00    -0.297 C  
ENDROOT
BRANCH   2   3
HETATM    3  C   UNL     1     -10.815   7.580  67.503  1.00  0.00    -0.232 C  
BRANCH   3   4
HETATM    4  C   UNL     1     -10.475   7.141  68.895  1.00  0.00    -0.207 A  
HETATM    5  N   UNL     1      -9.984   5.935  69.110  1.00  0.00    -0.154 NA 
HETATM    6  C   UNL     1      -9.907   5.755  70.462  1.00  0.00    -0.186 A  
HETATM    7  C   UNL     1      -9.440   4.431  71.029  1.00  0.00    -0.162 C  
HETATM    8  C   UNL     1     -10.388   6.887  71.116  1.00  0.00    -0.204 A  
HETATM    9  N   UNL     1     -10.618   7.824  70.090  1.00  0.00    -0.232 NA 
HETATM   10  O   UNL     1     -10.508   3.895  71.839  1.00  0.00    -0.057 OA 
HETATM   11  C   UNL     1      -8.216   4.592  71.938  1.00  0.00    -0.105 C  
HETATM   12  C   UNL     1      -9.100   3.393  69.946  1.00  0.00    -0.197 C  
HETATM   13  C   UNL     1     -10.601   7.141  72.521  1.00  0.00    -0.240 C  
HETATM   14  O   UNL     1     -10.908   6.040  73.243  1.00  0.00    -0.254 OA 
HETATM   15  O   UNL     1     -10.572   8.249  73.050  1.00  0.00    -0.264 OA 
HETATM   16  H   UNL     1     -10.214   3.064  72.194  1.00  0.00     0.000 HD 
BRANCH   9  17
HETATM   17  C   UNL     1     -10.981   9.228  70.407  1.00  0.00    -0.255 C  
BRANCH  17  18
HETATM   18  C   UNL     1     -10.781  10.273  69.344  1.00  0.00    -0.272 A  
HETATM   19  C   UNL     1      -9.502  10.748  69.044  1.00  0.00    -0.179 A  
HETATM   20  C   UNL     1      -9.346  11.906  68.270  1.00  0.00    -0.193 A  
HETATM   21  C   UNL     1     -10.455  12.658  67.820  1.00  0.00    -0.228 A  
HETATM   22  C   UNL     1     -11.708  12.039  67.950  1.00  0.00    -0.393 A  
HETATM   23  C   UNL     1     -11.869  10.850  68.681  1.00  0.00    -0.269 A  
BRANCH  21  24
HETATM   24  C   UNL     1     -10.287  14.111  67.462  1.00  0.00    -0.248 A  
HETATM   25  C   UNL     1     -10.723  14.761  66.277  1.00  0.00    -0.313 A  
HETATM   26  C   UNL     1     -10.633  16.178  66.189  1.00  0.00    -0.288 A  
HETATM   27  C   UNL     1      -9.747  14.952  68.479  1.00  0.00    -0.215 A  
HETATM   28  C   UNL     1      -9.638  16.337  68.358  1.00  0.00    -0.216 A  
HETATM   29  C   UNL     1     -10.099  16.955  67.215  1.00  0.00    -0.286 A  
BRANCH  25  30
HETATM   30  C   UNL     1     -11.236  14.061  65.096  1.00  0.00    -0.329 A  
HETATM   31  N   UNL     1     -11.534  12.788  63.373  1.00  0.00    -0.470 NA 
HETATM   32  H   UNL     1      -9.780  12.640  64.599  1.00  0.00     0.000 HD 
HETATM   33  N   UNL     1     -12.606  13.565  63.407  1.00  0.00    -0.761 NA 
HETATM   34  N   UNL     1     -10.677  13.086  64.405  1.00  0.00    -0.373 NA 
HETATM   35  N   UNL     1     -12.423  14.354  64.472  1.00  0.00    -0.660 NA 
ENDBRANCH  25  30
ENDBRANCH  21  24
ENDBRANCH  17  18
ENDBRANCH   9  17
ENDBRANCH   3   4
ENDBRANCH   2   3
TORSDOF 6
ENDMDL
MODEL       51
REMARK 921   NORMALIZED FREE ENERGY PREDICTED BY IDOCK:   -7.07 KCAL/MOL
REMARK 922        TOTAL FREE ENERGY PREDICTED BY IDOCK:  -10.70 KCAL/MOL
REMARK 923 INTER-LIGAND FREE ENERGY PREDICTED BY IDOCK:   -8.95 KCAL/MOL
REMARK 924 INTRA-LIGAND FREE ENERGY PREDICTED BY IDOCK:   -1.75 KCAL/MOL
REMARK 927      BINDING AFFINITY PREDICTED BY RF-SCORE:    0.00 PKD
ROOT
HETATM    1  C   UNL     1     -12.705  12.807  71.541  1.00  0.00    -0.330 C  
HETATM    2  C   UNL     1     -11.915  13.922  70.867  1.00  0.00    -0.310 C  
ENDROOT
BRANCH   2   3
HETATM    3  C   UNL     1     -12.719  14.717  69.829  1.00  0.00    -0.062 C  
BRANCH   3   4
HETATM    4  C   UNL     1     -11.881  15.183  68.678  1.00  0.00    -0.302 A  
HETATM    5  N   UNL     1     -11.204  16.313  68.763  1.00  0.00    -0.347 NA 
HETATM    6  C   UNL     1     -10.657  16.560  67.536  1.00  0.00    -0.313 A  
HETATM    7  C   UNL     1      -9.869  17.831  67.296  1.00  0.00    -0.312 C  
HETATM    8  C   UNL     1     -11.025  15.555  66.645  1.00  0.00    -0.248 A  
HETATM    9  N   UNL     1     -11.697  14.602  67.435  1.00  0.00    -0.392 NA 
HETATM   10  O   UNL     1     -10.530  18.569  66.246  1.00  0.00    -0.408 OA 
HETATM   11  C   UNL     1      -8.440  17.543  66.820  1.00  0.00    -0.275 C  
HETATM   12  C   UNL     1      -9.789  18.739  68.535  1.00  0.00    -0.444 C  
HETATM   13  C   UNL     1     -10.782  15.420  65.228  1.00  0.00    -0.421 C  
HETATM   14  O   UNL     1     -10.694  16.596  64.567  1.00  0.00    -0.741 OA 
HETATM   15  O   UNL     1     -10.713  14.354  64.622  1.00  0.00    -0.405 OA 
HETATM   16  H   UNL     1     -10.036  19.366  66.095  1.00  0.00     0.000 HD 
BRANCH   9  17
HETATM   17  C   UNL     1     -12.100  13.290  66.870  1.00  0.00    -0.332 C  
BRANCH  17  18
HETATM   18  C   UNL     1     -11.335  12.066  67.292  1.00  0.00    -0.394 A  
HETATM   19  C   UNL     1     -11.724  11.337  68.419  1.00  0.00    -0.365 A  
HETATM   20  C   UNL     1     -10.859  10.381  68.970  1.00  0.00    -0.273 A  
HETATM   21  C   UNL     1      -9.562  10.163  68.454  1.00  0.00    -0.150 A  
HETATM   22  C   UNL     1      -9.293  10.747  67.206  1.00  0.00    -0.165 A  
HETATM   23  C   UNL     1     -10.176  11.668  66.618  1.00  0.00    -0.249 A  
BRANCH  21  24
HETATM   24  C   UNL     1      -8.496   9.551  69.324  1.00  0.00    -0.139 A  
HETATM   25  C   UNL     1      -8.391   8.192  69.728  1.00  0.00    -0.124 A  
HETATM   26  C   UNL     1      -7.218   7.760  70.407  1.00  0.00    -0.058 A  
HETATM   27  C   UNL     1      -7.405  10.398  69.673  1.00  0.00    -0.156 A  
HETATM   28  C   UNL     1      -6.278   9.959  70.368  1.00  0.00    -0.094 A  
HETATM   29  C   UNL     1      -6.176   8.630  70.722  1.00  0.00    -0.036 A  
BRANCH  25  30
HETATM   30  C   UNL     1      -9.441   7.191  69.526  1.00  0.00    -0.151 A  
HETATM   31  N   UNL     1     -10.772   5.667  68.761  1.00  0.00    -0.229 NA 
HETATM   32  H   UNL     1      -9.081   6.360  67.638  1.00  0.00     0.000 HD 
HETATM   33  N   UNL     1     -11.269   5.985  69.946  1.00  0.00    -0.399 NA 
HETATM   34  N   UNL     1      -9.647   6.407  68.485  1.00  0.00    -0.123 NA 
HETATM   35  N   UNL     1     -10.448   6.928  70.421  1.00  0.00    -0.202 NA 
ENDBRANCH  25  30
ENDBRANCH  21  24
ENDBRANCH  17  18
ENDBRANCH   9  17
ENDBRANCH   3   4
ENDBRANCH   2   3
TORSDOF 6
ENDMDL
MODEL       52
REMARK 921   NORMALIZED FREE ENERGY PREDICTED BY IDOCK:   -7.06 KCAL/MOL
REMARK 922        TOTAL FREE ENERGY PREDICTED BY IDOCK:  -10.69 KCAL/MOL
REMARK 923 INTER-LIGAND FREE ENERGY PREDICTED BY IDOCK:   -8.94 KCAL/MOL
REMARK 924 INTRA-LIGAND FREE ENERGY PREDICTED BY IDOCK:   -1.75 KCAL/MOL
REMARK 927      BINDING AFFINITY PREDICTED BY RF-SCORE:    0.00 PKD
ROOT
HETATM    1  C   UNL     1      -8.083   8.972  71.022  1.00  0.00    -0.199 C  
HETATM    2  C   UNL     1      -8.324  10.002  69.925  1.00  0.00    -0.169 C  
ENDROOT
BRANCH   2   3
HETATM    3  C   UNL     1      -9.803  10.200  69.568  1.00  0.00    -0.255 C  
BRANCH   3   4
HETATM    4  C   UNL     1      -9.996  10.846  68.231  1.00  0.00    -0.175 A  
HETATM    5  N   UNL     1     -10.351  12.115  68.151  1.00  0.00    -0.201 NA 
HETATM    6  C   UNL     1     -10.595  12.394  66.836  1.00  0.00    -0.229 A  
HETATM    7  C   UNL     1     -11.089  13.766  66.427  1.00  0.00    -0.308 C  
HETATM    8  C   UNL     1     -10.403  11.248  66.068  1.00  0.00    -0.252 A  
HETATM    9  N   UNL     1      -9.881  10.296  66.965  1.00  0.00    -0.185 NA 
HETATM   10  O   UNL     1     -12.372  13.600  65.786  1.00  0.00    -0.433 OA 
HETATM   11  C   UNL     1     -10.156  14.437  65.412  1.00  0.00    -0.388 C  
HETATM   12  C   UNL     1     -11.274  14.723  67.617  1.00  0.00    -0.332 C  
HETATM   13  C   UNL     1     -10.627  11.011  64.661  1.00  0.00    -0.299 C  
HETATM   14  O   UNL     1     -11.628  11.747  64.128  1.00  0.00    -0.350 OA 
HETATM   15  O   UNL     1     -10.027  10.183  63.981  1.00  0.00    -0.248 OA 
HETATM   16  H   UNL     1     -12.682  14.461  65.530  1.00  0.00     0.000 HD 
BRANCH   9  17
HETATM   17  C   UNL     1      -9.386   8.983  66.483  1.00  0.00    -0.191 C  
BRANCH  17  18
HETATM   18  C   UNL     1      -9.614   7.774  67.348  1.00  0.00    -0.192 A  
HETATM   19  C   UNL     1     -10.910   7.377  67.689  1.00  0.00    -0.220 A  
HETATM   20  C   UNL     1     -11.111   6.438  68.711  1.00  0.00    -0.404 A  
HETATM   21  C   UNL     1     -10.036   5.909  69.460  1.00  0.00    -0.238 A  
HETATM   22  C   UNL     1      -8.751   6.159  68.950  1.00  0.00    -0.123 A  
HETATM   23  C   UNL     1      -8.542   7.060  67.892  1.00  0.00    -0.126 A  
BRANCH  21  24
HETATM   24  C   UNL     1     -10.281   5.339  70.832  1.00  0.00    -0.304 A  
HETATM   25  C   UNL     1     -11.135   5.860  71.841  1.00  0.00    -0.325 A  
HETATM   26  C   UNL     1     -11.376   5.090  73.011  1.00  0.00    -0.374 A  
HETATM   27  C   UNL     1      -9.693   4.069  71.100  1.00  0.00    -0.257 A  
HETATM   28  C   UNL     1      -9.918   3.344  72.270  1.00  0.00    -0.234 A  
HETATM   29  C   UNL     1     -10.778   3.849  73.224  1.00  0.00    -0.287 A  
BRANCH  25  30
HETATM   30  C   UNL     1     -11.770   7.179  71.779  1.00  0.00    -0.290 A  
HETATM   31  N   UNL     1     -12.270   9.279  71.921  1.00  0.00    -0.374 NA 
HETATM   32  H   UNL     1     -10.354   8.529  72.526  1.00  0.00     0.000 HD 
HETATM   33  N   UNL     1     -13.358   8.706  71.431  1.00  0.00    -0.276 NA 
HETATM   34  N   UNL     1     -11.283   8.349  72.147  1.00  0.00    -0.335 NA 
HETATM   35  N   UNL     1     -13.052   7.406  71.343  1.00  0.00    -0.367 NA 
ENDBRANCH  25  30
ENDBRANCH  21  24
ENDBRANCH  17  18
ENDBRANCH   9  17
ENDBRANCH   3   4
ENDBRANCH   2   3
TORSDOF 6
ENDMDL
MODEL       53
REMARK 921   NORMALIZED FREE ENERGY PREDICTED BY IDOCK:   -7.05 KCAL/MOL
REMARK 922        TOTAL FREE ENERGY PREDICTED BY IDOCK:  -10.68 KCAL/MOL
REMARK 923 INTER-LIGAND FREE ENERGY PREDICTED BY IDOCK:   -9.31 KCAL/MOL
REMARK 924 INTRA-LIGAND FREE ENERGY PREDICTED BY IDOCK:   -1.37 KCAL/MOL
REMARK 927      BINDING AFFINITY PREDICTED BY RF-SCORE:    0.00 PKD
ROOT
HETATM    1  C   UNL     1     -13.332   9.914  71.216  1.00  0.00    -0.419 C  
HETATM    2  C   UNL     1     -12.165   9.188  71.875  1.00  0.00    -0.449 C  
ENDROOT
BRANCH   2   3
HETATM    3  C   UNL     1     -10.804   9.474  71.225  1.00  0.00    -0.413 C  
BRANCH   3   4
HETATM    4  C   UNL     1     -10.329   8.351  70.355  1.00  0.00    -0.205 A  
HETATM    5  N   UNL     1      -9.881   7.234  70.896  1.00  0.00    -0.184 NA 
HETATM    6  C   UNL     1      -9.385   6.457  69.888  1.00  0.00    -0.151 A  
HETATM    7  C   UNL     1      -8.733   5.126  70.204  1.00  0.00    -0.111 C  
HETATM    8  C   UNL     1      -9.510   7.124  68.673  1.00  0.00    -0.140 A  
HETATM    9  N   UNL     1     -10.249   8.284  68.974  1.00  0.00    -0.214 NA 
HETATM   10  O   UNL     1      -7.370   5.180  69.733  1.00  0.00    -0.058 OA 
HETATM   11  C   UNL     1      -9.419   3.962  69.480  1.00  0.00    -0.259 C  
HETATM   12  C   UNL     1      -8.703   4.807  71.708  1.00  0.00    -0.134 C  
HETATM   13  C   UNL     1      -9.052   6.765  67.351  1.00  0.00    -0.117 C  
HETATM   14  O   UNL     1      -7.924   6.020  67.340  1.00  0.00    -0.101 OA 
HETATM   15  O   UNL     1      -9.572   7.129  66.300  1.00  0.00    -0.139 OA 
HETATM   16  H   UNL     1      -6.961   4.345  69.930  1.00  0.00     0.000 HD 
BRANCH   9  17
HETATM   17  C   UNL     1     -10.736   9.181  67.896  1.00  0.00    -0.162 C  
BRANCH  17  18
HETATM   18  C   UNL     1     -10.580  10.666  68.079  1.00  0.00    -0.248 A  
HETATM   19  C   UNL     1     -11.700  11.502  68.094  1.00  0.00    -0.357 A  
HETATM   20  C   UNL     1     -11.541  12.890  67.978  1.00  0.00    -0.385 A  
HETATM   21  C   UNL     1     -10.273  13.483  67.787  1.00  0.00    -0.242 A  
HETATM   22  C   UNL     1      -9.166  12.643  67.996  1.00  0.00    -0.208 A  
HETATM   23  C   UNL     1      -9.316  11.257  68.164  1.00  0.00    -0.181 A  
BRANCH  21  24
HETATM   24  C   UNL     1     -10.164  14.849  67.165  1.00  0.00    -0.245 A  
HETATM   25  C   UNL     1     -10.664  15.261  65.900  1.00  0.00    -0.340 A  
HETATM   26  C   UNL     1     -10.622  16.639  65.552  1.00  0.00    -0.273 A  
HETATM   27  C   UNL     1      -9.615  15.875  67.988  1.00  0.00    -0.211 A  
HETATM   28  C   UNL     1      -9.555  17.217  67.614  1.00  0.00    -0.256 A  
HETATM   29  C   UNL     1     -10.077  17.605  66.397  1.00  0.00    -0.356 A  
BRANCH  25  30
HETATM   30  C   UNL     1     -11.196  14.344  64.889  1.00  0.00    -0.389 A  
HETATM   31  N   UNL     1     -11.535  12.742  63.476  1.00  0.00    -0.481 NA 
HETATM   32  H   UNL     1      -9.805  12.787  64.741  1.00  0.00     0.000 HD 
HETATM   33  N   UNL     1     -12.569  13.553  63.318  1.00  0.00    -0.750 NA 
HETATM   34  N   UNL     1     -10.677  13.219  64.436  1.00  0.00    -0.403 NA 
HETATM   35  N   UNL     1     -12.361  14.546  64.191  1.00  0.00    -0.729 NA 
ENDBRANCH  25  30
ENDBRANCH  21  24
ENDBRANCH  17  18
ENDBRANCH   9  17
ENDBRANCH   3   4
ENDBRANCH   2   3
TORSDOF 6
ENDMDL
MODEL       54
REMARK 921   NORMALIZED FREE ENERGY PREDICTED BY IDOCK:   -7.05 KCAL/MOL
REMARK 922        TOTAL FREE ENERGY PREDICTED BY IDOCK:  -10.68 KCAL/MOL
REMARK 923 INTER-LIGAND FREE ENERGY PREDICTED BY IDOCK:   -9.27 KCAL/MOL
REMARK 924 INTRA-LIGAND FREE ENERGY PREDICTED BY IDOCK:   -1.41 KCAL/MOL
REMARK 927      BINDING AFFINITY PREDICTED BY RF-SCORE:    0.00 PKD
ROOT
HETATM    1  C   UNL     1      -9.790  11.406  63.259  1.00  0.00    -0.428 C  
HETATM    2  C   UNL     1     -10.437  12.655  63.846  1.00  0.00    -0.441 C  
ENDROOT
BRANCH   2   3
HETATM    3  C   UNL     1     -11.711  12.378  64.654  1.00  0.00    -0.426 C  
BRANCH   3   4
HETATM    4  C   UNL     1     -11.427  12.008  66.078  1.00  0.00    -0.338 A  
HETATM    5  N   UNL     1     -10.764  10.901  66.357  1.00  0.00    -0.229 NA 
HETATM    6  C   UNL     1     -10.778  10.743  67.714  1.00  0.00    -0.251 A  
HETATM    7  C   UNL     1     -10.149   9.518  68.344  1.00  0.00    -0.175 C  
HETATM    8  C   UNL     1     -11.496  11.781  68.302  1.00  0.00    -0.307 A  
HETATM    9  N   UNL     1     -11.786  12.663  67.244  1.00  0.00    -0.419 NA 
HETATM   10  O   UNL     1     -11.180   8.815  69.069  1.00  0.00    -0.425 OA 
HETATM   11  C   UNL     1      -9.054   9.885  69.353  1.00  0.00    -0.216 C  
HETATM   12  C   UNL     1      -9.548   8.547  67.314  1.00  0.00    -0.220 C  
HETATM   13  C   UNL     1     -11.870  12.003  69.679  1.00  0.00    -0.333 C  
HETATM   14  O   UNL     1     -12.053  10.869  70.393  1.00  0.00    -0.301 OA 
HETATM   15  O   UNL     1     -12.073  13.103  70.188  1.00  0.00    -0.338 OA 
HETATM   16  H   UNL     1     -10.786   8.046  69.464  1.00  0.00     0.000 HD 
BRANCH   9  17
HETATM   17  C   UNL     1     -12.403  13.988  67.501  1.00  0.00    -0.077 C  
BRANCH  17  18
HETATM   18  C   UNL     1     -11.500  15.184  67.620  1.00  0.00    -0.319 A  
HETATM   19  C   UNL     1     -10.528  15.443  66.649  1.00  0.00    -0.293 A  
HETATM   20  C   UNL     1      -9.514  16.377  66.901  1.00  0.00    -0.249 A  
HETATM   21  C   UNL     1      -9.402  17.040  68.144  1.00  0.00    -0.254 A  
HETATM   22  C   UNL     1     -10.507  16.923  69.003  1.00  0.00    -0.341 A  
HETATM   23  C   UNL     1     -11.555  16.026  68.736  1.00  0.00    -0.352 A  
BRANCH  21  24
HETATM   24  C   UNL     1      -8.079  17.612  68.578  1.00  0.00    -0.283 A  
HETATM   25  C   UNL     1      -6.817  16.958  68.576  1.00  0.00    -0.172 A  
HETATM   26  C   UNL     1      -5.644  17.714  68.854  1.00  0.00    -0.172 A  
HETATM   27  C   UNL     1      -8.068  18.999  68.903  1.00  0.00    -0.310 A  
HETATM   28  C   UNL     1      -6.909  19.714  69.205  1.00  0.00    -0.383 A  
HETATM   29  C   UNL     1      -5.689  19.072  69.164  1.00  0.00    -0.234 A  
BRANCH  25  30
HETATM   30  C   UNL     1      -6.634  15.524  68.339  1.00  0.00    -0.117 A  
HETATM   31  N   UNL     1      -6.134  13.571  67.557  1.00  0.00    -0.326 NA 
HETATM   32  H   UNL     1      -5.508  15.375  66.581  1.00  0.00     0.000 HD 
HETATM   33  N   UNL     1      -6.844  13.325  68.647  1.00  0.00    -0.093 NA 
HETATM   34  N   UNL     1      -6.001  14.923  67.350  1.00  0.00    -0.321 NA 
HETATM   35  N   UNL     1      -7.155  14.532  69.133  1.00  0.00    -0.124 NA 
ENDBRANCH  25  30
ENDBRANCH  21  24
ENDBRANCH  17  18
ENDBRANCH   9  17
ENDBRANCH   3   4
ENDBRANCH   2   3
TORSDOF 6
ENDMDL
MODEL       55
REMARK 921   NORMALIZED FREE ENERGY PREDICTED BY IDOCK:   -7.04 KCAL/MOL
REMARK 922        TOTAL FREE ENERGY PREDICTED BY IDOCK:  -10.67 KCAL/MOL
REMARK 923 INTER-LIGAND FREE ENERGY PREDICTED BY IDOCK:   -9.53 KCAL/MOL
REMARK 924 INTRA-LIGAND FREE ENERGY PREDICTED BY IDOCK:   -1.14 KCAL/MOL
REMARK 927      BINDING AFFINITY PREDICTED BY RF-SCORE:    0.00 PKD
ROOT
HETATM    1  C   UNL     1     -12.533  12.166  70.861  1.00  0.00    -0.374 C  
HETATM    2  C   UNL     1     -11.675  13.297  70.307  1.00  0.00    -0.217 C  
ENDROOT
BRANCH   2   3
HETATM    3  C   UNL     1     -12.477  14.410  69.619  1.00  0.00    -0.207 C  
BRANCH   3   4
HETATM    4  C   UNL     1     -11.775  14.976  68.422  1.00  0.00    -0.317 A  
HETATM    5  N   UNL     1     -11.096  16.103  68.521  1.00  0.00    -0.341 NA 
HETATM    6  C   UNL     1     -10.692  16.454  67.264  1.00  0.00    -0.257 A  
HETATM    7  C   UNL     1      -9.940  17.749  67.040  1.00  0.00    -0.322 C  
HETATM    8  C   UNL     1     -11.155  15.518  66.343  1.00  0.00    -0.174 A  
HETATM    9  N   UNL     1     -11.731  14.498  67.123  1.00  0.00    -0.392 NA 
HETATM   10  O   UNL     1     -10.717  18.560  66.134  1.00  0.00    -0.365 OA 
HETATM   11  C   UNL     1      -8.573  17.517  66.385  1.00  0.00    -0.273 C  
HETATM   12  C   UNL     1      -9.723  18.556  68.331  1.00  0.00    -0.395 C  
HETATM   13  C   UNL     1     -11.073  15.500  64.901  1.00  0.00    -0.416 C  
HETATM   14  O   UNL     1     -11.064  16.726  64.331  1.00  0.00    -1.072 OA 
HETATM   15  O   UNL     1     -11.070  14.486  64.207  1.00  0.00    -0.221 OA 
HETATM   16  H   UNL     1     -10.245  19.373  65.993  1.00  0.00     0.000 HD 
BRANCH   9  17
HETATM   17  C   UNL     1     -12.191  13.231  66.504  1.00  0.00    -0.327 C  
BRANCH  17  18
HETATM   18  C   UNL     1     -11.261  12.049  66.522  1.00  0.00    -0.387 A  
HETATM   19  C   UNL     1     -10.751  11.525  65.331  1.00  0.00    -0.335 A  
HETATM   20  C   UNL     1     -10.126  10.271  65.325  1.00  0.00    -0.359 A  
HETATM   21  C   UNL     1     -10.039   9.475  66.490  1.00  0.00    -0.326 A  
HETATM   22  C   UNL     1     -10.360  10.118  67.697  1.00  0.00    -0.265 A  
HETATM   23  C   UNL     1     -10.941  11.397  67.717  1.00  0.00    -0.301 A  
BRANCH  21  24
HETATM   24  C   UNL     1      -9.852   7.986  66.374  1.00  0.00    -0.237 A  
HETATM   25  C   UNL     1      -8.764   7.299  65.771  1.00  0.00    -0.129 A  
HETATM   26  C   UNL     1      -8.671   5.887  65.911  1.00  0.00    -0.152 A  
HETATM   27  C   UNL     1     -10.805   7.176  67.059  1.00  0.00    -0.382 A  
HETATM   28  C   UNL     1     -10.711   5.788  67.156  1.00  0.00    -0.358 A  
HETATM   29  C   UNL     1      -9.630   5.142  66.595  1.00  0.00    -0.162 A  
BRANCH  25  30
HETATM   30  C   UNL     1      -7.728   7.949  64.964  1.00  0.00    -0.106 A  
HETATM   31  N   UNL     1      -6.019   9.057  64.236  1.00  0.00    -0.070 NA 
HETATM   32  H   UNL     1      -6.373   8.772  66.332  1.00  0.00     0.000 HD 
HETATM   33  N   UNL     1      -6.670   8.687  63.144  1.00  0.00    -0.090 NA 
HETATM   34  N   UNL     1      -6.662   8.615  65.367  1.00  0.00    -0.066 NA 
HETATM   35  N   UNL     1      -7.728   8.002  63.592  1.00  0.00    -0.130 NA 
ENDBRANCH  25  30
ENDBRANCH  21  24
ENDBRANCH  17  18
ENDBRANCH   9  17
ENDBRANCH   3   4
ENDBRANCH   2   3
TORSDOF 6
ENDMDL
MODEL       56
REMARK 921   NORMALIZED FREE ENERGY PREDICTED BY IDOCK:   -7.04 KCAL/MOL
REMARK 922        TOTAL FREE ENERGY PREDICTED BY IDOCK:  -10.66 KCAL/MOL
REMARK 923 INTER-LIGAND FREE ENERGY PREDICTED BY IDOCK:   -9.48 KCAL/MOL
REMARK 924 INTRA-LIGAND FREE ENERGY PREDICTED BY IDOCK:   -1.19 KCAL/MOL
REMARK 927      BINDING AFFINITY PREDICTED BY RF-SCORE:    0.00 PKD
ROOT
HETATM    1  C   UNL     1     -10.644   7.827  67.173  1.00  0.00    -0.401 C  
HETATM    2  C   UNL     1     -10.700   6.360  67.580  1.00  0.00    -0.387 C  
ENDROOT
BRANCH   2   3
HETATM    3  C   UNL     1     -11.275   6.123  68.983  1.00  0.00    -0.375 C  
BRANCH   3   4
HETATM    4  C   UNL     1     -10.229   6.162  70.054  1.00  0.00    -0.196 A  
HETATM    5  N   UNL     1      -9.015   5.704  69.815  1.00  0.00    -0.126 NA 
HETATM    6  C   UNL     1      -8.324   5.728  70.993  1.00  0.00    -0.123 A  
HETATM    7  C   UNL     1      -6.908   5.195  71.057  1.00  0.00    -0.047 C  
HETATM    8  C   UNL     1      -9.147   6.202  72.012  1.00  0.00    -0.143 A  
HETATM    9  N   UNL     1     -10.327   6.610  71.361  1.00  0.00    -0.200 NA 
HETATM   10  O   UNL     1      -6.886   4.110  72.008  1.00  0.00    -0.034 OA 
HETATM   11  C   UNL     1      -5.915   6.254  71.551  1.00  0.00    -0.032 C  
HETATM   12  C   UNL     1      -6.402   4.654  69.709  1.00  0.00    -0.027 C  
HETATM   13  C   UNL     1      -8.912   6.319  73.432  1.00  0.00    -0.124 C  
HETATM   14  O   UNL     1      -8.068   5.390  73.932  1.00  0.00    -0.107 OA 
HETATM   15  O   UNL     1      -9.453   7.137  74.172  1.00  0.00    -0.243 OA 
HETATM   16  H   UNL     1      -5.998   3.776  72.048  1.00  0.00     0.000 HD 
BRANCH   9  17
HETATM   17  C   UNL     1     -11.394   7.333  72.097  1.00  0.00    -0.265 C  
BRANCH  17  18
HETATM   18  C   UNL     1     -11.901   8.629  71.525  1.00  0.00    -0.366 A  
HETATM   19  C   UNL     1     -11.071   9.436  70.743  1.00  0.00    -0.365 A  
HETATM   20  C   UNL     1     -11.443  10.756  70.454  1.00  0.00    -0.397 A  
HETATM   21  C   UNL     1     -12.622  11.331  70.980  1.00  0.00    -0.495 A  
HETATM   22  C   UNL     1     -13.529  10.436  71.571  1.00  0.00    -0.303 A  
HETATM   23  C   UNL     1     -13.186   9.097  71.820  1.00  0.00    -0.459 A  
BRANCH  21  24
HETATM   24  C   UNL     1     -12.745  12.826  71.099  1.00  0.00    -0.355 A  
HETATM   25  C   UNL     1     -12.358  13.800  70.138  1.00  0.00    -0.390 A  
HETATM   26  C   UNL     1     -12.712  15.162  70.350  1.00  0.00    -0.378 A  
HETATM   27  C   UNL     1     -13.442  13.313  72.243  1.00  0.00    -0.679 A  
HETATM   28  C   UNL     1     -13.750  14.658  72.446  1.00  0.00    -0.575 A  
HETATM   29  C   UNL     1     -13.399  15.585  71.487  1.00  0.00    -0.593 A  
BRANCH  25  30
HETATM   30  C   UNL     1     -11.573  13.505  68.938  1.00  0.00    -0.323 A  
HETATM   31  N   UNL     1     -10.027  13.274  67.443  1.00  0.00    -0.230 NA 
HETATM   32  H   UNL     1      -9.598  14.020  69.408  1.00  0.00     0.000 HD 
HETATM   33  N   UNL     1     -11.138  12.880  66.841  1.00  0.00    -0.270 NA 
HETATM   34  N   UNL     1     -10.279  13.668  68.735  1.00  0.00    -0.195 NA 
HETATM   35  N   UNL     1     -12.096  13.023  67.764  1.00  0.00    -0.274 NA 
ENDBRANCH  25  30
ENDBRANCH  21  24
ENDBRANCH  17  18
ENDBRANCH   9  17
ENDBRANCH   3   4
ENDBRANCH   2   3
TORSDOF 6
ENDMDL
MODEL       57
REMARK 921   NORMALIZED FREE ENERGY PREDICTED BY IDOCK:   -7.02 KCAL/MOL
REMARK 922        TOTAL FREE ENERGY PREDICTED BY IDOCK:  -10.64 KCAL/MOL
REMARK 923 INTER-LIGAND FREE ENERGY PREDICTED BY IDOCK:   -9.38 KCAL/MOL
REMARK 924 INTRA-LIGAND FREE ENERGY PREDICTED BY IDOCK:   -1.26 KCAL/MOL
REMARK 927      BINDING AFFINITY PREDICTED BY RF-SCORE:    0.00 PKD
ROOT
HETATM    1  C   UNL     1     -10.408   7.390  67.044  1.00  0.00    -0.384 C  
HETATM    2  C   UNL     1      -9.049   8.013  66.747  1.00  0.00    -0.189 C  
ENDROOT
BRANCH   2   3
HETATM    3  C   UNL     1      -9.018   8.867  65.473  1.00  0.00    -0.246 C  
BRANCH   3   4
HETATM    4  C   UNL     1      -9.543  10.253  65.690  1.00  0.00    -0.232 A  
HETATM    5  N   UNL     1     -10.518  10.720  64.934  1.00  0.00    -0.294 NA 
HETATM    6  C   UNL     1     -10.692  12.038  65.251  1.00  0.00    -0.288 A  
HETATM    7  C   UNL     1     -11.706  12.875  64.499  1.00  0.00    -0.365 C  
HETATM    8  C   UNL     1      -9.774  12.412  66.230  1.00  0.00    -0.246 A  
HETATM    9  N   UNL     1      -9.136  11.213  66.602  1.00  0.00    -0.166 NA 
HETATM   10  O   UNL     1     -10.998  13.963  63.867  1.00  0.00    -0.506 OA 
HETATM   11  C   UNL     1     -12.750  13.495  65.435  1.00  0.00    -0.495 C  
HETATM   12  C   UNL     1     -12.447  12.091  63.403  1.00  0.00    -0.625 C  
HETATM   13  C   UNL     1      -9.498  13.702  66.816  1.00  0.00    -0.270 C  
HETATM   14  O   UNL     1      -9.720  14.746  65.985  1.00  0.00    -0.295 OA 
HETATM   15  O   UNL     1      -9.046  13.884  67.943  1.00  0.00    -0.178 OA 
HETATM   16  H   UNL     1     -11.634  14.488  63.395  1.00  0.00     0.000 HD 
BRANCH   9  17
HETATM   17  C   UNL     1      -8.198  11.172  67.751  1.00  0.00    -0.119 C  
BRANCH  17  18
HETATM   18  C   UNL     1      -8.639  10.469  69.006  1.00  0.00    -0.160 A  
HETATM   19  C   UNL     1      -7.700   9.895  69.868  1.00  0.00    -0.177 A  
HETATM   20  C   UNL     1      -8.116   9.008  70.870  1.00  0.00    -0.203 A  
HETATM   21  C   UNL     1      -9.468   8.621  71.009  1.00  0.00    -0.261 A  
HETATM   22  C   UNL     1     -10.400   9.376  70.279  1.00  0.00    -0.293 A  
HETATM   23  C   UNL     1      -9.995  10.306  69.307  1.00  0.00    -0.244 A  
BRANCH  21  24
HETATM   24  C   UNL     1      -9.816   7.332  71.705  1.00  0.00    -0.176 A  
HETATM   25  C   UNL     1     -11.111   6.876  72.075  1.00  0.00    -0.279 A  
HETATM   26  C   UNL     1     -11.265   5.551  72.567  1.00  0.00    -0.330 A  
HETATM   27  C   UNL     1      -8.746   6.411  71.897  1.00  0.00    -0.134 A  
HETATM   28  C   UNL     1      -8.916   5.126  72.412  1.00  0.00    -0.138 A  
HETATM   29  C   UNL     1     -10.183   4.687  72.733  1.00  0.00    -0.232 A  
BRANCH  25  30
HETATM   30  C   UNL     1     -12.319   7.702  72.021  1.00  0.00    -0.280 A  
HETATM   31  N   UNL     1     -13.843   9.216  72.277  1.00  0.00    -0.470 NA 
HETATM   32  H   UNL     1     -11.914   9.385  73.199  1.00  0.00     0.000 HD 
HETATM   33  N   UNL     1     -14.405   8.301  71.503  1.00  0.00    -0.440 NA 
HETATM   34  N   UNL     1     -12.559   8.858  72.610  1.00  0.00    -0.297 NA 
HETATM   35  N   UNL     1     -13.465   7.362  71.344  1.00  0.00    -0.368 NA 
ENDBRANCH  25  30
ENDBRANCH  21  24
ENDBRANCH  17  18
ENDBRANCH   9  17
ENDBRANCH   3   4
ENDBRANCH   2   3
TORSDOF 6
ENDMDL
MODEL       58
REMARK 921   NORMALIZED FREE ENERGY PREDICTED BY IDOCK:   -7.02 KCAL/MOL
REMARK 922        TOTAL FREE ENERGY PREDICTED BY IDOCK:  -10.64 KCAL/MOL
REMARK 923 INTER-LIGAND FREE ENERGY PREDICTED BY IDOCK:   -8.65 KCAL/MOL
REMARK 924 INTRA-LIGAND FREE ENERGY PREDICTED BY IDOCK:   -1.99 KCAL/MOL
REMARK 927      BINDING AFFINITY PREDICTED BY RF-SCORE:    0.00 PKD
ROOT
HETATM    1  C   UNL     1      -6.967  10.022  69.128  1.00  0.00    -0.059 C  
HETATM    2  C   UNL     1      -7.723  11.322  68.879  1.00  0.00    -0.125 C  
ENDROOT
BRANCH   2   3
HETATM    3  C   UNL     1      -7.416  11.974  67.524  1.00  0.00    -0.140 C  
BRANCH   3   4
HETATM    4  C   UNL     1      -8.584  12.726  66.964  1.00  0.00    -0.177 A  
HETATM    5  N   UNL     1      -8.627  14.042  67.043  1.00  0.00    -0.203 NA 
HETATM    6  C   UNL     1      -9.852  14.444  66.592  1.00  0.00    -0.278 A  
HETATM    7  C   UNL     1     -10.232  15.910  66.622  1.00  0.00    -0.288 C  
HETATM    8  C   UNL     1     -10.611  13.331  66.236  1.00  0.00    -0.289 A  
HETATM    9  N   UNL     1      -9.726  12.242  66.349  1.00  0.00    -0.230 NA 
HETATM   10  O   UNL     1     -11.400  16.046  67.459  1.00  0.00    -0.200 OA 
HETATM   11  C   UNL     1     -10.604  16.438  65.231  1.00  0.00    -0.320 C  
HETATM   12  C   UNL     1      -9.128  16.811  67.200  1.00  0.00    -0.224 C  
HETATM   13  C   UNL     1     -11.985  13.230  65.802  1.00  0.00    -0.417 C  
HETATM   14  O   UNL     1     -12.797  14.185  66.309  1.00  0.00    -0.311 OA 
HETATM   15  O   UNL     1     -12.435  12.341  65.085  1.00  0.00    -0.563 OA 
HETATM   16  H   UNL     1     -11.639  16.965  67.478  1.00  0.00     0.000 HD 
BRANCH   9  17
HETATM   17  C   UNL     1     -10.122  10.887  65.889  1.00  0.00    -0.252 C  
BRANCH  17  18
HETATM   18  C   UNL     1     -10.441   9.847  66.928  1.00  0.00    -0.284 A  
HETATM   19  C   UNL     1     -10.992  10.214  68.158  1.00  0.00    -0.313 A  
HETATM   20  C   UNL     1     -11.022   9.296  69.217  1.00  0.00    -0.105 A  
HETATM   21  C   UNL     1     -10.457   8.006  69.102  1.00  0.00    -0.217 A  
HETATM   22  C   UNL     1     -10.116   7.600  67.802  1.00  0.00    -0.237 A  
HETATM   23  C   UNL     1     -10.130   8.498  66.723  1.00  0.00    -0.369 A  
BRANCH  21  24
HETATM   24  C   UNL     1     -10.039   7.253  70.337  1.00  0.00    -0.196 A  
HETATM   25  C   UNL     1     -10.821   6.999  71.496  1.00  0.00    -0.255 A  
HETATM   26  C   UNL     1     -10.318   6.117  72.492  1.00  0.00    -0.218 A  
HETATM   27  C   UNL     1      -8.766   6.615  70.285  1.00  0.00    -0.147 A  
HETATM   28  C   UNL     1      -8.278   5.779  71.290  1.00  0.00    -0.122 A  
HETATM   29  C   UNL     1      -9.065   5.515  72.391  1.00  0.00    -0.147 A  
BRANCH  25  30
HETATM   30  C   UNL     1     -12.120   7.621  71.763  1.00  0.00    -0.305 A  
HETATM   31  N   UNL     1     -14.214   8.157  71.856  1.00  0.00    -0.432 NA 
HETATM   32  H   UNL     1     -13.542   6.390  70.843  1.00  0.00     0.000 HD 
HETATM   33  N   UNL     1     -13.589   9.123  72.511  1.00  0.00    -0.476 NA 
HETATM   34  N   UNL     1     -13.320   7.226  71.383  1.00  0.00    -0.375 NA 
HETATM   35  N   UNL     1     -12.294   8.794  72.454  1.00  0.00    -0.371 NA 
ENDBRANCH  25  30
ENDBRANCH  21  24
ENDBRANCH  17  18
ENDBRANCH   9  17
ENDBRANCH   3   4
ENDBRANCH   2   3
TORSDOF 6
ENDMDL
MODEL       59
REMARK 921   NORMALIZED FREE ENERGY PREDICTED BY IDOCK:   -6.98 KCAL/MOL
REMARK 922        TOTAL FREE ENERGY PREDICTED BY IDOCK:  -10.58 KCAL/MOL
REMARK 923 INTER-LIGAND FREE ENERGY PREDICTED BY IDOCK:   -9.28 KCAL/MOL
REMARK 924 INTRA-LIGAND FREE ENERGY PREDICTED BY IDOCK:   -1.30 KCAL/MOL
REMARK 927      BINDING AFFINITY PREDICTED BY RF-SCORE:    0.00 PKD
ROOT
HETATM    1  C   UNL     1     -10.992   6.348  67.624  1.00  0.00    -0.441 C  
HETATM    2  C   UNL     1      -9.649   6.690  66.989  1.00  0.00    -0.183 C  
ENDROOT
BRANCH   2   3
HETATM    3  C   UNL     1      -8.952   7.904  67.619  1.00  0.00    -0.133 C  
BRANCH   3   4
HETATM    4  C   UNL     1      -9.275   8.069  69.072  1.00  0.00    -0.148 A  
HETATM    5  N   UNL     1      -8.510   7.509  69.991  1.00  0.00    -0.136 NA 
HETATM    6  C   UNL     1      -9.114   7.698  71.202  1.00  0.00    -0.146 A  
HETATM    7  C   UNL     1      -8.505   7.106  72.456  1.00  0.00    -0.111 C  
HETATM    8  C   UNL     1     -10.313   8.384  71.029  1.00  0.00    -0.198 A  
HETATM    9  N   UNL     1     -10.331   8.739  69.666  1.00  0.00    -0.208 NA 
HETATM   10  O   UNL     1      -9.470   6.201  73.032  1.00  0.00    -0.144 OA 
HETATM   11  C   UNL     1      -8.201   8.178  73.511  1.00  0.00    -0.276 C  
HETATM   12  C   UNL     1      -7.214   6.315  72.189  1.00  0.00    -0.091 C  
HETATM   13  C   UNL     1     -11.343   8.731  71.980  1.00  0.00    -0.371 C  
HETATM   14  O   UNL     1     -11.470   7.855  73.002  1.00  0.00    -0.383 OA 
HETATM   15  O   UNL     1     -12.101   9.692  71.880  1.00  0.00    -0.376 OA 
HETATM   16  H   UNL     1      -9.089   5.830  73.819  1.00  0.00     0.000 HD 
BRANCH   9  17
HETATM   17  C   UNL     1     -11.382   9.636  69.125  1.00  0.00     0.071 C  
BRANCH  17  18
HETATM   18  C   UNL     1     -11.023  11.070  68.849  1.00  0.00    -0.277 A  
HETATM   19  C   UNL     1     -11.964  12.087  69.033  1.00  0.00    -0.321 A  
HETATM   20  C   UNL     1     -11.726  13.367  68.512  1.00  0.00    -0.392 A  
HETATM   21  C   UNL     1     -10.574  13.658  67.747  1.00  0.00    -0.247 A  
HETATM   22  C   UNL     1      -9.561  12.687  67.770  1.00  0.00    -0.197 A  
HETATM   23  C   UNL     1      -9.770  11.418  68.335  1.00  0.00    -0.203 A  
BRANCH  21  24
HETATM   24  C   UNL     1     -10.578  14.823  66.792  1.00  0.00    -0.302 A  
HETATM   25  C   UNL     1     -11.187  14.882  65.510  1.00  0.00    -0.348 A  
HETATM   26  C   UNL     1     -11.238  16.127  64.823  1.00  0.00    -0.313 A  
HETATM   27  C   UNL     1     -10.021  16.040  67.281  1.00  0.00    -0.242 A  
HETATM   28  C   UNL     1     -10.053  17.243  66.576  1.00  0.00    -0.311 A  
HETATM   29  C   UNL     1     -10.680  17.291  65.349  1.00  0.00    -0.074 A  
BRANCH  25  30
HETATM   30  C   UNL     1     -11.746  13.723  64.811  1.00  0.00    -0.381 A  
HETATM   31  N   UNL     1     -12.126  12.031  63.517  1.00  0.00    -0.531 NA 
HETATM   32  H   UNL     1     -10.253  13.075  63.495  1.00  0.00     0.000 HD 
HETATM   33  N   UNL     1     -13.248  12.189  64.203  1.00  0.00    -0.732 NA 
HETATM   34  N   UNL     1     -11.193  12.974  63.877  1.00  0.00    -0.404 NA 
HETATM   35  N   UNL     1     -13.016  13.236  65.003  1.00  0.00    -0.732 NA 
ENDBRANCH  25  30
ENDBRANCH  21  24
ENDBRANCH  17  18
ENDBRANCH   9  17
ENDBRANCH   3   4
ENDBRANCH   2   3
TORSDOF 6
ENDMDL
MODEL       60
REMARK 921   NORMALIZED FREE ENERGY PREDICTED BY IDOCK:   -6.96 KCAL/MOL
REMARK 922        TOTAL FREE ENERGY PREDICTED BY IDOCK:  -10.56 KCAL/MOL
REMARK 923 INTER-LIGAND FREE ENERGY PREDICTED BY IDOCK:   -8.93 KCAL/MOL
REMARK 924 INTRA-LIGAND FREE ENERGY PREDICTED BY IDOCK:   -1.63 KCAL/MOL
REMARK 927      BINDING AFFINITY PREDICTED BY RF-SCORE:    0.00 PKD
ROOT
HETATM    1  C   UNL     1     -10.401  11.298  64.372  1.00  0.00    -0.388 C  
HETATM    2  C   UNL     1     -10.486  10.274  65.497  1.00  0.00    -0.139 C  
ENDROOT
BRANCH   2   3
HETATM    3  C   UNL     1      -9.388  10.422  66.559  1.00  0.00    -0.193 C  
BRANCH   3   4
HETATM    4  C   UNL     1      -9.875  10.118  67.943  1.00  0.00    -0.151 A  
HETATM    5  N   UNL     1      -9.274   9.197  68.672  1.00  0.00    -0.136 NA 
HETATM    6  C   UNL     1     -10.007   9.029  69.813  1.00  0.00    -0.196 A  
HETATM    7  C   UNL     1      -9.604   7.981  70.829  1.00  0.00    -0.162 C  
HETATM    8  C   UNL     1     -11.121   9.864  69.784  1.00  0.00    -0.254 A  
HETATM    9  N   UNL     1     -10.944  10.661  68.637  1.00  0.00    -0.227 NA 
HETATM   10  O   UNL     1     -10.699   7.050  70.961  1.00  0.00    -0.228 OA 
HETATM   11  C   UNL     1      -9.354   8.588  72.215  1.00  0.00    -0.363 C  
HETATM   12  C   UNL     1      -8.353   7.187  70.419  1.00  0.00    -0.128 C  
HETATM   13  C   UNL     1     -12.232   9.981  70.699  1.00  0.00    -0.269 C  
HETATM   14  O   UNL     1     -12.550   8.830  71.334  1.00  0.00    -0.310 OA 
HETATM   15  O   UNL     1     -12.898  10.998  70.875  1.00  0.00    -0.338 OA 
HETATM   16  H   UNL     1     -10.446   6.392  71.599  1.00  0.00     0.000 HD 
BRANCH   9  17
HETATM   17  C   UNL     1     -11.850  11.801  68.352  1.00  0.00    -0.282 C  
BRANCH  17  18
HETATM   18  C   UNL     1     -11.268  13.188  68.338  1.00  0.00    -0.305 A  
HETATM   19  C   UNL     1     -10.607  13.672  67.206  1.00  0.00    -0.267 A  
HETATM   20  C   UNL     1      -9.828  14.835  67.291  1.00  0.00    -0.230 A  
HETATM   21  C   UNL     1      -9.638  15.518  68.513  1.00  0.00    -0.203 A  
HETATM   22  C   UNL     1     -10.483  15.136  69.567  1.00  0.00    -0.268 A  
HETATM   23  C   UNL     1     -11.306  14.002  69.476  1.00  0.00    -0.298 A  
BRANCH  21  24
HETATM   24  C   UNL     1      -8.439  16.410  68.700  1.00  0.00    -0.229 A  
HETATM   25  C   UNL     1      -8.323  17.781  68.343  1.00  0.00    -0.295 A  
HETATM   26  C   UNL     1      -7.174  18.511  68.757  1.00  0.00    -0.316 A  
HETATM   27  C   UNL     1      -7.349  15.856  69.431  1.00  0.00    -0.217 A  
HETATM   28  C   UNL     1      -6.216  16.582  69.798  1.00  0.00    -0.205 A  
HETATM   29  C   UNL     1      -6.136  17.920  69.475  1.00  0.00    -0.249 A  
BRANCH  25  30
HETATM   30  C   UNL     1      -9.304  18.505  67.531  1.00  0.00    -0.279 A  
HETATM   31  N   UNL     1     -11.004  19.614  66.782  1.00  0.00    -0.380 NA 
HETATM   32  H   UNL     1     -10.765  19.182  68.870  1.00  0.00     0.000 HD 
HETATM   33  N   UNL     1     -10.288  19.328  65.706  1.00  0.00    -0.526 NA 
HETATM   34  N   UNL     1     -10.413  19.107  67.915  1.00  0.00    -0.407 NA 
HETATM   35  N   UNL     1      -9.236  18.642  66.166  1.00  0.00    -0.486 NA 
ENDBRANCH  25  30
ENDBRANCH  21  24
ENDBRANCH  17  18
ENDBRANCH   9  17
ENDBRANCH   3   4
ENDBRANCH   2   3
TORSDOF 6
ENDMDL
MODEL       61
REMARK 921   NORMALIZED FREE ENERGY PREDICTED BY IDOCK:   -6.94 KCAL/MOL
REMARK 922        TOTAL FREE ENERGY PREDICTED BY IDOCK:  -10.52 KCAL/MOL
REMARK 923 INTER-LIGAND FREE ENERGY PREDICTED BY IDOCK:   -9.02 KCAL/MOL
REMARK 924 INTRA-LIGAND FREE ENERGY PREDICTED BY IDOCK:   -1.50 KCAL/MOL
REMARK 927      BINDING AFFINITY PREDICTED BY RF-SCORE:    0.00 PKD
ROOT
HETATM    1  C   UNL     1     -11.882  12.073  63.430  1.00  0.00    -0.542 C  
HETATM    2  C   UNL     1     -11.694  13.466  64.019  1.00  0.00    -0.465 C  
ENDROOT
BRANCH   2   3
HETATM    3  C   UNL     1     -10.304  13.707  64.622  1.00  0.00    -0.407 C  
BRANCH   3   4
HETATM    4  C   UNL     1     -10.304  14.777  65.670  1.00  0.00    -0.349 A  
HETATM    5  N   UNL     1      -9.436  15.769  65.608  1.00  0.00    -0.341 NA 
HETATM    6  C   UNL     1      -9.565  16.504  66.752  1.00  0.00    -0.254 A  
HETATM    7  C   UNL     1      -8.649  17.683  67.007  1.00  0.00    -0.237 C  
HETATM    8  C   UNL     1     -10.538  15.935  67.570  1.00  0.00    -0.315 A  
HETATM    9  N   UNL     1     -11.103  14.905  66.795  1.00  0.00    -0.331 NA 
HETATM   10  O   UNL     1      -7.921  17.422  68.225  1.00  0.00    -0.233 OA 
HETATM   11  C   UNL     1      -9.431  18.986  67.214  1.00  0.00    -0.353 C  
HETATM   12  C   UNL     1      -7.625  17.910  65.882  1.00  0.00    -0.177 C  
HETATM   13  C   UNL     1     -10.962  16.282  68.906  1.00  0.00    -0.334 C  
HETATM   14  O   UNL     1      -9.989  16.821  69.674  1.00  0.00    -0.118 OA 
HETATM   15  O   UNL     1     -12.080  16.071  69.369  1.00  0.00    -0.279 OA 
HETATM   16  H   UNL     1      -7.346  18.162  68.385  1.00  0.00     0.000 HD 
BRANCH   9  17
HETATM   17  C   UNL     1     -12.301  14.165  67.264  1.00  0.00    -0.147 C  
BRANCH  17  18
HETATM   18  C   UNL     1     -12.096  12.869  67.999  1.00  0.00    -0.202 A  
HETATM   19  C   UNL     1     -12.284  12.797  69.382  1.00  0.00    -0.131 A  
HETATM   20  C   UNL     1     -11.824  11.682  70.097  1.00  0.00    -0.428 A  
HETATM   21  C   UNL     1     -11.115  10.634  69.468  1.00  0.00    -0.328 A  
HETATM   22  C   UNL     1     -11.138  10.634  68.064  1.00  0.00    -0.361 A  
HETATM   23  C   UNL     1     -11.643  11.724  67.336  1.00  0.00    -0.352 A  
BRANCH  21  24
HETATM   24  C   UNL     1     -10.208   9.746  70.277  1.00  0.00    -0.346 A  
HETATM   25  C   UNL     1      -8.813   9.547  70.096  1.00  0.00    -0.266 A  
HETATM   26  C   UNL     1      -8.086   8.805  71.068  1.00  0.00    -0.186 A  
HETATM   27  C   UNL     1     -10.785   9.138  71.430  1.00  0.00    -0.414 A  
HETATM   28  C   UNL     1     -10.059   8.387  72.354  1.00  0.00    -0.386 A  
HETATM   29  C   UNL     1      -8.699   8.234  72.182  1.00  0.00    -0.259 A  
BRANCH  25  30
HETATM   30  C   UNL     1      -8.057  10.029  68.937  1.00  0.00    -0.111 A  
HETATM   31  N   UNL     1      -6.934  10.238  67.101  1.00  0.00    -0.086 NA 
HETATM   32  H   UNL     1      -7.724   8.347  67.735  1.00  0.00     0.000 HD 
HETATM   33  N   UNL     1      -6.958  11.455  67.621  1.00  0.00    -0.076 NA 
HETATM   34  N   UNL     1      -7.603   9.346  67.904  1.00  0.00    -0.087 NA 
HETATM   35  N   UNL     1      -7.652  11.328  68.758  1.00  0.00    -0.124 NA 
ENDBRANCH  25  30
ENDBRANCH  21  24
ENDBRANCH  17  18
ENDBRANCH   9  17
ENDBRANCH   3   4
ENDBRANCH   2   3
TORSDOF 6
ENDMDL
MODEL       62
REMARK 921   NORMALIZED FREE ENERGY PREDICTED BY IDOCK:   -6.92 KCAL/MOL
REMARK 922        TOTAL FREE ENERGY PREDICTED BY IDOCK:  -10.51 KCAL/MOL
REMARK 923 INTER-LIGAND FREE ENERGY PREDICTED BY IDOCK:   -9.34 KCAL/MOL
REMARK 924 INTRA-LIGAND FREE ENERGY PREDICTED BY IDOCK:   -1.17 KCAL/MOL
REMARK 927      BINDING AFFINITY PREDICTED BY RF-SCORE:    0.00 PKD
ROOT
HETATM    1  C   UNL     1      -8.080   9.440  65.683  1.00  0.00    -0.112 C  
HETATM    2  C   UNL     1      -8.715  10.668  66.324  1.00  0.00    -0.163 C  
ENDROOT
BRANCH   2   3
HETATM    3  C   UNL     1     -10.229  10.547  66.538  1.00  0.00    -0.288 C  
BRANCH   3   4
HETATM    4  C   UNL     1     -10.598  10.340  67.975  1.00  0.00    -0.231 A  
HETATM    5  N   UNL     1     -10.179   9.268  68.621  1.00  0.00    -0.193 NA 
HETATM    6  C   UNL     1     -10.778   9.265  69.850  1.00  0.00    -0.234 A  
HETATM    7  C   UNL     1     -10.545   8.115  70.807  1.00  0.00    -0.214 C  
HETATM    8  C   UNL     1     -11.618  10.369  69.966  1.00  0.00    -0.301 A  
HETATM    9  N   UNL     1     -11.381  11.127  68.803  1.00  0.00    -0.250 NA 
HETATM   10  O   UNL     1     -11.824   7.507  71.086  1.00  0.00    -0.287 OA 
HETATM   11  C   UNL     1      -9.964   8.587  72.145  1.00  0.00    -0.387 C  
HETATM   12  C   UNL     1      -9.619   7.028  70.237  1.00  0.00    -0.168 C  
HETATM   13  C   UNL     1     -12.529  10.750  71.020  1.00  0.00    -0.420 C  
HETATM   14  O   UNL     1     -13.061   9.706  71.695  1.00  0.00    -0.357 OA 
HETATM   15  O   UNL     1     -12.867  11.902  71.280  1.00  0.00    -0.380 OA 
HETATM   16  H   UNL     1     -11.679   6.786  71.687  1.00  0.00     0.000 HD 
BRANCH   9  17
HETATM   17  C   UNL     1     -11.974  12.477  68.637  1.00  0.00    -0.224 C  
BRANCH  17  18
HETATM   18  C   UNL     1     -11.049  13.662  68.596  1.00  0.00    -0.299 A  
HETATM   19  C   UNL     1     -11.050  14.603  69.629  1.00  0.00    -0.284 A  
HETATM   20  C   UNL     1     -10.406  15.836  69.457  1.00  0.00    -0.272 A  
HETATM   21  C   UNL     1      -9.792  16.193  68.235  1.00  0.00    -0.224 A  
HETATM   22  C   UNL     1      -9.620  15.152  67.308  1.00  0.00    -0.211 A  
HETATM   23  C   UNL     1     -10.219  13.895  67.495  1.00  0.00    -0.245 A  
BRANCH  21  24
HETATM   24  C   UNL     1      -9.577  17.643  67.894  1.00  0.00    -0.282 A  
HETATM   25  C   UNL     1      -8.403  18.414  68.113  1.00  0.00    -0.301 A  
HETATM   26  C   UNL     1      -8.320  19.724  67.564  1.00  0.00    -0.351 A  
HETATM   27  C   UNL     1     -10.617  18.278  67.154  1.00  0.00    -0.392 A  
HETATM   28  C   UNL     1     -10.528  19.577  66.654  1.00  0.00    -0.593 A  
HETATM   29  C   UNL     1      -9.367  20.297  66.844  1.00  0.00    -0.505 A  
BRANCH  25  30
HETATM   30  C   UNL     1      -7.260  17.963  68.910  1.00  0.00    -0.256 A  
HETATM   31  N   UNL     1      -5.755  16.826  69.970  1.00  0.00    -0.217 NA 
HETATM   32  H   UNL     1      -7.257  15.873  68.772  1.00  0.00     0.000 HD 
HETATM   33  N   UNL     1      -5.492  18.090  70.265  1.00  0.00    -0.244 NA 
HETATM   34  N   UNL     1      -6.846  16.731  69.140  1.00  0.00    -0.218 NA 
HETATM   35  N   UNL     1      -6.423  18.795  69.612  1.00  0.00    -0.233 NA 
ENDBRANCH  25  30
ENDBRANCH  21  24
ENDBRANCH  17  18
ENDBRANCH   9  17
ENDBRANCH   3   4
ENDBRANCH   2   3
TORSDOF 6
ENDMDL
MODEL       63
REMARK 921   NORMALIZED FREE ENERGY PREDICTED BY IDOCK:   -6.91 KCAL/MOL
REMARK 922        TOTAL FREE ENERGY PREDICTED BY IDOCK:  -10.48 KCAL/MOL
REMARK 923 INTER-LIGAND FREE ENERGY PREDICTED BY IDOCK:   -8.54 KCAL/MOL
REMARK 924 INTRA-LIGAND FREE ENERGY PREDICTED BY IDOCK:   -1.94 KCAL/MOL
REMARK 927      BINDING AFFINITY PREDICTED BY RF-SCORE:    0.00 PKD
ROOT
HETATM    1  C   UNL     1      -6.554  10.708  70.004  1.00  0.00    -0.149 C  
HETATM    2  C   UNL     1      -7.717  11.387  69.291  1.00  0.00     0.055 C  
ENDROOT
BRANCH   2   3
HETATM    3  C   UNL     1      -7.299  12.232  68.081  1.00  0.00    -0.105 C  
BRANCH   3   4
HETATM    4  C   UNL     1      -8.450  12.567  67.182  1.00  0.00    -0.186 A  
HETATM    5  N   UNL     1      -9.011  13.760  67.237  1.00  0.00    -0.214 NA 
HETATM    6  C   UNL     1     -10.111  13.737  66.426  1.00  0.00    -0.295 A  
HETATM    7  C   UNL     1     -11.010  14.952  66.329  1.00  0.00    -0.338 C  
HETATM    8  C   UNL     1     -10.251  12.473  65.859  1.00  0.00    -0.261 A  
HETATM    9  N   UNL     1      -9.092  11.774  66.246  1.00  0.00    -0.216 NA 
HETATM   10  O   UNL     1     -12.330  14.559  66.762  1.00  0.00    -0.503 OA 
HETATM   11  C   UNL     1     -11.136  15.463  64.889  1.00  0.00    -0.435 C  
HETATM   12  C   UNL     1     -10.549  16.121  67.216  1.00  0.00    -0.305 C  
HETATM   13  C   UNL     1     -11.295  11.930  65.022  1.00  0.00    -0.273 C  
HETATM   14  O   UNL     1     -12.518  12.461  65.247  1.00  0.00    -0.611 OA 
HETATM   15  O   UNL     1     -11.145  11.025  64.205  1.00  0.00    -0.244 OA 
HETATM   16  H   UNL     1     -12.894  15.321  66.701  1.00  0.00     0.000 HD 
BRANCH   9  17
HETATM   17  C   UNL     1      -8.792  10.429  65.694  1.00  0.00    -0.173 C  
BRANCH  17  18
HETATM   18  C   UNL     1      -9.057   9.228  66.559  1.00  0.00    -0.191 A  
HETATM   19  C   UNL     1     -10.351   8.717  66.691  1.00  0.00    -0.303 A  
HETATM   20  C   UNL     1     -10.642   7.792  67.703  1.00  0.00    -0.283 A  
HETATM   21  C   UNL     1      -9.671   7.390  68.648  1.00  0.00    -0.152 A  
HETATM   22  C   UNL     1      -8.345   7.748  68.354  1.00  0.00    -0.125 A  
HETATM   23  C   UNL     1      -8.037   8.635  67.309  1.00  0.00    -0.101 A  
BRANCH  21  24
HETATM   24  C   UNL     1     -10.098   6.836  69.980  1.00  0.00    -0.200 A  
HETATM   25  C   UNL     1     -10.976   7.439  70.921  1.00  0.00    -0.271 A  
HETATM   26  C   UNL     1     -11.405   6.688  72.051  1.00  0.00    -0.317 A  
HETATM   27  C   UNL     1      -9.681   5.505  70.273  1.00  0.00    -0.242 A  
HETATM   28  C   UNL     1     -10.088   4.798  71.404  1.00  0.00    -0.259 A  
HETATM   29  C   UNL     1     -10.968   5.386  72.289  1.00  0.00    -0.277 A  
BRANCH  25  30
HETATM   30  C   UNL     1     -11.453   8.821  70.832  1.00  0.00    -0.284 A  
HETATM   31  N   UNL     1     -11.657  10.963  70.609  1.00  0.00    -0.310 NA 
HETATM   32  H   UNL     1      -9.786   9.966  70.288  1.00  0.00     0.000 HD 
HETATM   33  N   UNL     1     -12.863  10.545  70.960  1.00  0.00    -0.385 NA 
HETATM   34  N   UNL     1     -10.775   9.913  70.531  1.00  0.00    -0.306 NA 
HETATM   35  N   UNL     1     -12.739   9.220  71.100  1.00  0.00    -0.280 NA 
ENDBRANCH  25  30
ENDBRANCH  21  24
ENDBRANCH  17  18
ENDBRANCH   9  17
ENDBRANCH   3   4
ENDBRANCH   2   3
TORSDOF 6
ENDMDL
MODEL       64
REMARK 921   NORMALIZED FREE ENERGY PREDICTED BY IDOCK:   -6.89 KCAL/MOL
REMARK 922        TOTAL FREE ENERGY PREDICTED BY IDOCK:  -10.46 KCAL/MOL
REMARK 923 INTER-LIGAND FREE ENERGY PREDICTED BY IDOCK:   -9.09 KCAL/MOL
REMARK 924 INTRA-LIGAND FREE ENERGY PREDICTED BY IDOCK:   -1.37 KCAL/MOL
REMARK 927      BINDING AFFINITY PREDICTED BY RF-SCORE:    0.00 PKD
ROOT
HETATM    1  C   UNL     1     -10.597   4.802  65.844  1.00  0.00    -0.290 C  
HETATM    2  C   UNL     1     -10.063   5.056  67.249  1.00  0.00    -0.226 C  
ENDROOT
BRANCH   2   3
HETATM    3  C   UNL     1     -10.847   6.117  68.033  1.00  0.00    -0.398 C  
BRANCH   3   4
HETATM    4  C   UNL     1     -10.231   6.429  69.362  1.00  0.00    -0.192 A  
HETATM    5  N   UNL     1     -10.617   5.776  70.443  1.00  0.00    -0.274 NA 
HETATM    6  C   UNL     1     -10.005   6.359  71.517  1.00  0.00    -0.180 A  
HETATM    7  C   UNL     1     -10.303   5.870  72.919  1.00  0.00    -0.200 C  
HETATM    8  C   UNL     1      -9.224   7.429  71.091  1.00  0.00    -0.155 A  
HETATM    9  N   UNL     1      -9.270   7.372  69.685  1.00  0.00    -0.147 NA 
HETATM   10  O   UNL     1     -10.853   6.976  73.665  1.00  0.00    -0.516 OA 
HETATM   11  C   UNL     1      -9.036   5.412  73.652  1.00  0.00    -0.124 C  
HETATM   12  C   UNL     1     -11.322   4.719  72.957  1.00  0.00    -0.325 C  
HETATM   13  C   UNL     1      -8.472   8.404  71.847  1.00  0.00    -0.177 C  
HETATM   14  O   UNL     1      -8.994   8.683  73.063  1.00  0.00    -0.326 OA 
HETATM   15  O   UNL     1      -7.475   8.996  71.441  1.00  0.00    -0.219 OA 
HETATM   16  H   UNL     1     -11.040   6.670  74.545  1.00  0.00     0.000 HD 
BRANCH   9  17
HETATM   17  C   UNL     1      -8.415   8.258  68.856  1.00  0.00    -0.128 C  
BRANCH  17  18
HETATM   18  C   UNL     1      -9.020   9.521  68.306  1.00  0.00    -0.124 A  
HETATM   19  C   UNL     1     -10.368   9.818  68.524  1.00  0.00    -0.228 A  
HETATM   20  C   UNL     1     -10.992  10.832  67.784  1.00  0.00    -0.354 A  
HETATM   21  C   UNL     1     -10.312  11.541  66.768  1.00  0.00    -0.262 A  
HETATM   22  C   UNL     1      -8.919  11.370  66.729  1.00  0.00    -0.177 A  
HETATM   23  C   UNL     1      -8.275  10.392  67.504  1.00  0.00    -0.114 A  
BRANCH  21  24
HETATM   24  C   UNL     1     -11.090  12.222  65.674  1.00  0.00    -0.357 A  
HETATM   25  C   UNL     1     -11.522  13.575  65.639  1.00  0.00    -0.330 A  
HETATM   26  C   UNL     1     -12.093  14.091  64.443  1.00  0.00    -0.486 A  
HETATM   27  C   UNL     1     -11.303  11.463  64.486  1.00  0.00    -0.184 A  
HETATM   28  C   UNL     1     -11.895  11.981  63.334  1.00  0.00    -0.542 A  
HETATM   29  C   UNL     1     -12.277  13.306  63.306  1.00  0.00    -0.387 A  
BRANCH  25  30
HETATM   30  C   UNL     1     -11.456  14.488  66.783  1.00  0.00    -0.367 A  
HETATM   31  N   UNL     1     -11.713  15.515  68.669  1.00  0.00    -0.363 NA 
HETATM   32  H   UNL     1     -12.703  13.661  68.247  1.00  0.00     0.000 HD 
HETATM   33  N   UNL     1     -10.890  16.286  67.976  1.00  0.00    -0.333 NA 
HETATM   34  N   UNL     1     -12.076  14.405  67.945  1.00  0.00    -0.302 NA 
HETATM   35  N   UNL     1     -10.730  15.654  66.808  1.00  0.00    -0.309 NA 
ENDBRANCH  25  30
ENDBRANCH  21  24
ENDBRANCH  17  18
ENDBRANCH   9  17
ENDBRANCH   3   4
ENDBRANCH   2   3
TORSDOF 6
ENDMDL
MODEL       65
REMARK 921   NORMALIZED FREE ENERGY PREDICTED BY IDOCK:   -6.84 KCAL/MOL
REMARK 922        TOTAL FREE ENERGY PREDICTED BY IDOCK:  -10.40 KCAL/MOL
REMARK 923 INTER-LIGAND FREE ENERGY PREDICTED BY IDOCK:   -8.92 KCAL/MOL
REMARK 924 INTRA-LIGAND FREE ENERGY PREDICTED BY IDOCK:   -1.47 KCAL/MOL
REMARK 927      BINDING AFFINITY PREDICTED BY RF-SCORE:    0.00 PKD
ROOT
HETATM    1  C   UNL     1     -11.743  12.588  63.535  1.00  0.00    -0.595 C  
HETATM    2  C   UNL     1     -12.154  13.978  64.008  1.00  0.00    -0.413 C  
ENDROOT
BRANCH   2   3
HETATM    3  C   UNL     1     -12.237  14.118  65.533  1.00  0.00    -0.443 C  
BRANCH   3   4
HETATM    4  C   UNL     1     -11.030  14.782  66.121  1.00  0.00    -0.332 A  
HETATM    5  N   UNL     1     -11.072  16.057  66.461  1.00  0.00    -0.073 NA 
HETATM    6  C   UNL     1      -9.809  16.429  66.826  1.00  0.00    -0.256 A  
HETATM    7  C   UNL     1      -9.519  17.865  67.208  1.00  0.00    -0.263 C  
HETATM    8  C   UNL     1      -8.942  15.348  66.689  1.00  0.00    -0.286 A  
HETATM    9  N   UNL     1      -9.773  14.257  66.369  1.00  0.00    -0.288 NA 
HETATM   10  O   UNL     1      -8.526  18.374  66.293  1.00  0.00    -0.376 OA 
HETATM   11  C   UNL     1      -8.936  17.979  68.622  1.00  0.00    -0.278 C  
HETATM   12  C   UNL     1     -10.754  18.777  67.123  1.00  0.00    -0.469 C  
HETATM   13  C   UNL     1      -7.509  15.265  66.855  1.00  0.00     0.048 C  
HETATM   14  O   UNL     1      -6.851  16.410  66.563  1.00  0.00    -0.213 OA 
HETATM   15  O   UNL     1      -6.893  14.252  67.174  1.00  0.00    -0.177 OA 
HETATM   16  H   UNL     1      -8.344  19.275  66.533  1.00  0.00     0.000 HD 
BRANCH   9  17
HETATM   17  C   UNL     1      -9.231  12.877  66.307  1.00  0.00    -0.077 C  
BRANCH  17  18
HETATM   18  C   UNL     1      -9.840  11.832  67.201  1.00  0.00    -0.207 A  
HETATM   19  C   UNL     1      -9.579  11.829  68.574  1.00  0.00    -0.173 A  
HETATM   20  C   UNL     1      -9.906  10.708  69.349  1.00  0.00    -0.164 A  
HETATM   21  C   UNL     1     -10.450   9.537  68.775  1.00  0.00    -0.243 A  
HETATM   22  C   UNL     1     -10.898   9.655  67.449  1.00  0.00    -0.242 A  
HETATM   23  C   UNL     1     -10.620  10.795  66.678  1.00  0.00    -0.291 A  
BRANCH  21  24
HETATM   24  C   UNL     1     -10.314   8.216  69.484  1.00  0.00    -0.222 A  
HETATM   25  C   UNL     1     -11.177   7.680  70.478  1.00  0.00    -0.275 A  
HETATM   26  C   UNL     1     -10.989   6.337  70.909  1.00  0.00    -0.344 A  
HETATM   27  C   UNL     1      -9.282   7.352  69.015  1.00  0.00    -0.146 A  
HETATM   28  C   UNL     1      -9.096   6.049  69.475  1.00  0.00    -0.141 A  
HETATM   29  C   UNL     1      -9.964   5.533  70.415  1.00  0.00    -0.279 A  
BRANCH  25  30
HETATM   30  C   UNL     1     -12.246   8.437  71.134  1.00  0.00    -0.226 A  
HETATM   31  N   UNL     1     -13.453   9.911  72.158  1.00  0.00    -0.415 NA 
HETATM   32  H   UNL     1     -11.422  10.306  71.593  1.00  0.00     0.000 HD 
HETATM   33  N   UNL     1     -14.246   8.859  72.028  1.00  0.00    -0.399 NA 
HETATM   34  N   UNL     1     -12.214   9.664  71.617  1.00  0.00    -0.383 NA 
HETATM   35  N   UNL     1     -13.501   7.945  71.395  1.00  0.00    -0.285 NA 
ENDBRANCH  25  30
ENDBRANCH  21  24
ENDBRANCH  17  18
ENDBRANCH   9  17
ENDBRANCH   3   4
ENDBRANCH   2   3
TORSDOF 6
ENDMDL
MODEL       66
REMARK 921   NORMALIZED FREE ENERGY PREDICTED BY IDOCK:   -6.83 KCAL/MOL
REMARK 922        TOTAL FREE ENERGY PREDICTED BY IDOCK:  -10.38 KCAL/MOL
REMARK 923 INTER-LIGAND FREE ENERGY PREDICTED BY IDOCK:   -8.67 KCAL/MOL
REMARK 924 INTRA-LIGAND FREE ENERGY PREDICTED BY IDOCK:   -1.72 KCAL/MOL
REMARK 927      BINDING AFFINITY PREDICTED BY RF-SCORE:    0.00 PKD
ROOT
HETATM    1  C   UNL     1     -10.352  11.799  64.874  1.00  0.00    -0.334 C  
HETATM    2  C   UNL     1     -10.896  11.454  66.256  1.00  0.00    -0.318 C  
ENDROOT
BRANCH   2   3
HETATM    3  C   UNL     1      -9.957  11.835  67.409  1.00  0.00    -0.198 C  
BRANCH   3   4
HETATM    4  C   UNL     1     -10.292  11.129  68.687  1.00  0.00    -0.203 A  
HETATM    5  N   UNL     1      -9.537  10.135  69.115  1.00  0.00    -0.201 NA 
HETATM    6  C   UNL     1     -10.151   9.590  70.207  1.00  0.00    -0.262 A  
HETATM    7  C   UNL     1      -9.554   8.377  70.889  1.00  0.00    -0.175 C  
HETATM    8  C   UNL     1     -11.346  10.260  70.458  1.00  0.00    -0.341 A  
HETATM    9  N   UNL     1     -11.351  11.339  69.554  1.00  0.00    -0.273 NA 
HETATM   10  O   UNL     1     -10.528   7.313  70.828  1.00  0.00    -0.210 OA 
HETATM   11  C   UNL     1      -9.256   8.636  72.371  1.00  0.00    -0.257 C  
HETATM   12  C   UNL     1      -8.264   7.877  70.219  1.00  0.00    -0.124 C  
HETATM   13  C   UNL     1     -12.383   9.998  71.428  1.00  0.00    -0.415 C  
HETATM   14  O   UNL     1     -12.522   8.693  71.753  1.00  0.00    -0.309 OA 
HETATM   15  O   UNL     1     -13.137  10.845  71.901  1.00  0.00    -0.482 OA 
HETATM   16  H   UNL     1     -10.154   6.552  71.256  1.00  0.00     0.000 HD 
BRANCH   9  17
HETATM   17  C   UNL     1     -12.395  12.391  69.628  1.00  0.00     0.021 C  
BRANCH  17  18
HETATM   18  C   UNL     1     -11.974  13.826  69.463  1.00  0.00    -0.399 A  
HETATM   19  C   UNL     1     -11.932  14.415  68.196  1.00  0.00    -0.320 A  
HETATM   20  C   UNL     1     -11.277  15.640  68.012  1.00  0.00    -0.339 A  
HETATM   21  C   UNL     1     -10.597  16.288  69.067  1.00  0.00    -0.286 A  
HETATM   22  C   UNL     1     -10.843  15.787  70.356  1.00  0.00    -0.345 A  
HETATM   23  C   UNL     1     -11.543  14.585  70.556  1.00  0.00    -0.295 A  
BRANCH  21  24
HETATM   24  C   UNL     1      -9.505  17.280  68.765  1.00  0.00    -0.256 A  
HETATM   25  C   UNL     1      -8.162  16.995  68.397  1.00  0.00    -0.250 A  
HETATM   26  C   UNL     1      -7.317  18.060  67.977  1.00  0.00    -0.232 A  
HETATM   27  C   UNL     1      -9.894  18.650  68.715  1.00  0.00    -0.422 A  
HETATM   28  C   UNL     1      -9.039  19.683  68.330  1.00  0.00    -0.386 A  
HETATM   29  C   UNL     1      -7.749  19.385  67.943  1.00  0.00    -0.319 A  
BRANCH  25  30
HETATM   30  C   UNL     1      -7.558  15.662  68.457  1.00  0.00    -0.132 A  
HETATM   31  N   UNL     1      -6.848  13.657  68.061  1.00  0.00    -0.119 NA 
HETATM   32  H   UNL     1      -7.809  14.837  66.549  1.00  0.00     0.000 HD 
HETATM   33  N   UNL     1      -6.553  13.874  69.333  1.00  0.00    -0.117 NA 
HETATM   34  N   UNL     1      -7.474  14.749  67.508  1.00  0.00    -0.186 NA 
HETATM   35  N   UNL     1      -6.992  15.113  69.581  1.00  0.00    -0.184 NA 
ENDBRANCH  25  30
ENDBRANCH  21  24
ENDBRANCH  17  18
ENDBRANCH   9  17
ENDBRANCH   3   4
ENDBRANCH   2   3
TORSDOF 6
ENDMDL
MODEL       67
REMARK 921   NORMALIZED FREE ENERGY PREDICTED BY IDOCK:   -6.82 KCAL/MOL
REMARK 922        TOTAL FREE ENERGY PREDICTED BY IDOCK:  -10.37 KCAL/MOL
REMARK 923 INTER-LIGAND FREE ENERGY PREDICTED BY IDOCK:   -9.60 KCAL/MOL
REMARK 924 INTRA-LIGAND FREE ENERGY PREDICTED BY IDOCK:   -0.77 KCAL/MOL
REMARK 927      BINDING AFFINITY PREDICTED BY RF-SCORE:    0.00 PKD
ROOT
HETATM    1  C   UNL     1      -9.073   5.268  67.732  1.00  0.00    -0.115 C  
HETATM    2  C   UNL     1     -10.305   6.165  67.718  1.00  0.00    -0.247 C  
ENDROOT
BRANCH   2   3
HETATM    3  C   UNL     1     -11.219   5.990  68.938  1.00  0.00    -0.246 C  
BRANCH   3   4
HETATM    4  C   UNL     1     -10.470   6.028  70.234  1.00  0.00    -0.242 A  
HETATM    5  N   UNL     1     -10.452   4.971  71.024  1.00  0.00    -0.185 NA 
HETATM    6  C   UNL     1      -9.829   5.332  72.185  1.00  0.00    -0.171 A  
HETATM    7  C   UNL     1      -9.711   4.342  73.325  1.00  0.00    -0.129 C  
HETATM    8  C   UNL     1      -9.461   6.673  72.124  1.00  0.00    -0.144 A  
HETATM    9  N   UNL     1      -9.755   7.069  70.805  1.00  0.00    -0.169 NA 
HETATM   10  O   UNL     1     -10.388   4.905  74.469  1.00  0.00    -0.253 OA 
HETATM   11  C   UNL     1      -8.253   4.101  73.732  1.00  0.00    -0.093 C  
HETATM   12  C   UNL     1     -10.356   2.981  73.016  1.00  0.00    -0.244 C  
HETATM   13  C   UNL     1      -8.871   7.532  73.124  1.00  0.00    -0.162 C  
HETATM   14  O   UNL     1      -9.208   7.215  74.395  1.00  0.00    -0.220 OA 
HETATM   15  O   UNL     1      -8.167   8.511  72.888  1.00  0.00    -0.344 OA 
HETATM   16  H   UNL     1     -10.314   4.284  75.185  1.00  0.00     0.000 HD 
BRANCH   9  17
HETATM   17  C   UNL     1      -9.345   8.402  70.298  1.00  0.00    -0.164 C  
BRANCH  17  18
HETATM   18  C   UNL     1     -10.388   9.483  70.211  1.00  0.00    -0.321 A  
HETATM   19  C   UNL     1     -10.229  10.556  69.330  1.00  0.00    -0.245 A  
HETATM   20  C   UNL     1     -11.042  11.691  69.451  1.00  0.00    -0.268 A  
HETATM   21  C   UNL     1     -11.997  11.818  70.485  1.00  0.00    -0.383 A  
HETATM   22  C   UNL     1     -12.279  10.646  71.206  1.00  0.00    -0.447 A  
HETATM   23  C   UNL     1     -11.502   9.485  71.056  1.00  0.00    -0.420 A  
BRANCH  21  24
HETATM   24  C   UNL     1     -12.472  13.181  70.911  1.00  0.00    -0.407 A  
HETATM   25  C   UNL     1     -12.347  14.400  70.190  1.00  0.00    -0.406 A  
HETATM   26  C   UNL     1     -13.013  15.561  70.671  1.00  0.00    -0.425 A  
HETATM   27  C   UNL     1     -13.245  13.234  72.107  1.00  0.00    -0.562 A  
HETATM   28  C   UNL     1     -13.862  14.393  72.578  1.00  0.00    -0.559 A  
HETATM   29  C   UNL     1     -13.761  15.558  71.847  1.00  0.00    -0.593 A  
BRANCH  25  30
HETATM   30  C   UNL     1     -11.535  14.560  68.982  1.00  0.00    -0.290 A  
HETATM   31  N   UNL     1      -9.972  14.941  67.536  1.00  0.00    -0.219 NA 
HETATM   32  H   UNL     1      -9.618  15.076  69.647  1.00  0.00     0.000 HD 
HETATM   33  N   UNL     1     -11.040  14.657  66.809  1.00  0.00    -0.328 NA 
HETATM   34  N   UNL     1     -10.262  14.892  68.878  1.00  0.00    -0.233 NA 
HETATM   35  N   UNL     1     -12.010  14.422  67.701  1.00  0.00    -0.370 NA 
ENDBRANCH  25  30
ENDBRANCH  21  24
ENDBRANCH  17  18
ENDBRANCH   9  17
ENDBRANCH   3   4
ENDBRANCH   2   3
TORSDOF 6
ENDMDL
MODEL       68
REMARK 921   NORMALIZED FREE ENERGY PREDICTED BY IDOCK:   -6.82 KCAL/MOL
REMARK 922        TOTAL FREE ENERGY PREDICTED BY IDOCK:  -10.37 KCAL/MOL
REMARK 923 INTER-LIGAND FREE ENERGY PREDICTED BY IDOCK:   -8.69 KCAL/MOL
REMARK 924 INTRA-LIGAND FREE ENERGY PREDICTED BY IDOCK:   -1.68 KCAL/MOL
REMARK 927      BINDING AFFINITY PREDICTED BY RF-SCORE:    0.00 PKD
ROOT
HETATM    1  C   UNL     1     -12.429  12.864  71.140  1.00  0.00    -0.344 C  
HETATM    2  C   UNL     1     -11.623  14.067  70.666  1.00  0.00    -0.126 C  
ENDROOT
BRANCH   2   3
HETATM    3  C   UNL     1     -12.444  15.097  69.879  1.00  0.00    -0.269 C  
BRANCH   3   4
HETATM    4  C   UNL     1     -11.729  15.601  68.663  1.00  0.00    -0.352 A  
HETATM    5  N   UNL     1     -11.133  16.779  68.682  1.00  0.00    -0.297 NA 
HETATM    6  C   UNL     1     -10.698  17.042  67.414  1.00  0.00    -0.240 A  
HETATM    7  C   UNL     1     -10.026  18.363  67.100  1.00  0.00    -0.337 C  
HETATM    8  C   UNL     1     -11.054  15.997  66.567  1.00  0.00     0.024 A  
HETATM    9  N   UNL     1     -11.594  15.012  67.416  1.00  0.00    -0.330 NA 
HETATM   10  O   UNL     1     -10.815  19.031  66.092  1.00  0.00    -0.344 OA 
HETATM   11  C   UNL     1      -8.618  18.170  66.522  1.00  0.00    -0.282 C  
HETATM   12  C   UNL     1      -9.922  19.296  68.317  1.00  0.00    -0.497 C  
HETATM   13  C   UNL     1     -10.907  15.854  65.137  1.00  0.00    -0.421 C  
HETATM   14  O   UNL     1     -10.955  17.021  64.456  1.00  0.00    -1.031 OA 
HETATM   15  O   UNL     1     -10.804  14.785  64.541  1.00  0.00    -0.324 OA 
HETATM   16  H   UNL     1     -10.393  19.859  65.895  1.00  0.00     0.000 HD 
BRANCH   9  17
HETATM   17  C   UNL     1     -11.940  13.665  66.900  1.00  0.00    -0.410 C  
BRANCH  17  18
HETATM   18  C   UNL     1     -11.217  12.476  67.471  1.00  0.00    -0.342 A  
HETATM   19  C   UNL     1      -9.823  12.471  67.572  1.00  0.00    -0.198 A  
HETATM   20  C   UNL     1      -9.142  11.274  67.832  1.00  0.00    -0.150 A  
HETATM   21  C   UNL     1      -9.819  10.038  67.943  1.00  0.00    -0.171 A  
HETATM   22  C   UNL     1     -11.217  10.114  68.055  1.00  0.00    -0.247 A  
HETATM   23  C   UNL     1     -11.908  11.319  67.847  1.00  0.00    -0.209 A  
BRANCH  21  24
HETATM   24  C   UNL     1      -9.080   8.749  67.705  1.00  0.00    -0.145 A  
HETATM   25  C   UNL     1      -8.143   8.121  68.570  1.00  0.00    -0.124 A  
HETATM   26  C   UNL     1      -7.677   6.814  68.257  1.00  0.00    -0.106 A  
HETATM   27  C   UNL     1      -9.457   8.011  66.545  1.00  0.00    -0.278 A  
HETATM   28  C   UNL     1      -8.962   6.743  66.241  1.00  0.00    -0.170 A  
HETATM   29  C   UNL     1      -8.081   6.134  67.109  1.00  0.00    -0.106 A  
BRANCH  25  30
HETATM   30  C   UNL     1      -7.581   8.750  69.768  1.00  0.00    -0.072 A  
HETATM   31  N   UNL     1      -6.563  10.019  71.193  1.00  0.00    -0.331 NA 
HETATM   32  H   UNL     1      -6.649  10.504  69.106  1.00  0.00     0.000 HD 
HETATM   33  N   UNL     1      -7.027   9.009  71.913  1.00  0.00    -0.303 NA 
HETATM   34  N   UNL     1      -6.892   9.871  69.867  1.00  0.00    -0.080 NA 
HETATM   35  N   UNL     1      -7.657   8.222  71.033  1.00  0.00    -0.074 NA 
ENDBRANCH  25  30
ENDBRANCH  21  24
ENDBRANCH  17  18
ENDBRANCH   9  17
ENDBRANCH   3   4
ENDBRANCH   2   3
TORSDOF 6
ENDMDL
MODEL       69
REMARK 921   NORMALIZED FREE ENERGY PREDICTED BY IDOCK:   -6.82 KCAL/MOL
REMARK 922        TOTAL FREE ENERGY PREDICTED BY IDOCK:  -10.36 KCAL/MOL
REMARK 923 INTER-LIGAND FREE ENERGY PREDICTED BY IDOCK:   -9.55 KCAL/MOL
REMARK 924 INTRA-LIGAND FREE ENERGY PREDICTED BY IDOCK:   -0.81 KCAL/MOL
REMARK 927      BINDING AFFINITY PREDICTED BY RF-SCORE:    0.00 PKD
ROOT
HETATM    1  C   UNL     1     -14.410   7.880  71.735  1.00  0.00    -0.589 C  
HETATM    2  C   UNL     1     -12.947   7.461  71.803  1.00  0.00    -0.365 C  
ENDROOT
BRANCH   2   3
HETATM    3  C   UNL     1     -12.031   8.496  72.469  1.00  0.00    -0.401 C  
BRANCH   3   4
HETATM    4  C   UNL     1     -10.603   8.375  72.032  1.00  0.00    -0.317 A  
HETATM    5  N   UNL     1      -9.651   8.169  72.922  1.00  0.00    -0.275 NA 
HETATM    6  C   UNL     1      -8.453   8.247  72.270  1.00  0.00    -0.187 A  
HETATM    7  C   UNL     1      -7.156   8.118  73.042  1.00  0.00    -0.110 C  
HETATM    8  C   UNL     1      -8.666   8.533  70.924  1.00  0.00    -0.166 A  
HETATM    9  N   UNL     1     -10.064   8.472  70.761  1.00  0.00    -0.192 NA 
HETATM   10  O   UNL     1      -6.410   9.339  72.859  1.00  0.00    -0.306 OA 
HETATM   11  C   UNL     1      -6.285   6.969  72.520  1.00  0.00    -0.052 C  
HETATM   12  C   UNL     1      -7.367   7.913  74.552  1.00  0.00    -0.205 C  
HETATM   13  C   UNL     1      -7.728   8.805  69.861  1.00  0.00    -0.081 C  
HETATM   14  O   UNL     1      -6.584   9.398  70.270  1.00  0.00    -0.052 OA 
HETATM   15  O   UNL     1      -7.930   8.590  68.668  1.00  0.00    -0.112 OA 
HETATM   16  H   UNL     1      -5.596   9.259  73.343  1.00  0.00     0.000 HD 
BRANCH   9  17
HETATM   17  C   UNL     1     -10.679   8.558  69.413  1.00  0.00    -0.156 C  
BRANCH  17  18
HETATM   18  C   UNL     1     -11.054   9.915  68.885  1.00  0.00    -0.181 A  
HETATM   19  C   UNL     1     -10.962  10.199  67.520  1.00  0.00    -0.319 A  
HETATM   20  C   UNL     1     -11.035  11.525  67.072  1.00  0.00    -0.347 A  
HETATM   21  C   UNL     1     -11.146  12.611  67.969  1.00  0.00    -0.288 A  
HETATM   22  C   UNL     1     -11.454  12.279  69.298  1.00  0.00    -0.352 A  
HETATM   23  C   UNL     1     -11.434  10.949  69.748  1.00  0.00    -0.390 A  
BRANCH  21  24
HETATM   24  C   UNL     1     -10.713  13.989  67.544  1.00  0.00    -0.271 A  
HETATM   25  C   UNL     1     -10.904  14.597  66.274  1.00  0.00    -0.321 A  
HETATM   26  C   UNL     1     -10.584  15.973  66.108  1.00  0.00    -0.302 A  
HETATM   27  C   UNL     1     -10.167  14.822  68.564  1.00  0.00    -0.232 A  
HETATM   28  C   UNL     1      -9.830  16.161  68.371  1.00  0.00    -0.222 A  
HETATM   29  C   UNL     1     -10.055  16.745  67.142  1.00  0.00    -0.282 A  
BRANCH  25  30
HETATM   30  C   UNL     1     -11.382  13.886  65.086  1.00  0.00    -0.318 A  
HETATM   31  N   UNL     1     -11.596  12.675  63.306  1.00  0.00    -0.456 NA 
HETATM   32  H   UNL     1      -9.759  12.749  64.410  1.00  0.00     0.000 HD 
HETATM   33  N   UNL     1     -12.772  13.264  63.456  1.00  0.00    -0.646 NA 
HETATM   34  N   UNL     1     -10.726  13.053  64.300  1.00  0.00    -0.389 NA 
HETATM   35  N   UNL     1     -12.642  14.015  64.555  1.00  0.00    -0.668 NA 
ENDBRANCH  25  30
ENDBRANCH  21  24
ENDBRANCH  17  18
ENDBRANCH   9  17
ENDBRANCH   3   4
ENDBRANCH   2   3
TORSDOF 6
ENDMDL
MODEL       70
REMARK 921   NORMALIZED FREE ENERGY PREDICTED BY IDOCK:   -6.79 KCAL/MOL
REMARK 922        TOTAL FREE ENERGY PREDICTED BY IDOCK:  -10.33 KCAL/MOL
REMARK 923 INTER-LIGAND FREE ENERGY PREDICTED BY IDOCK:   -9.12 KCAL/MOL
REMARK 924 INTRA-LIGAND FREE ENERGY PREDICTED BY IDOCK:   -1.21 KCAL/MOL
REMARK 927      BINDING AFFINITY PREDICTED BY RF-SCORE:    0.00 PKD
ROOT
HETATM    1  C   UNL     1      -6.505   9.073  67.885  1.00  0.00    -0.057 C  
HETATM    2  C   UNL     1      -6.393   9.921  69.147  1.00  0.00    -0.044 C  
ENDROOT
BRANCH   2   3
HETATM    3  C   UNL     1      -7.738  10.438  69.674  1.00  0.00    -0.152 C  
BRANCH   3   4
HETATM    4  C   UNL     1      -8.593   9.350  70.248  1.00  0.00    -0.221 A  
HETATM    5  N   UNL     1      -8.336   8.867  71.449  1.00  0.00    -0.271 NA 
HETATM    6  C   UNL     1      -9.168   7.802  71.653  1.00  0.00    -0.136 A  
HETATM    7  C   UNL     1      -9.067   6.990  72.927  1.00  0.00    -0.134 C  
HETATM    8  C   UNL     1      -9.961   7.601  70.526  1.00  0.00    -0.184 A  
HETATM    9  N   UNL     1      -9.675   8.695  69.685  1.00  0.00    -0.177 NA 
HETATM   10  O   UNL     1      -8.751   5.630  72.560  1.00  0.00    -0.124 OA 
HETATM   11  C   UNL     1     -10.393   6.957  73.697  1.00  0.00    -0.397 C  
HETATM   12  C   UNL     1      -7.970   7.491  73.881  1.00  0.00    -0.179 C  
HETATM   13  C   UNL     1     -10.912   6.559  70.219  1.00  0.00    -0.310 C  
HETATM   14  O   UNL     1     -10.629   5.366  70.788  1.00  0.00    -0.256 OA 
HETATM   15  O   UNL     1     -11.876   6.682  69.468  1.00  0.00    -0.214 OA 
HETATM   16  H   UNL     1      -8.687   5.120  73.359  1.00  0.00     0.000 HD 
BRANCH   9  17
HETATM   17  C   UNL     1     -10.455   8.928  68.444  1.00  0.00    -0.187 C  
BRANCH  17  18
HETATM   18  C   UNL     1     -10.431  10.303  67.835  1.00  0.00    -0.253 A  
HETATM   19  C   UNL     1      -9.733  10.544  66.649  1.00  0.00    -0.232 A  
HETATM   20  C   UNL     1      -9.475  11.859  66.240  1.00  0.00    -0.238 A  
HETATM   21  C   UNL     1      -9.852  12.972  67.025  1.00  0.00    -0.238 A  
HETATM   22  C   UNL     1     -10.733  12.704  68.085  1.00  0.00    -0.242 A  
HETATM   23  C   UNL     1     -11.040  11.389  68.472  1.00  0.00    -0.287 A  
BRANCH  21  24
HETATM   24  C   UNL     1      -9.144  14.290  66.856  1.00  0.00    -0.268 A  
HETATM   25  C   UNL     1      -9.584  15.413  66.104  1.00  0.00    -0.362 A  
HETATM   26  C   UNL     1      -8.867  16.637  66.202  1.00  0.00    -0.323 A  
HETATM   27  C   UNL     1      -7.969  14.479  67.640  1.00  0.00    -0.190 A  
HETATM   28  C   UNL     1      -7.263  15.681  67.697  1.00  0.00    -0.197 A  
HETATM   29  C   UNL     1      -7.724  16.770  66.988  1.00  0.00    -0.230 A  
BRANCH  25  30
HETATM   30  C   UNL     1     -10.724  15.390  65.184  1.00  0.00    -0.440 A  
HETATM   31  N   UNL     1     -12.261  15.844  63.731  1.00  0.00    -0.661 NA 
HETATM   32  H   UNL     1     -10.696  17.236  64.196  1.00  0.00     0.000 HD 
HETATM   33  N   UNL     1     -12.562  14.633  64.172  1.00  0.00    -0.790 NA 
HETATM   34  N   UNL     1     -11.133  16.327  64.350  1.00  0.00    -0.766 NA 
HETATM   35  N   UNL     1     -11.613  14.350  65.072  1.00  0.00    -0.357 NA 
ENDBRANCH  25  30
ENDBRANCH  21  24
ENDBRANCH  17  18
ENDBRANCH   9  17
ENDBRANCH   3   4
ENDBRANCH   2   3
TORSDOF 6
ENDMDL
MODEL       71
REMARK 921   NORMALIZED FREE ENERGY PREDICTED BY IDOCK:   -6.78 KCAL/MOL
REMARK 922        TOTAL FREE ENERGY PREDICTED BY IDOCK:  -10.31 KCAL/MOL
REMARK 923 INTER-LIGAND FREE ENERGY PREDICTED BY IDOCK:   -9.59 KCAL/MOL
REMARK 924 INTRA-LIGAND FREE ENERGY PREDICTED BY IDOCK:   -0.72 KCAL/MOL
REMARK 927      BINDING AFFINITY PREDICTED BY RF-SCORE:    0.00 PKD
ROOT
HETATM    1  C   UNL     1      -8.472  10.211  65.634  1.00  0.00    -0.159 C  
HETATM    2  C   UNL     1      -9.971   9.945  65.703  1.00  0.00    -0.353 C  
ENDROOT
BRANCH   2   3
HETATM    3  C   UNL     1     -10.776  11.079  66.351  1.00  0.00    -0.286 C  
BRANCH   3   4
HETATM    4  C   UNL     1     -11.011  10.861  67.815  1.00  0.00    -0.283 A  
HETATM    5  N   UNL     1     -10.738   9.693  68.365  1.00  0.00    -0.225 NA 
HETATM    6  C   UNL     1     -11.180   9.731  69.657  1.00  0.00    -0.178 A  
HETATM    7  C   UNL     1     -11.068   8.504  70.537  1.00  0.00    -0.244 C  
HETATM    8  C   UNL     1     -11.771  10.966  69.916  1.00  0.00    -0.339 A  
HETATM    9  N   UNL     1     -11.527  11.732  68.760  1.00  0.00    -0.263 NA 
HETATM   10  O   UNL     1     -12.400   8.133  70.950  1.00  0.00    -0.483 OA 
HETATM   11  C   UNL     1     -10.257   8.778  71.809  1.00  0.00    -0.408 C  
HETATM   12  C   UNL     1     -10.442   7.297  69.818  1.00  0.00    -0.236 C  
HETATM   13  C   UNL     1     -12.464  11.448  71.088  1.00  0.00    -0.360 C  
HETATM   14  O   UNL     1     -13.108  10.486  71.786  1.00  0.00    -0.432 OA 
HETATM   15  O   UNL     1     -12.540  12.626  71.428  1.00  0.00    -0.314 OA 
HETATM   16  H   UNL     1     -12.330   7.363  71.502  1.00  0.00     0.000 HD 
BRANCH   9  17
HETATM   17  C   UNL     1     -11.861  13.177  68.717  1.00  0.00    -0.324 C  
BRANCH  17  18
HETATM   18  C   UNL     1     -10.771  14.151  68.364  1.00  0.00    -0.264 A  
HETATM   19  C   UNL     1      -9.431  13.752  68.368  1.00  0.00    -0.198 A  
HETATM   20  C   UNL     1      -8.412  14.713  68.320  1.00  0.00    -0.158 A  
HETATM   21  C   UNL     1      -8.692  16.099  68.323  1.00  0.00    -0.180 A  
HETATM   22  C   UNL     1     -10.032  16.454  68.099  1.00  0.00    -0.242 A  
HETATM   23  C   UNL     1     -11.057  15.493  68.094  1.00  0.00    -0.325 A  
BRANCH  21  24
HETATM   24  C   UNL     1      -7.646  17.079  68.784  1.00  0.00    -0.243 A  
HETATM   25  C   UNL     1      -7.645  18.487  68.597  1.00  0.00    -0.330 A  
HETATM   26  C   UNL     1      -6.660  19.274  69.255  1.00  0.00    -0.348 A  
HETATM   27  C   UNL     1      -6.610  16.553  69.610  1.00  0.00    -0.169 A  
HETATM   28  C   UNL     1      -5.634  17.340  70.220  1.00  0.00    -0.227 A  
HETATM   29  C   UNL     1      -5.669  18.710  70.056  1.00  0.00    -0.254 A  
BRANCH  25  30
HETATM   30  C   UNL     1      -8.582  19.201  67.726  1.00  0.00    -0.301 A  
HETATM   31  N   UNL     1      -9.583  20.209  66.094  1.00  0.00    -0.373 NA 
HETATM   32  H   UNL     1      -7.660  19.291  65.848  1.00  0.00     0.000 HD 
HETATM   33  N   UNL     1     -10.406  20.335  67.123  1.00  0.00    -0.355 NA 
HETATM   34  N   UNL     1      -8.451  19.517  66.451  1.00  0.00    -0.340 NA 
HETATM   35  N   UNL     1      -9.789  19.714  68.135  1.00  0.00    -0.393 NA 
ENDBRANCH  25  30
ENDBRANCH  21  24
ENDBRANCH  17  18
ENDBRANCH   9  17
ENDBRANCH   3   4
ENDBRANCH   2   3
TORSDOF 6
ENDMDL
MODEL       72
REMARK 921   NORMALIZED FREE ENERGY PREDICTED BY IDOCK:   -6.78 KCAL/MOL
REMARK 922        TOTAL FREE ENERGY PREDICTED BY IDOCK:  -10.31 KCAL/MOL
REMARK 923 INTER-LIGAND FREE ENERGY PREDICTED BY IDOCK:   -9.05 KCAL/MOL
REMARK 924 INTRA-LIGAND FREE ENERGY PREDICTED BY IDOCK:   -1.26 KCAL/MOL
REMARK 927      BINDING AFFINITY PREDICTED BY RF-SCORE:    0.00 PKD
ROOT
HETATM    1  C   UNL     1     -10.479   6.416  66.707  1.00  0.00    -0.304 C  
HETATM    2  C   UNL     1     -10.353   6.776  68.183  1.00  0.00    -0.219 C  
ENDROOT
BRANCH   2   3
HETATM    3  C   UNL     1     -11.372   6.069  69.087  1.00  0.00    -0.196 C  
BRANCH   3   4
HETATM    4  C   UNL     1     -10.736   5.396  70.264  1.00  0.00    -0.216 A  
HETATM    5  N   UNL     1      -9.862   4.424  70.081  1.00  0.00    -0.218 NA 
HETATM    6  C   UNL     1      -9.560   3.903  71.308  1.00  0.00    -0.170 A  
HETATM    7  C   UNL     1      -8.626   2.717  71.422  1.00  0.00    -0.064 C  
HETATM    8  C   UNL     1     -10.291   4.563  72.292  1.00  0.00    -0.176 A  
HETATM    9  N   UNL     1     -10.937   5.616  71.616  1.00  0.00    -0.240 NA 
HETATM   10  O   UNL     1      -9.354   1.639  72.048  1.00  0.00    -0.077 OA 
HETATM   11  C   UNL     1      -7.413   3.022  72.310  1.00  0.00    -0.052 C  
HETATM   12  C   UNL     1      -8.113   2.215  70.062  1.00  0.00    -0.057 C  
HETATM   13  C   UNL     1     -10.393   4.316  73.711  1.00  0.00    -0.186 C  
HETATM   14  O   UNL     1     -10.238   3.019  74.060  1.00  0.00    -0.116 OA 
HETATM   15  O   UNL     1     -10.654   5.166  74.559  1.00  0.00    -0.315 OA 
HETATM   16  H   UNL     1      -8.768   0.895  72.120  1.00  0.00     0.000 HD 
BRANCH   9  17
HETATM   17  C   UNL     1     -11.686   6.657  72.363  1.00  0.00    -0.225 C  
BRANCH  17  18
HETATM   18  C   UNL     1     -11.932   7.979  71.689  1.00  0.00    -0.336 A  
HETATM   19  C   UNL     1     -10.865   8.812  71.345  1.00  0.00    -0.359 A  
HETATM   20  C   UNL     1     -11.102  10.146  70.985  1.00  0.00    -0.243 A  
HETATM   21  C   UNL     1     -12.399  10.707  71.012  1.00  0.00    -0.507 A  
HETATM   22  C   UNL     1     -13.458   9.795  71.147  1.00  0.00    -0.304 A  
HETATM   23  C   UNL     1     -13.231   8.444  71.457  1.00  0.00    -0.311 A  
BRANCH  21  24
HETATM   24  C   UNL     1     -12.575  12.197  71.134  1.00  0.00    -0.360 A  
HETATM   25  C   UNL     1     -12.218  13.186  70.178  1.00  0.00    -0.360 A  
HETATM   26  C   UNL     1     -12.621  14.534  70.391  1.00  0.00    -0.405 A  
HETATM   27  C   UNL     1     -13.294  12.656  72.275  1.00  0.00    -0.527 A  
HETATM   28  C   UNL     1     -13.650  13.989  72.480  1.00  0.00    -0.670 A  
HETATM   29  C   UNL     1     -13.328  14.930  71.525  1.00  0.00    -0.476 A  
BRANCH  25  30
HETATM   30  C   UNL     1     -11.417  12.921  68.981  1.00  0.00    -0.308 A  
HETATM   31  N   UNL     1      -9.860  12.762  67.487  1.00  0.00    -0.207 NA 
HETATM   32  H   UNL     1      -9.475  13.556  69.442  1.00  0.00     0.000 HD 
HETATM   33  N   UNL     1     -10.947  12.297  66.891  1.00  0.00    -0.254 NA 
HETATM   34  N   UNL     1     -10.135  13.157  68.774  1.00  0.00    -0.128 NA 
HETATM   35  N   UNL     1     -11.912  12.395  67.813  1.00  0.00    -0.461 NA 
ENDBRANCH  25  30
ENDBRANCH  21  24
ENDBRANCH  17  18
ENDBRANCH   9  17
ENDBRANCH   3   4
ENDBRANCH   2   3
TORSDOF 6
ENDMDL
MODEL       73
REMARK 921   NORMALIZED FREE ENERGY PREDICTED BY IDOCK:   -6.74 KCAL/MOL
REMARK 922        TOTAL FREE ENERGY PREDICTED BY IDOCK:  -10.26 KCAL/MOL
REMARK 923 INTER-LIGAND FREE ENERGY PREDICTED BY IDOCK:   -8.80 KCAL/MOL
REMARK 924 INTRA-LIGAND FREE ENERGY PREDICTED BY IDOCK:   -1.46 KCAL/MOL
REMARK 927      BINDING AFFINITY PREDICTED BY RF-SCORE:    0.00 PKD
ROOT
HETATM    1  C   UNL     1     -13.781   9.403  72.095  1.00  0.00    -0.490 C  
HETATM    2  C   UNL     1     -12.976   8.132  71.851  1.00  0.00    -0.356 C  
ENDROOT
BRANCH   2   3
HETATM    3  C   UNL     1     -11.626   8.098  72.579  1.00  0.00    -0.468 C  
BRANCH   3   4
HETATM    4  C   UNL     1     -10.543   7.459  71.765  1.00  0.00    -0.201 A  
HETATM    5  N   UNL     1     -10.424   6.145  71.732  1.00  0.00    -0.211 NA 
HETATM    6  C   UNL     1      -9.282   5.851  71.042  1.00  0.00    -0.150 A  
HETATM    7  C   UNL     1      -8.834   4.412  70.890  1.00  0.00    -0.105 C  
HETATM    8  C   UNL     1      -8.653   7.029  70.648  1.00  0.00    -0.147 A  
HETATM    9  N   UNL     1      -9.554   8.053  70.999  1.00  0.00    -0.159 NA 
HETATM   10  O   UNL     1      -7.529   4.289  71.496  1.00  0.00    -0.056 OA 
HETATM   11  C   UNL     1      -8.693   4.004  69.419  1.00  0.00    -0.127 C  
HETATM   12  C   UNL     1      -9.773   3.408  71.580  1.00  0.00    -0.233 C  
HETATM   13  C   UNL     1      -7.386   7.243  69.989  1.00  0.00    -0.083 C  
HETATM   14  O   UNL     1      -6.452   6.306  70.269  1.00  0.00    -0.037 OA 
HETATM   15  O   UNL     1      -7.114   8.205  69.276  1.00  0.00    -0.058 OA 
HETATM   16  H   UNL     1      -7.248   3.387  71.400  1.00  0.00     0.000 HD 
BRANCH   9  17
HETATM   17  C   UNL     1      -9.312   9.457  70.585  1.00  0.00    -0.252 C  
BRANCH  17  18
HETATM   18  C   UNL     1     -10.214  10.058  69.542  1.00  0.00    -0.255 A  
HETATM   19  C   UNL     1     -10.001   9.806  68.185  1.00  0.00    -0.179 A  
HETATM   20  C   UNL     1     -10.651  10.580  67.215  1.00  0.00    -0.317 A  
HETATM   21  C   UNL     1     -11.489  11.664  67.564  1.00  0.00    -0.360 A  
HETATM   22  C   UNL     1     -11.850  11.748  68.918  1.00  0.00    -0.381 A  
HETATM   23  C   UNL     1     -11.241  10.941  69.894  1.00  0.00    -0.355 A  
BRANCH  21  24
HETATM   24  C   UNL     1     -11.750  12.766  66.572  1.00  0.00    -0.463 A  
HETATM   25  C   UNL     1     -11.512  14.156  66.748  1.00  0.00    -0.383 A  
HETATM   26  C   UNL     1     -11.655  15.031  65.636  1.00  0.00    -0.188 A  
HETATM   27  C   UNL     1     -12.158  12.358  65.269  1.00  0.00    -0.451 A  
HETATM   28  C   UNL     1     -12.323  13.238  64.200  1.00  0.00    -0.408 A  
HETATM   29  C   UNL     1     -12.054  14.579  64.379  1.00  0.00    -0.492 A  
BRANCH  25  30
HETATM   30  C   UNL     1     -11.159  14.774  68.029  1.00  0.00    -0.286 A  
HETATM   31  N   UNL     1     -11.105  15.904  69.872  1.00  0.00    -0.313 NA 
HETATM   32  H   UNL     1     -12.848  15.860  68.623  1.00  0.00     0.000 HD 
HETATM   33  N   UNL     1      -9.905  15.352  69.781  1.00  0.00    -0.260 NA 
HETATM   34  N   UNL     1     -11.888  15.562  68.796  1.00  0.00    -0.348 NA 
HETATM   35  N   UNL     1      -9.936  14.653  68.640  1.00  0.00    -0.230 NA 
ENDBRANCH  25  30
ENDBRANCH  21  24
ENDBRANCH  17  18
ENDBRANCH   9  17
ENDBRANCH   3   4
ENDBRANCH   2   3
TORSDOF 6
ENDMDL
MODEL       74
REMARK 921   NORMALIZED FREE ENERGY PREDICTED BY IDOCK:   -6.69 KCAL/MOL
REMARK 922        TOTAL FREE ENERGY PREDICTED BY IDOCK:  -10.19 KCAL/MOL
REMARK 923 INTER-LIGAND FREE ENERGY PREDICTED BY IDOCK:   -8.85 KCAL/MOL
REMARK 924 INTRA-LIGAND FREE ENERGY PREDICTED BY IDOCK:   -1.35 KCAL/MOL
REMARK 927      BINDING AFFINITY PREDICTED BY RF-SCORE:    0.00 PKD
ROOT
HETATM    1  C   UNL     1     -13.309  10.955  71.941  1.00  0.00    -0.429 C  
HETATM    2  C   UNL     1     -12.596   9.641  71.644  1.00  0.00    -0.493 C  
ENDROOT
BRANCH   2   3
HETATM    3  C   UNL     1     -11.185   9.813  71.065  1.00  0.00    -0.451 C  
BRANCH   3   4
HETATM    4  C   UNL     1     -10.359   8.569  71.171  1.00  0.00    -0.215 A  
HETATM    5  N   UNL     1     -10.858   7.485  71.734  1.00  0.00    -0.225 NA 
HETATM    6  C   UNL     1      -9.852   6.565  71.826  1.00  0.00    -0.165 A  
HETATM    7  C   UNL     1     -10.100   5.229  72.494  1.00  0.00    -0.181 C  
HETATM    8  C   UNL     1      -8.673   7.105  71.317  1.00  0.00    -0.128 A  
HETATM    9  N   UNL     1      -9.052   8.346  70.771  1.00  0.00    -0.148 NA 
HETATM   10  O   UNL     1      -9.197   5.122  73.615  1.00  0.00    -0.129 OA 
HETATM   11  C   UNL     1      -9.804   4.052  71.558  1.00  0.00    -0.251 C  
HETATM   12  C   UNL     1     -11.534   5.073  73.025  1.00  0.00    -0.344 C  
HETATM   13  C   UNL     1      -7.332   6.569  71.282  1.00  0.00    -0.080 C  
HETATM   14  O   UNL     1      -7.041   5.740  72.309  1.00  0.00    -0.080 OA 
HETATM   15  O   UNL     1      -6.478   6.858  70.448  1.00  0.00    -0.044 OA 
HETATM   16  H   UNL     1      -9.352   4.284  74.035  1.00  0.00     0.000 HD 
BRANCH   9  17
HETATM   17  C   UNL     1      -8.093   9.157  69.979  1.00  0.00    -0.128 C  
BRANCH  17  18
HETATM   18  C   UNL     1      -8.550   9.715  68.660  1.00  0.00    -0.120 A  
HETATM   19  C   UNL     1      -8.183  11.005  68.267  1.00  0.00    -0.130 A  
HETATM   20  C   UNL     1      -8.832  11.623  67.189  1.00  0.00    -0.172 A  
HETATM   21  C   UNL     1      -9.902  11.002  66.507  1.00  0.00    -0.241 A  
HETATM   22  C   UNL     1     -10.094   9.638  66.781  1.00  0.00    -0.301 A  
HETATM   23  C   UNL     1      -9.411   8.994  67.827  1.00  0.00    -0.162 A  
BRANCH  21  24
HETATM   24  C   UNL     1     -10.893  11.835  65.740  1.00  0.00    -0.341 A  
HETATM   25  C   UNL     1     -11.665  12.924  66.230  1.00  0.00    -0.457 A  
HETATM   26  C   UNL     1     -12.420  13.707  65.314  1.00  0.00    -0.517 A  
HETATM   27  C   UNL     1     -10.971  11.590  64.338  1.00  0.00    -0.390 A  
HETATM   28  C   UNL     1     -11.745  12.351  63.462  1.00  0.00    -0.592 A  
HETATM   29  C   UNL     1     -12.459  13.426  63.949  1.00  0.00    -0.313 A  
BRANCH  25  30
HETATM   30  C   UNL     1     -11.771  13.283  67.646  1.00  0.00    -0.366 A  
HETATM   31  N   UNL     1     -12.007  13.307  69.796  1.00  0.00    -0.327 NA 
HETATM   32  H   UNL     1     -11.999  11.476  68.678  1.00  0.00     0.000 HD 
HETATM   33  N   UNL     1     -11.899  14.581  69.455  1.00  0.00    -0.310 NA 
HETATM   34  N   UNL     1     -11.936  12.494  68.690  1.00  0.00    -0.284 NA 
HETATM   35  N   UNL     1     -11.754  14.570  68.125  1.00  0.00    -0.331 NA 
ENDBRANCH  25  30
ENDBRANCH  21  24
ENDBRANCH  17  18
ENDBRANCH   9  17
ENDBRANCH   3   4
ENDBRANCH   2   3
TORSDOF 6
ENDMDL
MODEL       75
REMARK 921   NORMALIZED FREE ENERGY PREDICTED BY IDOCK:   -6.69 KCAL/MOL
REMARK 922        TOTAL FREE ENERGY PREDICTED BY IDOCK:  -10.19 KCAL/MOL
REMARK 923 INTER-LIGAND FREE ENERGY PREDICTED BY IDOCK:   -8.38 KCAL/MOL
REMARK 924 INTRA-LIGAND FREE ENERGY PREDICTED BY IDOCK:   -1.81 KCAL/MOL
REMARK 927      BINDING AFFINITY PREDICTED BY RF-SCORE:    0.00 PKD
ROOT
HETATM    1  C   UNL     1      -9.021   6.828  68.190  1.00  0.00    -0.118 C  
HETATM    2  C   UNL     1     -10.467   6.583  67.776  1.00  0.00    -0.279 C  
ENDROOT
BRANCH   2   3
HETATM    3  C   UNL     1     -11.471   6.674  68.933  1.00  0.00    -0.103 C  
BRANCH   3   4
HETATM    4  C   UNL     1     -10.922   6.143  70.221  1.00  0.00    -0.349 A  
HETATM    5  N   UNL     1     -10.457   4.910  70.288  1.00  0.00    -0.186 NA 
HETATM    6  C   UNL     1     -10.162   4.649  71.596  1.00  0.00    -0.163 A  
HETATM    7  C   UNL     1      -9.665   3.279  72.006  1.00  0.00    -0.165 C  
HETATM    8  C   UNL     1     -10.476   5.757  72.379  1.00  0.00    -0.211 A  
HETATM    9  N   UNL     1     -10.832   6.760  71.458  1.00  0.00    -0.230 NA 
HETATM   10  O   UNL     1     -10.605   2.734  72.957  1.00  0.00    -0.155 OA 
HETATM   11  C   UNL     1      -8.300   3.344  72.702  1.00  0.00    -0.081 C  
HETATM   12  C   UNL     1      -9.558   2.295  70.830  1.00  0.00    -0.168 C  
HETATM   13  C   UNL     1     -10.438   5.937  73.812  1.00  0.00    -0.273 C  
HETATM   14  O   UNL     1     -10.669   4.807  74.518  1.00  0.00    -0.355 OA 
HETATM   15  O   UNL     1     -10.272   7.011  74.385  1.00  0.00    -0.257 OA 
HETATM   16  H   UNL     1     -10.293   1.875  73.215  1.00  0.00     0.000 HD 
BRANCH   9  17
HETATM   17  C   UNL     1     -11.075   8.155  71.903  1.00  0.00    -0.285 C  
BRANCH  17  18
HETATM   18  C   UNL     1     -10.871   9.266  70.910  1.00  0.00    -0.365 A  
HETATM   19  C   UNL     1     -11.964   9.965  70.390  1.00  0.00    -0.271 A  
HETATM   20  C   UNL     1     -11.801  10.792  69.270  1.00  0.00    -0.359 A  
HETATM   21  C   UNL     1     -10.562  10.904  68.599  1.00  0.00    -0.224 A  
HETATM   22  C   UNL     1      -9.451  10.369  69.271  1.00  0.00    -0.214 A  
HETATM   23  C   UNL     1      -9.598   9.580  70.424  1.00  0.00    -0.326 A  
BRANCH  21  24
HETATM   24  C   UNL     1     -10.520  11.350  67.162  1.00  0.00    -0.259 A  
HETATM   25  C   UNL     1     -10.539  12.685  66.675  1.00  0.00    -0.267 A  
HETATM   26  C   UNL     1     -10.314  12.921  65.290  1.00  0.00    -0.315 A  
HETATM   27  C   UNL     1     -10.306  10.329  66.191  1.00  0.00    -0.253 A  
HETATM   28  C   UNL     1     -10.120  10.581  64.832  1.00  0.00    -0.403 A  
HETATM   29  C   UNL     1     -10.106  11.885  64.382  1.00  0.00    -0.310 A  
BRANCH  25  30
HETATM   30  C   UNL     1     -10.817  13.859  67.505  1.00  0.00    -0.266 A  
HETATM   31  N   UNL     1     -11.682  15.584  68.483  1.00  0.00    -0.367 NA 
HETATM   32  H   UNL     1     -12.801  14.391  67.095  1.00  0.00     0.000 HD 
HETATM   33  N   UNL     1     -10.441  15.526  68.939  1.00  0.00    -0.215 NA 
HETATM   34  N   UNL     1     -11.928  14.566  67.593  1.00  0.00    -0.359 NA 
HETATM   35  N   UNL     1      -9.903  14.461  68.334  1.00  0.00    -0.228 NA 
ENDBRANCH  25  30
ENDBRANCH  21  24
ENDBRANCH  17  18
ENDBRANCH   9  17
ENDBRANCH   3   4
ENDBRANCH   2   3
TORSDOF 6
ENDMDL
MODEL       76
REMARK 921   NORMALIZED FREE ENERGY PREDICTED BY IDOCK:   -6.69 KCAL/MOL
REMARK 922        TOTAL FREE ENERGY PREDICTED BY IDOCK:  -10.19 KCAL/MOL
REMARK 923 INTER-LIGAND FREE ENERGY PREDICTED BY IDOCK:   -8.77 KCAL/MOL
REMARK 924 INTRA-LIGAND FREE ENERGY PREDICTED BY IDOCK:   -1.42 KCAL/MOL
REMARK 927      BINDING AFFINITY PREDICTED BY RF-SCORE:    0.00 PKD
ROOT
HETATM    1  C   UNL     1      -8.039   8.063  66.903  1.00  0.00    -0.108 C  
HETATM    2  C   UNL     1      -9.416   8.050  66.251  1.00  0.00    -0.241 C  
ENDROOT
BRANCH   2   3
HETATM    3  C   UNL     1     -10.527   8.643  67.127  1.00  0.00    -0.360 C  
BRANCH   3   4
HETATM    4  C   UNL     1     -10.870  10.053  66.756  1.00  0.00    -0.021 A  
HETATM    5  N   UNL     1     -10.633  10.495  65.535  1.00  0.00    -0.135 NA 
HETATM    6  C   UNL     1     -10.903  11.834  65.521  1.00  0.00    -0.297 A  
HETATM    7  C   UNL     1     -10.662  12.646  64.266  1.00  0.00    -0.382 C  
HETATM    8  C   UNL     1     -11.304  12.247  66.789  1.00  0.00    -0.339 A  
HETATM    9  N   UNL     1     -11.413  11.059  67.537  1.00  0.00    -0.515 NA 
HETATM   10  O   UNL     1      -9.697  13.672  64.582  1.00  0.00    -0.570 OA 
HETATM   11  C   UNL     1     -11.934  13.352  63.782  1.00  0.00    -0.517 C  
HETATM   12  C   UNL     1     -10.103  11.812  63.101  1.00  0.00    -0.386 C  
HETATM   13  C   UNL     1     -11.599  13.566  67.299  1.00  0.00    -0.362 C  
HETATM   14  O   UNL     1     -10.902  14.559  66.702  1.00  0.00    -0.300 OA 
HETATM   15  O   UNL     1     -12.364  13.809  68.228  1.00  0.00    -0.242 OA 
HETATM   16  H   UNL     1      -9.545  14.181  63.794  1.00  0.00     0.000 HD 
BRANCH   9  17
HETATM   17  C   UNL     1     -11.984  11.069  68.907  1.00  0.00    -0.262 C  
BRANCH  17  18
HETATM   18  C   UNL     1     -11.186  10.441  70.016  1.00  0.00    -0.385 A  
HETATM   19  C   UNL     1      -9.804  10.269  69.891  1.00  0.00    -0.153 A  
HETATM   20  C   UNL     1      -9.115   9.438  70.786  1.00  0.00    -0.268 A  
HETATM   21  C   UNL     1      -9.785   8.711  71.795  1.00  0.00    -0.361 A  
HETATM   22  C   UNL     1     -11.121   9.075  72.029  1.00  0.00    -0.371 A  
HETATM   23  C   UNL     1     -11.808   9.946  71.167  1.00  0.00    -0.472 A  
BRANCH  21  24
HETATM   24  C   UNL     1      -9.152   7.478  72.383  1.00  0.00    -0.176 A  
HETATM   25  C   UNL     1      -8.958   6.223  71.745  1.00  0.00    -0.140 A  
HETATM   26  C   UNL     1      -8.182   5.226  72.398  1.00  0.00    -0.118 A  
HETATM   27  C   UNL     1      -8.568   7.624  73.675  1.00  0.00    -0.263 A  
HETATM   28  C   UNL     1      -7.838   6.621  74.311  1.00  0.00    -0.115 A  
HETATM   29  C   UNL     1      -7.629   5.421  73.663  1.00  0.00    -0.095 A  
BRANCH  25  30
HETATM   30  C   UNL     1      -9.543   5.859  70.452  1.00  0.00    -0.168 A  
HETATM   31  N   UNL     1      -9.913   5.223  68.418  1.00  0.00    -0.157 NA 
HETATM   32  H   UNL     1      -7.956   5.140  69.291  1.00  0.00     0.000 HD 
HETATM   33  N   UNL     1     -11.093   5.624  68.866  1.00  0.00    -0.077 NA 
HETATM   34  N   UNL     1      -8.946   5.368  69.383  1.00  0.00    -0.104 NA 
HETATM   35  N   UNL     1     -10.866   6.019  70.124  1.00  0.00    -0.310 NA 
ENDBRANCH  25  30
ENDBRANCH  21  24
ENDBRANCH  17  18
ENDBRANCH   9  17
ENDBRANCH   3   4
ENDBRANCH   2   3
TORSDOF 6
ENDMDL
MODEL       77
REMARK 921   NORMALIZED FREE ENERGY PREDICTED BY IDOCK:   -6.67 KCAL/MOL
REMARK 922        TOTAL FREE ENERGY PREDICTED BY IDOCK:  -10.16 KCAL/MOL
REMARK 923 INTER-LIGAND FREE ENERGY PREDICTED BY IDOCK:   -7.97 KCAL/MOL
REMARK 924 INTRA-LIGAND FREE ENERGY PREDICTED BY IDOCK:   -2.19 KCAL/MOL
REMARK 927      BINDING AFFINITY PREDICTED BY RF-SCORE:    0.00 PKD
ROOT
HETATM    1  C   UNL     1      -9.232   9.092  65.243  1.00  0.00    -0.243 C  
HETATM    2  C   UNL     1      -9.517   8.010  66.277  1.00  0.00    -0.241 C  
ENDROOT
BRANCH   2   3
HETATM    3  C   UNL     1      -8.259   7.435  66.943  1.00  0.00    -0.121 C  
BRANCH   3   4
HETATM    4  C   UNL     1      -8.440   7.189  68.409  1.00  0.00    -0.124 A  
HETATM    5  N   UNL     1      -8.775   5.989  68.845  1.00  0.00    -0.121 NA 
HETATM    6  C   UNL     1      -9.012   6.089  70.187  1.00  0.00    -0.147 A  
HETATM    7  C   UNL     1      -9.484   4.880  70.968  1.00  0.00    -0.164 C  
HETATM    8  C   UNL     1      -8.837   7.407  70.600  1.00  0.00    -0.150 A  
HETATM    9  N   UNL     1      -8.331   8.075  69.468  1.00  0.00    -0.125 NA 
HETATM   10  O   UNL     1     -10.768   5.202  71.545  1.00  0.00    -0.189 OA 
HETATM   11  C   UNL     1      -8.539   4.536  72.126  1.00  0.00    -0.119 C  
HETATM   12  C   UNL     1      -9.657   3.624  70.098  1.00  0.00    -0.242 C  
HETATM   13  C   UNL     1      -9.062   8.028  71.885  1.00  0.00    -0.156 C  
HETATM   14  O   UNL     1     -10.050   7.457  72.610  1.00  0.00    -0.182 OA 
HETATM   15  O   UNL     1      -8.473   9.022  72.301  1.00  0.00    -0.356 OA 
HETATM   16  H   UNL     1     -11.064   4.444  72.035  1.00  0.00     0.000 HD 
BRANCH   9  17
HETATM   17  C   UNL     1      -7.856   9.478  69.558  1.00  0.00    -0.103 C  
BRANCH  17  18
HETATM   18  C   UNL     1      -8.665  10.550  68.881  1.00  0.00    -0.154 A  
HETATM   19  C   UNL     1     -10.061  10.537  68.948  1.00  0.00    -0.215 A  
HETATM   20  C   UNL     1     -10.812  11.356  68.095  1.00  0.00    -0.259 A  
HETATM   21  C   UNL     1     -10.203  12.168  67.111  1.00  0.00    -0.226 A  
HETATM   22  C   UNL     1      -8.811  12.320  67.219  1.00  0.00    -0.190 A  
HETATM   23  C   UNL     1      -8.052  11.541  68.108  1.00  0.00    -0.146 A  
BRANCH  21  24
HETATM   24  C   UNL     1     -10.990  12.617  65.909  1.00  0.00    -0.310 A  
HETATM   25  C   UNL     1     -11.285  13.952  65.523  1.00  0.00    -0.307 A  
HETATM   26  C   UNL     1     -11.891  14.191  64.259  1.00  0.00    -0.420 A  
HETATM   27  C   UNL     1     -11.370  11.598  64.988  1.00  0.00    -0.237 A  
HETATM   28  C   UNL     1     -11.994  11.852  63.767  1.00  0.00    -0.547 A  
HETATM   29  C   UNL     1     -12.241  13.157  63.393  1.00  0.00    -0.521 A  
BRANCH  25  30
HETATM   30  C   UNL     1     -11.038  15.125  66.366  1.00  0.00    -0.312 A  
HETATM   31  N   UNL     1     -10.954  16.590  67.955  1.00  0.00    -0.346 NA 
HETATM   32  H   UNL     1     -11.878  14.674  68.230  1.00  0.00     0.000 HD 
HETATM   33  N   UNL     1     -10.358  17.174  66.927  1.00  0.00    -0.317 NA 
HETATM   34  N   UNL     1     -11.385  15.328  67.623  1.00  0.00    -0.329 NA 
HETATM   35  N   UNL     1     -10.410  16.270  65.942  1.00  0.00    -0.350 NA 
ENDBRANCH  25  30
ENDBRANCH  21  24
ENDBRANCH  17  18
ENDBRANCH   9  17
ENDBRANCH   3   4
ENDBRANCH   2   3
TORSDOF 6
ENDMDL
MODEL       78
REMARK 921   NORMALIZED FREE ENERGY PREDICTED BY IDOCK:   -6.62 KCAL/MOL
REMARK 922        TOTAL FREE ENERGY PREDICTED BY IDOCK:  -10.10 KCAL/MOL
REMARK 923 INTER-LIGAND FREE ENERGY PREDICTED BY IDOCK:   -8.41 KCAL/MOL
REMARK 924 INTRA-LIGAND FREE ENERGY PREDICTED BY IDOCK:   -1.69 KCAL/MOL
REMARK 927      BINDING AFFINITY PREDICTED BY RF-SCORE:    0.00 PKD
ROOT
HETATM    1  C   UNL     1     -10.056   7.263  66.611  1.00  0.00    -0.238 C  
HETATM    2  C   UNL     1     -10.802   6.103  67.258  1.00  0.00    -0.438 C  
ENDROOT
BRANCH   2   3
HETATM    3  C   UNL     1     -11.219   6.361  68.712  1.00  0.00    -0.358 C  
BRANCH   3   4
HETATM    4  C   UNL     1     -10.048   6.464  69.642  1.00  0.00    -0.175 A  
HETATM    5  N   UNL     1      -9.098   5.548  69.617  1.00  0.00    -0.126 NA 
HETATM    6  C   UNL     1      -8.247   5.808  70.654  1.00  0.00    -0.119 A  
HETATM    7  C   UNL     1      -7.080   4.883  70.931  1.00  0.00    -0.051 C  
HETATM    8  C   UNL     1      -8.696   6.918  71.364  1.00  0.00    -0.126 A  
HETATM    9  N   UNL     1      -9.779   7.413  70.614  1.00  0.00    -0.175 NA 
HETATM   10  O   UNL     1      -7.241   4.357  72.266  1.00  0.00    -0.059 OA 
HETATM   11  C   UNL     1      -5.737   5.622  70.892  1.00  0.00    -0.016 C  
HETATM   12  C   UNL     1      -7.004   3.694  69.959  1.00  0.00    -0.041 C  
HETATM   13  C   UNL     1      -8.201   7.519  72.581  1.00  0.00    -0.112 C  
HETATM   14  O   UNL     1      -7.619   6.644  73.433  1.00  0.00    -0.091 OA 
HETATM   15  O   UNL     1      -8.325   8.702  72.886  1.00  0.00    -0.400 OA 
HETATM   16  H   UNL     1      -6.509   3.777  72.440  1.00  0.00     0.000 HD 
BRANCH   9  17
HETATM   17  C   UNL     1     -10.425   8.702  70.963  1.00  0.00    -0.219 C  
BRANCH  17  18
HETATM   18  C   UNL     1     -10.652   9.706  69.866  1.00  0.00    -0.281 A  
HETATM   19  C   UNL     1      -9.615  10.059  68.999  1.00  0.00    -0.200 A  
HETATM   20  C   UNL     1      -9.741  11.185  68.174  1.00  0.00    -0.186 A  
HETATM   21  C   UNL     1     -10.877  12.025  68.227  1.00  0.00    -0.263 A  
HETATM   22  C   UNL     1     -11.978  11.523  68.939  1.00  0.00    -0.364 A  
HETATM   23  C   UNL     1     -11.877  10.366  69.730  1.00  0.00    -0.278 A  
BRANCH  21  24
HETATM   24  C   UNL     1     -10.784  13.450  67.751  1.00  0.00    -0.259 A  
HETATM   25  C   UNL     1     -11.214  13.970  66.500  1.00  0.00    -0.326 A  
HETATM   26  C   UNL     1     -11.207  15.377  66.293  1.00  0.00    -0.162 A  
HETATM   27  C   UNL     1     -10.335  14.407  68.708  1.00  0.00    -0.241 A  
HETATM   28  C   UNL     1     -10.306  15.781  68.472  1.00  0.00    -0.229 A  
HETATM   29  C   UNL     1     -10.760  16.270  67.266  1.00  0.00    -0.265 A  
BRANCH  25  30
HETATM   30  C   UNL     1     -11.639  13.142  65.368  1.00  0.00    -0.333 A  
HETATM   31  N   UNL     1     -11.762  11.800  63.676  1.00  0.00    -0.455 NA 
HETATM   32  H   UNL     1      -9.928  12.108  64.745  1.00  0.00     0.000 HD 
HETATM   33  N   UNL     1     -12.984  12.293  63.805  1.00  0.00    -0.786 NA 
HETATM   34  N   UNL     1     -10.919  12.318  64.630  1.00  0.00    -0.293 NA 
HETATM   35  N   UNL     1     -12.910  13.125  64.850  1.00  0.00    -0.742 NA 
ENDBRANCH  25  30
ENDBRANCH  21  24
ENDBRANCH  17  18
ENDBRANCH   9  17
ENDBRANCH   3   4
ENDBRANCH   2   3
TORSDOF 6
ENDMDL
MODEL       79
REMARK 921   NORMALIZED FREE ENERGY PREDICTED BY IDOCK:   -6.57 KCAL/MOL
REMARK 922        TOTAL FREE ENERGY PREDICTED BY IDOCK:  -10.02 KCAL/MOL
REMARK 923 INTER-LIGAND FREE ENERGY PREDICTED BY IDOCK:   -8.59 KCAL/MOL
REMARK 924 INTRA-LIGAND FREE ENERGY PREDICTED BY IDOCK:   -1.44 KCAL/MOL
REMARK 927      BINDING AFFINITY PREDICTED BY RF-SCORE:    0.00 PKD
ROOT
HETATM    1  C   UNL     1      -9.371   6.361  66.249  1.00  0.00    -0.149 C  
HETATM    2  C   UNL     1      -9.957   5.444  67.316  1.00  0.00    -0.198 C  
ENDROOT
BRANCH   2   3
HETATM    3  C   UNL     1     -10.928   6.143  68.276  1.00  0.00    -0.397 C  
BRANCH   3   4
HETATM    4  C   UNL     1     -10.313   6.439  69.609  1.00  0.00    -0.204 A  
HETATM    5  N   UNL     1     -10.670   5.746  70.674  1.00  0.00    -0.278 NA 
HETATM    6  C   UNL     1     -10.070   6.318  71.760  1.00  0.00    -0.186 A  
HETATM    7  C   UNL     1     -10.341   5.782  73.150  1.00  0.00    -0.205 C  
HETATM    8  C   UNL     1      -9.326   7.425  71.358  1.00  0.00    -0.142 A  
HETATM    9  N   UNL     1      -9.381   7.404  69.951  1.00  0.00    -0.155 NA 
HETATM   10  O   UNL     1     -10.921   6.850  73.930  1.00  0.00    -0.480 OA 
HETATM   11  C   UNL     1      -9.054   5.347  73.862  1.00  0.00    -0.122 C  
HETATM   12  C   UNL     1     -11.322   4.599  73.164  1.00  0.00    -0.355 C  
HETATM   13  C   UNL     1      -8.601   8.403  72.135  1.00  0.00    -0.192 C  
HETATM   14  O   UNL     1      -9.122   8.632  73.362  1.00  0.00    -0.209 OA 
HETATM   15  O   UNL     1      -7.627   9.038  71.740  1.00  0.00    -0.321 OA 
HETATM   16  H   UNL     1     -11.091   6.514  74.802  1.00  0.00     0.000 HD 
BRANCH   9  17
HETATM   17  C   UNL     1      -8.561   8.339  69.142  1.00  0.00    -0.138 C  
BRANCH  17  18
HETATM   18  C   UNL     1      -9.219   9.581  68.604  1.00  0.00    -0.135 A  
HETATM   19  C   UNL     1     -10.605   9.637  68.437  1.00  0.00    -0.264 A  
HETATM   20  C   UNL     1     -11.180  10.668  67.682  1.00  0.00    -0.361 A  
HETATM   21  C   UNL     1     -10.393  11.640  67.024  1.00  0.00    -0.248 A  
HETATM   22  C   UNL     1      -9.038  11.682  67.391  1.00  0.00    -0.169 A  
HETATM   23  C   UNL     1      -8.461  10.681  68.190  1.00  0.00    -0.122 A  
BRANCH  21  24
HETATM   24  C   UNL     1     -10.951  12.391  65.844  1.00  0.00    -0.323 A  
HETATM   25  C   UNL     1     -10.807  12.062  64.469  1.00  0.00    -0.363 A  
HETATM   26  C   UNL     1     -11.552  12.789  63.500  1.00  0.00    -0.565 A  
HETATM   27  C   UNL     1     -11.826  13.475  66.143  1.00  0.00    -0.426 A  
HETATM   28  C   UNL     1     -12.522  14.196  65.173  1.00  0.00    -0.453 A  
HETATM   29  C   UNL     1     -12.398  13.840  63.846  1.00  0.00    -0.346 A  
BRANCH  25  30
HETATM   30  C   UNL     1      -9.898  11.030  63.962  1.00  0.00    -0.313 A  
HETATM   31  N   UNL     1      -8.716   9.249  63.632  1.00  0.00    -0.199 NA 
HETATM   32  H   UNL     1     -10.123   9.391  65.244  1.00  0.00     0.000 HD 
HETATM   33  N   UNL     1      -8.339  10.085  62.677  1.00  0.00    -0.143 NA 
HETATM   34  N   UNL     1      -9.673   9.820  64.436  1.00  0.00    -0.117 NA 
HETATM   35  N   UNL     1      -9.068  11.188  62.880  1.00  0.00    -0.307 NA 
ENDBRANCH  25  30
ENDBRANCH  21  24
ENDBRANCH  17  18
ENDBRANCH   9  17
ENDBRANCH   3   4
ENDBRANCH   2   3
TORSDOF 6
ENDMDL
MODEL       80
REMARK 921   NORMALIZED FREE ENERGY PREDICTED BY IDOCK:   -6.56 KCAL/MOL
REMARK 922        TOTAL FREE ENERGY PREDICTED BY IDOCK:  -10.01 KCAL/MOL
REMARK 923 INTER-LIGAND FREE ENERGY PREDICTED BY IDOCK:   -8.51 KCAL/MOL
REMARK 924 INTRA-LIGAND FREE ENERGY PREDICTED BY IDOCK:   -1.50 KCAL/MOL
REMARK 927      BINDING AFFINITY PREDICTED BY RF-SCORE:    0.00 PKD
ROOT
HETATM    1  C   UNL     1     -12.860  15.392  71.200  1.00  0.00    -0.520 C  
HETATM    2  C   UNL     1     -11.445  15.893  70.938  1.00  0.00    -0.444 C  
ENDROOT
BRANCH   2   3
HETATM    3  C   UNL     1     -10.753  15.214  69.748  1.00  0.00    -0.288 C  
BRANCH   3   4
HETATM    4  C   UNL     1      -9.773  16.112  69.058  1.00  0.00    -0.248 A  
HETATM    5  N   UNL     1     -10.169  17.264  68.551  1.00  0.00    -0.335 NA 
HETATM    6  C   UNL     1      -9.115  17.797  67.864  1.00  0.00    -0.259 A  
HETATM    7  C   UNL     1      -9.279  19.098  67.107  1.00  0.00    -0.297 C  
HETATM    8  C   UNL     1      -8.025  16.933  67.929  1.00  0.00    -0.183 A  
HETATM    9  N   UNL     1      -8.422  15.919  68.821  1.00  0.00    -0.190 NA 
HETATM   10  O   UNL     1      -9.002  18.838  65.714  1.00  0.00    -0.397 OA 
HETATM   11  C   UNL     1      -8.286  20.168  67.576  1.00  0.00    -0.383 C  
HETATM   12  C   UNL     1     -10.698  19.683  67.206  1.00  0.00    -0.583 C  
HETATM   13  C   UNL     1      -6.731  17.002  67.291  1.00  0.00    -0.164 C  
HETATM   14  O   UNL     1      -6.737  17.629  66.093  1.00  0.00    -0.247 OA 
HETATM   15  O   UNL     1      -5.699  16.501  67.731  1.00  0.00    -0.115 OA 
HETATM   16  H   UNL     1      -9.106  19.654  65.239  1.00  0.00     0.000 HD 
BRANCH   9  17
HETATM   17  C   UNL     1      -7.459  14.888  69.283  1.00  0.00    -0.177 C  
BRANCH  17  18
HETATM   18  C   UNL     1      -7.455  13.554  68.589  1.00  0.00    -0.108 A  
HETATM   19  C   UNL     1      -8.158  13.370  67.395  1.00  0.00    -0.178 A  
HETATM   20  C   UNL     1      -8.387  12.077  66.906  1.00  0.00    -0.159 A  
HETATM   21  C   UNL     1      -7.976  10.927  67.617  1.00  0.00    -0.114 A  
HETATM   22  C   UNL     1      -7.092  11.150  68.685  1.00  0.00    -0.090 A  
HETATM   23  C   UNL     1      -6.814  12.446  69.152  1.00  0.00    -0.069 A  
BRANCH  21  24
HETATM   24  C   UNL     1      -8.653   9.605  67.371  1.00  0.00    -0.125 A  
HETATM   25  C   UNL     1     -10.009   9.271  67.633  1.00  0.00    -0.245 A  
HETATM   26  C   UNL     1     -10.518   8.025  67.172  1.00  0.00    -0.408 A  
HETATM   27  C   UNL     1      -7.885   8.622  66.681  1.00  0.00    -0.097 A  
HETATM   28  C   UNL     1      -8.396   7.393  66.267  1.00  0.00    -0.132 A  
HETATM   29  C   UNL     1      -9.724   7.099  66.497  1.00  0.00    -0.199 A  
BRANCH  25  30
HETATM   30  C   UNL     1     -10.932  10.118  68.392  1.00  0.00    -0.244 A  
HETATM   31  N   UNL     1     -12.382  11.582  69.050  1.00  0.00    -0.333 NA 
HETATM   32  H   UNL     1     -11.887  11.332  66.978  1.00  0.00     0.000 HD 
HETATM   33  N   UNL     1     -11.964  10.999  70.163  1.00  0.00    -0.328 NA 
HETATM   34  N   UNL     1     -11.750  11.054  67.950  1.00  0.00    -0.592 NA 
HETATM   35  N   UNL     1     -11.066  10.093  69.758  1.00  0.00    -0.262 NA 
ENDBRANCH  25  30
ENDBRANCH  21  24
ENDBRANCH  17  18
ENDBRANCH   9  17
ENDBRANCH   3   4
ENDBRANCH   2   3
TORSDOF 6
ENDMDL
MODEL       81
REMARK 921   NORMALIZED FREE ENERGY PREDICTED BY IDOCK:   -6.56 KCAL/MOL
REMARK 922        TOTAL FREE ENERGY PREDICTED BY IDOCK:  -10.01 KCAL/MOL
REMARK 923 INTER-LIGAND FREE ENERGY PREDICTED BY IDOCK:   -8.77 KCAL/MOL
REMARK 924 INTRA-LIGAND FREE ENERGY PREDICTED BY IDOCK:   -1.24 KCAL/MOL
REMARK 927      BINDING AFFINITY PREDICTED BY RF-SCORE:    0.00 PKD
ROOT
HETATM    1  C   UNL     1      -7.701   8.759  67.416  1.00  0.00    -0.097 C  
HETATM    2  C   UNL     1      -6.956   9.692  68.363  1.00  0.00    -0.065 C  
ENDROOT
BRANCH   2   3
HETATM    3  C   UNL     1      -7.852  10.362  69.413  1.00  0.00    -0.163 C  
BRANCH   3   4
HETATM    4  C   UNL     1      -8.481   9.380  70.352  1.00  0.00    -0.214 A  
HETATM    5  N   UNL     1      -7.828   8.972  71.423  1.00  0.00    -0.310 NA 
HETATM    6  C   UNL     1      -8.568   7.983  72.008  1.00  0.00    -0.146 A  
HETATM    7  C   UNL     1      -8.044   7.263  73.233  1.00  0.00    -0.109 C  
HETATM    8  C   UNL     1      -9.720   7.752  71.260  1.00  0.00    -0.157 A  
HETATM    9  N   UNL     1      -9.717   8.758  70.275  1.00  0.00    -0.170 NA 
HETATM   10  O   UNL     1      -7.930   5.862  72.906  1.00  0.00    -0.106 OA 
HETATM   11  C   UNL     1      -9.004   7.376  74.423  1.00  0.00    -0.191 C  
HETATM   12  C   UNL     1      -6.660   7.759  73.683  1.00  0.00    -0.097 C  
HETATM   13  C   UNL     1     -10.754   6.756  71.410  1.00  0.00    -0.224 C  
HETATM   14  O   UNL     1     -10.328   5.592  71.950  1.00  0.00    -0.201 OA 
HETATM   15  O   UNL     1     -11.919   6.887  71.043  1.00  0.00    -0.339 OA 
HETATM   16  H   UNL     1      -7.602   5.410  73.674  1.00  0.00     0.000 HD 
BRANCH   9  17
HETATM   17  C   UNL     1     -10.882   8.950  69.376  1.00  0.00    -0.119 C  
BRANCH  17  18
HETATM   18  C   UNL     1     -11.396  10.348  69.163  1.00  0.00    -0.286 A  
HETATM   19  C   UNL     1     -11.472  10.890  67.877  1.00  0.00    -0.344 A  
HETATM   20  C   UNL     1     -11.675  12.267  67.706  1.00  0.00    -0.403 A  
HETATM   21  C   UNL     1     -11.752  13.152  68.805  1.00  0.00    -0.363 A  
HETATM   22  C   UNL     1     -11.891  12.551  70.067  1.00  0.00    -0.363 A  
HETATM   23  C   UNL     1     -11.740  11.166  70.244  1.00  0.00    -0.431 A  
BRANCH  21  24
HETATM   24  C   UNL     1     -11.453  14.615  68.618  1.00  0.00    -0.326 A  
HETATM   25  C   UNL     1     -11.678  15.665  69.549  1.00  0.00    -0.382 A  
HETATM   26  C   UNL     1     -11.170  16.964  69.266  1.00  0.00     0.130 A  
HETATM   27  C   UNL     1     -10.750  14.968  67.430  1.00  0.00    -0.289 A  
HETATM   28  C   UNL     1     -10.289  16.256  67.158  1.00  0.00    -0.285 A  
HETATM   29  C   UNL     1     -10.484  17.255  68.088  1.00  0.00    -0.382 A  
BRANCH  25  30
HETATM   30  C   UNL     1     -12.444  15.515  70.789  1.00  0.00    -0.440 A  
HETATM   31  N   UNL     1     -13.977  15.383  72.308  1.00  0.00    -0.530 NA 
HETATM   32  H   UNL     1     -14.458  15.648  70.235  1.00  0.00     0.000 HD 
HETATM   33  N   UNL     1     -12.837  15.276  72.971  1.00  0.00    -0.423 NA 
HETATM   34  N   UNL     1     -13.751  15.537  70.962  1.00  0.00    -0.544 NA 
HETATM   35  N   UNL     1     -11.886  15.358  72.034  1.00  0.00    -0.401 NA 
ENDBRANCH  25  30
ENDBRANCH  21  24
ENDBRANCH  17  18
ENDBRANCH   9  17
ENDBRANCH   3   4
ENDBRANCH   2   3
TORSDOF 6
ENDMDL
MODEL       82
REMARK 921   NORMALIZED FREE ENERGY PREDICTED BY IDOCK:   -6.54 KCAL/MOL
REMARK 922        TOTAL FREE ENERGY PREDICTED BY IDOCK:   -9.99 KCAL/MOL
REMARK 923 INTER-LIGAND FREE ENERGY PREDICTED BY IDOCK:   -8.40 KCAL/MOL
REMARK 924 INTRA-LIGAND FREE ENERGY PREDICTED BY IDOCK:   -1.58 KCAL/MOL
REMARK 927      BINDING AFFINITY PREDICTED BY RF-SCORE:    0.00 PKD
ROOT
HETATM    1  C   UNL     1     -12.695  10.440  71.422  1.00  0.00    -0.551 C  
HETATM    2  C   UNL     1     -12.109   9.068  71.110  1.00  0.00    -0.345 C  
ENDROOT
BRANCH   2   3
HETATM    3  C   UNL     1     -10.740   8.812  71.754  1.00  0.00    -0.413 C  
BRANCH   3   4
HETATM    4  C   UNL     1      -9.814   8.042  70.863  1.00  0.00    -0.175 A  
HETATM    5  N   UNL     1      -9.972   6.741  70.705  1.00  0.00    -0.187 NA 
HETATM    6  C   UNL     1      -8.916   6.283  69.969  1.00  0.00    -0.149 A  
HETATM    7  C   UNL     1      -8.778   4.804  69.674  1.00  0.00    -0.085 C  
HETATM    8  C   UNL     1      -8.055   7.337  69.674  1.00  0.00    -0.129 A  
HETATM    9  N   UNL     1      -8.722   8.487  70.137  1.00  0.00    -0.133 NA 
HETATM   10  O   UNL     1      -7.528   4.355  70.240  1.00  0.00    -0.048 OA 
HETATM   11  C   UNL     1      -8.725   4.518  68.169  1.00  0.00    -0.116 C  
HETATM   12  C   UNL     1      -9.906   3.956  70.285  1.00  0.00    -0.168 C  
HETATM   13  C   UNL     1      -6.770   7.345  69.014  1.00  0.00    -0.052 C  
HETATM   14  O   UNL     1      -6.052   6.212  69.187  1.00  0.00    -0.026 OA 
HETATM   15  O   UNL     1      -6.303   8.293  68.389  1.00  0.00    -0.051 OA 
HETATM   16  H   UNL     1      -7.442   3.428  70.055  1.00  0.00     0.000 HD 
BRANCH   9  17
HETATM   17  C   UNL     1      -8.192   9.844  69.852  1.00  0.00    -0.184 C  
BRANCH  17  18
HETATM   18  C   UNL     1      -8.852  10.654  68.770  1.00  0.00    -0.161 A  
HETATM   19  C   UNL     1      -8.183  10.922  67.573  1.00  0.00    -0.116 A  
HETATM   20  C   UNL     1      -8.675  11.899  66.697  1.00  0.00    -0.185 A  
HETATM   21  C   UNL     1      -9.812  12.678  67.009  1.00  0.00    -0.225 A  
HETATM   22  C   UNL     1     -10.576  12.235  68.102  1.00  0.00    -0.232 A  
HETATM   23  C   UNL     1     -10.117  11.221  68.958  1.00  0.00    -0.147 A  
BRANCH  21  24
HETATM   24  C   UNL     1     -10.016  14.016  66.350  1.00  0.00    -0.301 A  
HETATM   25  C   UNL     1     -10.932  14.332  65.310  1.00  0.00    -0.347 A  
HETATM   26  C   UNL     1     -11.110  15.691  64.932  1.00  0.00    -0.414 A  
HETATM   27  C   UNL     1      -9.306  15.113  66.917  1.00  0.00    -0.251 A  
HETATM   28  C   UNL     1      -9.472  16.436  66.508  1.00  0.00    -0.296 A  
HETATM   29  C   UNL     1     -10.391  16.729  65.523  1.00  0.00    -0.236 A  
BRANCH  25  30
HETATM   30  C   UNL     1     -11.697  13.335  64.557  1.00  0.00    -0.378 A  
HETATM   31  N   UNL     1     -12.433  11.905  63.110  1.00  0.00    -0.422 NA 
HETATM   32  H   UNL     1     -10.518  12.846  62.897  1.00  0.00     0.000 HD 
HETATM   33  N   UNL     1     -13.398  11.999  64.012  1.00  0.00    -0.625 NA 
HETATM   34  N   UNL     1     -11.380  12.727  63.430  1.00  0.00    -0.432 NA 
HETATM   35  N   UNL     1     -12.946  12.884  64.908  1.00  0.00    -0.823 NA 
ENDBRANCH  25  30
ENDBRANCH  21  24
ENDBRANCH  17  18
ENDBRANCH   9  17
ENDBRANCH   3   4
ENDBRANCH   2   3
TORSDOF 6
ENDMDL
MODEL       83
REMARK 921   NORMALIZED FREE ENERGY PREDICTED BY IDOCK:   -6.52 KCAL/MOL
REMARK 922        TOTAL FREE ENERGY PREDICTED BY IDOCK:   -9.96 KCAL/MOL
REMARK 923 INTER-LIGAND FREE ENERGY PREDICTED BY IDOCK:   -8.45 KCAL/MOL
REMARK 924 INTRA-LIGAND FREE ENERGY PREDICTED BY IDOCK:   -1.52 KCAL/MOL
REMARK 927      BINDING AFFINITY PREDICTED BY RF-SCORE:    0.00 PKD
ROOT
HETATM    1  C   UNL     1      -6.928  10.872  68.535  1.00  0.00    -0.072 C  
HETATM    2  C   UNL     1      -7.288   9.644  67.707  1.00  0.00    -0.086 C  
ENDROOT
BRANCH   2   3
HETATM    3  C   UNL     1      -8.776   9.270  67.759  1.00  0.00    -0.120 C  
BRANCH   3   4
HETATM    4  C   UNL     1      -9.667  10.364  67.256  1.00  0.00    -0.165 A  
HETATM    5  N   UNL     1      -9.813  10.558  65.959  1.00  0.00    -0.211 NA 
HETATM    6  C   UNL     1     -10.553  11.695  65.792  1.00  0.00    -0.271 A  
HETATM    7  C   UNL     1     -10.836  12.221  64.400  1.00  0.00    -0.329 C  
HETATM    8  C   UNL     1     -10.862  12.242  67.034  1.00  0.00    -0.250 A  
HETATM    9  N   UNL     1     -10.403  11.295  67.969  1.00  0.00    -0.177 NA 
HETATM   10  O   UNL     1     -10.275  13.548  64.307  1.00  0.00    -0.641 OA 
HETATM   11  C   UNL     1     -12.340  12.342  64.125  1.00  0.00    -0.558 C  
HETATM   12  C   UNL     1     -10.211  11.363  63.288  1.00  0.00    -0.430 C  
HETATM   13  C   UNL     1     -11.530  13.475  67.378  1.00  0.00    -0.336 C  
HETATM   14  O   UNL     1     -11.353  14.470  66.480  1.00  0.00    -0.337 OA 
HETATM   15  O   UNL     1     -12.166  13.670  68.411  1.00  0.00    -0.332 OA 
HETATM   16  H   UNL     1     -10.453  13.878  63.434  1.00  0.00     0.000 HD 
BRANCH   9  17
HETATM   17  C   UNL     1     -10.703  11.442  69.415  1.00  0.00    -0.104 C  
BRANCH  17  18
HETATM   18  C   UNL     1     -10.718  10.204  70.270  1.00  0.00    -0.352 A  
HETATM   19  C   UNL     1      -9.530   9.680  70.784  1.00  0.00    -0.124 A  
HETATM   20  C   UNL     1      -9.510   8.389  71.331  1.00  0.00    -0.251 A  
HETATM   21  C   UNL     1     -10.655   7.562  71.332  1.00  0.00    -0.229 A  
HETATM   22  C   UNL     1     -11.868   8.194  71.014  1.00  0.00    -0.279 A  
HETATM   23  C   UNL     1     -11.905   9.505  70.513  1.00  0.00    -0.246 A  
BRANCH  21  24
HETATM   24  C   UNL     1     -10.506   6.067  71.431  1.00  0.00    -0.282 A  
HETATM   25  C   UNL     1     -10.151   5.167  70.390  1.00  0.00    -0.333 A  
HETATM   26  C   UNL     1      -9.886   3.807  70.709  1.00  0.00    -0.173 A  
HETATM   27  C   UNL     1     -10.606   5.508  72.738  1.00  0.00    -0.266 A  
HETATM   28  C   UNL     1     -10.374   4.163  73.024  1.00  0.00    -0.239 A  
HETATM   29  C   UNL     1      -9.995   3.311  72.008  1.00  0.00    -0.222 A  
BRANCH  25  30
HETATM   30  C   UNL     1     -10.071   5.538  68.975  1.00  0.00    -0.205 A  
HETATM   31  N   UNL     1      -9.448   5.998  66.955  1.00  0.00    -0.129 NA 
HETATM   32  H   UNL     1      -8.069   5.267  68.426  1.00  0.00     0.000 HD 
HETATM   33  N   UNL     1     -10.742   6.279  66.981  1.00  0.00    -0.324 NA 
HETATM   34  N   UNL     1      -9.019   5.545  68.179  1.00  0.00    -0.108 NA 
HETATM   35  N   UNL     1     -11.129   5.997  68.230  1.00  0.00    -0.264 NA 
ENDBRANCH  25  30
ENDBRANCH  21  24
ENDBRANCH  17  18
ENDBRANCH   9  17
ENDBRANCH   3   4
ENDBRANCH   2   3
TORSDOF 6
ENDMDL
MODEL       84
REMARK 921   NORMALIZED FREE ENERGY PREDICTED BY IDOCK:   -6.50 KCAL/MOL
REMARK 922        TOTAL FREE ENERGY PREDICTED BY IDOCK:   -9.94 KCAL/MOL
REMARK 923 INTER-LIGAND FREE ENERGY PREDICTED BY IDOCK:   -8.16 KCAL/MOL
REMARK 924 INTRA-LIGAND FREE ENERGY PREDICTED BY IDOCK:   -1.78 KCAL/MOL
REMARK 927      BINDING AFFINITY PREDICTED BY RF-SCORE:    0.00 PKD
ROOT
HETATM    1  C   UNL     1      -8.206   9.967  69.716  1.00  0.00    -0.191 C  
HETATM    2  C   UNL     1      -7.197   9.732  68.598  1.00  0.00    -0.073 C  
ENDROOT
BRANCH   2   3
HETATM    3  C   UNL     1      -6.461   8.389  68.692  1.00  0.00    -0.054 C  
BRANCH   3   4
HETATM    4  C   UNL     1      -7.393   7.227  68.853  1.00  0.00    -0.095 A  
HETATM    5  N   UNL     1      -7.401   6.533  69.975  1.00  0.00    -0.087 NA 
HETATM    6  C   UNL     1      -8.227   5.460  69.791  1.00  0.00    -0.100 A  
HETATM    7  C   UNL     1      -8.394   4.430  70.889  1.00  0.00    -0.087 C  
HETATM    8  C   UNL     1      -8.738   5.476  68.495  1.00  0.00    -0.105 A  
HETATM    9  N   UNL     1      -8.301   6.699  67.951  1.00  0.00    -0.119 NA 
HETATM   10  O   UNL     1      -7.965   3.155  70.367  1.00  0.00    -0.043 OA 
HETATM   11  C   UNL     1      -9.858   4.277  71.318  1.00  0.00    -0.257 C  
HETATM   12  C   UNL     1      -7.556   4.736  72.141  1.00  0.00    -0.084 C  
HETATM   13  C   UNL     1      -9.566   4.519  67.799  1.00  0.00    -0.160 C  
HETATM   14  O   UNL     1      -9.385   3.239  68.196  1.00  0.00    -0.175 OA 
HETATM   15  O   UNL     1     -10.338   4.788  66.883  1.00  0.00    -0.216 OA 
HETATM   16  H   UNL     1      -8.070   2.509  71.055  1.00  0.00     0.000 HD 
BRANCH   9  17
HETATM   17  C   UNL     1      -8.786   7.162  66.627  1.00  0.00    -0.128 C  
BRANCH  17  18
HETATM   18  C   UNL     1      -9.631   8.405  66.572  1.00  0.00    -0.304 A  
HETATM   19  C   UNL     1      -9.365   9.406  65.633  1.00  0.00    -0.309 A  
HETATM   20  C   UNL     1      -9.958  10.669  65.766  1.00  0.00    -0.315 A  
HETATM   21  C   UNL     1     -10.787  10.992  66.864  1.00  0.00    -0.324 A  
HETATM   22  C   UNL     1     -11.203   9.911  67.657  1.00  0.00    -0.032 A  
HETATM   23  C   UNL     1     -10.653   8.628  67.500  1.00  0.00    -0.292 A  
BRANCH  21  24
HETATM   24  C   UNL     1     -10.983  12.431  67.263  1.00  0.00    -0.302 A  
HETATM   25  C   UNL     1     -11.687  13.435  66.545  1.00  0.00    -0.415 A  
HETATM   26  C   UNL     1     -11.919  14.695  67.161  1.00  0.00    -0.310 A  
HETATM   27  C   UNL     1     -10.524  12.792  68.563  1.00  0.00    -0.252 A  
HETATM   28  C   UNL     1     -10.735  14.046  69.136  1.00  0.00    -0.198 A  
HETATM   29  C   UNL     1     -11.451  14.997  68.439  1.00  0.00    -0.340 A  
BRANCH  25  30
HETATM   30  C   UNL     1     -12.170  13.277  65.170  1.00  0.00    -0.443 A  
HETATM   31  N   UNL     1     -12.741  13.540  63.101  1.00  0.00    -0.565 NA 
HETATM   32  H   UNL     1     -11.757  15.090  64.209  1.00  0.00     0.000 HD 
HETATM   33  N   UNL     1     -13.143  12.316  63.408  1.00  0.00    -0.663 NA 
HETATM   34  N   UNL     1     -12.145  14.147  64.180  1.00  0.00    -0.521 NA 
HETATM   35  N   UNL     1     -12.791  12.151  64.688  1.00  0.00    -0.595 NA 
ENDBRANCH  25  30
ENDBRANCH  21  24
ENDBRANCH  17  18
ENDBRANCH   9  17
ENDBRANCH   3   4
ENDBRANCH   2   3
TORSDOF 6
ENDMDL
MODEL       85
REMARK 921   NORMALIZED FREE ENERGY PREDICTED BY IDOCK:   -6.50 KCAL/MOL
REMARK 922        TOTAL FREE ENERGY PREDICTED BY IDOCK:   -9.94 KCAL/MOL
REMARK 923 INTER-LIGAND FREE ENERGY PREDICTED BY IDOCK:   -8.65 KCAL/MOL
REMARK 924 INTRA-LIGAND FREE ENERGY PREDICTED BY IDOCK:   -1.28 KCAL/MOL
REMARK 927      BINDING AFFINITY PREDICTED BY RF-SCORE:    0.00 PKD
ROOT
HETATM    1  C   UNL     1     -12.396  13.446  63.287  1.00  0.00    -0.244 C  
HETATM    2  C   UNL     1     -12.380  12.747  64.641  1.00  0.00    -0.524 C  
ENDROOT
BRANCH   2   3
HETATM    3  C   UNL     1     -11.066  12.020  64.953  1.00  0.00    -0.368 C  
BRANCH   3   4
HETATM    4  C   UNL     1     -10.143  12.831  65.810  1.00  0.00    -0.286 A  
HETATM    5  N   UNL     1     -10.314  14.135  65.922  1.00  0.00    -0.304 NA 
HETATM    6  C   UNL     1      -9.259  14.631  66.635  1.00  0.00    -0.267 A  
HETATM    7  C   UNL     1      -9.136  16.121  66.875  1.00  0.00    -0.218 C  
HETATM    8  C   UNL     1      -8.385  13.597  66.962  1.00  0.00    -0.082 A  
HETATM    9  N   UNL     1      -9.042  12.424  66.544  1.00  0.00    -0.208 NA 
HETATM   10  O   UNL     1      -7.894  16.562  66.286  1.00  0.00    -0.306 OA 
HETATM   11  C   UNL     1      -9.077  16.461  68.369  1.00  0.00    -0.214 C  
HETATM   12  C   UNL     1     -10.276  16.934  66.241  1.00  0.00    -0.337 C  
HETATM   13  C   UNL     1      -7.096  13.627  67.614  1.00  0.00    -0.170 C  
HETATM   14  O   UNL     1      -6.392  14.761  67.396  1.00  0.00    -0.320 OA 
HETATM   15  O   UNL     1      -6.615  12.707  68.270  1.00  0.00    -0.066 OA 
HETATM   16  H   UNL     1      -7.816  17.497  66.437  1.00  0.00     0.000 HD 
BRANCH   9  17
HETATM   17  C   UNL     1      -8.495  11.084  66.875  1.00  0.00    -0.139 C  
BRANCH  17  18
HETATM   18  C   UNL     1      -9.314  10.178  67.753  1.00  0.00    -0.153 A  
HETATM   19  C   UNL     1      -9.456  10.446  69.117  1.00  0.00    -0.220 A  
HETATM   20  C   UNL     1      -9.969   9.464  69.976  1.00  0.00    -0.253 A  
HETATM   21  C   UNL     1     -10.304   8.171  69.516  1.00  0.00    -0.222 A  
HETATM   22  C   UNL     1     -10.357   8.011  68.122  1.00  0.00    -0.250 A  
HETATM   23  C   UNL     1      -9.891   9.008  67.249  1.00  0.00    -0.252 A  
BRANCH  21  24
HETATM   24  C   UNL     1     -10.351   7.016  70.480  1.00  0.00    -0.218 A  
HETATM   25  C   UNL     1     -11.374   6.721  71.422  1.00  0.00    -0.322 A  
HETATM   26  C   UNL     1     -11.333   5.487  72.128  1.00  0.00    -0.214 A  
HETATM   27  C   UNL     1      -9.321   6.040  70.345  1.00  0.00    -0.177 A  
HETATM   28  C   UNL     1      -9.283   4.850  71.072  1.00  0.00    -0.192 A  
HETATM   29  C   UNL     1     -10.302   4.564  71.955  1.00  0.00    -0.216 A  
BRANCH  25  30
HETATM   30  C   UNL     1     -12.473   7.632  71.753  1.00  0.00    -0.329 A  
HETATM   31  N   UNL     1     -14.371   8.648  71.953  1.00  0.00    -0.423 NA 
HETATM   32  H   UNL     1     -14.192   6.778  70.919  1.00  0.00     0.000 HD 
HETATM   33  N   UNL     1     -13.502   9.436  72.567  1.00  0.00    -0.427 NA 
HETATM   34  N   UNL     1     -13.751   7.534  71.441  1.00  0.00    -0.358 NA 
HETATM   35  N   UNL     1     -12.326   8.809  72.444  1.00  0.00    -0.371 NA 
ENDBRANCH  25  30
ENDBRANCH  21  24
ENDBRANCH  17  18
ENDBRANCH   9  17
ENDBRANCH   3   4
ENDBRANCH   2   3
TORSDOF 6
ENDMDL
MODEL       86
REMARK 921   NORMALIZED FREE ENERGY PREDICTED BY IDOCK:   -6.49 KCAL/MOL
REMARK 922        TOTAL FREE ENERGY PREDICTED BY IDOCK:   -9.92 KCAL/MOL
REMARK 923 INTER-LIGAND FREE ENERGY PREDICTED BY IDOCK:   -8.56 KCAL/MOL
REMARK 924 INTRA-LIGAND FREE ENERGY PREDICTED BY IDOCK:   -1.36 KCAL/MOL
REMARK 927      BINDING AFFINITY PREDICTED BY RF-SCORE:    0.00 PKD
ROOT
HETATM    1  C   UNL     1     -11.036  12.229  64.941  1.00  0.00    -0.344 C  
HETATM    2  C   UNL     1     -10.329  11.033  64.313  1.00  0.00    -0.430 C  
ENDROOT
BRANCH   2   3
HETATM    3  C   UNL     1      -8.874  10.858  64.769  1.00  0.00    -0.111 C  
BRANCH   3   4
HETATM    4  C   UNL     1      -8.572   9.464  65.225  1.00  0.00    -0.162 A  
HETATM    5  N   UNL     1      -8.359   8.507  64.342  1.00  0.00    -0.148 NA 
HETATM    6  C   UNL     1      -8.256   7.329  65.027  1.00  0.00    -0.098 A  
HETATM    7  C   UNL     1      -8.075   6.026  64.276  1.00  0.00    -0.109 C  
HETATM    8  C   UNL     1      -8.433   7.558  66.389  1.00  0.00    -0.131 A  
HETATM    9  N   UNL     1      -8.495   8.959  66.513  1.00  0.00    -0.117 NA 
HETATM   10  O   UNL     1      -9.194   5.172  64.596  1.00  0.00    -0.343 OA 
HETATM   11  C   UNL     1      -6.801   5.286  64.705  1.00  0.00    -0.048 C  
HETATM   12  C   UNL     1      -8.036   6.205  62.750  1.00  0.00    -0.100 C  
HETATM   13  C   UNL     1      -8.510   6.634  67.496  1.00  0.00    -0.121 C  
HETATM   14  O   UNL     1      -9.024   5.425  67.173  1.00  0.00    -0.113 OA 
HETATM   15  O   UNL     1      -8.203   6.894  68.656  1.00  0.00    -0.119 OA 
HETATM   16  H   UNL     1      -9.080   4.355  64.125  1.00  0.00     0.000 HD 
BRANCH   9  17
HETATM   17  C   UNL     1      -8.512   9.608  67.848  1.00  0.00    -0.122 C  
BRANCH  17  18
HETATM   18  C   UNL     1      -9.583  10.625  68.132  1.00  0.00    -0.165 A  
HETATM   19  C   UNL     1      -9.260  11.976  68.285  1.00  0.00    -0.192 A  
HETATM   20  C   UNL     1     -10.198  12.866  68.825  1.00  0.00    -0.105 A  
HETATM   21  C   UNL     1     -11.463  12.432  69.281  1.00  0.00    -0.349 A  
HETATM   22  C   UNL     1     -11.832  11.127  68.913  1.00  0.00    -0.406 A  
HETATM   23  C   UNL     1     -10.914  10.241  68.325  1.00  0.00    -0.315 A  
BRANCH  21  24
HETATM   24  C   UNL     1     -12.222  13.248  70.292  1.00  0.00    -0.391 A  
HETATM   25  C   UNL     1     -12.374  14.661  70.318  1.00  0.00    -0.406 A  
HETATM   26  C   UNL     1     -13.275  15.245  71.251  1.00  0.00    -0.563 A  
HETATM   27  C   UNL     1     -12.979  12.517  71.253  1.00  0.00    -0.301 A  
HETATM   28  C   UNL     1     -13.832  13.113  72.181  1.00  0.00    -0.506 A  
HETATM   29  C   UNL     1     -13.995  14.482  72.169  1.00  0.00    -0.597 A  
BRANCH  25  30
HETATM   30  C   UNL     1     -11.627  15.584  69.460  1.00  0.00    -0.350 A  
HETATM   31  N   UNL     1     -10.753  16.682  67.813  1.00  0.00    -0.340 NA 
HETATM   32  H   UNL     1     -12.222  15.151  67.500  1.00  0.00     0.000 HD 
HETATM   33  N   UNL     1     -10.171  17.177  68.894  1.00  0.00    -0.317 NA 
HETATM   34  N   UNL     1     -11.650  15.695  68.145  1.00  0.00    -0.330 NA 
HETATM   35  N   UNL     1     -10.708  16.498  69.915  1.00  0.00    -0.311 NA 
ENDBRANCH  25  30
ENDBRANCH  21  24
ENDBRANCH  17  18
ENDBRANCH   9  17
ENDBRANCH   3   4
ENDBRANCH   2   3
TORSDOF 6
ENDMDL
MODEL       87
REMARK 921   NORMALIZED FREE ENERGY PREDICTED BY IDOCK:   -6.47 KCAL/MOL
REMARK 922        TOTAL FREE ENERGY PREDICTED BY IDOCK:   -9.90 KCAL/MOL
REMARK 923 INTER-LIGAND FREE ENERGY PREDICTED BY IDOCK:   -8.43 KCAL/MOL
REMARK 924 INTRA-LIGAND FREE ENERGY PREDICTED BY IDOCK:   -1.46 KCAL/MOL
REMARK 927      BINDING AFFINITY PREDICTED BY RF-SCORE:    0.00 PKD
ROOT
HETATM    1  C   UNL     1     -10.623   6.335  66.894  1.00  0.00    -0.374 C  
HETATM    2  C   UNL     1     -10.203   7.742  66.485  1.00  0.00    -0.195 C  
ENDROOT
BRANCH   2   3
HETATM    3  C   UNL     1      -9.127   8.360  67.388  1.00  0.00    -0.152 C  
BRANCH   3   4
HETATM    4  C   UNL     1      -9.563   8.472  68.817  1.00  0.00    -0.149 A  
HETATM    5  N   UNL     1      -8.913   7.821  69.763  1.00  0.00    -0.146 NA 
HETATM    6  C   UNL     1      -9.607   7.986  70.929  1.00  0.00    -0.161 A  
HETATM    7  C   UNL     1      -9.143   7.296  72.194  1.00  0.00    -0.132 C  
HETATM    8  C   UNL     1     -10.745   8.754  70.695  1.00  0.00    -0.225 A  
HETATM    9  N   UNL     1     -10.625   9.177  69.357  1.00  0.00    -0.225 NA 
HETATM   10  O   UNL     1     -10.205   6.425  72.638  1.00  0.00    -0.177 OA 
HETATM   11  C   UNL     1      -8.869   8.292  73.327  1.00  0.00    -0.283 C  
HETATM   12  C   UNL     1      -7.882   6.440  71.992  1.00  0.00    -0.100 C  
HETATM   13  C   UNL     1     -11.831   9.116  71.575  1.00  0.00    -0.358 C  
HETATM   14  O   UNL     1     -12.095   8.201  72.534  1.00  0.00    -0.365 OA 
HETATM   15  O   UNL     1     -12.520  10.127  71.467  1.00  0.00    -0.370 OA 
HETATM   16  H   UNL     1      -9.914   5.992  73.432  1.00  0.00     0.000 HD 
BRANCH   9  17
HETATM   17  C   UNL     1     -11.573  10.163  68.781  1.00  0.00     0.031 C  
BRANCH  17  18
HETATM   18  C   UNL     1     -11.013  11.426  68.187  1.00  0.00    -0.284 A  
HETATM   19  C   UNL     1      -9.829  11.981  68.679  1.00  0.00    -0.126 A  
HETATM   20  C   UNL     1      -9.465  13.288  68.326  1.00  0.00    -0.209 A  
HETATM   21  C   UNL     1     -10.293  14.101  67.520  1.00  0.00    -0.248 A  
HETATM   22  C   UNL     1     -11.352  13.445  66.871  1.00  0.00    -0.351 A  
HETATM   23  C   UNL     1     -11.695  12.118  67.180  1.00  0.00    -0.372 A  
BRANCH  21  24
HETATM   24  C   UNL     1     -10.164  15.600  67.576  1.00  0.00    -0.263 A  
HETATM   25  C   UNL     1     -10.633  16.466  68.600  1.00  0.00    -0.305 A  
HETATM   26  C   UNL     1     -10.265  17.840  68.570  1.00  0.00    -0.382 A  
HETATM   27  C   UNL     1      -9.372  16.203  66.556  1.00  0.00    -0.296 A  
HETATM   28  C   UNL     1      -9.050  17.559  66.528  1.00  0.00    -0.284 A  
HETATM   29  C   UNL     1      -9.484  18.379  67.549  1.00  0.00    -0.277 A  
BRANCH  25  30
HETATM   30  C   UNL     1     -11.518  16.047  69.689  1.00  0.00    -0.326 A  
HETATM   31  N   UNL     1     -13.109  15.235  70.910  1.00  0.00    -0.460 NA 
HETATM   32  H   UNL     1     -13.047  14.938  68.787  1.00  0.00     0.000 HD 
HETATM   33  N   UNL     1     -12.326  15.878  71.762  1.00  0.00    -0.450 NA 
HETATM   34  N   UNL     1     -12.628  15.336  69.627  1.00  0.00    -0.128 NA 
HETATM   35  N   UNL     1     -11.341  16.382  71.009  1.00  0.00    -0.295 NA 
ENDBRANCH  25  30
ENDBRANCH  21  24
ENDBRANCH  17  18
ENDBRANCH   9  17
ENDBRANCH   3   4
ENDBRANCH   2   3
TORSDOF 6
ENDMDL
MODEL       88
REMARK 921   NORMALIZED FREE ENERGY PREDICTED BY IDOCK:   -6.46 KCAL/MOL
REMARK 922        TOTAL FREE ENERGY PREDICTED BY IDOCK:   -9.88 KCAL/MOL
REMARK 923 INTER-LIGAND FREE ENERGY PREDICTED BY IDOCK:   -8.77 KCAL/MOL
REMARK 924 INTRA-LIGAND FREE ENERGY PREDICTED BY IDOCK:   -1.12 KCAL/MOL
REMARK 927      BINDING AFFINITY PREDICTED BY RF-SCORE:    0.00 PKD
ROOT
HETATM    1  C   UNL     1      -8.409   9.641  62.332  1.00  0.00    -0.161 C  
HETATM    2  C   UNL     1      -8.646  11.075  62.789  1.00  0.00    -0.205 C  
ENDROOT
BRANCH   2   3
HETATM    3  C   UNL     1      -9.987  11.288  63.505  1.00  0.00    -0.417 C  
BRANCH   3   4
HETATM    4  C   UNL     1      -9.913  11.004  64.974  1.00  0.00    -0.285 A  
HETATM    5  N   UNL     1      -8.909  10.301  65.465  1.00  0.00    -0.164 NA 
HETATM    6  C   UNL     1      -9.171  10.074  66.786  1.00  0.00    -0.148 A  
HETATM    7  C   UNL     1      -8.226   9.230  67.616  1.00  0.00    -0.115 C  
HETATM    8  C   UNL     1     -10.397  10.640  67.127  1.00  0.00    -0.228 A  
HETATM    9  N   UNL     1     -10.794  11.356  65.982  1.00  0.00    -0.272 NA 
HETATM   10  O   UNL     1      -8.968   8.096  68.113  1.00  0.00    -0.135 OA 
HETATM   11  C   UNL     1      -7.690   9.993  68.834  1.00  0.00    -0.089 C  
HETATM   12  C   UNL     1      -7.026   8.698  66.815  1.00  0.00    -0.077 C  
HETATM   13  C   UNL     1     -11.146  10.588  68.361  1.00  0.00    -0.281 C  
HETATM   14  O   UNL     1     -10.961   9.453  69.073  1.00  0.00    -0.176 OA 
HETATM   15  O   UNL     1     -11.938  11.445  68.743  1.00  0.00    -0.412 OA 
HETATM   16  H   UNL     1      -8.375   7.567  68.634  1.00  0.00     0.000 HD 
BRANCH   9  17
HETATM   17  C   UNL     1     -11.985  12.242  66.009  1.00  0.00    -0.269 C  
BRANCH  17  18
HETATM   18  C   UNL     1     -11.766  13.729  66.080  1.00  0.00    -0.383 A  
HETATM   19  C   UNL     1     -11.423  14.453  64.935  1.00  0.00    -0.386 A  
HETATM   20  C   UNL     1     -10.946  15.766  65.051  1.00  0.00    -0.431 A  
HETATM   21  C   UNL     1     -10.743  16.378  66.308  1.00  0.00    -0.161 A  
HETATM   22  C   UNL     1     -11.299  15.710  67.411  1.00  0.00    -0.163 A  
HETATM   23  C   UNL     1     -11.826  14.413  67.298  1.00  0.00    -0.434 A  
BRANCH  21  24
HETATM   24  C   UNL     1      -9.783  17.530  66.441  1.00  0.00    -0.299 A  
HETATM   25  C   UNL     1      -8.375  17.460  66.621  1.00  0.00    -0.295 A  
HETATM   26  C   UNL     1      -7.606  18.655  66.549  1.00  0.00    -0.273 A  
HETATM   27  C   UNL     1     -10.327  18.831  66.233  1.00  0.00    -0.497 A  
HETATM   28  C   UNL     1      -9.558  19.994  66.198  1.00  0.00    -0.476 A  
HETATM   29  C   UNL     1      -8.189  19.904  66.340  1.00  0.00    -0.365 A  
BRANCH  25  30
HETATM   30  C   UNL     1      -7.644  16.226  66.920  1.00  0.00    -0.244 A  
HETATM   31  N   UNL     1      -7.035  14.189  67.317  1.00  0.00    -0.168 NA 
HETATM   32  H   UNL     1      -9.051  14.682  66.778  1.00  0.00     0.000 HD 
HETATM   33  N   UNL     1      -5.939  14.909  67.498  1.00  0.00    -0.346 NA 
HETATM   34  N   UNL     1      -8.097  14.987  66.966  1.00  0.00    -0.212 NA 
HETATM   35  N   UNL     1      -6.314  16.170  67.254  1.00  0.00    -0.202 NA 
ENDBRANCH  25  30
ENDBRANCH  21  24
ENDBRANCH  17  18
ENDBRANCH   9  17
ENDBRANCH   3   4
ENDBRANCH   2   3
TORSDOF 6
ENDMDL
MODEL       89
REMARK 921   NORMALIZED FREE ENERGY PREDICTED BY IDOCK:   -6.41 KCAL/MOL
REMARK 922        TOTAL FREE ENERGY PREDICTED BY IDOCK:   -9.81 KCAL/MOL
REMARK 923 INTER-LIGAND FREE ENERGY PREDICTED BY IDOCK:   -8.07 KCAL/MOL
REMARK 924 INTRA-LIGAND FREE ENERGY PREDICTED BY IDOCK:   -1.74 KCAL/MOL
REMARK 927      BINDING AFFINITY PREDICTED BY RF-SCORE:    0.00 PKD
ROOT
HETATM    1  C   UNL     1      -6.324  10.842  69.855  1.00  0.00    -0.132 C  
HETATM    2  C   UNL     1      -7.191  10.453  68.663  1.00  0.00    -0.082 C  
ENDROOT
BRANCH   2   3
HETATM    3  C   UNL     1      -8.698  10.577  68.920  1.00  0.00    -0.154 C  
BRANCH   3   4
HETATM    4  C   UNL     1      -9.398  11.398  67.881  1.00  0.00    -0.164 A  
HETATM    5  N   UNL     1      -9.829  12.611  68.172  1.00  0.00    -0.222 NA 
HETATM    6  C   UNL     1     -10.547  13.062  67.101  1.00  0.00    -0.246 A  
HETATM    7  C   UNL     1     -11.232  14.412  67.157  1.00  0.00    -0.328 C  
HETATM    8  C   UNL     1     -10.583  12.083  66.111  1.00  0.00    -0.263 A  
HETATM    9  N   UNL     1      -9.719  11.072  66.574  1.00  0.00    -0.193 NA 
HETATM   10  O   UNL     1     -12.648  14.196  66.981  1.00  0.00    -0.539 OA 
HETATM   11  C   UNL     1     -10.769  15.342  66.029  1.00  0.00    -0.324 C  
HETATM   12  C   UNL     1     -11.027  15.141  68.496  1.00  0.00    -0.263 C  
HETATM   13  C   UNL     1     -11.287  12.045  64.851  1.00  0.00    -0.310 C  
HETATM   14  O   UNL     1     -12.453  12.731  64.848  1.00  0.00    -0.472 OA 
HETATM   15  O   UNL     1     -10.929  11.413  63.861  1.00  0.00    -0.373 OA 
HETATM   16  H   UNL     1     -13.078  15.043  67.016  1.00  0.00     0.000 HD 
BRANCH   9  17
HETATM   17  C   UNL     1      -9.359   9.920  65.710  1.00  0.00    -0.204 C  
BRANCH  17  18
HETATM   18  C   UNL     1      -9.439   8.537  66.295  1.00  0.00    -0.299 A  
HETATM   19  C   UNL     1     -10.660   8.019  66.735  1.00  0.00    -0.225 A  
HETATM   20  C   UNL     1     -10.689   6.865  67.529  1.00  0.00    -0.368 A  
HETATM   21  C   UNL     1      -9.504   6.224  67.958  1.00  0.00    -0.116 A  
HETATM   22  C   UNL     1      -8.321   6.637  67.324  1.00  0.00    -0.120 A  
HETATM   23  C   UNL     1      -8.290   7.763  66.485  1.00  0.00    -0.128 A  
BRANCH  21  24
HETATM   24  C   UNL     1      -9.521   5.347  69.181  1.00  0.00    -0.177 A  
HETATM   25  C   UNL     1      -9.873   5.722  70.505  1.00  0.00    -0.240 A  
HETATM   26  C   UNL     1     -10.001   4.715  71.501  1.00  0.00    -0.265 A  
HETATM   27  C   UNL     1      -9.283   3.958  68.963  1.00  0.00    -0.217 A  
HETATM   28  C   UNL     1      -9.382   2.991  69.963  1.00  0.00    -0.223 A  
HETATM   29  C   UNL     1      -9.760   3.368  71.235  1.00  0.00    -0.227 A  
BRANCH  25  30
HETATM   30  C   UNL     1     -10.083   7.106  70.939  1.00  0.00    -0.193 A  
HETATM   31  N   UNL     1     -10.868   9.070  71.392  1.00  0.00    -0.301 NA 
HETATM   32  H   UNL     1     -12.103   7.518  70.575  1.00  0.00     0.000 HD 
HETATM   33  N   UNL     1      -9.588   9.136  71.719  1.00  0.00    -0.305 NA 
HETATM   34  N   UNL     1     -11.188   7.826  70.903  1.00  0.00    -0.267 NA 
HETATM   35  N   UNL     1      -9.099   7.922  71.439  1.00  0.00    -0.133 NA 
ENDBRANCH  25  30
ENDBRANCH  21  24
ENDBRANCH  17  18
ENDBRANCH   9  17
ENDBRANCH   3   4
ENDBRANCH   2   3
TORSDOF 6
ENDMDL
MODEL       90
REMARK 921   NORMALIZED FREE ENERGY PREDICTED BY IDOCK:   -6.40 KCAL/MOL
REMARK 922        TOTAL FREE ENERGY PREDICTED BY IDOCK:   -9.80 KCAL/MOL
REMARK 923 INTER-LIGAND FREE ENERGY PREDICTED BY IDOCK:   -8.95 KCAL/MOL
REMARK 924 INTRA-LIGAND FREE ENERGY PREDICTED BY IDOCK:   -0.86 KCAL/MOL
REMARK 927      BINDING AFFINITY PREDICTED BY RF-SCORE:    0.00 PKD
ROOT
HETATM    1  C   UNL     1      -5.936  10.826  66.275  1.00  0.00    -0.126 C  
HETATM    2  C   UNL     1      -6.620  10.355  67.553  1.00  0.00    -0.066 C  
ENDROOT
BRANCH   2   3
HETATM    3  C   UNL     1      -7.934   9.599  67.316  1.00  0.00    -0.106 C  
BRANCH   3   4
HETATM    4  C   UNL     1      -9.031  10.485  66.809  1.00  0.00    -0.137 A  
HETATM    5  N   UNL     1      -9.218  10.635  65.511  1.00  0.00    -0.186 NA 
HETATM    6  C   UNL     1     -10.173  11.596  65.340  1.00  0.00    -0.263 A  
HETATM    7  C   UNL     1     -10.562  12.043  63.946  1.00  0.00    -0.400 C  
HETATM    8  C   UNL     1     -10.583  12.079  66.580  1.00  0.00    -0.232 A  
HETATM    9  N   UNL     1      -9.939  11.251  67.520  1.00  0.00    -0.180 NA 
HETATM   10  O   UNL     1     -10.283  13.455  63.841  1.00  0.00    -0.712 OA 
HETATM   11  C   UNL     1     -12.060  11.854  63.677  1.00  0.00    -0.580 C  
HETATM   12  C   UNL     1      -9.779  11.322  62.837  1.00  0.00    -0.351 C  
HETATM   13  C   UNL     1     -11.488  13.153  66.919  1.00  0.00    -0.341 C  
HETATM   14  O   UNL     1     -11.520  14.156  66.013  1.00  0.00    -0.327 OA 
HETATM   15  O   UNL     1     -12.146  13.221  67.953  1.00  0.00    -0.331 OA 
HETATM   16  H   UNL     1     -10.528  13.736  62.967  1.00  0.00     0.000 HD 
BRANCH   9  17
HETATM   17  C   UNL     1     -10.258  11.346  68.966  1.00  0.00    -0.117 C  
BRANCH  17  18
HETATM   18  C   UNL     1     -10.720  10.103  69.677  1.00  0.00    -0.295 A  
HETATM   19  C   UNL     1     -11.299  10.183  70.946  1.00  0.00    -0.420 A  
HETATM   20  C   UNL     1     -11.465   9.023  71.716  1.00  0.00    -0.442 A  
HETATM   21  C   UNL     1     -11.009   7.761  71.273  1.00  0.00    -0.259 A  
HETATM   22  C   UNL     1     -10.639   7.684  69.921  1.00  0.00    -0.237 A  
HETATM   23  C   UNL     1     -10.518   8.834  69.124  1.00  0.00    -0.230 A  
BRANCH  21  24
HETATM   24  C   UNL     1     -10.723   6.670  72.269  1.00  0.00    -0.250 A  
HETATM   25  C   UNL     1      -9.665   6.626  73.217  1.00  0.00    -0.189 A  
HETATM   26  C   UNL     1      -9.655   5.596  74.198  1.00  0.00    -0.155 A  
HETATM   27  C   UNL     1     -11.692   5.629  72.360  1.00  0.00    -0.240 A  
HETATM   28  C   UNL     1     -11.645   4.609  73.310  1.00  0.00    -0.274 A  
HETATM   29  C   UNL     1     -10.631   4.602  74.245  1.00  0.00    -0.328 A  
BRANCH  25  30
HETATM   30  C   UNL     1      -8.539   7.562  73.236  1.00  0.00    -0.157 A  
HETATM   31  N   UNL     1      -6.787   8.751  72.792  1.00  0.00    -0.311 NA 
HETATM   32  H   UNL     1      -7.649   7.423  71.346  1.00  0.00     0.000 HD 
HETATM   33  N   UNL     1      -7.091   9.055  74.044  1.00  0.00    -0.368 NA 
HETATM   34  N   UNL     1      -7.667   7.827  72.282  1.00  0.00    -0.093 NA 
HETATM   35  N   UNL     1      -8.174   8.320  74.322  1.00  0.00    -0.244 NA 
ENDBRANCH  25  30
ENDBRANCH  21  24
ENDBRANCH  17  18
ENDBRANCH   9  17
ENDBRANCH   3   4
ENDBRANCH   2   3
TORSDOF 6
ENDMDL
MODEL       91
REMARK 921   NORMALIZED FREE ENERGY PREDICTED BY IDOCK:   -6.39 KCAL/MOL
REMARK 922        TOTAL FREE ENERGY PREDICTED BY IDOCK:   -9.79 KCAL/MOL
REMARK 923 INTER-LIGAND FREE ENERGY PREDICTED BY IDOCK:   -8.64 KCAL/MOL
REMARK 924 INTRA-LIGAND FREE ENERGY PREDICTED BY IDOCK:   -1.15 KCAL/MOL
REMARK 927      BINDING AFFINITY PREDICTED BY RF-SCORE:    0.00 PKD
ROOT
HETATM    1  C   UNL     1     -10.667   5.516  70.079  1.00  0.00    -0.356 C  
HETATM    2  C   UNL     1     -10.412   6.136  68.710  1.00  0.00    -0.295 C  
ENDROOT
BRANCH   2   3
HETATM    3  C   UNL     1      -9.172   7.038  68.655  1.00  0.00    -0.131 C  
BRANCH   3   4
HETATM    4  C   UNL     1      -8.912   7.584  67.284  1.00  0.00    -0.124 A  
HETATM    5  N   UNL     1      -7.892   7.139  66.575  1.00  0.00    -0.103 NA 
HETATM    6  C   UNL     1      -7.809   7.904  65.446  1.00  0.00    -0.112 A  
HETATM    7  C   UNL     1      -6.687   7.677  64.453  1.00  0.00    -0.048 C  
HETATM    8  C   UNL     1      -8.804   8.878  65.463  1.00  0.00    -0.197 A  
HETATM    9  N   UNL     1      -9.593   8.567  66.587  1.00  0.00    -0.207 NA 
HETATM   10  O   UNL     1      -5.930   8.902  64.356  1.00  0.00    -0.065 OA 
HETATM   11  C   UNL     1      -7.215   7.356  63.050  1.00  0.00    -0.079 C  
HETATM   12  C   UNL     1      -5.723   6.555  64.873  1.00  0.00    -0.030 C  
HETATM   13  C   UNL     1      -9.065   9.971  64.555  1.00  0.00    -0.243 C  
HETATM   14  O   UNL     1      -7.960  10.467  63.954  1.00  0.00    -0.147 OA 
HETATM   15  O   UNL     1     -10.166  10.477  64.358  1.00  0.00    -0.346 OA 
HETATM   16  H   UNL     1      -5.226   8.760  63.734  1.00  0.00     0.000 HD 
BRANCH   9  17
HETATM   17  C   UNL     1     -10.864   9.287  66.850  1.00  0.00     0.041 C  
BRANCH  17  18
HETATM   18  C   UNL     1     -10.878  10.340  67.924  1.00  0.00    -0.337 A  
HETATM   19  C   UNL     1     -11.149   9.999  69.252  1.00  0.00    -0.248 A  
HETATM   20  C   UNL     1     -11.441  11.000  70.188  1.00  0.00    -0.383 A  
HETATM   21  C   UNL     1     -11.527  12.363  69.822  1.00  0.00    -0.220 A  
HETATM   22  C   UNL     1     -11.038  12.686  68.546  1.00  0.00    -0.300 A  
HETATM   23  C   UNL     1     -10.694  11.692  67.616  1.00  0.00    -0.249 A  
BRANCH  21  24
HETATM   24  C   UNL     1     -12.318  13.323  70.669  1.00  0.00    -0.416 A  
HETATM   25  C   UNL     1     -12.340  14.741  70.570  1.00  0.00    -0.398 A  
HETATM   26  C   UNL     1     -13.284  15.476  71.340  1.00  0.00    -0.587 A  
HETATM   27  C   UNL     1     -13.245  12.742  71.582  1.00  0.00    -0.410 A  
HETATM   28  C   UNL     1     -14.141  13.484  72.352  1.00  0.00    -0.563 A  
HETATM   29  C   UNL     1     -14.173  14.857  72.218  1.00  0.00    -0.568 A  
BRANCH  25  30
HETATM   30  C   UNL     1     -11.416  15.522  69.744  1.00  0.00    -0.331 A  
HETATM   31  N   UNL     1      -9.717  16.563  68.902  1.00  0.00    -0.248 NA 
HETATM   32  H   UNL     1      -9.557  15.402  70.699  1.00  0.00     0.000 HD 
HETATM   33  N   UNL     1     -10.721  16.842  68.086  1.00  0.00    -0.366 NA 
HETATM   34  N   UNL     1     -10.131  15.754  69.933  1.00  0.00    -0.269 NA 
HETATM   35  N   UNL     1     -11.773  16.200  68.605  1.00  0.00    -0.305 NA 
ENDBRANCH  25  30
ENDBRANCH  21  24
ENDBRANCH  17  18
ENDBRANCH   9  17
ENDBRANCH   3   4
ENDBRANCH   2   3
TORSDOF 6
ENDMDL
MODEL       92
REMARK 921   NORMALIZED FREE ENERGY PREDICTED BY IDOCK:   -6.38 KCAL/MOL
REMARK 922        TOTAL FREE ENERGY PREDICTED BY IDOCK:   -9.77 KCAL/MOL
REMARK 923 INTER-LIGAND FREE ENERGY PREDICTED BY IDOCK:   -8.33 KCAL/MOL
REMARK 924 INTRA-LIGAND FREE ENERGY PREDICTED BY IDOCK:   -1.43 KCAL/MOL
REMARK 927      BINDING AFFINITY PREDICTED BY RF-SCORE:    0.00 PKD
ROOT
HETATM    1  C   UNL     1      -8.944   9.235  64.738  1.00  0.00    -0.217 C  
HETATM    2  C   UNL     1      -8.933   9.123  66.258  1.00  0.00    -0.194 C  
ENDROOT
BRANCH   2   3
HETATM    3  C   UNL     1     -10.245   8.595  66.854  1.00  0.00    -0.367 C  
BRANCH   3   4
HETATM    4  C   UNL     1     -10.073   8.034  68.232  1.00  0.00    -0.196 A  
HETATM    5  N   UNL     1      -9.508   6.854  68.404  1.00  0.00    -0.129 NA 
HETATM    6  C   UNL     1      -9.613   6.534  69.728  1.00  0.00    -0.152 A  
HETATM    7  C   UNL     1      -9.111   5.196  70.230  1.00  0.00    -0.126 C  
HETATM    8  C   UNL     1     -10.289   7.546  70.405  1.00  0.00    -0.214 A  
HETATM    9  N   UNL     1     -10.453   8.570  69.452  1.00  0.00    -0.220 NA 
HETATM   10  O   UNL     1     -10.231   4.493  70.809  1.00  0.00    -0.194 OA 
HETATM   11  C   UNL     1      -8.054   5.353  71.331  1.00  0.00    -0.116 C  
HETATM   12  C   UNL     1      -8.521   4.313  69.119  1.00  0.00    -0.099 C  
HETATM   13  C   UNL     1     -10.728   7.628  71.778  1.00  0.00    -0.216 C  
HETATM   14  O   UNL     1     -11.033   6.434  72.334  1.00  0.00    -0.228 OA 
HETATM   15  O   UNL     1     -10.882   8.671  72.409  1.00  0.00    -0.343 OA 
HETATM   16  H   UNL     1      -9.916   3.654  71.124  1.00  0.00     0.000 HD 
BRANCH   9  17
HETATM   17  C   UNL     1     -10.989   9.897  69.842  1.00  0.00    -0.281 C  
BRANCH  17  18
HETATM   18  C   UNL     1     -10.796  11.050  68.894  1.00  0.00    -0.262 A  
HETATM   19  C   UNL     1      -9.570  11.718  68.825  1.00  0.00    -0.053 A  
HETATM   20  C   UNL     1      -9.478  12.950  68.165  1.00  0.00    -0.218 A  
HETATM   21  C   UNL     1     -10.610  13.583  67.603  1.00  0.00    -0.246 A  
HETATM   22  C   UNL     1     -11.766  12.791  67.499  1.00  0.00    -0.422 A  
HETATM   23  C   UNL     1     -11.853  11.532  68.114  1.00  0.00    -0.306 A  
BRANCH  21  24
HETATM   24  C   UNL     1     -10.608  15.071  67.375  1.00  0.00    -0.271 A  
HETATM   25  C   UNL     1     -10.923  16.087  68.317  1.00  0.00    -0.335 A  
HETATM   26  C   UNL     1     -10.695  17.448  67.973  1.00  0.00    -0.359 A  
HETATM   27  C   UNL     1     -10.111  15.514  66.115  1.00  0.00    -0.329 A  
HETATM   28  C   UNL     1      -9.926  16.857  65.786  1.00  0.00    -0.209 A  
HETATM   29  C   UNL     1     -10.203  17.828  66.725  1.00  0.00    -0.351 A  
BRANCH  25  30
HETATM   30  C   UNL     1     -11.512  15.832  69.634  1.00  0.00    -0.346 A  
HETATM   31  N   UNL     1     -12.822  15.594  71.339  1.00  0.00    -0.466 NA 
HETATM   32  H   UNL     1     -13.576  16.093  69.395  1.00  0.00     0.000 HD 
HETATM   33  N   UNL     1     -11.606  15.377  71.816  1.00  0.00    -0.396 NA 
HETATM   34  N   UNL     1     -12.780  15.882  69.996  1.00  0.00    -0.155 NA 
HETATM   35  N   UNL     1     -10.794  15.525  70.763  1.00  0.00    -0.320 NA 
ENDBRANCH  25  30
ENDBRANCH  21  24
ENDBRANCH  17  18
ENDBRANCH   9  17
ENDBRANCH   3   4
ENDBRANCH   2   3
TORSDOF 6
ENDMDL
MODEL       93
REMARK 921   NORMALIZED FREE ENERGY PREDICTED BY IDOCK:   -6.35 KCAL/MOL
REMARK 922        TOTAL FREE ENERGY PREDICTED BY IDOCK:   -9.73 KCAL/MOL
REMARK 923 INTER-LIGAND FREE ENERGY PREDICTED BY IDOCK:   -8.77 KCAL/MOL
REMARK 924 INTRA-LIGAND FREE ENERGY PREDICTED BY IDOCK:   -0.96 KCAL/MOL
REMARK 927      BINDING AFFINITY PREDICTED BY RF-SCORE:    0.00 PKD
ROOT
HETATM    1  C   UNL     1      -9.875   4.600  68.381  1.00  0.00    -0.169 C  
HETATM    2  C   UNL     1     -10.411   4.959  67.000  1.00  0.00    -0.209 C  
ENDROOT
BRANCH   2   3
HETATM    3  C   UNL     1     -10.828   6.428  66.854  1.00  0.00    -0.428 C  
BRANCH   3   4
HETATM    4  C   UNL     1      -9.667   7.372  66.931  1.00  0.00    -0.205 A  
HETATM    5  N   UNL     1      -8.951   7.634  65.854  1.00  0.00    -0.144 NA 
HETATM    6  C   UNL     1      -7.886   8.397  66.242  1.00  0.00    -0.098 A  
HETATM    7  C   UNL     1      -6.836   8.808  65.231  1.00  0.00    -0.072 C  
HETATM    8  C   UNL     1      -7.929   8.601  67.618  1.00  0.00    -0.107 A  
HETATM    9  N   UNL     1      -9.160   8.052  68.025  1.00  0.00    -0.130 NA 
HETATM   10  O   UNL     1      -5.569   8.271  65.667  1.00  0.00    -0.038 OA 
HETATM   11  C   UNL     1      -6.680  10.331  65.147  1.00  0.00    -0.120 C  
HETATM   12  C   UNL     1      -7.114   8.274  63.815  1.00  0.00    -0.081 C  
HETATM   13  C   UNL     1      -6.989   9.250  68.502  1.00  0.00    -0.067 C  
HETATM   14  O   UNL     1      -5.701   9.163  68.101  1.00  0.00    -0.038 OA 
HETATM   15  O   UNL     1      -7.279   9.794  69.565  1.00  0.00    -0.069 OA 
HETATM   16  H   UNL     1      -4.910   8.529  65.033  1.00  0.00     0.000 HD 
BRANCH   9  17
HETATM   17  C   UNL     1      -9.651   8.225  69.415  1.00  0.00    -0.171 C  
BRANCH  17  18
HETATM   18  C   UNL     1     -10.704   9.266  69.675  1.00  0.00    -0.244 A  
HETATM   19  C   UNL     1     -11.000  10.235  68.713  1.00  0.00    -0.285 A  
HETATM   20  C   UNL     1     -11.763  11.359  69.059  1.00  0.00    -0.409 A  
HETATM   21  C   UNL     1     -12.206  11.582  70.382  1.00  0.00    -0.442 A  
HETATM   22  C   UNL     1     -12.081  10.494  71.261  1.00  0.00    -0.432 A  
HETATM   23  C   UNL     1     -11.362   9.340  70.907  1.00  0.00    -0.373 A  
BRANCH  21  24
HETATM   24  C   UNL     1     -12.551  12.974  70.839  1.00  0.00    -0.364 A  
HETATM   25  C   UNL     1     -12.313  14.191  70.144  1.00  0.00    -0.413 A  
HETATM   26  C   UNL     1     -12.867  15.399  70.651  1.00  0.00    -0.484 A  
HETATM   27  C   UNL     1     -13.314  13.074  72.038  1.00  0.00    -0.588 A  
HETATM   28  C   UNL     1     -13.819  14.275  72.535  1.00  0.00    -0.575 A  
HETATM   29  C   UNL     1     -13.610  15.441  71.830  1.00  0.00    -0.596 A  
BRANCH  25  30
HETATM   30  C   UNL     1     -11.491  14.301  68.936  1.00  0.00    -0.286 A  
HETATM   31  N   UNL     1      -9.892  14.513  67.496  1.00  0.00    -0.221 NA 
HETATM   32  H   UNL     1      -9.510  14.415  69.604  1.00  0.00     0.000 HD 
HETATM   33  N   UNL     1     -10.997  14.480  66.768  1.00  0.00    -0.309 NA 
HETATM   34  N   UNL     1     -10.180  14.409  68.835  1.00  0.00    -0.230 NA 
HETATM   35  N   UNL     1     -11.989  14.350  67.657  1.00  0.00    -0.370 NA 
ENDBRANCH  25  30
ENDBRANCH  21  24
ENDBRANCH  17  18
ENDBRANCH   9  17
ENDBRANCH   3   4
ENDBRANCH   2   3
TORSDOF 6
ENDMDL
MODEL       94
REMARK 921   NORMALIZED FREE ENERGY PREDICTED BY IDOCK:   -6.35 KCAL/MOL
REMARK 922        TOTAL FREE ENERGY PREDICTED BY IDOCK:   -9.73 KCAL/MOL
REMARK 923 INTER-LIGAND FREE ENERGY PREDICTED BY IDOCK:   -8.27 KCAL/MOL
REMARK 924 INTRA-LIGAND FREE ENERGY PREDICTED BY IDOCK:   -1.46 KCAL/MOL
REMARK 927      BINDING AFFINITY PREDICTED BY RF-SCORE:    0.00 PKD
ROOT
HETATM    1  C   UNL     1     -10.459  11.655  63.425  1.00  0.00    -0.482 C  
HETATM    2  C   UNL     1      -9.567  10.420  63.444  1.00  0.00    -0.361 C  
ENDROOT
BRANCH   2   3
HETATM    3  C   UNL     1      -8.615  10.356  64.645  1.00  0.00    -0.192 C  
BRANCH   3   4
HETATM    4  C   UNL     1      -8.966   9.263  65.607  1.00  0.00    -0.199 A  
HETATM    5  N   UNL     1      -8.844   7.998  65.250  1.00  0.00    -0.031 NA 
HETATM    6  C   UNL     1      -9.365   7.233  66.254  1.00  0.00    -0.108 A  
HETATM    7  C   UNL     1      -9.431   5.727  66.108  1.00  0.00    -0.124 C  
HETATM    8  C   UNL     1      -9.849   8.054  67.269  1.00  0.00    -0.197 A  
HETATM    9  N   UNL     1      -9.456   9.354  66.899  1.00  0.00    -0.149 NA 
HETATM   10  O   UNL     1     -10.817   5.334  66.194  1.00  0.00    -0.613 OA 
HETATM   11  C   UNL     1      -8.682   5.005  67.235  1.00  0.00    -0.103 C  
HETATM   12  C   UNL     1      -8.878   5.223  64.764  1.00  0.00    -0.066 C  
HETATM   13  C   UNL     1     -10.568   7.728  68.479  1.00  0.00    -0.114 C  
HETATM   14  O   UNL     1     -11.347   6.627  68.380  1.00  0.00    -0.190 OA 
HETATM   15  O   UNL     1     -10.552   8.394  69.511  1.00  0.00    -0.227 OA 
HETATM   16  H   UNL     1     -10.858   4.390  66.102  1.00  0.00     0.000 HD 
BRANCH   9  17
HETATM   17  C   UNL     1      -9.645  10.501  67.822  1.00  0.00    -0.156 C  
BRANCH  17  18
HETATM   18  C   UNL     1      -9.847  11.868  67.229  1.00  0.00    -0.197 A  
HETATM   19  C   UNL     1      -8.763  12.728  67.036  1.00  0.00    -0.197 A  
HETATM   20  C   UNL     1      -8.982  14.084  66.756  1.00  0.00    -0.217 A  
HETATM   21  C   UNL     1     -10.282  14.636  66.715  1.00  0.00    -0.268 A  
HETATM   22  C   UNL     1     -11.340  13.713  66.693  1.00  0.00    -0.343 A  
HETATM   23  C   UNL     1     -11.126  12.344  66.922  1.00  0.00    -0.335 A  
BRANCH  21  24
HETATM   24  C   UNL     1     -10.482  16.113  66.929  1.00  0.00    -0.300 A  
HETATM   25  C   UNL     1     -10.809  16.769  68.146  1.00  0.00    -0.353 A  
HETATM   26  C   UNL     1     -10.785  18.190  68.197  1.00  0.00    -0.242 A  
HETATM   27  C   UNL     1     -10.183  16.957  65.820  1.00  0.00    -0.287 A  
HETATM   28  C   UNL     1     -10.197  18.350  65.883  1.00  0.00    -0.250 A  
HETATM   29  C   UNL     1     -10.482  18.970  67.082  1.00  0.00    -0.522 A  
BRANCH  25  30
HETATM   30  C   UNL     1     -11.216  16.075  69.371  1.00  0.00    -0.349 A  
HETATM   31  N   UNL     1     -11.315  15.101  71.300  1.00  0.00    -0.337 NA 
HETATM   32  H   UNL     1      -9.511  16.014  70.585  1.00  0.00     0.000 HD 
HETATM   33  N   UNL     1     -12.528  14.960  70.789  1.00  0.00    -0.315 NA 
HETATM   34  N   UNL     1     -10.492  15.781  70.434  1.00  0.00    -0.243 NA 
HETATM   35  N   UNL     1     -12.469  15.561  69.595  1.00  0.00    -0.203 NA 
ENDBRANCH  25  30
ENDBRANCH  21  24
ENDBRANCH  17  18
ENDBRANCH   9  17
ENDBRANCH   3   4
ENDBRANCH   2   3
TORSDOF 6
ENDMDL
MODEL       95
REMARK 921   NORMALIZED FREE ENERGY PREDICTED BY IDOCK:   -6.31 KCAL/MOL
REMARK 922        TOTAL FREE ENERGY PREDICTED BY IDOCK:   -9.67 KCAL/MOL
REMARK 923 INTER-LIGAND FREE ENERGY PREDICTED BY IDOCK:   -8.34 KCAL/MOL
REMARK 924 INTRA-LIGAND FREE ENERGY PREDICTED BY IDOCK:   -1.33 KCAL/MOL
REMARK 927      BINDING AFFINITY PREDICTED BY RF-SCORE:    0.00 PKD
ROOT
HETATM    1  C   UNL     1      -6.579  14.236  70.068  1.00  0.00    -0.088 C  
HETATM    2  C   UNL     1      -6.121  13.525  68.800  1.00  0.00    -0.086 C  
ENDROOT
BRANCH   2   3
HETATM    3  C   UNL     1      -6.291  14.357  67.522  1.00  0.00    -0.029 C  
BRANCH   3   4
HETATM    4  C   UNL     1      -7.633  15.016  67.433  1.00  0.00    -0.205 A  
HETATM    5  N   UNL     1      -7.787  16.268  67.823  1.00  0.00    -0.139 NA 
HETATM    6  C   UNL     1      -9.121  16.557  67.770  1.00  0.00    -0.204 A  
HETATM    7  C   UNL     1      -9.625  17.910  68.225  1.00  0.00    -0.312 C  
HETATM    8  C   UNL     1      -9.830  15.434  67.349  1.00  0.00    -0.216 A  
HETATM    9  N   UNL     1      -8.841  14.494  67.001  1.00  0.00    -0.227 NA 
HETATM   10  O   UNL     1     -10.547  17.695  69.314  1.00  0.00    -0.410 OA 
HETATM   11  C   UNL     1     -10.393  18.642  67.117  1.00  0.00    -0.442 C  
HETATM   12  C   UNL     1      -8.506  18.838  68.727  1.00  0.00    -0.320 C  
HETATM   13  C   UNL     1     -11.251  15.211  67.230  1.00  0.00    -0.324 C  
HETATM   14  O   UNL     1     -11.998  15.908  68.116  1.00  0.00    -0.130 OA 
HETATM   15  O   UNL     1     -11.779  14.424  66.449  1.00  0.00    -0.368 OA 
HETATM   16  H   UNL     1     -10.863  18.544  69.600  1.00  0.00     0.000 HD 
BRANCH   9  17
HETATM   17  C   UNL     1      -9.203  13.214  66.343  1.00  0.00    -0.122 C  
BRANCH  17  18
HETATM   18  C   UNL     1      -9.639  12.065  67.210  1.00  0.00    -0.185 A  
HETATM   19  C   UNL     1     -10.775  11.318  66.885  1.00  0.00    -0.319 A  
HETATM   20  C   UNL     1     -11.337  10.446  67.828  1.00  0.00    -0.205 A  
HETATM   21  C   UNL     1     -10.822  10.333  69.139  1.00  0.00    -0.270 A  
HETATM   22  C   UNL     1      -9.567  10.924  69.358  1.00  0.00     0.009 A  
HETATM   23  C   UNL     1      -8.969  11.759  68.399  1.00  0.00    -0.168 A  
BRANCH  21  24
HETATM   24  C   UNL     1     -11.698   9.825  70.253  1.00  0.00    -0.253 A  
HETATM   25  C   UNL     1     -11.647   8.547  70.874  1.00  0.00    -0.295 A  
HETATM   26  C   UNL     1     -12.438   8.306  72.031  1.00  0.00    -0.393 A  
HETATM   27  C   UNL     1     -12.590  10.772  70.836  1.00  0.00    -0.498 A  
HETATM   28  C   UNL     1     -13.382  10.503  71.952  1.00  0.00    -0.461 A  
HETATM   29  C   UNL     1     -13.293   9.270  72.563  1.00  0.00    -0.463 A  
BRANCH  25  30
HETATM   30  C   UNL     1     -10.849   7.424  70.377  1.00  0.00    -0.243 A  
HETATM   31  N   UNL     1      -9.276   6.043  69.830  1.00  0.00    -0.147 NA 
HETATM   32  H   UNL     1      -8.877   7.823  70.958  1.00  0.00     0.000 HD 
HETATM   33  N   UNL     1     -10.378   5.519  69.315  1.00  0.00    -0.250 NA 
HETATM   34  N   UNL     1      -9.549   7.221  70.483  1.00  0.00    -0.169 NA 
HETATM   35  N   UNL     1     -11.352   6.373  69.651  1.00  0.00    -0.413 NA 
ENDBRANCH  25  30
ENDBRANCH  21  24
ENDBRANCH  17  18
ENDBRANCH   9  17
ENDBRANCH   3   4
ENDBRANCH   2   3
TORSDOF 6
ENDMDL
MODEL       96
REMARK 921   NORMALIZED FREE ENERGY PREDICTED BY IDOCK:   -6.30 KCAL/MOL
REMARK 922        TOTAL FREE ENERGY PREDICTED BY IDOCK:   -9.66 KCAL/MOL
REMARK 923 INTER-LIGAND FREE ENERGY PREDICTED BY IDOCK:   -8.35 KCAL/MOL
REMARK 924 INTRA-LIGAND FREE ENERGY PREDICTED BY IDOCK:   -1.31 KCAL/MOL
REMARK 927      BINDING AFFINITY PREDICTED BY RF-SCORE:    0.00 PKD
ROOT
HETATM    1  C   UNL     1     -10.120   4.878  67.124  1.00  0.00    -0.228 C  
HETATM    2  C   UNL     1     -10.680   6.290  67.247  1.00  0.00    -0.424 C  
ENDROOT
BRANCH   2   3
HETATM    3  C   UNL     1     -11.530   6.517  68.504  1.00  0.00    -0.008 C  
BRANCH   3   4
HETATM    4  C   UNL     1     -10.702   6.730  69.734  1.00  0.00    -0.249 A  
HETATM    5  N   UNL     1     -10.939   6.026  70.825  1.00  0.00    -0.294 NA 
HETATM    6  C   UNL     1     -10.145   6.524  71.819  1.00  0.00    -0.184 A  
HETATM    7  C   UNL     1     -10.238   5.961  73.222  1.00  0.00    -0.203 C  
HETATM    8  C   UNL     1      -9.399   7.595  71.333  1.00  0.00    -0.140 A  
HETATM    9  N   UNL     1      -9.666   7.623  69.951  1.00  0.00    -0.175 NA 
HETATM   10  O   UNL     1     -10.621   7.037  74.105  1.00  0.00    -0.450 OA 
HETATM   11  C   UNL     1      -8.890   5.423  73.718  1.00  0.00    -0.124 C  
HETATM   12  C   UNL     1     -11.282   4.841  73.358  1.00  0.00    -0.425 C  
HETATM   13  C   UNL     1      -8.501   8.499  72.012  1.00  0.00    -0.165 C  
HETATM   14  O   UNL     1      -8.814   8.721  73.309  1.00  0.00    -0.280 OA 
HETATM   15  O   UNL     1      -7.558   9.085  71.487  1.00  0.00    -0.275 OA 
HETATM   16  H   UNL     1     -10.679   6.684  74.985  1.00  0.00     0.000 HD 
BRANCH   9  17
HETATM   17  C   UNL     1      -8.918   8.531  69.047  1.00  0.00    -0.146 C  
BRANCH  17  18
HETATM   18  C   UNL     1      -9.703   9.422  68.122  1.00  0.00    -0.164 A  
HETATM   19  C   UNL     1      -9.245   9.684  66.828  1.00  0.00    -0.181 A  
HETATM   20  C   UNL     1      -9.815  10.722  66.079  1.00  0.00    -0.285 A  
HETATM   21  C   UNL     1     -10.816  11.566  66.612  1.00  0.00    -0.335 A  
HETATM   22  C   UNL     1     -11.398  11.140  67.817  1.00  0.00    -0.364 A  
HETATM   23  C   UNL     1     -10.867  10.068  68.552  1.00  0.00    -0.270 A  
BRANCH  21  24
HETATM   24  C   UNL     1     -11.037  12.936  66.030  1.00  0.00    -0.308 A  
HETATM   25  C   UNL     1     -10.272  14.109  66.275  1.00  0.00    -0.301 A  
HETATM   26  C   UNL     1     -10.522  15.275  65.499  1.00  0.00    -0.396 A  
HETATM   27  C   UNL     1     -12.041  13.039  65.024  1.00  0.00    -0.470 A  
HETATM   28  C   UNL     1     -12.291  14.203  64.297  1.00  0.00    -0.398 A  
HETATM   29  C   UNL     1     -11.516  15.321  64.523  1.00  0.00    -0.318 A  
BRANCH  25  30
HETATM   30  C   UNL     1      -9.249  14.220  67.317  1.00  0.00    -0.214 A  
HETATM   31  N   UNL     1      -7.462  14.091  68.530  1.00  0.00    -0.118 NA 
HETATM   32  H   UNL     1      -7.554  13.253  66.558  1.00  0.00     0.000 HD 
HETATM   33  N   UNL     1      -8.335  14.739  69.285  1.00  0.00    -0.098 NA 
HETATM   34  N   UNL     1      -8.013  13.759  67.315  1.00  0.00    -0.154 NA 
HETATM   35  N   UNL     1      -9.442  14.819  68.537  1.00  0.00    -0.208 NA 
ENDBRANCH  25  30
ENDBRANCH  21  24
ENDBRANCH  17  18
ENDBRANCH   9  17
ENDBRANCH   3   4
ENDBRANCH   2   3
TORSDOF 6
ENDMDL
MODEL       97
REMARK 921   NORMALIZED FREE ENERGY PREDICTED BY IDOCK:   -6.28 KCAL/MOL
REMARK 922        TOTAL FREE ENERGY PREDICTED BY IDOCK:   -9.64 KCAL/MOL
REMARK 923 INTER-LIGAND FREE ENERGY PREDICTED BY IDOCK:   -8.48 KCAL/MOL
REMARK 924 INTRA-LIGAND FREE ENERGY PREDICTED BY IDOCK:   -1.17 KCAL/MOL
REMARK 927      BINDING AFFINITY PREDICTED BY RF-SCORE:    0.00 PKD
ROOT
HETATM    1  C   UNL     1     -12.785  15.396  70.891  1.00  0.00    -0.520 C  
HETATM    2  C   UNL     1     -11.435  16.077  70.704  1.00  0.00    -0.427 C  
ENDROOT
BRANCH   2   3
HETATM    3  C   UNL     1     -10.490  15.336  69.748  1.00  0.00    -0.287 C  
BRANCH   3   4
HETATM    4  C   UNL     1      -9.518  16.251  69.068  1.00  0.00    -0.258 A  
HETATM    5  N   UNL     1      -9.933  17.387  68.540  1.00  0.00    -0.311 NA 
HETATM    6  C   UNL     1      -8.879  17.940  67.869  1.00  0.00    -0.260 A  
HETATM    7  C   UNL     1      -9.061  19.229  67.094  1.00  0.00    -0.299 C  
HETATM    8  C   UNL     1      -7.769  17.104  67.964  1.00  0.00    -0.189 A  
HETATM    9  N   UNL     1      -8.159  16.089  68.859  1.00  0.00    -0.204 NA 
HETATM   10  O   UNL     1      -8.750  18.961  65.711  1.00  0.00    -0.407 OA 
HETATM   11  C   UNL     1      -8.104  20.328  67.571  1.00  0.00    -0.351 C  
HETATM   12  C   UNL     1     -10.496  19.778  67.160  1.00  0.00    -0.592 C  
HETATM   13  C   UNL     1      -6.465  17.199  67.351  1.00  0.00    -0.147 C  
HETATM   14  O   UNL     1      -6.463  17.813  66.146  1.00  0.00    -0.213 OA 
HETATM   15  O   UNL     1      -5.430  16.729  67.816  1.00  0.00    -0.110 OA 
HETATM   16  H   UNL     1      -8.864  19.769  65.225  1.00  0.00     0.000 HD 
BRANCH   9  17
HETATM   17  C   UNL     1      -7.180  15.088  69.351  1.00  0.00    -0.194 C  
BRANCH  17  18
HETATM   18  C   UNL     1      -7.222  13.703  68.766  1.00  0.00    -0.100 A  
HETATM   19  C   UNL     1      -7.769  13.481  67.500  1.00  0.00    -0.182 A  
HETATM   20  C   UNL     1      -8.065  12.177  67.080  1.00  0.00    -0.175 A  
HETATM   21  C   UNL     1      -7.879  11.061  67.927  1.00  0.00    -0.110 A  
HETATM   22  C   UNL     1      -7.131  11.294  69.093  1.00  0.00    -0.122 A  
HETATM   23  C   UNL     1      -6.785  12.594  69.497  1.00  0.00     0.027 A  
BRANCH  21  24
HETATM   24  C   UNL     1      -8.652   9.792  67.684  1.00  0.00    -0.125 A  
HETATM   25  C   UNL     1      -9.911   9.662  67.038  1.00  0.00    -0.249 A  
HETATM   26  C   UNL     1     -10.407   8.362  66.741  1.00  0.00    -0.357 A  
HETATM   27  C   UNL     1      -7.989   8.576  68.022  1.00  0.00    -0.111 A  
HETATM   28  C   UNL     1      -8.510   7.311  67.751  1.00  0.00    -0.121 A  
HETATM   29  C   UNL     1      -9.717   7.203  67.091  1.00  0.00    -0.212 A  
BRANCH  25  30
HETATM   30  C   UNL     1     -10.772  10.791  66.681  1.00  0.00    -0.207 A  
HETATM   31  N   UNL     1     -12.202  12.414  66.644  1.00  0.00    -0.497 NA 
HETATM   32  H   UNL     1     -11.769  11.328  68.442  1.00  0.00     0.000 HD 
HETATM   33  N   UNL     1     -11.766  12.322  65.397  1.00  0.00    -0.378 NA 
HETATM   34  N   UNL     1     -11.603  11.473  67.446  1.00  0.00    -0.556 NA 
HETATM   35  N   UNL     1     -10.881  11.318  65.417  1.00  0.00    -0.231 NA 
ENDBRANCH  25  30
ENDBRANCH  21  24
ENDBRANCH  17  18
ENDBRANCH   9  17
ENDBRANCH   3   4
ENDBRANCH   2   3
TORSDOF 6
ENDMDL
MODEL       98
REMARK 921   NORMALIZED FREE ENERGY PREDICTED BY IDOCK:   -6.25 KCAL/MOL
REMARK 922        TOTAL FREE ENERGY PREDICTED BY IDOCK:   -9.59 KCAL/MOL
REMARK 923 INTER-LIGAND FREE ENERGY PREDICTED BY IDOCK:   -7.96 KCAL/MOL
REMARK 924 INTRA-LIGAND FREE ENERGY PREDICTED BY IDOCK:   -1.63 KCAL/MOL
REMARK 927      BINDING AFFINITY PREDICTED BY RF-SCORE:    0.00 PKD
ROOT
HETATM    1  C   UNL     1     -11.881  14.949  69.320  1.00  0.00    -0.350 C  
HETATM    2  C   UNL     1     -11.893  13.468  69.683  1.00  0.00    -0.398 C  
ENDROOT
BRANCH   2   3
HETATM    3  C   UNL     1     -11.663  12.531  68.490  1.00  0.00    -0.369 C  
BRANCH   3   4
HETATM    4  C   UNL     1     -10.496  11.613  68.690  1.00  0.00    -0.213 A  
HETATM    5  N   UNL     1     -10.544  10.668  69.610  1.00  0.00    -0.238 NA 
HETATM    6  C   UNL     1      -9.309  10.087  69.671  1.00  0.00    -0.220 A  
HETATM    7  C   UNL     1      -9.027   9.002  70.690  1.00  0.00    -0.220 C  
HETATM    8  C   UNL     1      -8.452  10.709  68.767  1.00  0.00    -0.149 A  
HETATM    9  N   UNL     1      -9.272  11.595  68.044  1.00  0.00    -0.171 NA 
HETATM   10  O   UNL     1      -7.955   9.461  71.540  1.00  0.00    -0.298 OA 
HETATM   11  C   UNL     1      -8.559   7.699  70.030  1.00  0.00    -0.138 C  
HETATM   12  C   UNL     1     -10.236   8.680  71.584  1.00  0.00    -0.366 C  
HETATM   13  C   UNL     1      -7.039  10.522  68.532  1.00  0.00    -0.075 C  
HETATM   14  O   UNL     1      -6.341  10.142  69.625  1.00  0.00    -0.046 OA 
HETATM   15  O   UNL     1      -6.467  10.735  67.466  1.00  0.00    -0.056 OA 
HETATM   16  H   UNL     1      -7.778   8.781  72.178  1.00  0.00     0.000 HD 
BRANCH   9  17
HETATM   17  C   UNL     1      -8.750  12.327  66.863  1.00  0.00    -0.197 C  
BRANCH  17  18
HETATM   18  C   UNL     1      -8.459  13.796  67.006  1.00  0.00    -0.150 A  
HETATM   19  C   UNL     1      -9.369  14.750  66.545  1.00  0.00    -0.316 A  
HETATM   20  C   UNL     1      -8.979  16.091  66.419  1.00  0.00    -0.354 A  
HETATM   21  C   UNL     1      -7.658  16.512  66.693  1.00  0.00    -0.310 A  
HETATM   22  C   UNL     1      -6.842  15.580  67.356  1.00  0.00    -0.224 A  
HETATM   23  C   UNL     1      -7.244  14.246  67.533  1.00  0.00    -0.197 A  
BRANCH  21  24
HETATM   24  C   UNL     1      -7.129  17.782  66.082  1.00  0.00    -0.347 A  
HETATM   25  C   UNL     1      -7.638  19.097  66.255  1.00  0.00    -0.290 A  
HETATM   26  C   UNL     1      -6.902  20.200  65.740  1.00  0.00    -0.297 A  
HETATM   27  C   UNL     1      -5.907  17.671  65.356  1.00  0.00     0.209 A  
HETATM   28  C   UNL     1      -5.218  18.764  64.831  1.00  0.00    -0.223 A  
HETATM   29  C   UNL     1      -5.708  20.036  65.039  1.00  0.00    -0.223 A  
BRANCH  25  30
HETATM   30  C   UNL     1      -8.914  19.406  66.906  1.00  0.00    -0.310 A  
HETATM   31  N   UNL     1     -10.514  19.824  68.299  1.00  0.00    -0.401 NA 
HETATM   32  H   UNL     1      -8.486  19.569  68.949  1.00  0.00     0.000 HD 
HETATM   33  N   UNL     1     -11.104  19.774  67.115  1.00  0.00    -0.253 NA 
HETATM   34  N   UNL     1      -9.165  19.592  68.188  1.00  0.00    -0.341 NA 
HETATM   35  N   UNL     1     -10.116  19.515  66.251  1.00  0.00    -0.431 NA 
ENDBRANCH  25  30
ENDBRANCH  21  24
ENDBRANCH  17  18
ENDBRANCH   9  17
ENDBRANCH   3   4
ENDBRANCH   2   3
TORSDOF 6
ENDMDL
MODEL       99
REMARK 921   NORMALIZED FREE ENERGY PREDICTED BY IDOCK:   -6.23 KCAL/MOL
REMARK 922        TOTAL FREE ENERGY PREDICTED BY IDOCK:   -9.57 KCAL/MOL
REMARK 923 INTER-LIGAND FREE ENERGY PREDICTED BY IDOCK:   -8.08 KCAL/MOL
REMARK 924 INTRA-LIGAND FREE ENERGY PREDICTED BY IDOCK:   -1.49 KCAL/MOL
REMARK 927      BINDING AFFINITY PREDICTED BY RF-SCORE:    0.00 PKD
ROOT
HETATM    1  C   UNL     1     -12.395  14.527  64.217  1.00  0.00    -0.396 C  
HETATM    2  C   UNL     1     -11.259  13.513  64.279  1.00  0.00    -0.383 C  
ENDROOT
BRANCH   2   3
HETATM    3  C   UNL     1     -10.035  13.996  65.068  1.00  0.00    -0.216 C  
BRANCH   3   4
HETATM    4  C   UNL     1     -10.388  14.974  66.146  1.00  0.00    -0.299 A  
HETATM    5  N   UNL     1      -9.934  16.212  66.095  1.00  0.00    -0.313 NA 
HETATM    6  C   UNL     1     -10.284  16.830  67.263  1.00  0.00    -0.292 A  
HETATM    7  C   UNL     1      -9.844  18.253  67.534  1.00  0.00    -0.317 C  
HETATM    8  C   UNL     1     -10.966  15.934  68.083  1.00  0.00    -0.335 A  
HETATM    9  N   UNL     1     -11.147  14.785  67.289  1.00  0.00    -0.322 NA 
HETATM   10  O   UNL     1      -9.037  18.246  68.730  1.00  0.00    -0.300 OA 
HETATM   11  C   UNL     1     -11.034  19.185  67.793  1.00  0.00    -0.297 C  
HETATM   12  C   UNL     1      -9.001  18.854  66.397  1.00  0.00    -0.315 C  
HETATM   13  C   UNL     1     -11.449  16.079  69.436  1.00  0.00    -0.336 C  
HETATM   14  O   UNL     1     -10.712  16.916  70.200  1.00  0.00    -0.158 OA 
HETATM   15  O   UNL     1     -12.404  15.472  69.914  1.00  0.00    -0.357 OA 
HETATM   16  H   UNL     1      -8.761  19.139  68.900  1.00  0.00     0.000 HD 
BRANCH   9  17
HETATM   17  C   UNL     1     -11.988  13.656  67.759  1.00  0.00    -0.352 C  
BRANCH  17  18
HETATM   18  C   UNL     1     -11.324  12.331  68.016  1.00  0.00    -0.348 A  
HETATM   19  C   UNL     1     -11.539  11.250  67.157  1.00  0.00    -0.113 A  
HETATM   20  C   UNL     1     -11.158   9.958  67.545  1.00  0.00    -0.141 A  
HETATM   21  C   UNL     1     -10.606   9.694  68.819  1.00  0.00    -0.242 A  
HETATM   22  C   UNL     1     -10.206  10.819  69.559  1.00  0.00    -0.146 A  
HETATM   23  C   UNL     1     -10.538  12.122  69.153  1.00  0.00    -0.046 A  
BRANCH  21  24
HETATM   24  C   UNL     1     -10.686   8.309  69.404  1.00  0.00    -0.160 A  
HETATM   25  C   UNL     1      -9.919   7.172  69.032  1.00  0.00    -0.174 A  
HETATM   26  C   UNL     1     -10.007   5.989  69.816  1.00  0.00    -0.223 A  
HETATM   27  C   UNL     1     -11.529   8.154  70.543  1.00  0.00    -0.179 A  
HETATM   28  C   UNL     1     -11.625   6.973  71.279  1.00  0.00    -0.342 A  
HETATM   29  C   UNL     1     -10.847   5.890  70.924  1.00  0.00    -0.347 A  
BRANCH  25  30
HETATM   30  C   UNL     1      -9.054   7.115  67.851  1.00  0.00    -0.128 A  
HETATM   31  N   UNL     1      -7.434   7.253  66.425  1.00  0.00    -0.082 NA 
HETATM   32  H   UNL     1      -7.187   7.825  68.477  1.00  0.00     0.000 HD 
HETATM   33  N   UNL     1      -8.458   6.788  65.726  1.00  0.00    -0.146 NA 
HETATM   34  N   UNL     1      -7.787   7.465  67.736  1.00  0.00    -0.112 NA 
HETATM   35  N   UNL     1      -9.462   6.703  66.606  1.00  0.00    -0.161 NA 
ENDBRANCH  25  30
ENDBRANCH  21  24
ENDBRANCH  17  18
ENDBRANCH   9  17
ENDBRANCH   3   4
ENDBRANCH   2   3
TORSDOF 6
ENDMDL
MODEL      100
REMARK 921   NORMALIZED FREE ENERGY PREDICTED BY IDOCK:   -6.22 KCAL/MOL
REMARK 922        TOTAL FREE ENERGY PREDICTED BY IDOCK:   -9.56 KCAL/MOL
REMARK 923 INTER-LIGAND FREE ENERGY PREDICTED BY IDOCK:   -8.56 KCAL/MOL
REMARK 924 INTRA-LIGAND FREE ENERGY PREDICTED BY IDOCK:   -1.00 KCAL/MOL
REMARK 927      BINDING AFFINITY PREDICTED BY RF-SCORE:    0.00 PKD
ROOT
HETATM    1  C   UNL     1      -6.393  10.212  63.504  1.00  0.00    -0.138 C  
HETATM    2  C   UNL     1      -7.797   9.693  63.219  1.00  0.00    -0.135 C  
ENDROOT
BRANCH   2   3
HETATM    3  C   UNL     1      -8.648   9.472  64.477  1.00  0.00    -0.206 C  
BRANCH   3   4
HETATM    4  C   UNL     1      -9.193  10.749  65.040  1.00  0.00    -0.211 A  
HETATM    5  N   UNL     1     -10.224  11.342  64.467  1.00  0.00    -0.290 NA 
HETATM    6  C   UNL     1     -10.410  12.542  65.093  1.00  0.00    -0.289 A  
HETATM    7  C   UNL     1     -11.488  13.491  64.612  1.00  0.00    -0.358 C  
HETATM    8  C   UNL     1      -9.445  12.712  66.082  1.00  0.00    -0.175 A  
HETATM    9  N   UNL     1      -8.756  11.485  66.128  1.00  0.00    -0.168 NA 
HETATM   10  O   UNL     1     -10.847  14.722  64.216  1.00  0.00    -0.583 OA 
HETATM   11  C   UNL     1     -12.489  13.836  65.721  1.00  0.00    -0.527 C  
HETATM   12  C   UNL     1     -12.274  12.956  63.404  1.00  0.00    -0.574 C  
HETATM   13  C   UNL     1      -9.166  13.841  66.938  1.00  0.00    -0.255 C  
HETATM   14  O   UNL     1      -9.464  15.040  66.388  1.00  0.00    -0.260 OA 
HETATM   15  O   UNL     1      -8.651  13.773  68.051  1.00  0.00    -0.157 OA 
HETATM   16  H   UNL     1     -11.523  15.318  63.914  1.00  0.00     0.000 HD 
BRANCH   9  17
HETATM   17  C   UNL     1      -7.750  11.214  67.185  1.00  0.00    -0.136 C  
BRANCH  17  18
HETATM   18  C   UNL     1      -8.028  10.110  68.167  1.00  0.00    -0.104 A  
HETATM   19  C   UNL     1      -8.582   8.900  67.741  1.00  0.00    -0.125 A  
HETATM   20  C   UNL     1      -9.098   7.994  68.677  1.00  0.00    -0.140 A  
HETATM   21  C   UNL     1      -9.131   8.288  70.059  1.00  0.00    -0.150 A  
HETATM   22  C   UNL     1      -8.376   9.399  70.468  1.00  0.00    -0.233 A  
HETATM   23  C   UNL     1      -7.810  10.287  69.538  1.00  0.00    -0.172 A  
BRANCH  21  24
HETATM   24  C   UNL     1     -10.114   7.584  70.957  1.00  0.00    -0.190 A  
HETATM   25  C   UNL     1     -11.376   8.067  71.396  1.00  0.00    -0.292 A  
HETATM   26  C   UNL     1     -12.248   7.190  72.100  1.00  0.00    -0.256 A  
HETATM   27  C   UNL     1      -9.802   6.236  71.298  1.00  0.00    -0.197 A  
HETATM   28  C   UNL     1     -10.659   5.403  72.018  1.00  0.00    -0.284 A  
HETATM   29  C   UNL     1     -11.895   5.876  72.406  1.00  0.00    -0.263 A  
BRANCH  25  30
HETATM   30  C   UNL     1     -11.841   9.443  71.207  1.00  0.00    -0.360 A  
HETATM   31  N   UNL     1     -12.771  11.389  71.376  1.00  0.00    -0.403 NA 
HETATM   32  H   UNL     1     -12.935   9.918  72.928  1.00  0.00     0.000 HD 
HETATM   33  N   UNL     1     -12.177  11.401  70.192  1.00  0.00    -0.325 NA 
HETATM   34  N   UNL     1     -12.578  10.186  72.011  1.00  0.00    -0.334 NA 
HETATM   35  N   UNL     1     -11.602  10.198  70.085  1.00  0.00    -0.271 NA 
ENDBRANCH  25  30
ENDBRANCH  21  24
ENDBRANCH  17  18
ENDBRANCH   9  17
ENDBRANCH   3   4
ENDBRANCH   2   3
TORSDOF 6
ENDMDL
MODEL      101
REMARK 921   NORMALIZED FREE ENERGY PREDICTED BY IDOCK:   -6.22 KCAL/MOL
REMARK 922        TOTAL FREE ENERGY PREDICTED BY IDOCK:   -9.55 KCAL/MOL
REMARK 923 INTER-LIGAND FREE ENERGY PREDICTED BY IDOCK:   -8.08 KCAL/MOL
REMARK 924 INTRA-LIGAND FREE ENERGY PREDICTED BY IDOCK:   -1.47 KCAL/MOL
REMARK 927      BINDING AFFINITY PREDICTED BY RF-SCORE:    0.00 PKD
ROOT
HETATM    1  C   UNL     1     -13.541   9.095  72.369  1.00  0.00    -0.544 C  
HETATM    2  C   UNL     1     -12.439   8.264  71.723  1.00  0.00    -0.367 C  
ENDROOT
BRANCH   2   3
HETATM    3  C   UNL     1     -11.021   8.772  72.016  1.00  0.00    -0.438 C  
BRANCH   3   4
HETATM    4  C   UNL     1      -9.957   7.842  71.519  1.00  0.00    -0.171 A  
HETATM    5  N   UNL     1      -9.071   7.338  72.357  1.00  0.00    -0.130 NA 
HETATM    6  C   UNL     1      -8.147   6.653  71.618  1.00  0.00    -0.107 A  
HETATM    7  C   UNL     1      -6.955   6.010  72.297  1.00  0.00    -0.082 C  
HETATM    8  C   UNL     1      -8.460   6.752  70.265  1.00  0.00    -0.135 A  
HETATM    9  N   UNL     1      -9.708   7.403  70.229  1.00  0.00    -0.172 NA 
HETATM   10  O   UNL     1      -5.761   6.600  71.741  1.00  0.00    -0.035 OA 
HETATM   11  C   UNL     1      -6.884   4.502  72.030  1.00  0.00    -0.053 C  
HETATM   12  C   UNL     1      -6.931   6.232  73.818  1.00  0.00    -0.083 C  
HETATM   13  C   UNL     1      -7.744   6.288  69.099  1.00  0.00    -0.100 C  
HETATM   14  O   UNL     1      -6.401   6.258  69.250  1.00  0.00    -0.032 OA 
HETATM   15  O   UNL     1      -8.261   5.993  68.025  1.00  0.00    -0.111 OA 
HETATM   16  H   UNL     1      -5.013   6.197  72.167  1.00  0.00     0.000 HD 
BRANCH   9  17
HETATM   17  C   UNL     1     -10.459   7.545  68.958  1.00  0.00    -0.208 C  
BRANCH  17  18
HETATM   18  C   UNL     1     -10.444   8.881  68.266  1.00  0.00    -0.243 A  
HETATM   19  C   UNL     1      -9.655   9.087  67.132  1.00  0.00    -0.218 A  
HETATM   20  C   UNL     1      -9.423  10.388  66.664  1.00  0.00    -0.199 A  
HETATM   21  C   UNL     1      -9.920  11.524  67.342  1.00  0.00    -0.209 A  
HETATM   22  C   UNL     1     -10.879  11.273  68.337  1.00  0.00    -0.248 A  
HETATM   23  C   UNL     1     -11.158   9.969  68.778  1.00  0.00    -0.219 A  
BRANCH  21  24
HETATM   24  C   UNL     1      -9.262  12.864  67.151  1.00  0.00    -0.225 A  
HETATM   25  C   UNL     1      -9.810  14.009  66.510  1.00  0.00    -0.298 A  
HETATM   26  C   UNL     1      -9.109  15.245  66.580  1.00  0.00    -0.334 A  
HETATM   27  C   UNL     1      -8.005  13.047  67.796  1.00  0.00    -0.164 A  
HETATM   28  C   UNL     1      -7.319  14.261  67.824  1.00  0.00    -0.185 A  
HETATM   29  C   UNL     1      -7.882  15.370  67.228  1.00  0.00    -0.237 A  
BRANCH  25  30
HETATM   30  C   UNL     1     -11.053  14.000  65.735  1.00  0.00    -0.305 A  
HETATM   31  N   UNL     1     -13.107  14.013  65.057  1.00  0.00    -0.717 NA 
HETATM   32  H   UNL     1     -12.597  14.234  67.129  1.00  0.00     0.000 HD 
HETATM   33  N   UNL     1     -12.391  13.841  63.957  1.00  0.00    -0.679 NA 
HETATM   34  N   UNL     1     -12.296  14.107  66.163  1.00  0.00    -0.459 NA 
HETATM   35  N   UNL     1     -11.120  13.832  64.374  1.00  0.00    -0.371 NA 
ENDBRANCH  25  30
ENDBRANCH  21  24
ENDBRANCH  17  18
ENDBRANCH   9  17
ENDBRANCH   3   4
ENDBRANCH   2   3
TORSDOF 6
ENDMDL
MODEL      102
REMARK 921   NORMALIZED FREE ENERGY PREDICTED BY IDOCK:   -6.21 KCAL/MOL
REMARK 922        TOTAL FREE ENERGY PREDICTED BY IDOCK:   -9.54 KCAL/MOL
REMARK 923 INTER-LIGAND FREE ENERGY PREDICTED BY IDOCK:   -8.19 KCAL/MOL
REMARK 924 INTRA-LIGAND FREE ENERGY PREDICTED BY IDOCK:   -1.35 KCAL/MOL
REMARK 927      BINDING AFFINITY PREDICTED BY RF-SCORE:    0.00 PKD
ROOT
HETATM    1  C   UNL     1     -10.068  11.895  63.232  1.00  0.00    -0.427 C  
HETATM    2  C   UNL     1      -9.593  10.447  63.271  1.00  0.00    -0.353 C  
ENDROOT
BRANCH   2   3
HETATM    3  C   UNL     1      -8.288  10.238  64.050  1.00  0.00    -0.165 C  
BRANCH   3   4
HETATM    4  C   UNL     1      -8.234   8.914  64.748  1.00  0.00    -0.163 A  
HETATM    5  N   UNL     1      -8.237   7.794  64.049  1.00  0.00    -0.060 NA 
HETATM    6  C   UNL     1      -8.329   6.756  64.933  1.00  0.00    -0.021 A  
HETATM    7  C   UNL     1      -8.423   5.332  64.427  1.00  0.00    -0.126 C  
HETATM    8  C   UNL     1      -8.406   7.249  66.233  1.00  0.00    -0.129 A  
HETATM    9  N   UNL     1      -8.201   8.636  66.104  1.00  0.00    -0.116 NA 
HETATM   10  O   UNL     1      -9.668   4.776  64.900  1.00  0.00    -0.331 OA 
HETATM   11  C   UNL     1      -7.294   4.450  64.974  1.00  0.00    -0.072 C  
HETATM   12  C   UNL     1      -8.412   5.230  62.893  1.00  0.00    -0.096 C  
HETATM   13  C   UNL     1      -8.610   6.564  67.488  1.00  0.00    -0.119 C  
HETATM   14  O   UNL     1      -9.352   5.438  67.389  1.00  0.00    -0.111 OA 
HETATM   15  O   UNL     1      -8.215   6.961  68.581  1.00  0.00    -0.119 OA 
HETATM   16  H   UNL     1      -9.727   3.882  64.583  1.00  0.00     0.000 HD 
BRANCH   9  17
HETATM   17  C   UNL     1      -8.044   9.499  67.301  1.00  0.00    -0.110 C  
BRANCH  17  18
HETATM   18  C   UNL     1      -9.187  10.399  67.686  1.00  0.00    -0.157 A  
HETATM   19  C   UNL     1      -8.953  11.720  68.075  1.00  0.00    -0.176 A  
HETATM   20  C   UNL     1      -9.968  12.460  68.698  1.00  0.00    -0.117 A  
HETATM   21  C   UNL     1     -11.225  11.891  69.004  1.00  0.00    -0.316 A  
HETATM   22  C   UNL     1     -11.496  10.648  68.409  1.00  0.00    -0.330 A  
HETATM   23  C   UNL     1     -10.500   9.921  67.737  1.00  0.00    -0.292 A  
BRANCH  21  24
HETATM   24  C   UNL     1     -12.079  12.489  70.090  1.00  0.00    -0.368 A  
HETATM   25  C   UNL     1     -12.552  11.845  71.265  1.00  0.00    -0.383 A  
HETATM   26  C   UNL     1     -13.201  12.619  72.267  1.00  0.00    -0.465 A  
HETATM   27  C   UNL     1     -12.334  13.888  69.993  1.00  0.00    -0.378 A  
HETATM   28  C   UNL     1     -13.002  14.621  70.973  1.00  0.00    -0.419 A  
HETATM   29  C   UNL     1     -13.423  13.988  72.124  1.00  0.00    -0.567 A  
BRANCH  25  30
HETATM   30  C   UNL     1     -12.451  10.404  71.511  1.00  0.00    -0.404 A  
HETATM   31  N   UNL     1     -11.794   8.376  71.874  1.00  0.00    -0.312 NA 
HETATM   32  H   UNL     1     -10.413  10.015  71.788  1.00  0.00     0.000 HD 
HETATM   33  N   UNL     1     -13.107   8.284  71.734  1.00  0.00    -0.337 NA 
HETATM   34  N   UNL     1     -11.373   9.677  71.733  1.00  0.00    -0.271 NA 
HETATM   35  N   UNL     1     -13.516   9.538  71.508  1.00  0.00    -0.381 NA 
ENDBRANCH  25  30
ENDBRANCH  21  24
ENDBRANCH  17  18
ENDBRANCH   9  17
ENDBRANCH   3   4
ENDBRANCH   2   3
TORSDOF 6
ENDMDL
MODEL      103
REMARK 921   NORMALIZED FREE ENERGY PREDICTED BY IDOCK:   -6.20 KCAL/MOL
REMARK 922        TOTAL FREE ENERGY PREDICTED BY IDOCK:   -9.52 KCAL/MOL
REMARK 923 INTER-LIGAND FREE ENERGY PREDICTED BY IDOCK:   -8.17 KCAL/MOL
REMARK 924 INTRA-LIGAND FREE ENERGY PREDICTED BY IDOCK:   -1.36 KCAL/MOL
REMARK 927      BINDING AFFINITY PREDICTED BY RF-SCORE:    0.00 PKD
ROOT
HETATM    1  C   UNL     1     -12.149  14.210  66.867  1.00  0.00    -0.466 C  
HETATM    2  C   UNL     1     -11.690  14.079  65.420  1.00  0.00    -0.344 C  
ENDROOT
BRANCH   2   3
HETATM    3  C   UNL     1     -10.234  14.499  65.185  1.00  0.00    -0.420 C  
BRANCH   3   4
HETATM    4  C   UNL     1      -9.742  15.480  66.205  1.00  0.00    -0.302 A  
HETATM    5  N   UNL     1     -10.179  16.725  66.195  1.00  0.00    -0.340 NA 
HETATM    6  C   UNL     1      -9.464  17.422  67.128  1.00  0.00    -0.257 A  
HETATM    7  C   UNL     1      -9.692  18.909  67.307  1.00  0.00    -0.311 C  
HETATM    8  C   UNL     1      -8.529  16.583  67.728  1.00  0.00    -0.175 A  
HETATM    9  N   UNL     1      -8.818  15.301  67.222  1.00  0.00    -0.185 NA 
HETATM   10  O   UNL     1      -8.445  19.583  67.036  1.00  0.00    -0.277 OA 
HETATM   11  C   UNL     1     -10.097  19.261  68.744  1.00  0.00    -0.477 C  
HETATM   12  C   UNL     1     -10.756  19.479  66.354  1.00  0.00    -0.528 C  
HETATM   13  C   UNL     1      -7.490  16.868  68.689  1.00  0.00    -0.226 C  
HETATM   14  O   UNL     1      -6.979  18.117  68.598  1.00  0.00    -0.239 OA 
HETATM   15  O   UNL     1      -7.035  16.064  69.498  1.00  0.00    -0.207 OA 
HETATM   16  H   UNL     1      -8.588  20.515  67.149  1.00  0.00     0.000 HD 
BRANCH   9  17
HETATM   17  C   UNL     1      -8.137  14.097  67.758  1.00  0.00    -0.166 C  
BRANCH  17  18
HETATM   18  C   UNL     1      -8.821  12.765  67.609  1.00  0.00    -0.189 A  
HETATM   19  C   UNL     1      -9.852  12.393  68.475  1.00  0.00    -0.156 A  
HETATM   20  C   UNL     1     -10.287  11.061  68.518  1.00  0.00    -0.204 A  
HETATM   21  C   UNL     1      -9.674  10.050  67.744  1.00  0.00    -0.174 A  
HETATM   22  C   UNL     1      -8.802  10.494  66.737  1.00  0.00    -0.139 A  
HETATM   23  C   UNL     1      -8.398  11.836  66.652  1.00  0.00    -0.136 A  
BRANCH  21  24
HETATM   24  C   UNL     1      -9.783   8.608  68.163  1.00  0.00    -0.178 A  
HETATM   25  C   UNL     1      -9.133   7.979  69.259  1.00  0.00    -0.148 A  
HETATM   26  C   UNL     1      -9.493   6.648  69.608  1.00  0.00    -0.144 A  
HETATM   27  C   UNL     1     -10.743   7.820  67.464  1.00  0.00    -0.265 A  
HETATM   28  C   UNL     1     -11.058   6.504  67.804  1.00  0.00    -0.366 A  
HETATM   29  C   UNL     1     -10.443   5.921  68.892  1.00  0.00    -0.325 A  
BRANCH  25  30
HETATM   30  C   UNL     1      -8.067   8.600  70.049  1.00  0.00    -0.112 A  
HETATM   31  N   UNL     1      -6.891   9.696  71.497  1.00  0.00    -0.302 NA 
HETATM   32  H   UNL     1      -9.022   9.525  71.666  1.00  0.00     0.000 HD 
HETATM   33  N   UNL     1      -6.010   9.251  70.615  1.00  0.00    -0.046 NA 
HETATM   34  N   UNL     1      -8.165   9.308  71.158  1.00  0.00    -0.324 NA 
HETATM   35  N   UNL     1      -6.735   8.573  69.718  1.00  0.00    -0.039 NA 
ENDBRANCH  25  30
ENDBRANCH  21  24
ENDBRANCH  17  18
ENDBRANCH   9  17
ENDBRANCH   3   4
ENDBRANCH   2   3
TORSDOF 6
ENDMDL
MODEL      104
REMARK 921   NORMALIZED FREE ENERGY PREDICTED BY IDOCK:   -6.19 KCAL/MOL
REMARK 922        TOTAL FREE ENERGY PREDICTED BY IDOCK:   -9.52 KCAL/MOL
REMARK 923 INTER-LIGAND FREE ENERGY PREDICTED BY IDOCK:   -7.90 KCAL/MOL
REMARK 924 INTRA-LIGAND FREE ENERGY PREDICTED BY IDOCK:   -1.62 KCAL/MOL
REMARK 927      BINDING AFFINITY PREDICTED BY RF-SCORE:    0.00 PKD
ROOT
HETATM    1  C   UNL     1     -10.719   5.933  66.930  1.00  0.00    -0.395 C  
HETATM    2  C   UNL     1     -11.156   6.881  68.040  1.00  0.00    -0.179 C  
ENDROOT
BRANCH   2   3
HETATM    3  C   UNL     1     -11.305   6.209  69.412  1.00  0.00    -0.401 C  
BRANCH   3   4
HETATM    4  C   UNL     1     -10.103   6.401  70.285  1.00  0.00    -0.181 A  
HETATM    5  N   UNL     1      -9.113   5.529  70.254  1.00  0.00    -0.136 NA 
HETATM    6  C   UNL     1      -8.232   5.868  71.243  1.00  0.00    -0.123 A  
HETATM    7  C   UNL     1      -7.013   5.008  71.504  1.00  0.00    -0.053 C  
HETATM    8  C   UNL     1      -8.703   6.984  71.930  1.00  0.00    -0.124 A  
HETATM    9  N   UNL     1      -9.839   7.398  71.208  1.00  0.00    -0.177 NA 
HETATM   10  O   UNL     1      -7.094   4.529  72.863  1.00  0.00    -0.071 OA 
HETATM   11  C   UNL     1      -5.709   5.804  71.379  1.00  0.00    -0.021 C  
HETATM   12  C   UNL     1      -6.922   3.786  70.575  1.00  0.00    -0.034 C  
HETATM   13  C   UNL     1      -8.187   7.653  73.100  1.00  0.00    -0.134 C  
HETATM   14  O   UNL     1      -7.530   6.841  73.959  1.00  0.00    -0.092 OA 
HETATM   15  O   UNL     1      -8.353   8.841  73.366  1.00  0.00    -0.374 OA 
HETATM   16  H   UNL     1      -6.329   3.990  73.027  1.00  0.00     0.000 HD 
BRANCH   9  17
HETATM   17  C   UNL     1     -10.530   8.670  71.537  1.00  0.00    -0.274 C  
BRANCH  17  18
HETATM   18  C   UNL     1     -10.565   9.753  70.492  1.00  0.00    -0.376 A  
HETATM   19  C   UNL     1     -11.767  10.386  70.163  1.00  0.00    -0.394 A  
HETATM   20  C   UNL     1     -11.851  11.177  69.010  1.00  0.00    -0.418 A  
HETATM   21  C   UNL     1     -10.762  11.318  68.120  1.00  0.00    -0.244 A  
HETATM   22  C   UNL     1      -9.522  10.855  68.591  1.00  0.00    -0.192 A  
HETATM   23  C   UNL     1      -9.418  10.103  69.773  1.00  0.00    -0.201 A  
BRANCH  21  24
HETATM   24  C   UNL     1     -11.003  11.713  66.688  1.00  0.00    -0.349 A  
HETATM   25  C   UNL     1     -10.437  11.125  65.525  1.00  0.00    -0.317 A  
HETATM   26  C   UNL     1     -10.918  11.515  64.245  1.00  0.00    -0.406 A  
HETATM   27  C   UNL     1     -12.009  12.700  66.467  1.00  0.00    -0.401 A  
HETATM   28  C   UNL     1     -12.442  13.092  65.201  1.00  0.00    -0.552 A  
HETATM   29  C   UNL     1     -11.907  12.484  64.084  1.00  0.00    -0.487 A  
BRANCH  25  30
HETATM   30  C   UNL     1      -9.343  10.150  65.547  1.00  0.00    -0.207 A  
HETATM   31  N   UNL     1      -8.097   8.395  65.759  1.00  0.00    -0.111 NA 
HETATM   32  H   UNL     1     -10.208   8.335  66.129  1.00  0.00     0.000 HD 
HETATM   33  N   UNL     1      -7.263   9.358  65.398  1.00  0.00    -0.090 NA 
HETATM   34  N   UNL     1      -9.382   8.869  65.862  1.00  0.00    -0.234 NA 
HETATM   35  N   UNL     1      -8.032  10.445  65.267  1.00  0.00    -0.152 NA 
ENDBRANCH  25  30
ENDBRANCH  21  24
ENDBRANCH  17  18
ENDBRANCH   9  17
ENDBRANCH   3   4
ENDBRANCH   2   3
TORSDOF 6
ENDMDL
MODEL      105
REMARK 921   NORMALIZED FREE ENERGY PREDICTED BY IDOCK:   -6.19 KCAL/MOL
REMARK 922        TOTAL FREE ENERGY PREDICTED BY IDOCK:   -9.52 KCAL/MOL
REMARK 923 INTER-LIGAND FREE ENERGY PREDICTED BY IDOCK:   -8.44 KCAL/MOL
REMARK 924 INTRA-LIGAND FREE ENERGY PREDICTED BY IDOCK:   -1.08 KCAL/MOL
REMARK 927      BINDING AFFINITY PREDICTED BY RF-SCORE:    0.00 PKD
ROOT
HETATM    1  C   UNL     1     -12.810   8.668  72.333  1.00  0.00    -0.413 C  
HETATM    2  C   UNL     1     -13.120   9.937  71.548  1.00  0.00    -0.516 C  
ENDROOT
BRANCH   2   3
HETATM    3  C   UNL     1     -12.075  10.281  70.479  1.00  0.00    -0.401 C  
BRANCH   3   4
HETATM    4  C   UNL     1     -11.898  11.757  70.294  1.00  0.00    -0.295 A  
HETATM    5  N   UNL     1     -12.452  12.604  71.141  1.00  0.00    -0.310 NA 
HETATM    6  C   UNL     1     -12.253  13.865  70.653  1.00  0.00    -0.373 A  
HETATM    7  C   UNL     1     -12.837  15.061  71.376  1.00  0.00    -0.359 C  
HETATM    8  C   UNL     1     -11.565  13.800  69.445  1.00  0.00    -0.310 A  
HETATM    9  N   UNL     1     -11.220  12.442  69.300  1.00  0.00    -0.229 NA 
HETATM   10  O   UNL     1     -13.735  15.732  70.467  1.00  0.00    -0.743 OA 
HETATM   11  C   UNL     1     -11.758  16.074  71.780  1.00  0.00    -0.593 C  
HETATM   12  C   UNL     1     -13.634  14.680  72.635  1.00  0.00    -0.571 C  
HETATM   13  C   UNL     1     -11.208  14.840  68.509  1.00  0.00    -0.276 C  
HETATM   14  O   UNL     1     -12.076  15.877  68.477  1.00  0.00    -0.208 OA 
HETATM   15  O   UNL     1     -10.246  14.805  67.747  1.00  0.00    -0.230 OA 
HETATM   16  H   UNL     1     -14.101  16.482  70.920  1.00  0.00     0.000 HD 
BRANCH   9  17
HETATM   17  C   UNL     1     -10.324  11.995  68.204  1.00  0.00    -0.198 C  
BRANCH  17  18
HETATM   18  C   UNL     1     -10.056  10.522  68.060  1.00  0.00    -0.190 A  
HETATM   19  C   UNL     1      -8.971   9.929  68.712  1.00  0.00    -0.140 A  
HETATM   20  C   UNL     1      -8.558   8.638  68.356  1.00  0.00    -0.135 A  
HETATM   21  C   UNL     1      -9.172   7.921  67.304  1.00  0.00    -0.167 A  
HETATM   22  C   UNL     1     -10.382   8.450  66.827  1.00  0.00    -0.357 A  
HETATM   23  C   UNL     1     -10.833   9.723  67.215  1.00  0.00    -0.247 A  
BRANCH  21  24
HETATM   24  C   UNL     1      -8.426   6.814  66.609  1.00  0.00    -0.120 A  
HETATM   25  C   UNL     1      -8.268   5.472  67.051  1.00  0.00    -0.105 A  
HETATM   26  C   UNL     1      -7.679   4.518  66.176  1.00  0.00    -0.094 A  
HETATM   27  C   UNL     1      -7.935   7.107  65.304  1.00  0.00    -0.127 A  
HETATM   28  C   UNL     1      -7.330   6.163  64.475  1.00  0.00    -0.069 A  
HETATM   29  C   UNL     1      -7.217   4.858  64.906  1.00  0.00    -0.063 A  
BRANCH  25  30
HETATM   30  C   UNL     1      -8.642   4.997  68.386  1.00  0.00    -0.097 A  
HETATM   31  N   UNL     1      -9.674   4.332  70.167  1.00  0.00    -0.202 NA 
HETATM   32  H   UNL     1     -10.719   4.741  68.339  1.00  0.00     0.000 HD 
HETATM   33  N   UNL     1      -8.401   4.403  70.522  1.00  0.00    -0.073 NA 
HETATM   34  N   UNL     1      -9.840   4.702  68.854  1.00  0.00    -0.164 NA 
HETATM   35  N   UNL     1      -7.760   4.815  69.422  1.00  0.00    -0.063 NA 
ENDBRANCH  25  30
ENDBRANCH  21  24
ENDBRANCH  17  18
ENDBRANCH   9  17
ENDBRANCH   3   4
ENDBRANCH   2   3
TORSDOF 6
ENDMDL
MODEL      106
REMARK 921   NORMALIZED FREE ENERGY PREDICTED BY IDOCK:   -6.16 KCAL/MOL
REMARK 922        TOTAL FREE ENERGY PREDICTED BY IDOCK:   -9.48 KCAL/MOL
REMARK 923 INTER-LIGAND FREE ENERGY PREDICTED BY IDOCK:   -8.39 KCAL/MOL
REMARK 924 INTRA-LIGAND FREE ENERGY PREDICTED BY IDOCK:   -1.09 KCAL/MOL
REMARK 927      BINDING AFFINITY PREDICTED BY RF-SCORE:    0.00 PKD
ROOT
HETATM    1  C   UNL     1     -13.445  15.208  71.198  1.00  0.00    -0.533 C  
HETATM    2  C   UNL     1     -12.149  14.709  70.571  1.00  0.00    -0.388 C  
ENDROOT
BRANCH   2   3
HETATM    3  C   UNL     1     -12.125  14.787  69.039  1.00  0.00    -0.256 C  
BRANCH   3   4
HETATM    4  C   UNL     1     -10.963  15.574  68.515  1.00  0.00    -0.288 A  
HETATM    5  N   UNL     1     -11.095  16.862  68.256  1.00  0.00    -0.299 NA 
HETATM    6  C   UNL     1      -9.939  17.283  67.661  1.00  0.00    -0.297 A  
HETATM    7  C   UNL     1      -9.808  18.714  67.182  1.00  0.00    -0.314 C  
HETATM    8  C   UNL     1      -9.061  16.211  67.526  1.00  0.00    -0.203 A  
HETATM    9  N   UNL     1      -9.681  15.148  68.209  1.00  0.00    -0.215 NA 
HETATM   10  O   UNL     1      -9.569  18.683  65.759  1.00  0.00    -0.440 OA 
HETATM   11  C   UNL     1      -8.617  19.432  67.828  1.00  0.00    -0.349 C  
HETATM   12  C   UNL     1     -11.070  19.556  67.432  1.00  0.00    -0.269 C  
HETATM   13  C   UNL     1      -7.771  16.129  66.881  1.00  0.00    -0.249 C  
HETATM   14  O   UNL     1      -7.622  16.968  65.831  1.00  0.00    -0.354 OA 
HETATM   15  O   UNL     1      -6.878  15.342  67.186  1.00  0.00    -0.244 OA 
HETATM   16  H   UNL     1      -9.487  19.580  65.458  1.00  0.00     0.000 HD 
BRANCH   9  17
HETATM   17  C   UNL     1      -8.970  13.865  68.433  1.00  0.00    -0.178 C  
BRANCH  17  18
HETATM   18  C   UNL     1      -9.564  12.610  67.854  1.00  0.00    -0.211 A  
HETATM   19  C   UNL     1     -10.230  11.695  68.672  1.00  0.00    -0.215 A  
HETATM   20  C   UNL     1     -10.528  10.411  68.194  1.00  0.00    -0.221 A  
HETATM   21  C   UNL     1     -10.123   9.981  66.910  1.00  0.00    -0.287 A  
HETATM   22  C   UNL     1      -9.657  10.985  66.046  1.00  0.00    -0.249 A  
HETATM   23  C   UNL     1      -9.403  12.289  66.502  1.00  0.00    -0.230 A  
BRANCH  21  24
HETATM   24  C   UNL     1      -9.983   8.511  66.616  1.00  0.00    -0.363 A  
HETATM   25  C   UNL     1      -8.978   7.882  65.833  1.00  0.00    -0.166 A  
HETATM   26  C   UNL     1      -8.904   6.462  65.810  1.00  0.00    -0.111 A  
HETATM   27  C   UNL     1     -10.881   7.643  67.303  1.00  0.00    -0.263 A  
HETATM   28  C   UNL     1     -10.811   6.252  67.240  1.00  0.00    -0.457 A  
HETATM   29  C   UNL     1      -9.807   5.657  66.504  1.00  0.00    -0.195 A  
BRANCH  25  30
HETATM   30  C   UNL     1      -8.013   8.604  65.000  1.00  0.00    -0.131 A  
HETATM   31  N   UNL     1      -6.945   9.595  63.402  1.00  0.00    -0.104 NA 
HETATM   32  H   UNL     1      -8.933   8.836  63.134  1.00  0.00     0.000 HD 
HETATM   33  N   UNL     1      -6.103   9.601  64.423  1.00  0.00    -0.083 NA 
HETATM   34  N   UNL     1      -8.125   8.978  63.740  1.00  0.00    -0.155 NA 
HETATM   35  N   UNL     1      -6.761   8.987  65.413  1.00  0.00    -0.071 NA 
ENDBRANCH  25  30
ENDBRANCH  21  24
ENDBRANCH  17  18
ENDBRANCH   9  17
ENDBRANCH   3   4
ENDBRANCH   2   3
TORSDOF 6
ENDMDL
MODEL      107
REMARK 921   NORMALIZED FREE ENERGY PREDICTED BY IDOCK:   -6.14 KCAL/MOL
REMARK 922        TOTAL FREE ENERGY PREDICTED BY IDOCK:   -9.45 KCAL/MOL
REMARK 923 INTER-LIGAND FREE ENERGY PREDICTED BY IDOCK:   -7.83 KCAL/MOL
REMARK 924 INTRA-LIGAND FREE ENERGY PREDICTED BY IDOCK:   -1.62 KCAL/MOL
REMARK 927      BINDING AFFINITY PREDICTED BY RF-SCORE:    0.00 PKD
ROOT
HETATM    1  C   UNL     1      -6.097   7.019  66.985  1.00  0.00    -0.036 C  
HETATM    2  C   UNL     1      -7.094   7.542  68.012  1.00  0.00    -0.084 C  
ENDROOT
BRANCH   2   3
HETATM    3  C   UNL     1      -7.809   6.439  68.805  1.00  0.00    -0.109 C  
BRANCH   3   4
HETATM    4  C   UNL     1      -8.272   6.901  70.153  1.00  0.00    -0.133 A  
HETATM    5  N   UNL     1      -7.450   6.868  71.185  1.00  0.00    -0.081 NA 
HETATM    6  C   UNL     1      -8.170   7.201  72.297  1.00  0.00    -0.101 A  
HETATM    7  C   UNL     1      -7.513   7.186  73.662  1.00  0.00    -0.082 C  
HETATM    8  C   UNL     1      -9.498   7.431  71.947  1.00  0.00    -0.144 A  
HETATM    9  N   UNL     1      -9.515   7.371  70.540  1.00  0.00    -0.162 NA 
HETATM   10  O   UNL     1      -8.223   6.236  74.484  1.00  0.00    -0.121 OA 
HETATM   11  C   UNL     1      -7.603   8.549  74.360  1.00  0.00    -0.208 C  
HETATM   12  C   UNL     1      -6.035   6.765  73.619  1.00  0.00    -0.059 C  
HETATM   13  C   UNL     1     -10.652   7.712  72.769  1.00  0.00    -0.325 C  
HETATM   14  O   UNL     1     -10.601   7.158  74.002  1.00  0.00    -0.317 OA 
HETATM   15  O   UNL     1     -11.641   8.343  72.406  1.00  0.00    -0.367 OA 
HETATM   16  H   UNL     1      -7.811   6.227  75.340  1.00  0.00     0.000 HD 
BRANCH   9  17
HETATM   17  C   UNL     1     -10.734   7.734  69.776  1.00  0.00    -0.236 C  
BRANCH  17  18
HETATM   18  C   UNL     1     -10.765   9.063  69.071  1.00  0.00    -0.163 A  
HETATM   19  C   UNL     1     -10.283   9.188  67.766  1.00  0.00    -0.278 A  
HETATM   20  C   UNL     1     -10.050  10.458  67.221  1.00  0.00    -0.244 A  
HETATM   21  C   UNL     1     -10.234  11.639  67.976  1.00  0.00    -0.202 A  
HETATM   22  C   UNL     1     -10.919  11.488  69.192  1.00  0.00    -0.276 A  
HETATM   23  C   UNL     1     -11.204  10.219  69.724  1.00  0.00    -0.339 A  
BRANCH  21  24
HETATM   24  C   UNL     1      -9.515  12.903  67.587  1.00  0.00    -0.197 A  
HETATM   25  C   UNL     1      -9.969  13.911  66.693  1.00  0.00    -0.279 A  
HETATM   26  C   UNL     1      -9.232  15.122  66.582  1.00  0.00    -0.298 A  
HETATM   27  C   UNL     1      -8.307  13.183  68.289  1.00  0.00    -0.152 A  
HETATM   28  C   UNL     1      -7.582  14.365  68.140  1.00  0.00    -0.128 A  
HETATM   29  C   UNL     1      -8.056  15.347  67.296  1.00  0.00    -0.228 A  
BRANCH  25  30
HETATM   30  C   UNL     1     -11.145  13.775  65.831  1.00  0.00    -0.286 A  
HETATM   31  N   UNL     1     -13.135  13.730  64.983  1.00  0.00    -0.737 NA 
HETATM   32  H   UNL     1     -12.769  14.438  66.975  1.00  0.00     0.000 HD 
HETATM   33  N   UNL     1     -12.352  13.247  64.031  1.00  0.00    -0.636 NA 
HETATM   34  N   UNL     1     -12.406  14.055  66.102  1.00  0.00    -0.466 NA 
HETATM   35  N   UNL     1     -11.121  13.273  64.554  1.00  0.00    -0.354 NA 
ENDBRANCH  25  30
ENDBRANCH  21  24
ENDBRANCH  17  18
ENDBRANCH   9  17
ENDBRANCH   3   4
ENDBRANCH   2   3
TORSDOF 6
ENDMDL
MODEL      108
REMARK 921   NORMALIZED FREE ENERGY PREDICTED BY IDOCK:   -6.13 KCAL/MOL
REMARK 922        TOTAL FREE ENERGY PREDICTED BY IDOCK:   -9.43 KCAL/MOL
REMARK 923 INTER-LIGAND FREE ENERGY PREDICTED BY IDOCK:   -7.80 KCAL/MOL
REMARK 924 INTRA-LIGAND FREE ENERGY PREDICTED BY IDOCK:   -1.63 KCAL/MOL
REMARK 927      BINDING AFFINITY PREDICTED BY RF-SCORE:    0.00 PKD
ROOT
HETATM    1  C   UNL     1      -5.452  12.442  69.681  1.00  0.00    -0.085 C  
HETATM    2  C   UNL     1      -6.910  12.260  69.277  1.00  0.00    -0.039 C  
ENDROOT
BRANCH   2   3
HETATM    3  C   UNL     1      -7.107  11.902  67.798  1.00  0.00    -0.103 C  
BRANCH   3   4
HETATM    4  C   UNL     1      -8.313  12.559  67.198  1.00  0.00    -0.179 A  
HETATM    5  N   UNL     1      -8.411  13.875  67.175  1.00  0.00    -0.185 NA 
HETATM    6  C   UNL     1      -9.658  14.188  66.712  1.00  0.00    -0.282 A  
HETATM    7  C   UNL     1     -10.099  15.635  66.633  1.00  0.00    -0.273 C  
HETATM    8  C   UNL     1     -10.372  13.021  66.456  1.00  0.00    -0.274 A  
HETATM    9  N   UNL     1      -9.441  11.981  66.641  1.00  0.00    -0.211 NA 
HETATM   10  O   UNL     1     -11.262  15.788  67.474  1.00  0.00    -0.308 OA 
HETATM   11  C   UNL     1     -10.509  16.036  65.211  1.00  0.00    -0.384 C  
HETATM   12  C   UNL     1      -9.027  16.624  67.122  1.00  0.00    -0.225 C  
HETATM   13  C   UNL     1     -11.746  12.829  66.053  1.00  0.00    -0.418 C  
HETATM   14  O   UNL     1     -12.591  13.786  66.496  1.00  0.00    -0.362 OA 
HETATM   15  O   UNL     1     -12.166  11.868  65.414  1.00  0.00    -0.377 OA 
HETATM   16  H   UNL     1     -11.539  16.696  67.425  1.00  0.00     0.000 HD 
BRANCH   9  17
HETATM   17  C   UNL     1      -9.784  10.579  66.295  1.00  0.00    -0.205 C  
BRANCH  17  18
HETATM   18  C   UNL     1     -10.317   9.686  67.381  1.00  0.00    -0.306 A  
HETATM   19  C   UNL     1     -10.704  10.218  68.614  1.00  0.00    -0.255 A  
HETATM   20  C   UNL     1     -10.926   9.370  69.707  1.00  0.00    -0.234 A  
HETATM   21  C   UNL     1     -10.717   7.975  69.623  1.00  0.00    -0.207 A  
HETATM   22  C   UNL     1     -10.546   7.457  68.329  1.00  0.00    -0.204 A  
HETATM   23  C   UNL     1     -10.373   8.298  67.217  1.00  0.00    -0.372 A  
BRANCH  21  24
HETATM   24  C   UNL     1     -10.457   7.174  70.871  1.00  0.00    -0.225 A  
HETATM   25  C   UNL     1      -9.338   7.277  71.742  1.00  0.00    -0.161 A  
HETATM   26  C   UNL     1      -9.347   6.561  72.971  1.00  0.00    -0.145 A  
HETATM   27  C   UNL     1     -11.508   6.311  71.297  1.00  0.00    -0.352 A  
HETATM   28  C   UNL     1     -11.481   5.592  72.492  1.00  0.00    -0.335 A  
HETATM   29  C   UNL     1     -10.404   5.731  73.342  1.00  0.00    -0.242 A  
BRANCH  25  30
HETATM   30  C   UNL     1      -8.132   8.053  71.443  1.00  0.00    -0.107 A  
HETATM   31  N   UNL     1      -6.357   8.923  70.564  1.00  0.00    -0.040 NA 
HETATM   32  H   UNL     1      -7.562   7.498  69.506  1.00  0.00     0.000 HD 
HETATM   33  N   UNL     1      -6.434   9.462  71.771  1.00  0.00    -0.297 NA 
HETATM   34  N   UNL     1      -7.394   8.047  70.349  1.00  0.00    -0.062 NA 
HETATM   35  N   UNL     1      -7.531   8.925  72.317  1.00  0.00    -0.344 NA 
ENDBRANCH  25  30
ENDBRANCH  21  24
ENDBRANCH  17  18
ENDBRANCH   9  17
ENDBRANCH   3   4
ENDBRANCH   2   3
TORSDOF 6
ENDMDL
MODEL      109
REMARK 921   NORMALIZED FREE ENERGY PREDICTED BY IDOCK:   -6.12 KCAL/MOL
REMARK 922        TOTAL FREE ENERGY PREDICTED BY IDOCK:   -9.41 KCAL/MOL
REMARK 923 INTER-LIGAND FREE ENERGY PREDICTED BY IDOCK:   -8.43 KCAL/MOL
REMARK 924 INTRA-LIGAND FREE ENERGY PREDICTED BY IDOCK:   -0.98 KCAL/MOL
REMARK 927      BINDING AFFINITY PREDICTED BY RF-SCORE:    0.00 PKD
ROOT
HETATM    1  C   UNL     1     -10.875   6.774  67.171  1.00  0.00    -0.462 C  
HETATM    2  C   UNL     1     -11.001   5.874  68.394  1.00  0.00    -0.264 C  
ENDROOT
BRANCH   2   3
HETATM    3  C   UNL     1     -11.257   6.632  69.704  1.00  0.00    -0.397 C  
BRANCH   3   4
HETATM    4  C   UNL     1     -10.105   6.549  70.658  1.00  0.00    -0.185 A  
HETATM    5  N   UNL     1      -9.651   5.373  71.051  1.00  0.00    -0.166 NA 
HETATM    6  C   UNL     1      -8.711   5.595  72.017  1.00  0.00    -0.134 A  
HETATM    7  C   UNL     1      -8.048   4.428  72.717  1.00  0.00    -0.094 C  
HETATM    8  C   UNL     1      -8.588   6.963  72.249  1.00  0.00    -0.119 A  
HETATM    9  N   UNL     1      -9.392   7.569  71.265  1.00  0.00    -0.150 NA 
HETATM   10  O   UNL     1      -8.341   4.534  74.126  1.00  0.00    -0.101 OA 
HETATM   11  C   UNL     1      -6.522   4.455  72.566  1.00  0.00    -0.022 C  
HETATM   12  C   UNL     1      -8.556   3.060  72.229  1.00  0.00    -0.089 C  
HETATM   13  C   UNL     1      -7.809   7.684  73.228  1.00  0.00    -0.116 C  
HETATM   14  O   UNL     1      -7.616   7.012  74.385  1.00  0.00    -0.110 OA 
HETATM   15  O   UNL     1      -7.388   8.829  73.091  1.00  0.00    -0.356 OA 
HETATM   16  H   UNL     1      -7.925   3.801  74.566  1.00  0.00     0.000 HD 
BRANCH   9  17
HETATM   17  C   UNL     1      -9.391   9.041  71.078  1.00  0.00    -0.271 C  
BRANCH  17  18
HETATM   18  C   UNL     1     -10.101   9.609  69.879  1.00  0.00    -0.279 A  
HETATM   19  C   UNL     1      -9.423   9.797  68.672  1.00  0.00    -0.151 A  
HETATM   20  C   UNL     1      -9.996  10.577  67.659  1.00  0.00    -0.202 A  
HETATM   21  C   UNL     1     -11.232  11.239  67.835  1.00  0.00    -0.353 A  
HETATM   22  C   UNL     1     -11.978  10.854  68.960  1.00  0.00    -0.322 A  
HETATM   23  C   UNL     1     -11.433  10.030  69.959  1.00  0.00    -0.310 A  
BRANCH  21  24
HETATM   24  C   UNL     1     -11.572  12.440  66.993  1.00  0.00    -0.434 A  
HETATM   25  C   UNL     1     -11.585  13.801  67.400  1.00  0.00    -0.393 A  
HETATM   26  C   UNL     1     -11.760  14.817  66.420  1.00  0.00    -0.268 A  
HETATM   27  C   UNL     1     -11.776  12.197  65.603  1.00  0.00    -0.385 A  
HETATM   28  C   UNL     1     -11.979  13.208  64.664  1.00  0.00    -0.439 A  
HETATM   29  C   UNL     1     -11.953  14.525  65.071  1.00  0.00    -0.399 A  
BRANCH  25  30
HETATM   30  C   UNL     1     -11.467  14.244  68.792  1.00  0.00    -0.296 A  
HETATM   31  N   UNL     1     -11.698  14.584  70.915  1.00  0.00    -0.284 NA 
HETATM   32  H   UNL     1     -12.901  13.155  69.860  1.00  0.00     0.000 HD 
HETATM   33  N   UNL     1     -10.739  15.416  70.544  1.00  0.00    -0.301 NA 
HETATM   34  N   UNL     1     -12.162  13.858  69.845  1.00  0.00    -0.336 NA 
HETATM   35  N   UNL     1     -10.594  15.209  69.230  1.00  0.00    -0.243 NA 
ENDBRANCH  25  30
ENDBRANCH  21  24
ENDBRANCH  17  18
ENDBRANCH   9  17
ENDBRANCH   3   4
ENDBRANCH   2   3
TORSDOF 6
ENDMDL
MODEL      110
REMARK 921   NORMALIZED FREE ENERGY PREDICTED BY IDOCK:   -6.11 KCAL/MOL
REMARK 922        TOTAL FREE ENERGY PREDICTED BY IDOCK:   -9.41 KCAL/MOL
REMARK 923 INTER-LIGAND FREE ENERGY PREDICTED BY IDOCK:   -8.04 KCAL/MOL
REMARK 924 INTRA-LIGAND FREE ENERGY PREDICTED BY IDOCK:   -1.37 KCAL/MOL
REMARK 927      BINDING AFFINITY PREDICTED BY RF-SCORE:    0.00 PKD
ROOT
HETATM    1  C   UNL     1      -7.976   7.425  66.487  1.00  0.00    -0.111 C  
HETATM    2  C   UNL     1      -8.827   8.677  66.309  1.00  0.00    -0.187 C  
ENDROOT
BRANCH   2   3
HETATM    3  C   UNL     1      -9.989   8.788  67.304  1.00  0.00    -0.281 C  
BRANCH   3   4
HETATM    4  C   UNL     1     -10.577  10.165  67.358  1.00  0.00    -0.272 A  
HETATM    5  N   UNL     1     -10.728  10.867  66.251  1.00  0.00    -0.217 NA 
HETATM    6  C   UNL     1     -11.143  12.119  66.609  1.00  0.00    -0.306 A  
HETATM    7  C   UNL     1     -11.341  13.186  65.553  1.00  0.00    -0.299 C  
HETATM    8  C   UNL     1     -11.235  12.206  67.996  1.00  0.00    -0.264 A  
HETATM    9  N   UNL     1     -11.003  10.895  68.455  1.00  0.00    -0.210 NA 
HETATM   10  O   UNL     1     -10.450  14.280  65.858  1.00  0.00    -0.287 OA 
HETATM   11  C   UNL     1     -12.769  13.746  65.559  1.00  0.00    -0.530 C  
HETATM   12  C   UNL     1     -11.022  12.698  64.130  1.00  0.00    -0.427 C  
HETATM   13  C   UNL     1     -11.531  13.333  68.849  1.00  0.00    -0.298 C  
HETATM   14  O   UNL     1     -11.137  14.525  68.349  1.00  0.00    -0.240 OA 
HETATM   15  O   UNL     1     -12.042  13.259  69.964  1.00  0.00    -0.322 OA 
HETATM   16  H   UNL     1     -10.575  14.950  65.196  1.00  0.00     0.000 HD 
BRANCH   9  17
HETATM   17  C   UNL     1     -11.183  10.545  69.886  1.00  0.00    -0.307 C  
BRANCH  17  18
HETATM   18  C   UNL     1     -10.861   9.141  70.322  1.00  0.00    -0.282 A  
HETATM   19  C   UNL     1      -9.537   8.746  70.528  1.00  0.00    -0.226 A  
HETATM   20  C   UNL     1      -9.221   7.386  70.653  1.00  0.00    -0.157 A  
HETATM   21  C   UNL     1     -10.202   6.377  70.521  1.00  0.00    -0.230 A  
HETATM   22  C   UNL     1     -11.536   6.814  70.535  1.00  0.00    -0.426 A  
HETATM   23  C   UNL     1     -11.865   8.178  70.462  1.00  0.00    -0.010 A  
BRANCH  21  24
HETATM   24  C   UNL     1      -9.798   4.976  70.146  1.00  0.00    -0.303 A  
HETATM   25  C   UNL     1      -9.702   3.849  71.006  1.00  0.00    -0.252 A  
HETATM   26  C   UNL     1      -9.475   2.563  70.442  1.00  0.00    -0.178 A  
HETATM   27  C   UNL     1      -9.617   4.723  68.755  1.00  0.00    -0.227 A  
HETATM   28  C   UNL     1      -9.363   3.458  68.226  1.00  0.00    -0.239 A  
HETATM   29  C   UNL     1      -9.308   2.370  69.071  1.00  0.00    -0.203 A  
BRANCH  25  30
HETATM   30  C   UNL     1      -9.785   3.920  72.467  1.00  0.00    -0.144 A  
HETATM   31  N   UNL     1     -10.387   3.852  74.543  1.00  0.00    -0.207 NA 
HETATM   32  H   UNL     1     -11.664   3.148  72.970  1.00  0.00     0.000 HD 
HETATM   33  N   UNL     1      -9.179   4.392  74.561  1.00  0.00    -0.105 NA 
HETATM   34  N   UNL     1     -10.778   3.561  73.258  1.00  0.00    -0.188 NA 
HETATM   35  N   UNL     1      -8.804   4.436  73.278  1.00  0.00    -0.106 NA 
ENDBRANCH  25  30
ENDBRANCH  21  24
ENDBRANCH  17  18
ENDBRANCH   9  17
ENDBRANCH   3   4
ENDBRANCH   2   3
TORSDOF 6
ENDMDL
MODEL      111
REMARK 921   NORMALIZED FREE ENERGY PREDICTED BY IDOCK:   -6.11 KCAL/MOL
REMARK 922        TOTAL FREE ENERGY PREDICTED BY IDOCK:   -9.40 KCAL/MOL
REMARK 923 INTER-LIGAND FREE ENERGY PREDICTED BY IDOCK:   -7.97 KCAL/MOL
REMARK 924 INTRA-LIGAND FREE ENERGY PREDICTED BY IDOCK:   -1.43 KCAL/MOL
REMARK 927      BINDING AFFINITY PREDICTED BY RF-SCORE:    0.00 PKD
ROOT
HETATM    1  C   UNL     1      -7.878  12.457  68.566  1.00  0.00    -0.112 C  
HETATM    2  C   UNL     1      -6.718  12.213  67.608  1.00  0.00    -0.118 C  
ENDROOT
BRANCH   2   3
HETATM    3  C   UNL     1      -7.036  11.220  66.482  1.00  0.00    -0.097 C  
BRANCH   3   4
HETATM    4  C   UNL     1      -7.614   9.934  66.989  1.00  0.00    -0.092 A  
HETATM    5  N   UNL     1      -6.858   9.084  67.659  1.00  0.00    -0.069 NA 
HETATM    6  C   UNL     1      -7.593   7.951  67.866  1.00  0.00    -0.109 A  
HETATM    7  C   UNL     1      -6.971   6.756  68.558  1.00  0.00    -0.076 C  
HETATM    8  C   UNL     1      -8.850   8.093  67.284  1.00  0.00    -0.130 A  
HETATM    9  N   UNL     1      -8.896   9.430  66.845  1.00  0.00    -0.127 NA 
HETATM   10  O   UNL     1      -7.020   5.641  67.642  1.00  0.00    -0.062 OA 
HETATM   11  C   UNL     1      -7.750   6.348  69.814  1.00  0.00    -0.109 C  
HETATM   12  C   UNL     1      -5.503   6.980  68.954  1.00  0.00    -0.018 C  
HETATM   13  C   UNL     1      -9.935   7.149  67.148  1.00  0.00    -0.209 C  
HETATM   14  O   UNL     1      -9.539   5.860  67.056  1.00  0.00    -0.123 OA 
HETATM   15  O   UNL     1     -11.123   7.447  67.062  1.00  0.00    -0.268 OA 
HETATM   16  H   UNL     1      -6.630   4.892  68.076  1.00  0.00     0.000 HD 
BRANCH   9  17
HETATM   17  C   UNL     1     -10.151  10.017  66.315  1.00  0.00    -0.243 C  
BRANCH  17  18
HETATM   18  C   UNL     1     -10.963  10.902  67.221  1.00  0.00    -0.355 A  
HETATM   19  C   UNL     1     -11.240  12.224  66.863  1.00  0.00    -0.367 A  
HETATM   20  C   UNL     1     -11.742  13.120  67.818  1.00  0.00    -0.401 A  
HETATM   21  C   UNL     1     -11.930  12.744  69.167  1.00  0.00    -0.296 A  
HETATM   22  C   UNL     1     -11.852  11.368  69.437  1.00  0.00    -0.419 A  
HETATM   23  C   UNL     1     -11.398  10.454  68.472  1.00  0.00    -0.283 A  
BRANCH  21  24
HETATM   24  C   UNL     1     -11.962  13.794  70.245  1.00  0.00    -0.397 A  
HETATM   25  C   UNL     1     -11.469  15.125  70.166  1.00  0.00    -0.313 A  
HETATM   26  C   UNL     1     -11.745  16.032  71.226  1.00  0.00    -0.516 A  
HETATM   27  C   UNL     1     -12.680  13.459  71.430  1.00  0.00    -0.411 A  
HETATM   28  C   UNL     1     -12.911  14.356  72.473  1.00  0.00    -0.501 A  
HETATM   29  C   UNL     1     -12.457  15.653  72.364  1.00  0.00    -0.513 A  
BRANCH  25  30
HETATM   30  C   UNL     1     -10.648  15.632  69.064  1.00  0.00    -0.234 A  
HETATM   31  N   UNL     1      -9.050  16.167  67.708  1.00  0.00    -0.197 NA 
HETATM   32  H   UNL     1      -8.704  14.953  69.442  1.00  0.00     0.000 HD 
HETATM   33  N   UNL     1     -10.127  16.749  67.205  1.00  0.00    -0.275 NA 
HETATM   34  N   UNL     1      -9.354  15.480  68.858  1.00  0.00    -0.207 NA 
HETATM   35  N   UNL     1     -11.117  16.421  68.042  1.00  0.00    -0.329 NA 
ENDBRANCH  25  30
ENDBRANCH  21  24
ENDBRANCH  17  18
ENDBRANCH   9  17
ENDBRANCH   3   4
ENDBRANCH   2   3
TORSDOF 6
ENDMDL
MODEL      112
REMARK 921   NORMALIZED FREE ENERGY PREDICTED BY IDOCK:   -6.11 KCAL/MOL
REMARK 922        TOTAL FREE ENERGY PREDICTED BY IDOCK:   -9.40 KCAL/MOL
REMARK 923 INTER-LIGAND FREE ENERGY PREDICTED BY IDOCK:   -7.78 KCAL/MOL
REMARK 924 INTRA-LIGAND FREE ENERGY PREDICTED BY IDOCK:   -1.62 KCAL/MOL
REMARK 927      BINDING AFFINITY PREDICTED BY RF-SCORE:    0.00 PKD
ROOT
HETATM    1  C   UNL     1      -9.569   8.570  72.444  1.00  0.00    -0.356 C  
HETATM    2  C   UNL     1     -10.617   9.104  71.474  1.00  0.00    -0.428 C  
ENDROOT
BRANCH   2   3
HETATM    3  C   UNL     1     -11.234   8.030  70.568  1.00  0.00    -0.252 C  
BRANCH   3   4
HETATM    4  C   UNL     1     -10.270   7.508  69.547  1.00  0.00    -0.207 A  
HETATM    5  N   UNL     1      -9.499   6.474  69.828  1.00  0.00    -0.150 NA 
HETATM    6  C   UNL     1      -8.631   6.311  68.786  1.00  0.00    -0.122 A  
HETATM    7  C   UNL     1      -7.566   5.236  68.843  1.00  0.00    -0.081 C  
HETATM    8  C   UNL     1      -8.856   7.295  67.826  1.00  0.00    -0.124 A  
HETATM    9  N   UNL     1     -10.009   7.972  68.269  1.00  0.00    -0.179 NA 
HETATM   10  O   UNL     1      -6.279   5.883  68.749  1.00  0.00    -0.029 OA 
HETATM   11  C   UNL     1      -7.670   4.257  67.667  1.00  0.00    -0.084 C  
HETATM   12  C   UNL     1      -7.594   4.423  70.148  1.00  0.00    -0.049 C  
HETATM   13  C   UNL     1      -8.144   7.601  66.608  1.00  0.00    -0.119 C  
HETATM   14  O   UNL     1      -6.825   7.307  66.649  1.00  0.00    -0.061 OA 
HETATM   15  O   UNL     1      -8.636   8.134  65.617  1.00  0.00    -0.151 OA 
HETATM   16  H   UNL     1      -5.611   5.208  68.785  1.00  0.00     0.000 HD 
BRANCH   9  17
HETATM   17  C   UNL     1     -10.669   8.993  67.417  1.00  0.00    -0.161 C  
BRANCH  17  18
HETATM   18  C   UNL     1     -10.667  10.422  67.887  1.00  0.00    -0.307 A  
HETATM   19  C   UNL     1     -11.865  11.128  68.026  1.00  0.00    -0.203 A  
HETATM   20  C   UNL     1     -11.846  12.520  68.184  1.00  0.00    -0.371 A  
HETATM   21  C   UNL     1     -10.641  13.258  68.153  1.00  0.00    -0.259 A  
HETATM   22  C   UNL     1      -9.459  12.505  68.233  1.00  0.00    -0.201 A  
HETATM   23  C   UNL     1      -9.470  11.105  68.127  1.00  0.00    -0.180 A  
BRANCH  21  24
HETATM   24  C   UNL     1     -10.662  14.724  67.809  1.00  0.00    -0.268 A  
HETATM   25  C   UNL     1     -10.991  15.805  68.670  1.00  0.00    -0.307 A  
HETATM   26  C   UNL     1     -10.786  17.139  68.219  1.00  0.00    -0.363 A  
HETATM   27  C   UNL     1     -10.175  15.075  66.516  1.00  0.00    -0.281 A  
HETATM   28  C   UNL     1     -10.012  16.390  66.082  1.00  0.00    -0.360 A  
HETATM   29  C   UNL     1     -10.302  17.428  66.944  1.00  0.00    -0.317 A  
BRANCH  25  30
HETATM   30  C   UNL     1     -11.574  15.646  70.004  1.00  0.00    -0.350 A  
HETATM   31  N   UNL     1     -12.872  15.545  71.732  1.00  0.00    -0.407 NA 
HETATM   32  H   UNL     1     -13.632  15.951  69.767  1.00  0.00     0.000 HD 
HETATM   33  N   UNL     1     -11.658  15.322  72.210  1.00  0.00    -0.449 NA 
HETATM   34  N   UNL     1     -12.837  15.752  70.374  1.00  0.00    -0.367 NA 
HETATM   35  N   UNL     1     -10.853  15.385  71.143  1.00  0.00    -0.235 NA 
ENDBRANCH  25  30
ENDBRANCH  21  24
ENDBRANCH  17  18
ENDBRANCH   9  17
ENDBRANCH   3   4
ENDBRANCH   2   3
TORSDOF 6
ENDMDL
MODEL      113
REMARK 921   NORMALIZED FREE ENERGY PREDICTED BY IDOCK:   -6.10 KCAL/MOL
REMARK 922        TOTAL FREE ENERGY PREDICTED BY IDOCK:   -9.39 KCAL/MOL
REMARK 923 INTER-LIGAND FREE ENERGY PREDICTED BY IDOCK:   -7.94 KCAL/MOL
REMARK 924 INTRA-LIGAND FREE ENERGY PREDICTED BY IDOCK:   -1.45 KCAL/MOL
REMARK 927      BINDING AFFINITY PREDICTED BY RF-SCORE:    0.00 PKD
ROOT
HETATM    1  C   UNL     1      -5.137   9.993  65.051  1.00  0.00    -0.059 C  
HETATM    2  C   UNL     1      -5.584   8.550  64.852  1.00  0.00    -0.047 C  
ENDROOT
BRANCH   2   3
HETATM    3  C   UNL     1      -7.035   8.406  64.371  1.00  0.00    -0.073 C  
BRANCH   3   4
HETATM    4  C   UNL     1      -7.860   7.536  65.269  1.00  0.00    -0.120 A  
HETATM    5  N   UNL     1      -8.318   6.377  64.834  1.00  0.00    -0.105 NA 
HETATM    6  C   UNL     1      -9.147   5.873  65.796  1.00  0.00    -0.087 A  
HETATM    7  C   UNL     1      -9.885   4.572  65.559  1.00  0.00    -0.208 C  
HETATM    8  C   UNL     1      -9.225   6.764  66.864  1.00  0.00    -0.144 A  
HETATM    9  N   UNL     1      -8.279   7.764  66.569  1.00  0.00    -0.120 NA 
HETATM   10  O   UNL     1     -11.300   4.846  65.636  1.00  0.00    -0.897 OA 
HETATM   11  C   UNL     1      -9.565   3.525  66.633  1.00  0.00    -0.132 C  
HETATM   12  C   UNL     1      -9.596   3.953  64.182  1.00  0.00    -0.165 C  
HETATM   13  C   UNL     1     -10.035   6.729  68.059  1.00  0.00    -0.144 C  
HETATM   14  O   UNL     1     -11.226   6.108  67.903  1.00  0.00    -0.304 OA 
HETATM   15  O   UNL     1      -9.738   7.253  69.129  1.00  0.00    -0.158 OA 
HETATM   16  H   UNL     1     -11.762   4.030  65.488  1.00  0.00     0.000 HD 
BRANCH   9  17
HETATM   17  C   UNL     1      -7.945   8.815  67.562  1.00  0.00    -0.102 C  
BRANCH  17  18
HETATM   18  C   UNL     1      -8.689  10.121  67.494  1.00  0.00    -0.125 A  
HETATM   19  C   UNL     1      -8.690  10.880  66.321  1.00  0.00    -0.175 A  
HETATM   20  C   UNL     1      -9.135  12.210  66.345  1.00  0.00    -0.177 A  
HETATM   21  C   UNL     1      -9.537  12.841  67.544  1.00  0.00    -0.192 A  
HETATM   22  C   UNL     1      -9.730  11.994  68.647  1.00  0.00    -0.104 A  
HETATM   23  C   UNL     1      -9.335  10.646  68.618  1.00  0.00    -0.177 A  
BRANCH  21  24
HETATM   24  C   UNL     1      -9.509  14.342  67.653  1.00  0.00    -0.211 A  
HETATM   25  C   UNL     1     -10.416  15.264  67.064  1.00  0.00    -0.292 A  
HETATM   26  C   UNL     1     -10.337  16.639  67.421  1.00  0.00    -0.292 A  
HETATM   27  C   UNL     1      -8.546  14.891  68.549  1.00  0.00    -0.162 A  
HETATM   28  C   UNL     1      -8.466  16.248  68.860  1.00  0.00    -0.253 A  
HETATM   29  C   UNL     1      -9.376  17.124  68.307  1.00  0.00    -0.265 A  
BRANCH  25  30
HETATM   30  C   UNL     1     -11.425  14.902  66.066  1.00  0.00    -0.275 A  
HETATM   31  N   UNL     1     -13.102  14.076  64.977  1.00  0.00    -0.717 NA 
HETATM   32  H   UNL     1     -12.797  13.674  67.062  1.00  0.00     0.000 HD 
HETATM   33  N   UNL     1     -12.432  14.782  64.079  1.00  0.00    -0.809 NA 
HETATM   34  N   UNL     1     -12.489  14.135  66.206  1.00  0.00    -0.439 NA 
HETATM   35  N   UNL     1     -11.394  15.293  64.750  1.00  0.00    -0.415 NA 
ENDBRANCH  25  30
ENDBRANCH  21  24
ENDBRANCH  17  18
ENDBRANCH   9  17
ENDBRANCH   3   4
ENDBRANCH   2   3
TORSDOF 6
ENDMDL
MODEL      114
REMARK 921   NORMALIZED FREE ENERGY PREDICTED BY IDOCK:   -6.09 KCAL/MOL
REMARK 922        TOTAL FREE ENERGY PREDICTED BY IDOCK:   -9.38 KCAL/MOL
REMARK 923 INTER-LIGAND FREE ENERGY PREDICTED BY IDOCK:   -7.35 KCAL/MOL
REMARK 924 INTRA-LIGAND FREE ENERGY PREDICTED BY IDOCK:   -2.03 KCAL/MOL
REMARK 927      BINDING AFFINITY PREDICTED BY RF-SCORE:    0.00 PKD
ROOT
HETATM    1  C   UNL     1      -7.054   9.882  69.897  1.00  0.00    -0.118 C  
HETATM    2  C   UNL     1      -8.102  10.693  69.144  1.00  0.00    -0.143 C  
ENDROOT
BRANCH   2   3
HETATM    3  C   UNL     1      -7.514  11.746  68.196  1.00  0.00    -0.098 C  
BRANCH   3   4
HETATM    4  C   UNL     1      -8.533  12.313  67.255  1.00  0.00    -0.181 A  
HETATM    5  N   UNL     1      -9.074  13.493  67.494  1.00  0.00    -0.203 NA 
HETATM    6  C   UNL     1     -10.060  13.690  66.569  1.00  0.00    -0.286 A  
HETATM    7  C   UNL     1     -10.917  14.938  66.624  1.00  0.00    -0.325 C  
HETATM    8  C   UNL     1     -10.150  12.580  65.733  1.00  0.00    -0.262 A  
HETATM    9  N   UNL     1      -9.064  11.763  66.101  1.00  0.00    -0.210 NA 
HETATM   10  O   UNL     1     -12.289  14.524  66.799  1.00  0.00    -0.503 OA 
HETATM   11  C   UNL     1     -10.847  15.744  65.322  1.00  0.00    -0.409 C  
HETATM   12  C   UNL     1     -10.552  15.873  67.789  1.00  0.00    -0.302 C  
HETATM   13  C   UNL     1     -11.087  12.272  64.678  1.00  0.00    -0.313 C  
HETATM   14  O   UNL     1     -12.318  12.800  64.860  1.00  0.00    -0.441 OA 
HETATM   15  O   UNL     1     -10.850  11.552  63.711  1.00  0.00    -0.364 OA 
HETATM   16  H   UNL     1     -12.826  15.306  66.833  1.00  0.00     0.000 HD 
BRANCH   9  17
HETATM   17  C   UNL     1      -8.720  10.552  65.316  1.00  0.00    -0.188 C  
BRANCH  17  18
HETATM   18  C   UNL     1      -8.959   9.205  65.941  1.00  0.00    -0.231 A  
HETATM   19  C   UNL     1     -10.245   8.817  66.326  1.00  0.00    -0.157 A  
HETATM   20  C   UNL     1     -10.424   7.701  67.156  1.00  0.00    -0.412 A  
HETATM   21  C   UNL     1      -9.329   6.973  67.673  1.00  0.00    -0.128 A  
HETATM   22  C   UNL     1      -8.079   7.252  67.095  1.00  0.00    -0.114 A  
HETATM   23  C   UNL     1      -7.898   8.338  66.222  1.00  0.00    -0.098 A  
BRANCH  21  24
HETATM   24  C   UNL     1      -9.493   6.147  68.921  1.00  0.00    -0.131 A  
HETATM   25  C   UNL     1      -9.387   4.735  69.039  1.00  0.00    -0.193 A  
HETATM   26  C   UNL     1      -9.399   4.144  70.332  1.00  0.00    -0.225 A  
HETATM   27  C   UNL     1      -9.643   6.871  70.140  1.00  0.00    -0.162 A  
HETATM   28  C   UNL     1      -9.685   6.268  71.397  1.00  0.00    -0.191 A  
HETATM   29  C   UNL     1      -9.545   4.899  71.495  1.00  0.00    -0.218 A  
BRANCH  25  30
HETATM   30  C   UNL     1      -9.302   3.819  67.898  1.00  0.00    -0.186 A  
HETATM   31  N   UNL     1      -9.378   2.868  65.957  1.00  0.00    -0.097 NA 
HETATM   32  H   UNL     1      -9.913   4.927  66.230  1.00  0.00     0.000 HD 
HETATM   33  N   UNL     1      -8.972   1.916  66.783  1.00  0.00    -0.122 NA 
HETATM   34  N   UNL     1      -9.592   4.046  66.632  1.00  0.00    -0.204 NA 
HETATM   35  N   UNL     1      -8.925   2.502  67.985  1.00  0.00    -0.134 NA 
ENDBRANCH  25  30
ENDBRANCH  21  24
ENDBRANCH  17  18
ENDBRANCH   9  17
ENDBRANCH   3   4
ENDBRANCH   2   3
TORSDOF 6
ENDMDL
MODEL      115
REMARK 921   NORMALIZED FREE ENERGY PREDICTED BY IDOCK:   -6.09 KCAL/MOL
REMARK 922        TOTAL FREE ENERGY PREDICTED BY IDOCK:   -9.37 KCAL/MOL
REMARK 923 INTER-LIGAND FREE ENERGY PREDICTED BY IDOCK:   -8.64 KCAL/MOL
REMARK 924 INTRA-LIGAND FREE ENERGY PREDICTED BY IDOCK:   -0.74 KCAL/MOL
REMARK 927      BINDING AFFINITY PREDICTED BY RF-SCORE:    0.00 PKD
ROOT
HETATM    1  C   UNL     1     -12.180  12.636  63.394  1.00  0.00    -0.610 C  
HETATM    2  C   UNL     1     -12.046  12.409  64.895  1.00  0.00    -0.470 C  
ENDROOT
BRANCH   2   3
HETATM    3  C   UNL     1     -12.347  13.652  65.743  1.00  0.00    -0.524 C  
BRANCH   3   4
HETATM    4  C   UNL     1     -11.116  14.255  66.347  1.00  0.00    -0.325 A  
HETATM    5  N   UNL     1     -11.059  15.551  66.586  1.00  0.00    -0.251 NA 
HETATM    6  C   UNL     1      -9.788  15.841  66.993  1.00  0.00    -0.234 A  
HETATM    7  C   UNL     1      -9.388  17.273  67.281  1.00  0.00    -0.237 C  
HETATM    8  C   UNL     1      -9.016  14.682  66.989  1.00  0.00    -0.240 A  
HETATM    9  N   UNL     1      -9.926  13.645  66.706  1.00  0.00    -0.263 NA 
HETATM   10  O   UNL     1      -8.308  17.619  66.388  1.00  0.00    -0.257 OA 
HETATM   11  C   UNL     1      -8.869  17.451  68.713  1.00  0.00    -0.220 C  
HETATM   12  C   UNL     1     -10.530  18.279  67.056  1.00  0.00    -0.407 C  
HETATM   13  C   UNL     1      -7.607  14.490  67.242  1.00  0.00    -0.121 C  
HETATM   14  O   UNL     1      -6.834  15.546  66.902  1.00  0.00    -0.230 OA 
HETATM   15  O   UNL     1      -7.102  13.456  67.672  1.00  0.00    -0.138 OA 
HETATM   16  H   UNL     1      -8.058  18.517  66.568  1.00  0.00     0.000 HD 
BRANCH   9  17
HETATM   17  C   UNL     1      -9.509  12.223  66.780  1.00  0.00    -0.222 C  
BRANCH  17  18
HETATM   18  C   UNL     1      -9.722  11.484  68.073  1.00  0.00    -0.187 A  
HETATM   19  C   UNL     1      -8.745  10.615  68.566  1.00  0.00    -0.141 A  
HETATM   20  C   UNL     1      -9.055   9.724  69.602  1.00  0.00    -0.235 A  
HETATM   21  C   UNL     1     -10.359   9.630  70.140  1.00  0.00    -0.315 A  
HETATM   22  C   UNL     1     -11.246  10.656  69.779  1.00  0.00    -0.363 A  
HETATM   23  C   UNL     1     -10.926  11.587  68.777  1.00  0.00    -0.271 A  
BRANCH  21  24
HETATM   24  C   UNL     1     -10.796   8.373  70.844  1.00  0.00    -0.267 A  
HETATM   25  C   UNL     1     -10.066   7.630  71.811  1.00  0.00    -0.210 A  
HETATM   26  C   UNL     1     -10.710   6.565  72.499  1.00  0.00    -0.255 A  
HETATM   27  C   UNL     1     -12.139   7.955  70.613  1.00  0.00    -0.003 A  
HETATM   28  C   UNL     1     -12.741   6.887  71.277  1.00  0.00    -0.368 A  
HETATM   29  C   UNL     1     -12.029   6.199  72.237  1.00  0.00    -0.285 A  
BRANCH  25  30
HETATM   30  C   UNL     1      -8.655   7.860  72.131  1.00  0.00    -0.140 A  
HETATM   31  N   UNL     1      -6.502   7.773  72.321  1.00  0.00    -0.054 NA 
HETATM   32  H   UNL     1      -7.586   6.392  71.088  1.00  0.00     0.000 HD 
HETATM   33  N   UNL     1      -6.867   8.782  73.095  1.00  0.00    -0.325 NA 
HETATM   34  N   UNL     1      -7.594   7.190  71.724  1.00  0.00    -0.086 NA 
HETATM   35  N   UNL     1      -8.199   8.838  72.980  1.00  0.00    -0.383 NA 
ENDBRANCH  25  30
ENDBRANCH  21  24
ENDBRANCH  17  18
ENDBRANCH   9  17
ENDBRANCH   3   4
ENDBRANCH   2   3
TORSDOF 6
ENDMDL
MODEL      116
REMARK 921   NORMALIZED FREE ENERGY PREDICTED BY IDOCK:   -6.08 KCAL/MOL
REMARK 922        TOTAL FREE ENERGY PREDICTED BY IDOCK:   -9.37 KCAL/MOL
REMARK 923 INTER-LIGAND FREE ENERGY PREDICTED BY IDOCK:   -8.00 KCAL/MOL
REMARK 924 INTRA-LIGAND FREE ENERGY PREDICTED BY IDOCK:   -1.37 KCAL/MOL
REMARK 927      BINDING AFFINITY PREDICTED BY RF-SCORE:    0.00 PKD
ROOT
HETATM    1  C   UNL     1     -11.780  10.602  70.858  1.00  0.00    -0.387 C  
HETATM    2  C   UNL     1     -11.282   9.677  69.754  1.00  0.00    -0.208 C  
ENDROOT
BRANCH   2   3
HETATM    3  C   UNL     1     -10.055  10.209  69.001  1.00  0.00    -0.216 C  
BRANCH   3   4
HETATM    4  C   UNL     1     -10.421  11.052  67.818  1.00  0.00    -0.199 A  
HETATM    5  N   UNL     1     -10.865  12.283  67.991  1.00  0.00    -0.211 NA 
HETATM    6  C   UNL     1     -11.254  12.757  66.770  1.00  0.00    -0.295 A  
HETATM    7  C   UNL     1     -11.876  14.133  66.652  1.00  0.00    -0.424 C  
HETATM    8  C   UNL     1     -11.064  11.776  65.801  1.00  0.00    -0.297 A  
HETATM    9  N   UNL     1     -10.394  10.734  66.471  1.00  0.00    -0.238 NA 
HETATM   10  O   UNL     1     -13.202  13.973  66.103  1.00  0.00    -0.415 OA 
HETATM   11  C   UNL     1     -11.094  15.039  65.693  1.00  0.00    -0.349 C  
HETATM   12  C   UNL     1     -12.007  14.859  68.001  1.00  0.00    -0.216 C  
HETATM   13  C   UNL     1     -11.408  11.761  64.399  1.00  0.00    -0.301 C  
HETATM   14  O   UNL     1     -12.503  12.492  64.089  1.00  0.00    -0.505 OA 
HETATM   15  O   UNL     1     -10.824  11.111  63.535  1.00  0.00    -0.352 OA 
HETATM   16  H   UNL     1     -13.592  14.835  66.028  1.00  0.00     0.000 HD 
BRANCH   9  17
HETATM   17  C   UNL     1      -9.863   9.565  65.726  1.00  0.00    -0.293 C  
BRANCH  17  18
HETATM   18  C   UNL     1      -9.674   8.272  66.470  1.00  0.00    -0.323 A  
HETATM   19  C   UNL     1     -10.773   7.578  66.983  1.00  0.00    -0.367 A  
HETATM   20  C   UNL     1     -10.581   6.542  67.907  1.00  0.00    -0.313 A  
HETATM   21  C   UNL     1      -9.298   6.202  68.391  1.00  0.00    -0.116 A  
HETATM   22  C   UNL     1      -8.213   6.762  67.697  1.00  0.00    -0.119 A  
HETATM   23  C   UNL     1      -8.396   7.766  66.732  1.00  0.00    -0.125 A  
BRANCH  21  24
HETATM   24  C   UNL     1      -9.152   5.487  69.708  1.00  0.00    -0.157 A  
HETATM   25  C   UNL     1      -8.635   6.015  70.921  1.00  0.00    -0.131 A  
HETATM   26  C   UNL     1      -8.738   5.245  72.113  1.00  0.00    -0.131 A  
HETATM   27  C   UNL     1      -9.713   4.179  69.780  1.00  0.00    -0.278 A  
HETATM   28  C   UNL     1      -9.774   3.427  70.954  1.00  0.00    -0.200 A  
HETATM   29  C   UNL     1      -9.300   3.970  72.130  1.00  0.00    -0.181 A  
BRANCH  25  30
HETATM   30  C   UNL     1      -7.955   7.308  71.031  1.00  0.00    -0.098 A  
HETATM   31  N   UNL     1      -7.404   9.369  71.392  1.00  0.00    -0.326 NA 
HETATM   32  H   UNL     1      -9.305   8.582  72.000  1.00  0.00     0.000 HD 
HETATM   33  N   UNL     1      -6.361   8.846  70.767  1.00  0.00    -0.043 NA 
HETATM   34  N   UNL     1      -8.398   8.434  71.557  1.00  0.00    -0.140 NA 
HETATM   35  N   UNL     1      -6.699   7.571  70.542  1.00  0.00    -0.046 NA 
ENDBRANCH  25  30
ENDBRANCH  21  24
ENDBRANCH  17  18
ENDBRANCH   9  17
ENDBRANCH   3   4
ENDBRANCH   2   3
TORSDOF 6
ENDMDL
MODEL      117
REMARK 921   NORMALIZED FREE ENERGY PREDICTED BY IDOCK:   -6.07 KCAL/MOL
REMARK 922        TOTAL FREE ENERGY PREDICTED BY IDOCK:   -9.35 KCAL/MOL
REMARK 923 INTER-LIGAND FREE ENERGY PREDICTED BY IDOCK:   -8.02 KCAL/MOL
REMARK 924 INTRA-LIGAND FREE ENERGY PREDICTED BY IDOCK:   -1.33 KCAL/MOL
REMARK 927      BINDING AFFINITY PREDICTED BY RF-SCORE:    0.00 PKD
ROOT
HETATM    1  C   UNL     1     -11.683  15.769  71.957  1.00  0.00    -0.572 C  
HETATM    2  C   UNL     1     -12.055  14.575  71.085  1.00  0.00    -0.408 C  
ENDROOT
BRANCH   2   3
HETATM    3  C   UNL     1     -12.287  14.928  69.610  1.00  0.00    -0.244 C  
BRANCH   3   4
HETATM    4  C   UNL     1     -11.095  15.571  68.972  1.00  0.00    -0.267 A  
HETATM    5  N   UNL     1     -11.170  16.807  68.517  1.00  0.00    -0.265 NA 
HETATM    6  C   UNL     1     -10.000  17.080  67.865  1.00  0.00    -0.281 A  
HETATM    7  C   UNL     1      -9.809  18.412  67.170  1.00  0.00    -0.320 C  
HETATM    8  C   UNL     1      -9.172  15.961  67.897  1.00  0.00    -0.198 A  
HETATM    9  N   UNL     1      -9.835  15.045  68.736  1.00  0.00    -0.226 NA 
HETATM   10  O   UNL     1      -9.580  18.150  65.769  1.00  0.00    -0.492 OA 
HETATM   11  C   UNL     1      -8.582  19.166  67.698  1.00  0.00    -0.327 C  
HETATM   12  C   UNL     1     -11.030  19.338  67.286  1.00  0.00    -0.443 C  
HETATM   13  C   UNL     1      -7.891  15.722  67.274  1.00  0.00    -0.195 C  
HETATM   14  O   UNL     1      -7.712  16.381  66.107  1.00  0.00    -0.216 OA 
HETATM   15  O   UNL     1      -7.033  14.952  67.697  1.00  0.00    -0.158 OA 
HETATM   16  H   UNL     1      -9.460  18.985  65.333  1.00  0.00     0.000 HD 
BRANCH   9  17
HETATM   17  C   UNL     1      -9.180  13.782  69.156  1.00  0.00     0.408 C  
BRANCH  17  18
HETATM   18  C   UNL     1      -9.614  12.501  68.497  1.00  0.00    -0.114 A  
HETATM   19  C   UNL     1     -10.839  11.912  68.821  1.00  0.00    -0.270 A  
HETATM   20  C   UNL     1     -11.112  10.595  68.429  1.00  0.00    -0.328 A  
HETATM   21  C   UNL     1     -10.155   9.804  67.753  1.00  0.00    -0.223 A  
HETATM   22  C   UNL     1      -9.034  10.490  67.256  1.00  0.00    -0.145 A  
HETATM   23  C   UNL     1      -8.777  11.827  67.601  1.00  0.00    -0.159 A  
BRANCH  21  24
HETATM   24  C   UNL     1     -10.247   8.303  67.801  1.00  0.00    -0.282 A  
HETATM   25  C   UNL     1     -10.524   7.493  68.935  1.00  0.00    -0.214 A  
HETATM   26  C   UNL     1     -10.746   6.100  68.756  1.00  0.00    -0.370 A  
HETATM   27  C   UNL     1     -10.178   7.627  66.548  1.00  0.00    -0.178 A  
HETATM   28  C   UNL     1     -10.367   6.253  66.399  1.00  0.00    -0.072 A  
HETATM   29  C   UNL     1     -10.670   5.488  67.506  1.00  0.00    -0.211 A  
BRANCH  25  30
HETATM   30  C   UNL     1     -10.561   7.992  70.312  1.00  0.00    -0.231 A  
HETATM   31  N   UNL     1     -11.126   8.668  72.288  1.00  0.00    -0.357 NA 
HETATM   32  H   UNL     1     -12.568   7.896  70.900  1.00  0.00     0.000 HD 
HETATM   33  N   UNL     1      -9.819   8.867  72.225  1.00  0.00    -0.220 NA 
HETATM   34  N   UNL     1     -11.600   8.135  71.113  1.00  0.00    -0.277 NA 
HETATM   35  N   UNL     1      -9.466   8.450  71.004  1.00  0.00    -0.160 NA 
ENDBRANCH  25  30
ENDBRANCH  21  24
ENDBRANCH  17  18
ENDBRANCH   9  17
ENDBRANCH   3   4
ENDBRANCH   2   3
TORSDOF 6
ENDMDL
MODEL      118
REMARK 921   NORMALIZED FREE ENERGY PREDICTED BY IDOCK:   -6.06 KCAL/MOL
REMARK 922        TOTAL FREE ENERGY PREDICTED BY IDOCK:   -9.34 KCAL/MOL
REMARK 923 INTER-LIGAND FREE ENERGY PREDICTED BY IDOCK:   -7.97 KCAL/MOL
REMARK 924 INTRA-LIGAND FREE ENERGY PREDICTED BY IDOCK:   -1.37 KCAL/MOL
REMARK 927      BINDING AFFINITY PREDICTED BY RF-SCORE:    0.00 PKD
ROOT
HETATM    1  C   UNL     1     -13.010  11.388  71.695  1.00  0.00    -0.523 C  
HETATM    2  C   UNL     1     -12.809  10.296  70.651  1.00  0.00    -0.362 C  
ENDROOT
BRANCH   2   3
HETATM    3  C   UNL     1     -11.408  10.281  70.025  1.00  0.00    -0.370 C  
BRANCH   3   4
HETATM    4  C   UNL     1     -11.311  11.134  68.798  1.00  0.00    -0.277 A  
HETATM    5  N   UNL     1     -11.459  12.442  68.884  1.00  0.00    -0.284 NA 
HETATM    6  C   UNL     1     -11.469  12.942  67.613  1.00  0.00    -0.334 A  
HETATM    7  C   UNL     1     -11.690  14.422  67.378  1.00  0.00    -0.397 C  
HETATM    8  C   UNL     1     -11.343  11.901  66.697  1.00  0.00    -0.337 A  
HETATM    9  N   UNL     1     -11.100  10.757  67.482  1.00  0.00    -0.308 NA 
HETATM   10  O   UNL     1     -12.879  14.568  66.572  1.00  0.00    -0.353 OA 
HETATM   11  C   UNL     1     -10.533  15.063  66.602  1.00  0.00    -0.284 C  
HETATM   12  C   UNL     1     -11.898  15.218  68.677  1.00  0.00    -0.329 C  
HETATM   13  C   UNL     1     -11.397  11.907  65.253  1.00  0.00    -0.275 C  
HETATM   14  O   UNL     1     -12.191  12.870  64.733  1.00  0.00    -0.393 OA 
HETATM   15  O   UNL     1     -10.836  11.095  64.522  1.00  0.00    -0.326 OA 
HETATM   16  H   UNL     1     -13.018  15.496  66.425  1.00  0.00     0.000 HD 
BRANCH   9  17
HETATM   17  C   UNL     1     -10.743   9.461  66.853  1.00  0.00    -0.104 C  
BRANCH  17  18
HETATM   18  C   UNL     1      -9.754   8.575  67.560  1.00  0.00    -0.209 A  
HETATM   19  C   UNL     1     -10.011   7.211  67.724  1.00  0.00    -0.192 A  
HETATM   20  C   UNL     1      -9.241   6.453  68.617  1.00  0.00    -0.125 A  
HETATM   21  C   UNL     1      -8.232   7.039  69.414  1.00  0.00    -0.132 A  
HETATM   22  C   UNL     1      -7.858   8.347  69.067  1.00  0.00    -0.102 A  
HETATM   23  C   UNL     1      -8.592   9.099  68.136  1.00  0.00    -0.129 A  
BRANCH  21  24
HETATM   24  C   UNL     1      -7.790   6.366  70.687  1.00  0.00    -0.107 A  
HETATM   25  C   UNL     1      -8.554   6.179  71.871  1.00  0.00    -0.132 A  
HETATM   26  C   UNL     1      -8.030   5.365  72.913  1.00  0.00    -0.102 A  
HETATM   27  C   UNL     1      -6.513   5.734  70.656  1.00  0.00    -0.032 A  
HETATM   28  C   UNL     1      -6.005   4.966  71.703  1.00  0.00    -0.020 A  
HETATM   29  C   UNL     1      -6.774   4.765  72.830  1.00  0.00    -0.068 A  
BRANCH  25  30
HETATM   30  C   UNL     1      -9.853   6.809  72.119  1.00  0.00    -0.148 A  
HETATM   31  N   UNL     1     -11.490   8.064  72.772  1.00  0.00    -0.405 NA 
HETATM   32  H   UNL     1      -9.452   8.514  73.265  1.00  0.00     0.000 HD 
HETATM   33  N   UNL     1     -12.066   7.085  72.092  1.00  0.00    -0.275 NA 
HETATM   34  N   UNL     1     -10.125   7.904  72.802  1.00  0.00    -0.273 NA 
HETATM   35  N   UNL     1     -11.056   6.307  71.688  1.00  0.00    -0.263 NA 
ENDBRANCH  25  30
ENDBRANCH  21  24
ENDBRANCH  17  18
ENDBRANCH   9  17
ENDBRANCH   3   4
ENDBRANCH   2   3
TORSDOF 6
ENDMDL
MODEL      119
REMARK 921   NORMALIZED FREE ENERGY PREDICTED BY IDOCK:   -6.06 KCAL/MOL
REMARK 922        TOTAL FREE ENERGY PREDICTED BY IDOCK:   -9.34 KCAL/MOL
REMARK 923 INTER-LIGAND FREE ENERGY PREDICTED BY IDOCK:   -8.23 KCAL/MOL
REMARK 924 INTRA-LIGAND FREE ENERGY PREDICTED BY IDOCK:   -1.11 KCAL/MOL
REMARK 927      BINDING AFFINITY PREDICTED BY RF-SCORE:    0.00 PKD
ROOT
HETATM    1  C   UNL     1     -12.845  10.327  71.755  1.00  0.00    -0.565 C  
HETATM    2  C   UNL     1     -12.434  10.937  70.420  1.00  0.00    -0.411 C  
ENDROOT
BRANCH   2   3
HETATM    3  C   UNL     1     -11.072  10.452  69.905  1.00  0.00    -0.367 C  
BRANCH   3   4
HETATM    4  C   UNL     1     -10.814  10.849  68.484  1.00  0.00    -0.220 A  
HETATM    5  N   UNL     1     -11.230  12.018  68.035  1.00  0.00    -0.238 NA 
HETATM    6  C   UNL     1     -10.992  12.051  66.689  1.00  0.00    -0.287 A  
HETATM    7  C   UNL     1     -11.425  13.249  65.870  1.00  0.00    -0.332 C  
HETATM    8  C   UNL     1     -10.424  10.847  66.282  1.00  0.00    -0.245 A  
HETATM    9  N   UNL     1     -10.186  10.139  67.475  1.00  0.00    -0.197 NA 
HETATM   10  O   UNL     1     -12.356  12.786  64.869  1.00  0.00    -0.441 OA 
HETATM   11  C   UNL     1     -10.248  13.898  65.131  1.00  0.00    -0.382 C  
HETATM   12  C   UNL     1     -12.127  14.334  66.704  1.00  0.00    -0.448 C  
HETATM   13  C   UNL     1     -10.086  10.367  64.962  1.00  0.00    -0.309 C  
HETATM   14  O   UNL     1     -10.880  10.845  63.978  1.00  0.00    -0.297 OA 
HETATM   15  O   UNL     1      -9.202   9.552  64.713  1.00  0.00    -0.237 OA 
HETATM   16  H   UNL     1     -12.627  13.537  64.354  1.00  0.00     0.000 HD 
BRANCH   9  17
HETATM   17  C   UNL     1      -9.427   8.863  67.467  1.00  0.00    -0.141 C  
BRANCH  17  18
HETATM   18  C   UNL     1      -9.713   7.857  68.548  1.00  0.00    -0.167 A  
HETATM   19  C   UNL     1      -8.784   7.624  69.566  1.00  0.00    -0.136 A  
HETATM   20  C   UNL     1      -8.919   6.503  70.397  1.00  0.00    -0.152 A  
HETATM   21  C   UNL     1      -9.947   5.552  70.206  1.00  0.00    -0.281 A  
HETATM   22  C   UNL     1     -10.975   5.929  69.327  1.00  0.00    -0.397 A  
HETATM   23  C   UNL     1     -10.874   7.079  68.526  1.00  0.00    -0.187 A  
BRANCH  21  24
HETATM   24  C   UNL     1      -9.785   4.150  70.731  1.00  0.00    -0.266 A  
HETATM   25  C   UNL     1      -9.234   3.033  70.048  1.00  0.00    -0.216 A  
HETATM   26  C   UNL     1      -9.000   1.827  70.765  1.00  0.00    -0.132 A  
HETATM   27  C   UNL     1     -10.100   3.953  72.107  1.00  0.00    -0.225 A  
HETATM   28  C   UNL     1      -9.893   2.751  72.783  1.00  0.00    -0.193 A  
HETATM   29  C   UNL     1      -9.323   1.688  72.114  1.00  0.00    -0.136 A  
BRANCH  25  30
HETATM   30  C   UNL     1      -8.916   3.019  68.618  1.00  0.00    -0.137 A  
HETATM   31  N   UNL     1      -8.221   3.452  66.615  1.00  0.00    -0.094 NA 
HETATM   32  H   UNL     1      -7.738   4.717  68.279  1.00  0.00     0.000 HD 
HETATM   33  N   UNL     1      -8.933   2.343  66.492  1.00  0.00    -0.133 NA 
HETATM   34  N   UNL     1      -8.207   3.886  67.920  1.00  0.00    -0.091 NA 
HETATM   35  N   UNL     1      -9.365   2.073  67.730  1.00  0.00    -0.170 NA 
ENDBRANCH  25  30
ENDBRANCH  21  24
ENDBRANCH  17  18
ENDBRANCH   9  17
ENDBRANCH   3   4
ENDBRANCH   2   3
TORSDOF 6
ENDMDL
MODEL      120
REMARK 921   NORMALIZED FREE ENERGY PREDICTED BY IDOCK:   -6.03 KCAL/MOL
REMARK 922        TOTAL FREE ENERGY PREDICTED BY IDOCK:   -9.30 KCAL/MOL
REMARK 923 INTER-LIGAND FREE ENERGY PREDICTED BY IDOCK:   -8.08 KCAL/MOL
REMARK 924 INTRA-LIGAND FREE ENERGY PREDICTED BY IDOCK:   -1.22 KCAL/MOL
REMARK 927      BINDING AFFINITY PREDICTED BY RF-SCORE:    0.00 PKD
ROOT
HETATM    1  C   UNL     1      -6.219  10.019  68.116  1.00  0.00    -0.053 C  
HETATM    2  C   UNL     1      -6.680  10.582  66.777  1.00  0.00    -0.091 C  
ENDROOT
BRANCH   2   3
HETATM    3  C   UNL     1      -6.900   9.518  65.694  1.00  0.00    -0.087 C  
BRANCH   3   4
HETATM    4  C   UNL     1      -7.566   8.283  66.220  1.00  0.00    -0.096 A  
HETATM    5  N   UNL     1      -6.842   7.245  66.593  1.00  0.00    -0.063 NA 
HETATM    6  C   UNL     1      -7.703   6.225  66.885  1.00  0.00    -0.100 A  
HETATM    7  C   UNL     1      -7.166   4.866  67.284  1.00  0.00    -0.074 C  
HETATM    8  C   UNL     1      -9.014   6.638  66.666  1.00  0.00    -0.142 A  
HETATM    9  N   UNL     1      -8.915   8.012  66.373  1.00  0.00    -0.160 NA 
HETATM   10  O   UNL     1      -7.641   3.903  66.320  1.00  0.00    -0.086 OA 
HETATM   11  C   UNL     1      -7.679   4.424  68.660  1.00  0.00    -0.071 C  
HETATM   12  C   UNL     1      -5.629   4.802  67.300  1.00  0.00    -0.013 C  
HETATM   13  C   UNL     1     -10.256   5.904  66.738  1.00  0.00    -0.219 C  
HETATM   14  O   UNL     1     -10.141   4.591  66.433  1.00  0.00    -0.226 OA 
HETATM   15  O   UNL     1     -11.353   6.394  66.992  1.00  0.00    -0.314 OA 
HETATM   16  H   UNL     1      -7.304   3.051  66.570  1.00  0.00     0.000 HD 
BRANCH   9  17
HETATM   17  C   UNL     1     -10.130   8.854  66.242  1.00  0.00    -0.214 C  
BRANCH  17  18
HETATM   18  C   UNL     1     -10.356   9.942  67.256  1.00  0.00    -0.303 A  
HETATM   19  C   UNL     1      -9.999   9.754  68.594  1.00  0.00    -0.181 A  
HETATM   20  C   UNL     1     -10.463  10.639  69.576  1.00  0.00    -0.236 A  
HETATM   21  C   UNL     1     -11.339  11.704  69.267  1.00  0.00    -0.353 A  
HETATM   22  C   UNL     1     -11.497  11.991  67.902  1.00  0.00    -0.396 A  
HETATM   23  C   UNL     1     -10.992  11.138  66.907  1.00  0.00    -0.333 A  
BRANCH  21  24
HETATM   24  C   UNL     1     -12.212  12.299  70.340  1.00  0.00    -0.371 A  
HETATM   25  C   UNL     1     -12.803  11.623  71.442  1.00  0.00    -0.461 A  
HETATM   26  C   UNL     1     -13.453  12.382  72.454  1.00  0.00    -0.294 A  
HETATM   27  C   UNL     1     -12.355  13.717  70.323  1.00  0.00    -0.392 A  
HETATM   28  C   UNL     1     -13.025  14.439  71.310  1.00  0.00    -0.414 A  
HETATM   29  C   UNL     1     -13.562  13.770  72.390  1.00  0.00    -0.690 A  
BRANCH  25  30
HETATM   30  C   UNL     1     -12.825  10.166  71.596  1.00  0.00    -0.454 A  
HETATM   31  N   UNL     1     -12.370   8.087  71.980  1.00  0.00    -0.316 NA 
HETATM   32  H   UNL     1     -10.972   9.652  72.423  1.00  0.00     0.000 HD 
HETATM   33  N   UNL     1     -13.587   8.074  71.459  1.00  0.00    -0.325 NA 
HETATM   34  N   UNL     1     -11.884   9.369  72.066  1.00  0.00    -0.322 NA 
HETATM   35  N   UNL     1     -13.870   9.359  71.219  1.00  0.00    -0.233 NA 
ENDBRANCH  25  30
ENDBRANCH  21  24
ENDBRANCH  17  18
ENDBRANCH   9  17
ENDBRANCH   3   4
ENDBRANCH   2   3
TORSDOF 6
ENDMDL
MODEL      121
REMARK 921   NORMALIZED FREE ENERGY PREDICTED BY IDOCK:   -6.02 KCAL/MOL
REMARK 922        TOTAL FREE ENERGY PREDICTED BY IDOCK:   -9.28 KCAL/MOL
REMARK 923 INTER-LIGAND FREE ENERGY PREDICTED BY IDOCK:   -7.46 KCAL/MOL
REMARK 924 INTRA-LIGAND FREE ENERGY PREDICTED BY IDOCK:   -1.82 KCAL/MOL
REMARK 927      BINDING AFFINITY PREDICTED BY RF-SCORE:    0.00 PKD
ROOT
HETATM    1  C   UNL     1      -7.162   9.572  63.880  1.00  0.00    -0.111 C  
HETATM    2  C   UNL     1      -7.044   8.307  64.722  1.00  0.00    -0.080 C  
ENDROOT
BRANCH   2   3
HETATM    3  C   UNL     1      -8.379   7.588  64.958  1.00  0.00    -0.068 C  
BRANCH   3   4
HETATM    4  C   UNL     1      -8.294   6.543  66.028  1.00  0.00    -0.133 A  
HETATM    5  N   UNL     1      -8.352   5.262  65.713  1.00  0.00    -0.119 NA 
HETATM    6  C   UNL     1      -8.399   4.552  66.879  1.00  0.00    -0.105 A  
HETATM    7  C   UNL     1      -8.538   3.044  66.846  1.00  0.00    -0.113 C  
HETATM    8  C   UNL     1      -8.390   5.425  67.963  1.00  0.00    -0.098 A  
HETATM    9  N   UNL     1      -8.179   6.698  67.399  1.00  0.00    -0.120 NA 
HETATM   10  O   UNL     1      -9.756   2.698  67.538  1.00  0.00    -0.381 OA 
HETATM   11  C   UNL     1      -7.386   2.343  67.576  1.00  0.00    -0.056 C  
HETATM   12  C   UNL     1      -8.623   2.473  65.421  1.00  0.00    -0.111 C  
HETATM   13  C   UNL     1      -8.522   5.168  69.378  1.00  0.00    -0.089 C  
HETATM   14  O   UNL     1      -9.279   4.089  69.677  1.00  0.00    -0.114 OA 
HETATM   15  O   UNL     1      -8.055   5.872  70.271  1.00  0.00    -0.103 OA 
HETATM   16  H   UNL     1      -9.844   1.752  67.518  1.00  0.00     0.000 HD 
BRANCH   9  17
HETATM   17  C   UNL     1      -7.940   7.884  68.259  1.00  0.00    -0.122 C  
BRANCH  17  18
HETATM   18  C   UNL     1      -8.733   9.133  67.987  1.00  0.00    -0.129 A  
HETATM   19  C   UNL     1     -10.127   9.126  68.081  1.00  0.00    -0.225 A  
HETATM   20  C   UNL     1     -10.872  10.192  67.558  1.00  0.00    -0.349 A  
HETATM   21  C   UNL     1     -10.259  11.268  66.877  1.00  0.00    -0.254 A  
HETATM   22  C   UNL     1      -8.862  11.350  66.994  1.00  0.00    -0.168 A  
HETATM   23  C   UNL     1      -8.108  10.310  67.563  1.00  0.00    -0.110 A  
BRANCH  21  24
HETATM   24  C   UNL     1     -11.055  12.098  65.906  1.00  0.00    -0.360 A  
HETATM   25  C   UNL     1     -11.621  13.381  66.133  1.00  0.00    -0.378 A  
HETATM   26  C   UNL     1     -12.191  14.092  65.040  1.00  0.00    -0.448 A  
HETATM   27  C   UNL     1     -11.139  11.600  64.573  1.00  0.00    -0.365 A  
HETATM   28  C   UNL     1     -11.732  12.300  63.523  1.00  0.00    -0.584 A  
HETATM   29  C   UNL     1     -12.245  13.560  63.753  1.00  0.00    -0.449 A  
BRANCH  25  30
HETATM   30  C   UNL     1     -11.696  14.026  67.447  1.00  0.00    -0.388 A  
HETATM   31  N   UNL     1     -12.025  14.528  69.525  1.00  0.00    -0.308 NA 
HETATM   32  H   UNL     1     -12.460  12.576  68.750  1.00  0.00     0.000 HD 
HETATM   33  N   UNL     1     -11.557  15.640  68.980  1.00  0.00    -0.366 NA 
HETATM   34  N   UNL     1     -12.123  13.525  68.590  1.00  0.00    -0.329 NA 
HETATM   35  N   UNL     1     -11.353  15.332  67.694  1.00  0.00    -0.329 NA 
ENDBRANCH  25  30
ENDBRANCH  21  24
ENDBRANCH  17  18
ENDBRANCH   9  17
ENDBRANCH   3   4
ENDBRANCH   2   3
TORSDOF 6
ENDMDL
MODEL      122
REMARK 921   NORMALIZED FREE ENERGY PREDICTED BY IDOCK:   -6.01 KCAL/MOL
REMARK 922        TOTAL FREE ENERGY PREDICTED BY IDOCK:   -9.27 KCAL/MOL
REMARK 923 INTER-LIGAND FREE ENERGY PREDICTED BY IDOCK:   -8.43 KCAL/MOL
REMARK 924 INTRA-LIGAND FREE ENERGY PREDICTED BY IDOCK:   -0.85 KCAL/MOL
REMARK 927      BINDING AFFINITY PREDICTED BY RF-SCORE:    0.00 PKD
ROOT
HETATM    1  C   UNL     1     -13.143   8.596  72.140  1.00  0.00    -0.423 C  
HETATM    2  C   UNL     1     -13.322   9.905  71.381  1.00  0.00    -0.447 C  
ENDROOT
BRANCH   2   3
HETATM    3  C   UNL     1     -12.160  10.245  70.439  1.00  0.00    -0.373 C  
BRANCH   3   4
HETATM    4  C   UNL     1     -11.949  11.721  70.287  1.00  0.00    -0.343 A  
HETATM    5  N   UNL     1     -12.541  12.565  71.110  1.00  0.00    -0.327 NA 
HETATM    6  C   UNL     1     -12.293  13.829  70.654  1.00  0.00    -0.375 A  
HETATM    7  C   UNL     1     -12.900  15.025  71.357  1.00  0.00    -0.359 C  
HETATM    8  C   UNL     1     -11.532  13.769  69.489  1.00  0.00    -0.267 A  
HETATM    9  N   UNL     1     -11.201  12.408  69.345  1.00  0.00    -0.201 NA 
HETATM   10  O   UNL     1     -13.731  15.722  70.405  1.00  0.00    -0.682 OA 
HETATM   11  C   UNL     1     -11.833  16.014  71.840  1.00  0.00    -0.619 C  
HETATM   12  C   UNL     1     -13.779  14.640  72.559  1.00  0.00    -0.572 C  
HETATM   13  C   UNL     1     -11.103  14.816  68.591  1.00  0.00    -0.262 C  
HETATM   14  O   UNL     1     -11.951  15.867  68.522  1.00  0.00    -0.306 OA 
HETATM   15  O   UNL     1     -10.097  14.775  67.889  1.00  0.00    -0.219 OA 
HETATM   16  H   UNL     1     -14.112  16.472  70.845  1.00  0.00     0.000 HD 
BRANCH   9  17
HETATM   17  C   UNL     1     -10.247  11.961  68.300  1.00  0.00    -0.204 C  
BRANCH  17  18
HETATM   18  C   UNL     1     -10.047  10.483  68.103  1.00  0.00    -0.180 A  
HETATM   19  C   UNL     1      -8.950   9.831  68.673  1.00  0.00    -0.130 A  
HETATM   20  C   UNL     1      -8.611   8.535  68.261  1.00  0.00    -0.139 A  
HETATM   21  C   UNL     1      -9.315   7.871  67.232  1.00  0.00    -0.180 A  
HETATM   22  C   UNL     1     -10.529   8.459  66.842  1.00  0.00    -0.359 A  
HETATM   23  C   UNL     1     -10.905   9.737  67.288  1.00  0.00    -0.247 A  
BRANCH  21  24
HETATM   24  C   UNL     1      -8.657   6.755  66.465  1.00  0.00    -0.128 A  
HETATM   25  C   UNL     1      -7.814   6.873  65.327  1.00  0.00    -0.118 A  
HETATM   26  C   UNL     1      -7.140   5.719  64.840  1.00  0.00    -0.060 A  
HETATM   27  C   UNL     1      -8.788   5.448  67.018  1.00  0.00    -0.110 A  
HETATM   28  C   UNL     1      -8.142   4.323  66.504  1.00  0.00    -0.102 A  
HETATM   29  C   UNL     1      -7.300   4.462  65.421  1.00  0.00    -0.073 A  
BRANCH  25  30
HETATM   30  C   UNL     1      -7.614   8.116  64.578  1.00  0.00    -0.113 A  
HETATM   31  N   UNL     1      -7.836   9.966  63.478  1.00  0.00    -0.144 NA 
HETATM   32  H   UNL     1      -9.523   8.933  64.309  1.00  0.00     0.000 HD 
HETATM   33  N   UNL     1      -6.536   9.718  63.461  1.00  0.00    -0.112 NA 
HETATM   34  N   UNL     1      -8.516   8.983  64.158  1.00  0.00    -0.184 NA 
HETATM   35  N   UNL     1      -6.396   8.574  64.140  1.00  0.00    -0.071 NA 
ENDBRANCH  25  30
ENDBRANCH  21  24
ENDBRANCH  17  18
ENDBRANCH   9  17
ENDBRANCH   3   4
ENDBRANCH   2   3
TORSDOF 6
ENDMDL
MODEL      123
REMARK 921   NORMALIZED FREE ENERGY PREDICTED BY IDOCK:   -5.99 KCAL/MOL
REMARK 922        TOTAL FREE ENERGY PREDICTED BY IDOCK:   -9.25 KCAL/MOL
REMARK 923 INTER-LIGAND FREE ENERGY PREDICTED BY IDOCK:   -7.63 KCAL/MOL
REMARK 924 INTRA-LIGAND FREE ENERGY PREDICTED BY IDOCK:   -1.62 KCAL/MOL
REMARK 927      BINDING AFFINITY PREDICTED BY RF-SCORE:    0.00 PKD
ROOT
HETATM    1  C   UNL     1     -10.532   7.998  66.844  1.00  0.00    -0.387 C  
HETATM    2  C   UNL     1      -9.117   8.150  66.299  1.00  0.00    -0.231 C  
ENDROOT
BRANCH   2   3
HETATM    3  C   UNL     1      -8.997   9.154  65.145  1.00  0.00    -0.238 C  
BRANCH   3   4
HETATM    4  C   UNL     1      -9.501  10.517  65.507  1.00  0.00    -0.216 A  
HETATM    5  N   UNL     1     -10.563  11.015  64.903  1.00  0.00    -0.288 NA 
HETATM    6  C   UNL     1     -10.706  12.309  65.318  1.00  0.00    -0.292 A  
HETATM    7  C   UNL     1     -11.808  13.176  64.745  1.00  0.00    -0.369 C  
HETATM    8  C   UNL     1      -9.680  12.637  66.200  1.00  0.00    -0.251 A  
HETATM    9  N   UNL     1      -8.994  11.427  66.420  1.00  0.00    -0.187 NA 
HETATM   10  O   UNL     1     -11.189  14.308  64.099  1.00  0.00    -0.599 OA 
HETATM   11  C   UNL     1     -12.736  13.725  65.835  1.00  0.00    -0.452 C  
HETATM   12  C   UNL     1     -12.671  12.448  63.700  1.00  0.00    -0.466 C  
HETATM   13  C   UNL     1      -9.343  13.894  66.826  1.00  0.00    -0.275 C  
HETATM   14  O   UNL     1      -9.670  14.982  66.093  1.00  0.00    -0.268 OA 
HETATM   15  O   UNL     1      -8.760  14.015  67.900  1.00  0.00    -0.165 OA 
HETATM   16  H   UNL     1     -11.880  14.852  63.740  1.00  0.00     0.000 HD 
BRANCH   9  17
HETATM   17  C   UNL     1      -7.924  11.330  67.444  1.00  0.00    -0.132 C  
BRANCH  17  18
HETATM   18  C   UNL     1      -8.276  10.761  68.791  1.00  0.00    -0.145 A  
HETATM   19  C   UNL     1      -7.274  10.362  69.679  1.00  0.00    -0.148 A  
HETATM   20  C   UNL     1      -7.596   9.580  70.797  1.00  0.00    -0.099 A  
HETATM   21  C   UNL     1      -8.913   9.126  71.035  1.00  0.00    -0.281 A  
HETATM   22  C   UNL     1      -9.917   9.722  70.255  1.00  0.00    -0.309 A  
HETATM   23  C   UNL     1      -9.607  10.548  69.163  1.00  0.00    -0.214 A  
BRANCH  21  24
HETATM   24  C   UNL     1      -9.149   7.913  71.895  1.00  0.00    -0.192 A  
HETATM   25  C   UNL     1      -8.345   6.744  71.974  1.00  0.00    -0.111 A  
HETATM   26  C   UNL     1      -8.628   5.773  72.974  1.00  0.00    -0.121 A  
HETATM   27  C   UNL     1     -10.223   8.001  72.828  1.00  0.00    -0.389 A  
HETATM   28  C   UNL     1     -10.503   7.021  73.780  1.00  0.00    -0.392 A  
HETATM   29  C   UNL     1      -9.691   5.909  73.865  1.00  0.00    -0.174 A  
BRANCH  25  30
HETATM   30  C   UNL     1      -7.244   6.440  71.056  1.00  0.00    -0.078 A  
HETATM   31  N   UNL     1      -5.327   6.151  70.097  1.00  0.00    -0.013 NA 
HETATM   32  H   UNL     1      -5.486   6.762  72.146  1.00  0.00     0.000 HD 
HETATM   33  N   UNL     1      -6.218   5.882  69.155  1.00  0.00    -0.031 NA 
HETATM   34  N   UNL     1      -5.945   6.502  71.273  1.00  0.00    -0.035 NA 
HETATM   35  N   UNL     1      -7.406   6.062  69.746  1.00  0.00    -0.077 NA 
ENDBRANCH  25  30
ENDBRANCH  21  24
ENDBRANCH  17  18
ENDBRANCH   9  17
ENDBRANCH   3   4
ENDBRANCH   2   3
TORSDOF 6
ENDMDL
MODEL      124
REMARK 921   NORMALIZED FREE ENERGY PREDICTED BY IDOCK:   -5.98 KCAL/MOL
REMARK 922        TOTAL FREE ENERGY PREDICTED BY IDOCK:   -9.23 KCAL/MOL
REMARK 923 INTER-LIGAND FREE ENERGY PREDICTED BY IDOCK:   -7.60 KCAL/MOL
REMARK 924 INTRA-LIGAND FREE ENERGY PREDICTED BY IDOCK:   -1.63 KCAL/MOL
REMARK 927      BINDING AFFINITY PREDICTED BY RF-SCORE:    0.00 PKD
ROOT
HETATM    1  C   UNL     1      -6.894   9.918  68.909  1.00  0.00    -0.057 C  
HETATM    2  C   UNL     1      -7.597  11.260  68.742  1.00  0.00    -0.130 C  
ENDROOT
BRANCH   2   3
HETATM    3  C   UNL     1      -7.337  11.936  67.389  1.00  0.00    -0.145 C  
BRANCH   3   4
HETATM    4  C   UNL     1      -8.533  12.675  66.870  1.00  0.00    -0.116 A  
HETATM    5  N   UNL     1      -8.555  13.995  66.883  1.00  0.00    -0.174 NA 
HETATM    6  C   UNL     1      -9.805  14.390  66.496  1.00  0.00    -0.287 A  
HETATM    7  C   UNL     1     -10.165  15.861  66.476  1.00  0.00    -0.290 C  
HETATM    8  C   UNL     1     -10.598  13.272  66.252  1.00  0.00    -0.289 A  
HETATM    9  N   UNL     1      -9.720  12.177  66.361  1.00  0.00    -0.226 NA 
HETATM   10  O   UNL     1     -11.272  16.057  67.381  1.00  0.00    -0.226 OA 
HETATM   11  C   UNL     1     -10.626  16.322  65.087  1.00  0.00    -0.327 C  
HETATM   12  C   UNL     1      -9.014  16.774  66.929  1.00  0.00    -0.244 C  
HETATM   13  C   UNL     1     -11.999  13.169  65.919  1.00  0.00    -0.427 C  
HETATM   14  O   UNL     1     -12.764  14.160  66.429  1.00  0.00    -0.356 OA 
HETATM   15  O   UNL     1     -12.508  12.250  65.281  1.00  0.00    -0.585 OA 
HETATM   16  H   UNL     1     -11.498  16.980  67.368  1.00  0.00     0.000 HD 
BRANCH   9  17
HETATM   17  C   UNL     1     -10.161  10.806  66.001  1.00  0.00    -0.249 C  
BRANCH  17  18
HETATM   18  C   UNL     1     -10.546   9.866  67.111  1.00  0.00    -0.295 A  
HETATM   19  C   UNL     1     -11.045  10.359  68.320  1.00  0.00    -0.338 A  
HETATM   20  C   UNL     1     -11.133   9.518  69.438  1.00  0.00    -0.136 A  
HETATM   21  C   UNL     1     -10.675   8.182  69.404  1.00  0.00    -0.164 A  
HETATM   22  C   UNL     1     -10.390   7.663  68.131  1.00  0.00    -0.250 A  
HETATM   23  C   UNL     1     -10.349   8.487  66.994  1.00  0.00    -0.379 A  
BRANCH  21  24
HETATM   24  C   UNL     1     -10.299   7.480  70.682  1.00  0.00    -0.211 A  
HETATM   25  C   UNL     1      -9.321   6.464  70.850  1.00  0.00    -0.168 A  
HETATM   26  C   UNL     1      -8.977   6.042  72.164  1.00  0.00    -0.142 A  
HETATM   27  C   UNL     1     -10.898   7.981  71.875  1.00  0.00    -0.316 A  
HETATM   28  C   UNL     1     -10.569   7.529  73.153  1.00  0.00    -0.442 A  
HETATM   29  C   UNL     1      -9.591   6.567  73.300  1.00  0.00    -0.168 A  
BRANCH  25  30
HETATM   30  C   UNL     1      -8.651   5.776  69.743  1.00  0.00    -0.127 A  
HETATM   31  N   UNL     1      -8.076   4.451  68.133  1.00  0.00    -0.089 NA 
HETATM   32  H   UNL     1      -9.965   4.264  69.133  1.00  0.00     0.000 HD 
HETATM   33  N   UNL     1      -7.046   5.270  68.279  1.00  0.00    -0.061 NA 
HETATM   34  N   UNL     1      -9.072   4.747  69.033  1.00  0.00    -0.108 NA 
HETATM   35  N   UNL     1      -7.399   6.090  69.276  1.00  0.00    -0.081 NA 
ENDBRANCH  25  30
ENDBRANCH  21  24
ENDBRANCH  17  18
ENDBRANCH   9  17
ENDBRANCH   3   4
ENDBRANCH   2   3
TORSDOF 6
ENDMDL
MODEL      125
REMARK 921   NORMALIZED FREE ENERGY PREDICTED BY IDOCK:   -5.98 KCAL/MOL
REMARK 922        TOTAL FREE ENERGY PREDICTED BY IDOCK:   -9.22 KCAL/MOL
REMARK 923 INTER-LIGAND FREE ENERGY PREDICTED BY IDOCK:   -7.14 KCAL/MOL
REMARK 924 INTRA-LIGAND FREE ENERGY PREDICTED BY IDOCK:   -2.08 KCAL/MOL
REMARK 927      BINDING AFFINITY PREDICTED BY RF-SCORE:    0.00 PKD
ROOT
HETATM    1  C   UNL     1      -7.951  11.365  67.743  1.00  0.00    -0.119 C  
HETATM    2  C   UNL     1      -8.184  11.482  66.242  1.00  0.00    -0.044 C  
ENDROOT
BRANCH   2   3
HETATM    3  C   UNL     1      -9.573  12.014  65.865  1.00  0.00    -0.238 C  
BRANCH   3   4
HETATM    4  C   UNL     1     -10.007  13.163  66.723  1.00  0.00    -0.250 A  
HETATM    5  N   UNL     1      -9.471  14.357  66.556  1.00  0.00    -0.281 NA 
HETATM    6  C   UNL     1      -9.938  15.163  67.556  1.00  0.00    -0.225 A  
HETATM    7  C   UNL     1      -9.448  16.591  67.674  1.00  0.00    -0.225 C  
HETATM    8  C   UNL     1     -10.784  14.437  68.390  1.00  0.00    -0.245 A  
HETATM    9  N   UNL     1     -10.927  13.187  67.757  1.00  0.00    -0.245 NA 
HETATM   10  O   UNL     1      -8.816  16.736  68.963  1.00  0.00    -0.253 OA 
HETATM   11  C   UNL     1     -10.599  17.603  67.615  1.00  0.00    -0.364 C  
HETATM   12  C   UNL     1      -8.418  16.971  66.596  1.00  0.00    -0.283 C  
HETATM   13  C   UNL     1     -11.438  14.812  69.622  1.00  0.00    -0.292 C  
HETATM   14  O   UNL     1     -10.761  15.725  70.353  1.00  0.00    -0.316 OA 
HETATM   15  O   UNL     1     -12.488  14.329  70.039  1.00  0.00    -0.338 OA 
HETATM   16  H   UNL     1      -8.508  17.632  69.038  1.00  0.00     0.000 HD 
BRANCH   9  17
HETATM   17  C   UNL     1     -11.897  12.183  68.262  1.00  0.00    -0.301 C  
BRANCH  17  18
HETATM   18  C   UNL     1     -11.367  10.862  68.749  1.00  0.00    -0.357 A  
HETATM   19  C   UNL     1     -10.923  10.716  70.066  1.00  0.00    -0.325 A  
HETATM   20  C   UNL     1     -10.176   9.588  70.434  1.00  0.00    -0.337 A  
HETATM   21  C   UNL     1      -9.801   8.602  69.494  1.00  0.00    -0.187 A  
HETATM   22  C   UNL     1     -10.443   8.669  68.247  1.00  0.00    -0.234 A  
HETATM   23  C   UNL     1     -11.236   9.771  67.885  1.00  0.00    -0.036 A  
BRANCH  21  24
HETATM   24  C   UNL     1      -8.615   7.714  69.763  1.00  0.00    -0.135 A  
HETATM   25  C   UNL     1      -8.541   6.633  70.682  1.00  0.00    -0.142 A  
HETATM   26  C   UNL     1      -7.393   5.793  70.675  1.00  0.00    -0.084 A  
HETATM   27  C   UNL     1      -7.487   7.894  68.912  1.00  0.00    -0.094 A  
HETATM   28  C   UNL     1      -6.356   7.078  68.944  1.00  0.00    -0.028 A  
HETATM   29  C   UNL     1      -6.316   6.012  69.818  1.00  0.00    -0.037 A  
BRANCH  25  30
HETATM   30  C   UNL     1      -9.567   6.335  71.685  1.00  0.00    -0.154 A  
HETATM   31  N   UNL     1     -10.701   6.005  73.498  1.00  0.00    -0.264 NA 
HETATM   32  H   UNL     1      -8.684   6.735  73.541  1.00  0.00     0.000 HD 
HETATM   33  N   UNL     1     -11.521   5.655  72.519  1.00  0.00    -0.298 NA 
HETATM   34  N   UNL     1      -9.489   6.421  72.999  1.00  0.00    -0.142 NA 
HETATM   35  N   UNL     1     -10.822   5.857  71.397  1.00  0.00    -0.266 NA 
ENDBRANCH  25  30
ENDBRANCH  21  24
ENDBRANCH  17  18
ENDBRANCH   9  17
ENDBRANCH   3   4
ENDBRANCH   2   3
TORSDOF 6
ENDMDL
MODEL      126
REMARK 921   NORMALIZED FREE ENERGY PREDICTED BY IDOCK:   -5.96 KCAL/MOL
REMARK 922        TOTAL FREE ENERGY PREDICTED BY IDOCK:   -9.21 KCAL/MOL
REMARK 923 INTER-LIGAND FREE ENERGY PREDICTED BY IDOCK:   -7.63 KCAL/MOL
REMARK 924 INTRA-LIGAND FREE ENERGY PREDICTED BY IDOCK:   -1.58 KCAL/MOL
REMARK 927      BINDING AFFINITY PREDICTED BY RF-SCORE:    0.00 PKD
ROOT
HETATM    1  C   UNL     1      -8.413   8.141  73.041  1.00  0.00    -0.272 C  
HETATM    2  C   UNL     1      -7.816   7.867  71.666  1.00  0.00    -0.102 C  
ENDROOT
BRANCH   2   3
HETATM    3  C   UNL     1      -8.587   8.517  70.510  1.00  0.00    -0.155 C  
BRANCH   3   4
HETATM    4  C   UNL     1      -8.536   7.709  69.250  1.00  0.00    -0.138 A  
HETATM    5  N   UNL     1      -8.621   6.393  69.301  1.00  0.00    -0.125 NA 
HETATM    6  C   UNL     1      -8.400   5.915  68.040  1.00  0.00    -0.111 A  
HETATM    7  C   UNL     1      -8.367   4.423  67.786  1.00  0.00    -0.098 C  
HETATM    8  C   UNL     1      -8.148   6.975  67.173  1.00  0.00    -0.118 A  
HETATM    9  N   UNL     1      -8.379   8.132  67.941  1.00  0.00    -0.128 NA 
HETATM   10  O   UNL     1      -7.065   4.093  67.258  1.00  0.00    -0.064 OA 
HETATM   11  C   UNL     1      -9.404   3.992  66.741  1.00  0.00    -0.199 C  
HETATM   12  C   UNL     1      -8.590   3.586  69.057  1.00  0.00    -0.119 C  
HETATM   13  C   UNL     1      -7.768   6.979  65.779  1.00  0.00    -0.103 C  
HETATM   14  O   UNL     1      -7.039   5.906  65.401  1.00  0.00    -0.062 OA 
HETATM   15  O   UNL     1      -8.012   7.883  64.984  1.00  0.00    -0.122 OA 
HETATM   16  H   UNL     1      -7.044   3.157  67.099  1.00  0.00     0.000 HD 
BRANCH   9  17
HETATM   17  C   UNL     1      -8.375   9.478  67.315  1.00  0.00    -0.125 C  
BRANCH  17  18
HETATM   18  C   UNL     1      -9.444  10.456  67.720  1.00  0.00    -0.159 A  
HETATM   19  C   UNL     1      -9.105  11.695  68.268  1.00  0.00    -0.187 A  
HETATM   20  C   UNL     1     -10.083  12.476  68.900  1.00  0.00     0.034 A  
HETATM   21  C   UNL     1     -11.413  12.024  69.055  1.00  0.00    -0.357 A  
HETATM   22  C   UNL     1     -11.765  10.888  68.307  1.00  0.00    -0.259 A  
HETATM   23  C   UNL     1     -10.800  10.126  67.628  1.00  0.00    -0.346 A  
BRANCH  21  24
HETATM   24  C   UNL     1     -12.284  12.598  70.140  1.00  0.00    -0.310 A  
HETATM   25  C   UNL     1     -12.834  11.912  71.256  1.00  0.00    -0.391 A  
HETATM   26  C   UNL     1     -13.488  12.657  72.275  1.00  0.00    -0.541 A  
HETATM   27  C   UNL     1     -12.471  14.011  70.116  1.00  0.00    -0.380 A  
HETATM   28  C   UNL     1     -13.145  14.718  71.111  1.00  0.00    -0.443 A  
HETATM   29  C   UNL     1     -13.641  14.041  72.205  1.00  0.00    -0.622 A  
BRANCH  25  30
HETATM   30  C   UNL     1     -12.809  10.456  71.419  1.00  0.00    -0.452 A  
HETATM   31  N   UNL     1     -13.283   8.353  71.598  1.00  0.00    -0.342 NA 
HETATM   32  H   UNL     1     -14.780   9.815  71.126  1.00  0.00     0.000 HD 
HETATM   33  N   UNL     1     -11.985   8.427  71.846  1.00  0.00    -0.314 NA 
HETATM   34  N   UNL     1     -13.807   9.597  71.339  1.00  0.00    -0.209 NA 
HETATM   35  N   UNL     1     -11.689   9.728  71.737  1.00  0.00    -0.314 NA 
ENDBRANCH  25  30
ENDBRANCH  21  24
ENDBRANCH  17  18
ENDBRANCH   9  17
ENDBRANCH   3   4
ENDBRANCH   2   3
TORSDOF 6
ENDMDL
MODEL      127
REMARK 921   NORMALIZED FREE ENERGY PREDICTED BY IDOCK:   -5.96 KCAL/MOL
REMARK 922        TOTAL FREE ENERGY PREDICTED BY IDOCK:   -9.20 KCAL/MOL
REMARK 923 INTER-LIGAND FREE ENERGY PREDICTED BY IDOCK:   -7.84 KCAL/MOL
REMARK 924 INTRA-LIGAND FREE ENERGY PREDICTED BY IDOCK:   -1.36 KCAL/MOL
REMARK 927      BINDING AFFINITY PREDICTED BY RF-SCORE:    0.00 PKD
ROOT
HETATM    1  C   UNL     1      -8.002   6.942  67.667  1.00  0.00    -0.113 C  
HETATM    2  C   UNL     1      -9.249   6.411  66.969  1.00  0.00    -0.136 C  
ENDROOT
BRANCH   2   3
HETATM    3  C   UNL     1     -10.238   5.707  67.907  1.00  0.00    -0.234 C  
BRANCH   3   4
HETATM    4  C   UNL     1     -10.330   6.362  69.251  1.00  0.00    -0.207 A  
HETATM    5  N   UNL     1      -9.866   5.749  70.323  1.00  0.00    -0.180 NA 
HETATM    6  C   UNL     1     -10.210   6.500  71.411  1.00  0.00    -0.197 A  
HETATM    7  C   UNL     1      -9.872   6.018  72.806  1.00  0.00    -0.163 C  
HETATM    8  C   UNL     1     -10.936   7.616  71.002  1.00  0.00    -0.248 A  
HETATM    9  N   UNL     1     -10.882   7.584  69.595  1.00  0.00    -0.231 NA 
HETATM   10  O   UNL     1     -11.109   5.872  73.535  1.00  0.00    -0.436 OA 
HETATM   11  C   UNL     1      -9.009   7.030  73.572  1.00  0.00    -0.178 C  
HETATM   12  C   UNL     1      -9.149   4.661  72.822  1.00  0.00    -0.134 C  
HETATM   13  C   UNL     1     -11.596   8.642  71.774  1.00  0.00    -0.332 C  
HETATM   14  O   UNL     1     -12.054   8.224  72.975  1.00  0.00    -0.249 OA 
HETATM   15  O   UNL     1     -11.799   9.792  71.392  1.00  0.00    -0.361 OA 
HETATM   16  H   UNL     1     -10.897   5.570  74.411  1.00  0.00     0.000 HD 
BRANCH   9  17
HETATM   17  C   UNL     1     -11.406   8.713  68.786  1.00  0.00     0.664 C  
BRANCH  17  18
HETATM   18  C   UNL     1     -10.423   9.706  68.228  1.00  0.00    -0.259 A  
HETATM   19  C   UNL     1      -9.490  10.329  69.060  1.00  0.00    -0.206 A  
HETATM   20  C   UNL     1      -8.777  11.446  68.604  1.00  0.00    -0.121 A  
HETATM   21  C   UNL     1      -9.010  12.011  67.329  1.00  0.00    -0.180 A  
HETATM   22  C   UNL     1      -9.784  11.237  66.449  1.00  0.00    -0.238 A  
HETATM   23  C   UNL     1     -10.462  10.086  66.882  1.00  0.00    -0.284 A  
BRANCH  21  24
HETATM   24  C   UNL     1      -8.647  13.447  67.062  1.00  0.00    -0.168 A  
HETATM   25  C   UNL     1      -9.446  14.432  66.422  1.00  0.00    -0.309 A  
HETATM   26  C   UNL     1      -9.007  15.785  66.414  1.00  0.00    -0.366 A  
HETATM   27  C   UNL     1      -7.420  13.902  67.627  1.00  0.00    -0.187 A  
HETATM   28  C   UNL     1      -6.992  15.229  67.579  1.00  0.00    -0.225 A  
HETATM   29  C   UNL     1      -7.797  16.179  66.985  1.00  0.00    -0.258 A  
BRANCH  25  30
HETATM   30  C   UNL     1     -10.700  14.145  65.721  1.00  0.00    -0.299 A  
HETATM   31  N   UNL     1     -12.755  13.765  65.161  1.00  0.00    -0.686 NA 
HETATM   32  H   UNL     1     -12.209  14.296  67.166  1.00  0.00     0.000 HD 
HETATM   33  N   UNL     1     -12.063  13.580  64.048  1.00  0.00    -0.537 NA 
HETATM   34  N   UNL     1     -11.928  14.107  66.204  1.00  0.00    -0.405 NA 
HETATM   35  N   UNL     1     -10.791  13.814  64.392  1.00  0.00    -0.380 NA 
ENDBRANCH  25  30
ENDBRANCH  21  24
ENDBRANCH  17  18
ENDBRANCH   9  17
ENDBRANCH   3   4
ENDBRANCH   2   3
TORSDOF 6
ENDMDL
MODEL      128
REMARK 921   NORMALIZED FREE ENERGY PREDICTED BY IDOCK:   -5.90 KCAL/MOL
REMARK 922        TOTAL FREE ENERGY PREDICTED BY IDOCK:   -9.12 KCAL/MOL
REMARK 923 INTER-LIGAND FREE ENERGY PREDICTED BY IDOCK:   -7.57 KCAL/MOL
REMARK 924 INTRA-LIGAND FREE ENERGY PREDICTED BY IDOCK:   -1.54 KCAL/MOL
REMARK 927      BINDING AFFINITY PREDICTED BY RF-SCORE:    0.00 PKD
ROOT
HETATM    1  C   UNL     1     -10.320   6.703  71.090  1.00  0.00    -0.232 C  
HETATM    2  C   UNL     1     -10.363   5.465  70.202  1.00  0.00    -0.361 C  
ENDROOT
BRANCH   2   3
HETATM    3  C   UNL     1     -10.796   5.748  68.758  1.00  0.00    -0.285 C  
BRANCH   3   4
HETATM    4  C   UNL     1      -9.668   5.629  67.779  1.00  0.00    -0.125 A  
HETATM    5  N   UNL     1      -9.612   4.603  66.950  1.00  0.00    -0.166 NA 
HETATM    6  C   UNL     1      -8.421   4.673  66.286  1.00  0.00    -0.113 A  
HETATM    7  C   UNL     1      -8.032   3.588  65.304  1.00  0.00    -0.086 C  
HETATM    8  C   UNL     1      -7.696   5.775  66.733  1.00  0.00    -0.100 A  
HETATM    9  N   UNL     1      -8.575   6.459  67.594  1.00  0.00    -0.116 NA 
HETATM   10  O   UNL     1      -6.806   2.988  65.771  1.00  0.00    -0.046 OA 
HETATM   11  C   UNL     1      -7.760   4.149  63.902  1.00  0.00    -0.082 C  
HETATM   12  C   UNL     1      -9.087   2.476  65.179  1.00  0.00    -0.135 C  
HETATM   13  C   UNL     1      -6.358   6.213  66.412  1.00  0.00    -0.045 C  
HETATM   14  O   UNL     1      -5.506   5.209  66.103  1.00  0.00    -0.012 OA 
HETATM   15  O   UNL     1      -5.965   7.376  66.458  1.00  0.00    -0.034 OA 
HETATM   16  H   UNL     1      -6.562   2.307  65.155  1.00  0.00     0.000 HD 
BRANCH   9  17
HETATM   17  C   UNL     1      -8.222   7.791  68.145  1.00  0.00    -0.124 C  
BRANCH  17  18
HETATM   18  C   UNL     1      -8.970   8.994  67.639  1.00  0.00    -0.130 A  
HETATM   19  C   UNL     1      -8.295  10.033  66.993  1.00  0.00    -0.121 A  
HETATM   20  C   UNL     1      -8.934  11.262  66.781  1.00  0.00    -0.173 A  
HETATM   21  C   UNL     1     -10.242  11.513  67.253  1.00  0.00    -0.229 A  
HETATM   22  C   UNL     1     -10.961  10.391  67.695  1.00  0.00    -0.374 A  
HETATM   23  C   UNL     1     -10.342   9.141  67.864  1.00  0.00    -0.285 A  
BRANCH  21  24
HETATM   24  C   UNL     1     -10.703  12.928  67.480  1.00  0.00    -0.241 A  
HETATM   25  C   UNL     1     -11.543  13.705  66.637  1.00  0.00    -0.391 A  
HETATM   26  C   UNL     1     -12.017  14.964  67.100  1.00  0.00    -0.136 A  
HETATM   27  C   UNL     1     -10.367  13.507  68.738  1.00  0.00    -0.169 A  
HETATM   28  C   UNL     1     -10.816  14.758  69.159  1.00  0.00    -0.267 A  
HETATM   29  C   UNL     1     -11.660  15.483  68.344  1.00  0.00    -0.368 A  
BRANCH  25  30
HETATM   30  C   UNL     1     -11.936  13.313  65.282  1.00  0.00    -0.388 A  
HETATM   31  N   UNL     1     -12.212  13.131  63.144  1.00  0.00    -0.590 NA 
HETATM   32  H   UNL     1     -10.854  14.558  63.992  1.00  0.00     0.000 HD 
HETATM   33  N   UNL     1     -13.029  12.230  63.667  1.00  0.00    -0.792 NA 
HETATM   34  N   UNL     1     -11.535  13.811  64.128  1.00  0.00    -0.337 NA 
HETATM   35  N   UNL     1     -12.861  12.342  64.989  1.00  0.00    -0.521 NA 
ENDBRANCH  25  30
ENDBRANCH  21  24
ENDBRANCH  17  18
ENDBRANCH   9  17
ENDBRANCH   3   4
ENDBRANCH   2   3
TORSDOF 6
ENDMDL
MODEL      129
REMARK 921   NORMALIZED FREE ENERGY PREDICTED BY IDOCK:   -5.89 KCAL/MOL
REMARK 922        TOTAL FREE ENERGY PREDICTED BY IDOCK:   -9.11 KCAL/MOL
REMARK 923 INTER-LIGAND FREE ENERGY PREDICTED BY IDOCK:   -7.78 KCAL/MOL
REMARK 924 INTRA-LIGAND FREE ENERGY PREDICTED BY IDOCK:   -1.33 KCAL/MOL
REMARK 927      BINDING AFFINITY PREDICTED BY RF-SCORE:    0.00 PKD
ROOT
HETATM    1  C   UNL     1     -12.246   8.056  72.140  1.00  0.00    -0.377 C  
HETATM    2  C   UNL     1     -11.598   7.326  70.970  1.00  0.00    -0.329 C  
ENDROOT
BRANCH   2   3
HETATM    3  C   UNL     1     -10.257   7.924  70.525  1.00  0.00    -0.198 C  
BRANCH   3   4
HETATM    4  C   UNL     1      -9.441   6.974  69.703  1.00  0.00    -0.147 A  
HETATM    5  N   UNL     1      -8.523   6.219  70.275  1.00  0.00    -0.132 NA 
HETATM    6  C   UNL     1      -7.844   5.570  69.283  1.00  0.00    -0.091 A  
HETATM    7  C   UNL     1      -6.673   4.672  69.623  1.00  0.00    -0.044 C  
HETATM    8  C   UNL     1      -8.347   5.952  68.041  1.00  0.00    -0.111 A  
HETATM    9  N   UNL     1      -9.469   6.749  68.337  1.00  0.00    -0.127 NA 
HETATM   10  O   UNL     1      -5.505   5.198  68.960  1.00  0.00    -0.007 OA 
HETATM   11  C   UNL     1      -6.879   3.240  69.114  1.00  0.00    -0.041 C  
HETATM   12  C   UNL     1      -6.375   4.608  71.130  1.00  0.00    -0.019 C  
HETATM   13  C   UNL     1      -7.904   5.622  66.707  1.00  0.00    -0.101 C  
HETATM   14  O   UNL     1      -6.575   5.397  66.604  1.00  0.00    -0.052 OA 
HETATM   15  O   UNL     1      -8.624   5.593  65.711  1.00  0.00    -0.137 OA 
HETATM   16  H   UNL     1      -4.770   4.635  69.173  1.00  0.00     0.000 HD 
BRANCH   9  17
HETATM   17  C   UNL     1     -10.381   7.212  67.261  1.00  0.00    -0.272 C  
BRANCH  17  18
HETATM   18  C   UNL     1     -10.378   8.674  66.905  1.00  0.00    -0.355 A  
HETATM   19  C   UNL     1      -9.660   9.136  65.799  1.00  0.00    -0.323 A  
HETATM   20  C   UNL     1      -9.427  10.508  65.637  1.00  0.00    -0.259 A  
HETATM   21  C   UNL     1      -9.850  11.456  66.595  1.00  0.00    -0.233 A  
HETATM   22  C   UNL     1     -10.748  10.985  67.567  1.00  0.00    -0.289 A  
HETATM   23  C   UNL     1     -11.030   9.616  67.707  1.00  0.00    -0.203 A  
BRANCH  21  24
HETATM   24  C   UNL     1      -9.173  12.798  66.681  1.00  0.00    -0.212 A  
HETATM   25  C   UNL     1      -9.722  14.063  66.337  1.00  0.00    -0.309 A  
HETATM   26  C   UNL     1      -8.994  15.244  66.651  1.00  0.00    -0.324 A  
HETATM   27  C   UNL     1      -7.887  12.817  67.295  1.00  0.00    -0.148 A  
HETATM   28  C   UNL     1      -7.176  13.986  67.564  1.00  0.00    -0.183 A  
HETATM   29  C   UNL     1      -7.739  15.207  67.256  1.00  0.00    -0.241 A  
BRANCH  25  30
HETATM   30  C   UNL     1     -10.995  14.242  65.635  1.00  0.00    -0.309 A  
HETATM   31  N   UNL     1     -13.051  14.186  64.963  1.00  0.00    -0.681 NA 
HETATM   32  H   UNL     1     -12.419  13.195  66.757  1.00  0.00     0.000 HD 
HETATM   33  N   UNL     1     -12.417  14.903  64.048  1.00  0.00    -0.801 NA 
HETATM   34  N   UNL     1     -12.186  13.766  65.945  1.00  0.00    -0.438 NA 
HETATM   35  N   UNL     1     -11.145  14.939  64.461  1.00  0.00    -0.289 NA 
ENDBRANCH  25  30
ENDBRANCH  21  24
ENDBRANCH  17  18
ENDBRANCH   9  17
ENDBRANCH   3   4
ENDBRANCH   2   3
TORSDOF 6
ENDMDL
MODEL      130
REMARK 921   NORMALIZED FREE ENERGY PREDICTED BY IDOCK:   -5.89 KCAL/MOL
REMARK 922        TOTAL FREE ENERGY PREDICTED BY IDOCK:   -9.11 KCAL/MOL
REMARK 923 INTER-LIGAND FREE ENERGY PREDICTED BY IDOCK:   -7.68 KCAL/MOL
REMARK 924 INTRA-LIGAND FREE ENERGY PREDICTED BY IDOCK:   -1.44 KCAL/MOL
REMARK 927      BINDING AFFINITY PREDICTED BY RF-SCORE:    0.00 PKD
ROOT
HETATM    1  C   UNL     1      -8.914   8.839  71.210  1.00  0.00    -0.295 C  
HETATM    2  C   UNL     1      -9.920   9.693  70.449  1.00  0.00    -0.330 C  
ENDROOT
BRANCH   2   3
HETATM    3  C   UNL     1     -10.827   8.895  69.503  1.00  0.00    -0.163 C  
BRANCH   3   4
HETATM    4  C   UNL     1     -10.135   7.716  68.891  1.00  0.00    -0.197 A  
HETATM    5  N   UNL     1     -10.152   6.546  69.500  1.00  0.00    -0.172 NA 
HETATM    6  C   UNL     1      -9.331   5.705  68.803  1.00  0.00    -0.123 A  
HETATM    7  C   UNL     1      -9.090   4.294  69.297  1.00  0.00    -0.122 C  
HETATM    8  C   UNL     1      -8.764   6.385  67.728  1.00  0.00    -0.114 A  
HETATM    9  N   UNL     1      -9.402   7.640  67.718  1.00  0.00    -0.141 NA 
HETATM   10  O   UNL     1      -7.676   4.149  69.546  1.00  0.00    -0.053 OA 
HETATM   11  C   UNL     1      -9.478   3.242  68.251  1.00  0.00    -0.214 C  
HETATM   12  C   UNL     1      -9.836   3.972  70.602  1.00  0.00    -0.229 C  
HETATM   13  C   UNL     1      -7.770   5.964  66.769  1.00  0.00    -0.100 C  
HETATM   14  O   UNL     1      -6.884   5.062  67.249  1.00  0.00    -0.054 OA 
HETATM   15  O   UNL     1      -7.662   6.400  65.626  1.00  0.00    -0.085 OA 
HETATM   16  H   UNL     1      -7.524   3.264  69.855  1.00  0.00     0.000 HD 
BRANCH   9  17
HETATM   17  C   UNL     1      -9.185   8.598  66.607  1.00  0.00    -0.181 C  
BRANCH  17  18
HETATM   18  C   UNL     1      -9.569  10.037  66.820  1.00  0.00    -0.228 A  
HETATM   19  C   UNL     1      -8.671  10.934  67.405  1.00  0.00    -0.130 A  
HETATM   20  C   UNL     1      -9.119  12.182  67.860  1.00  0.00    -0.185 A  
HETATM   21  C   UNL     1     -10.482  12.552  67.798  1.00  0.00    -0.230 A  
HETATM   22  C   UNL     1     -11.306  11.729  67.014  1.00  0.00    -0.387 A  
HETATM   23  C   UNL     1     -10.852  10.499  66.510  1.00  0.00    -0.128 A  
BRANCH  21  24
HETATM   24  C   UNL     1     -11.017  13.616  68.720  1.00  0.00    -0.292 A  
HETATM   25  C   UNL     1     -11.061  15.016  68.484  1.00  0.00    -0.279 A  
HETATM   26  C   UNL     1     -11.764  15.852  69.395  1.00  0.00    -0.350 A  
HETATM   27  C   UNL     1     -11.668  13.156  69.901  1.00  0.00    -0.327 A  
HETATM   28  C   UNL     1     -12.324  13.998  70.799  1.00  0.00    -0.443 A  
HETATM   29  C   UNL     1     -12.388  15.350  70.536  1.00  0.00    -0.452 A  
BRANCH  25  30
HETATM   30  C   UNL     1     -10.389  15.683  67.366  1.00  0.00    -0.275 A  
HETATM   31  N   UNL     1      -8.976  16.604  66.011  1.00  0.00    -0.482 NA 
HETATM   32  H   UNL     1      -8.350  15.679  67.842  1.00  0.00     0.000 HD 
HETATM   33  N   UNL     1     -10.156  16.780  65.438  1.00  0.00    -0.596 NA 
HETATM   34  N   UNL     1      -9.104  15.934  67.204  1.00  0.00    -0.204 NA 
HETATM   35  N   UNL     1     -11.032  16.212  66.274  1.00  0.00    -0.117 NA 
ENDBRANCH  25  30
ENDBRANCH  21  24
ENDBRANCH  17  18
ENDBRANCH   9  17
ENDBRANCH   3   4
ENDBRANCH   2   3
TORSDOF 6
ENDMDL
MODEL      131
REMARK 921   NORMALIZED FREE ENERGY PREDICTED BY IDOCK:   -5.88 KCAL/MOL
REMARK 922        TOTAL FREE ENERGY PREDICTED BY IDOCK:   -9.10 KCAL/MOL
REMARK 923 INTER-LIGAND FREE ENERGY PREDICTED BY IDOCK:   -7.74 KCAL/MOL
REMARK 924 INTRA-LIGAND FREE ENERGY PREDICTED BY IDOCK:   -1.36 KCAL/MOL
REMARK 927      BINDING AFFINITY PREDICTED BY RF-SCORE:    0.00 PKD
ROOT
HETATM    1  C   UNL     1      -7.982   6.662  64.314  1.00  0.00    -0.092 C  
HETATM    2  C   UNL     1      -8.503   6.861  65.733  1.00  0.00    -0.150 C  
ENDROOT
BRANCH   2   3
HETATM    3  C   UNL     1      -8.100   8.201  66.363  1.00  0.00    -0.106 C  
BRANCH   3   4
HETATM    4  C   UNL     1      -9.086   9.294  66.085  1.00  0.00    -0.179 A  
HETATM    5  N   UNL     1      -9.199   9.792  64.868  1.00  0.00    -0.242 NA 
HETATM    6  C   UNL     1     -10.053  10.857  64.936  1.00  0.00    -0.312 A  
HETATM    7  C   UNL     1     -10.336  11.686  63.700  1.00  0.00    -0.419 C  
HETATM    8  C   UNL     1     -10.472  11.041  66.251  1.00  0.00    -0.254 A  
HETATM    9  N   UNL     1      -9.950   9.938  66.953  1.00  0.00    -0.201 NA 
HETATM   10  O   UNL     1      -9.923  13.042  63.974  1.00  0.00    -0.660 OA 
HETATM   11  C   UNL     1     -11.831  11.725  63.362  1.00  0.00    -0.435 C  
HETATM   12  C   UNL     1      -9.574  11.200  62.456  1.00  0.00    -0.179 C  
HETATM   13  C   UNL     1     -11.288  12.077  66.841  1.00  0.00    -0.341 C  
HETATM   14  O   UNL     1     -11.186  13.278  66.229  1.00  0.00    -0.291 OA 
HETATM   15  O   UNL     1     -11.984  11.942  67.844  1.00  0.00    -0.556 OA 
HETATM   16  H   UNL     1     -10.101  13.561  63.199  1.00  0.00     0.000 HD 
BRANCH   9  17
HETATM   17  C   UNL     1     -10.324   9.688  68.367  1.00  0.00    -0.204 C  
BRANCH  17  18
HETATM   18  C   UNL     1     -10.066   8.321  68.941  1.00  0.00    -0.208 A  
HETATM   19  C   UNL     1     -10.886   7.241  68.603  1.00  0.00    -0.112 A  
HETATM   20  C   UNL     1     -10.825   6.053  69.345  1.00  0.00    -0.433 A  
HETATM   21  C   UNL     1      -9.990   5.923  70.478  1.00  0.00    -0.243 A  
HETATM   22  C   UNL     1      -9.032   6.935  70.652  1.00  0.00    -0.151 A  
HETATM   23  C   UNL     1      -9.052   8.109  69.880  1.00  0.00    -0.151 A  
BRANCH  21  24
HETATM   24  C   UNL     1     -10.300   4.893  71.530  1.00  0.00    -0.228 A  
HETATM   25  C   UNL     1      -9.769   3.578  71.631  1.00  0.00    -0.234 A  
HETATM   26  C   UNL     1     -10.043   2.806  72.794  1.00  0.00    -0.225 A  
HETATM   27  C   UNL     1     -11.116   5.326  72.615  1.00  0.00    -0.319 A  
HETATM   28  C   UNL     1     -11.400   4.539  73.731  1.00  0.00    -0.177 A  
HETATM   29  C   UNL     1     -10.847   3.280  73.830  1.00  0.00    -0.310 A  
BRANCH  25  30
HETATM   30  C   UNL     1      -8.972   2.932  70.586  1.00  0.00    -0.100 A  
HETATM   31  N   UNL     1      -7.435   2.318  69.192  1.00  0.00    -0.043 NA 
HETATM   32  H   UNL     1      -7.076   3.814  70.686  1.00  0.00     0.000 HD 
HETATM   33  N   UNL     1      -8.495   1.595  68.865  1.00  0.00    -0.052 NA 
HETATM   34  N   UNL     1      -7.715   3.152  70.248  1.00  0.00    -0.043 NA 
HETATM   35  N   UNL     1      -9.447   1.973  69.725  1.00  0.00    -0.089 NA 
ENDBRANCH  25  30
ENDBRANCH  21  24
ENDBRANCH  17  18
ENDBRANCH   9  17
ENDBRANCH   3   4
ENDBRANCH   2   3
TORSDOF 6
ENDMDL
MODEL      132
REMARK 921   NORMALIZED FREE ENERGY PREDICTED BY IDOCK:   -5.87 KCAL/MOL
REMARK 922        TOTAL FREE ENERGY PREDICTED BY IDOCK:   -9.08 KCAL/MOL
REMARK 923 INTER-LIGAND FREE ENERGY PREDICTED BY IDOCK:   -7.38 KCAL/MOL
REMARK 924 INTRA-LIGAND FREE ENERGY PREDICTED BY IDOCK:   -1.70 KCAL/MOL
REMARK 927      BINDING AFFINITY PREDICTED BY RF-SCORE:    0.00 PKD
ROOT
HETATM    1  C   UNL     1      -6.101  13.987  70.130  1.00  0.00    -0.154 C  
HETATM    2  C   UNL     1      -6.447  12.916  69.102  1.00  0.00    -0.108 C  
ENDROOT
BRANCH   2   3
HETATM    3  C   UNL     1      -6.634  13.455  67.678  1.00  0.00    -0.174 C  
BRANCH   3   4
HETATM    4  C   UNL     1      -7.853  14.313  67.538  1.00  0.00    -0.194 A  
HETATM    5  N   UNL     1      -7.783  15.611  67.769  1.00  0.00    -0.134 NA 
HETATM    6  C   UNL     1      -9.053  16.110  67.711  1.00  0.00    -0.197 A  
HETATM    7  C   UNL     1      -9.309  17.574  68.002  1.00  0.00    -0.272 C  
HETATM    8  C   UNL     1      -9.954  15.080  67.454  1.00  0.00    -0.226 A  
HETATM    9  N   UNL     1      -9.148  13.952  67.205  1.00  0.00    -0.229 NA 
HETATM   10  O   UNL     1     -10.204  17.650  69.132  1.00  0.00    -0.342 OA 
HETATM   11  C   UNL     1      -9.996  18.284  66.829  1.00  0.00    -0.359 C  
HETATM   12  C   UNL     1      -8.033  18.355  68.356  1.00  0.00    -0.325 C  
HETATM   13  C   UNL     1     -11.397  15.084  67.398  1.00  0.00    -0.332 C  
HETATM   14  O   UNL     1     -11.979  15.999  68.205  1.00  0.00    -0.163 OA 
HETATM   15  O   UNL     1     -12.080  14.308  66.735  1.00  0.00    -0.430 OA 
HETATM   16  H   UNL     1     -10.365  18.568  69.315  1.00  0.00     0.000 HD 
BRANCH   9  17
HETATM   17  C   UNL     1      -9.743  12.680  66.724  1.00  0.00    -0.240 C  
BRANCH  17  18
HETATM   18  C   UNL     1      -9.758  11.502  67.658  1.00  0.00    -0.182 A  
HETATM   19  C   UNL     1     -10.647  11.458  68.735  1.00  0.00    -0.235 A  
HETATM   20  C   UNL     1     -10.469  10.513  69.755  1.00  0.00    -0.245 A  
HETATM   21  C   UNL     1      -9.373   9.621  69.763  1.00  0.00    -0.238 A  
HETATM   22  C   UNL     1      -8.635   9.546  68.571  1.00  0.00    -0.119 A  
HETATM   23  C   UNL     1      -8.839  10.456  67.521  1.00  0.00    -0.134 A  
BRANCH  21  24
HETATM   24  C   UNL     1      -8.914   9.001  71.056  1.00  0.00    -0.304 A  
HETATM   25  C   UNL     1      -9.631   8.085  71.873  1.00  0.00    -0.242 A  
HETATM   26  C   UNL     1      -8.968   7.468  72.970  1.00  0.00    -0.207 A  
HETATM   27  C   UNL     1      -7.565   9.259  71.435  1.00  0.00     0.091 A  
HETATM   28  C   UNL     1      -6.944   8.667  72.535  1.00  0.00    -0.014 A  
HETATM   29  C   UNL     1      -7.643   7.754  73.296  1.00  0.00    -0.149 A  
BRANCH  25  30
HETATM   30  C   UNL     1     -11.045   7.751  71.688  1.00  0.00    -0.237 A  
HETATM   31  N   UNL     1     -12.943   6.903  71.087  1.00  0.00    -0.277 NA 
HETATM   32  H   UNL     1     -11.076   6.089  70.414  1.00  0.00     0.000 HD 
HETATM   33  N   UNL     1     -13.262   7.925  71.866  1.00  0.00    -0.311 NA 
HETATM   34  N   UNL     1     -11.579   6.787  70.962  1.00  0.00    -0.319 NA 
HETATM   35  N   UNL     1     -12.090   8.452  72.238  1.00  0.00    -0.374 NA 
ENDBRANCH  25  30
ENDBRANCH  21  24
ENDBRANCH  17  18
ENDBRANCH   9  17
ENDBRANCH   3   4
ENDBRANCH   2   3
TORSDOF 6
ENDMDL
MODEL      133
REMARK 921   NORMALIZED FREE ENERGY PREDICTED BY IDOCK:   -5.83 KCAL/MOL
REMARK 922        TOTAL FREE ENERGY PREDICTED BY IDOCK:   -9.02 KCAL/MOL
REMARK 923 INTER-LIGAND FREE ENERGY PREDICTED BY IDOCK:   -7.66 KCAL/MOL
REMARK 924 INTRA-LIGAND FREE ENERGY PREDICTED BY IDOCK:   -1.37 KCAL/MOL
REMARK 927      BINDING AFFINITY PREDICTED BY RF-SCORE:    0.00 PKD
ROOT
HETATM    1  C   UNL     1     -10.468   6.429  72.687  1.00  0.00    -0.234 C  
HETATM    2  C   UNL     1     -11.363   7.447  71.990  1.00  0.00    -0.301 C  
ENDROOT
BRANCH   2   3
HETATM    3  C   UNL     1     -11.677   7.104  70.528  1.00  0.00    -0.314 C  
BRANCH   3   4
HETATM    4  C   UNL     1     -10.446   6.962  69.687  1.00  0.00    -0.218 A  
HETATM    5  N   UNL     1     -10.335   5.961  68.834  1.00  0.00    -0.204 NA 
HETATM    6  C   UNL     1      -9.070   5.995  68.319  1.00  0.00    -0.111 A  
HETATM    7  C   UNL     1      -8.613   4.924  67.351  1.00  0.00    -0.104 C  
HETATM    8  C   UNL     1      -8.358   7.048  68.888  1.00  0.00    -0.125 A  
HETATM    9  N   UNL     1      -9.305   7.746  69.662  1.00  0.00    -0.153 NA 
HETATM   10  O   UNL     1      -7.478   4.253  67.939  1.00  0.00    -0.067 OA 
HETATM   11  C   UNL     1      -8.150   5.514  66.013  1.00  0.00    -0.108 C  
HETATM   12  C   UNL     1      -9.692   3.866  67.063  1.00  0.00    -0.186 C  
HETATM   13  C   UNL     1      -6.973   7.432  68.744  1.00  0.00    -0.078 C  
HETATM   14  O   UNL     1      -6.134   6.400  68.503  1.00  0.00    -0.022 OA 
HETATM   15  O   UNL     1      -6.540   8.574  68.878  1.00  0.00    -0.051 OA 
HETATM   16  H   UNL     1      -7.192   3.581  67.332  1.00  0.00     0.000 HD 
BRANCH   9  17
HETATM   17  C   UNL     1      -8.963   9.042  70.299  1.00  0.00    -0.198 C  
BRANCH  17  18
HETATM   18  C   UNL     1      -9.454  10.307  69.649  1.00  0.00    -0.180 A  
HETATM   19  C   UNL     1     -10.804  10.662  69.711  1.00  0.00    -0.317 A  
HETATM   20  C   UNL     1     -11.304  11.672  68.878  1.00  0.00    -0.328 A  
HETATM   21  C   UNL     1     -10.491  12.320  67.920  1.00  0.00    -0.227 A  
HETATM   22  C   UNL     1      -9.110  12.096  68.037  1.00  0.00    -0.190 A  
HETATM   23  C   UNL     1      -8.593  11.121  68.906  1.00  0.00    -0.092 A  
BRANCH  21  24
HETATM   24  C   UNL     1     -11.119  12.991  66.728  1.00  0.00    -0.316 A  
HETATM   25  C   UNL     1     -11.098  14.376  66.411  1.00  0.00    -0.326 A  
HETATM   26  C   UNL     1     -11.595  14.807  65.149  1.00  0.00    -0.358 A  
HETATM   27  C   UNL     1     -11.683  12.129  65.743  1.00  0.00    -0.391 A  
HETATM   28  C   UNL     1     -12.195  12.576  64.525  1.00  0.00    -0.528 A  
HETATM   29  C   UNL     1     -12.134  13.920  64.219  1.00  0.00    -0.477 A  
BRANCH  25  30
HETATM   30  C   UNL     1     -10.628  15.421  67.323  1.00  0.00    -0.294 A  
HETATM   31  N   UNL     1      -9.531  16.982  68.343  1.00  0.00    -0.260 NA 
HETATM   32  H   UNL     1      -8.865  16.168  66.474  1.00  0.00     0.000 HD 
HETATM   33  N   UNL     1     -10.568  16.731  69.128  1.00  0.00    -0.335 NA 
HETATM   34  N   UNL     1      -9.551  16.178  67.229  1.00  0.00    -0.227 NA 
HETATM   35  N   UNL     1     -11.247  15.765  68.499  1.00  0.00    -0.335 NA 
ENDBRANCH  25  30
ENDBRANCH  21  24
ENDBRANCH  17  18
ENDBRANCH   9  17
ENDBRANCH   3   4
ENDBRANCH   2   3
TORSDOF 6
ENDMDL
MODEL      134
REMARK 921   NORMALIZED FREE ENERGY PREDICTED BY IDOCK:   -5.82 KCAL/MOL
REMARK 922        TOTAL FREE ENERGY PREDICTED BY IDOCK:   -9.02 KCAL/MOL
REMARK 923 INTER-LIGAND FREE ENERGY PREDICTED BY IDOCK:   -6.98 KCAL/MOL
REMARK 924 INTRA-LIGAND FREE ENERGY PREDICTED BY IDOCK:   -2.03 KCAL/MOL
REMARK 927      BINDING AFFINITY PREDICTED BY RF-SCORE:    0.00 PKD
ROOT
HETATM    1  C   UNL     1     -10.367   7.628  66.815  1.00  0.00    -0.343 C  
HETATM    2  C   UNL     1     -10.984   6.319  67.292  1.00  0.00    -0.455 C  
ENDROOT
BRANCH   2   3
HETATM    3  C   UNL     1     -11.124   6.215  68.817  1.00  0.00    -0.398 C  
BRANCH   3   4
HETATM    4  C   UNL     1      -9.803   6.215  69.522  1.00  0.00    -0.159 A  
HETATM    5  N   UNL     1      -8.896   5.301  69.235  1.00  0.00    -0.099 NA 
HETATM    6  C   UNL     1      -7.865   5.450  70.120  1.00  0.00    -0.081 A  
HETATM    7  C   UNL     1      -6.690   4.495  70.087  1.00  0.00    -0.036 C  
HETATM    8  C   UNL     1      -8.151   6.485  71.006  1.00  0.00    -0.120 A  
HETATM    9  N   UNL     1      -9.340   7.059  70.518  1.00  0.00    -0.159 NA 
HETATM   10  O   UNL     1      -6.619   3.837  71.370  1.00  0.00    -0.024 OA 
HETATM   11  C   UNL     1      -5.358   5.226  69.876  1.00  0.00    -0.004 C  
HETATM   12  C   UNL     1      -6.820   3.410  69.005  1.00  0.00    -0.045 C  
HETATM   13  C   UNL     1      -7.429   6.956  72.166  1.00  0.00    -0.091 C  
HETATM   14  O   UNL     1      -6.725   5.996  72.807  1.00  0.00    -0.070 OA 
HETATM   15  O   UNL     1      -7.468   8.103  72.603  1.00  0.00    -0.109 OA 
HETATM   16  H   UNL     1      -5.882   3.238  71.349  1.00  0.00     0.000 HD 
BRANCH   9  17
HETATM   17  C   UNL     1      -9.881   8.310  71.105  1.00  0.00    -0.175 C  
BRANCH  17  18
HETATM   18  C   UNL     1      -9.989   9.523  70.222  1.00  0.00    -0.310 A  
HETATM   19  C   UNL     1     -11.212  10.183  70.066  1.00  0.00    -0.361 A  
HETATM   20  C   UNL     1     -11.376  11.122  69.039  1.00  0.00    -0.343 A  
HETATM   21  C   UNL     1     -10.352  11.393  68.103  1.00  0.00    -0.206 A  
HETATM   22  C   UNL     1      -9.083  10.883  68.420  1.00  0.00    -0.164 A  
HETATM   23  C   UNL     1      -8.896   9.979  69.479  1.00  0.00    -0.209 A  
BRANCH  21  24
HETATM   24  C   UNL     1     -10.693  11.976  66.758  1.00  0.00    -0.280 A  
HETATM   25  C   UNL     1     -10.589  13.335  66.358  1.00  0.00    -0.288 A  
HETATM   26  C   UNL     1     -10.789  13.674  64.991  1.00  0.00    -0.358 A  
HETATM   27  C   UNL     1     -11.034  11.043  65.735  1.00  0.00    -0.102 A  
HETATM   28  C   UNL     1     -11.258  11.402  64.406  1.00  0.00    -0.277 A  
HETATM   29  C   UNL     1     -11.118  12.721  64.028  1.00  0.00    -0.458 A  
BRANCH  25  30
HETATM   30  C   UNL     1     -10.322  14.444  67.277  1.00  0.00    -0.260 A  
HETATM   31  N   UNL     1      -9.544  15.775  68.795  1.00  0.00    -0.205 NA 
HETATM   32  H   UNL     1      -8.585  13.915  68.320  1.00  0.00     0.000 HD 
HETATM   33  N   UNL     1     -10.630  16.380  68.341  1.00  0.00    -0.294 NA 
HETATM   34  N   UNL     1      -9.344  14.576  68.152  1.00  0.00    -0.191 NA 
HETATM   35  N   UNL     1     -11.114  15.559  67.403  1.00  0.00    -0.311 NA 
ENDBRANCH  25  30
ENDBRANCH  21  24
ENDBRANCH  17  18
ENDBRANCH   9  17
ENDBRANCH   3   4
ENDBRANCH   2   3
TORSDOF 6
ENDMDL
MODEL      135
REMARK 921   NORMALIZED FREE ENERGY PREDICTED BY IDOCK:   -5.82 KCAL/MOL
REMARK 922        TOTAL FREE ENERGY PREDICTED BY IDOCK:   -9.01 KCAL/MOL
REMARK 923 INTER-LIGAND FREE ENERGY PREDICTED BY IDOCK:   -8.24 KCAL/MOL
REMARK 924 INTRA-LIGAND FREE ENERGY PREDICTED BY IDOCK:   -0.77 KCAL/MOL
REMARK 927      BINDING AFFINITY PREDICTED BY RF-SCORE:    0.00 PKD
ROOT
HETATM    1  C   UNL     1      -9.775   6.321  66.267  1.00  0.00    -0.090 C  
HETATM    2  C   UNL     1     -10.311   5.544  67.463  1.00  0.00    -0.268 C  
ENDROOT
BRANCH   2   3
HETATM    3  C   UNL     1     -11.175   6.381  68.415  1.00  0.00    -0.297 C  
BRANCH   3   4
HETATM    4  C   UNL     1     -10.514   6.626  69.737  1.00  0.00    -0.211 A  
HETATM    5  N   UNL     1     -10.914   5.973  70.812  1.00  0.00    -0.294 NA 
HETATM    6  C   UNL     1     -10.246   6.494  71.884  1.00  0.00    -0.194 A  
HETATM    7  C   UNL     1     -10.542   5.992  73.282  1.00  0.00    -0.256 C  
HETATM    8  C   UNL     1      -9.411   7.525  71.463  1.00  0.00    -0.150 A  
HETATM    9  N   UNL     1      -9.491   7.502  70.057  1.00  0.00    -0.161 NA 
HETATM   10  O   UNL     1     -11.009   7.112  74.064  1.00  0.00    -0.481 OA 
HETATM   11  C   UNL     1      -9.289   5.443  73.975  1.00  0.00    -0.133 C  
HETATM   12  C   UNL     1     -11.628   4.903  73.319  1.00  0.00    -0.276 C  
HETATM   13  C   UNL     1      -8.586   8.436  72.222  1.00  0.00    -0.197 C  
HETATM   14  O   UNL     1      -9.064   8.718  73.455  1.00  0.00    -0.143 OA 
HETATM   15  O   UNL     1      -7.565   8.977  71.806  1.00  0.00    -0.321 OA 
HETATM   16  H   UNL     1     -11.195   6.797  74.940  1.00  0.00     0.000 HD 
BRANCH   9  17
HETATM   17  C   UNL     1      -8.603   8.354  69.228  1.00  0.00    -0.130 C  
BRANCH  17  18
HETATM   18  C   UNL     1      -9.144   9.661  68.716  1.00  0.00    -0.134 A  
HETATM   19  C   UNL     1      -8.366  10.821  68.764  1.00  0.00    -0.147 A  
HETATM   20  C   UNL     1      -8.960  12.074  68.556  1.00  0.00    -0.098 A  
HETATM   21  C   UNL     1     -10.351  12.215  68.351  1.00  0.00    -0.236 A  
HETATM   22  C   UNL     1     -11.056  11.029  68.092  1.00  0.00    -0.329 A  
HETATM   23  C   UNL     1     -10.457   9.768  68.247  1.00  0.00    -0.255 A  
BRANCH  21  24
HETATM   24  C   UNL     1     -11.027  13.528  68.642  1.00  0.00    -0.289 A  
HETATM   25  C   UNL     1     -11.872  13.836  69.743  1.00  0.00    -0.394 A  
HETATM   26  C   UNL     1     -12.280  15.183  69.950  1.00  0.00    -0.353 A  
HETATM   27  C   UNL     1     -10.680  14.619  67.793  1.00  0.00    -0.265 A  
HETATM   28  C   UNL     1     -11.118  15.927  67.996  1.00  0.00    -0.334 A  
HETATM   29  C   UNL     1     -11.908  16.214  69.089  1.00  0.00    -0.182 A  
BRANCH  25  30
HETATM   30  C   UNL     1     -12.395  12.839  70.681  1.00  0.00    -0.297 A  
HETATM   31  N   UNL     1     -13.022  11.035  71.696  1.00  0.00    -0.466 NA 
HETATM   32  H   UNL     1     -11.989  10.975  69.818  1.00  0.00     0.000 HD 
HETATM   33  N   UNL     1     -13.429  12.021  72.480  1.00  0.00    -0.109 NA 
HETATM   34  N   UNL     1     -12.388  11.524  70.579  1.00  0.00    -0.354 NA 
HETATM   35  N   UNL     1     -13.043  13.139  71.854  1.00  0.00    -0.395 NA 
ENDBRANCH  25  30
ENDBRANCH  21  24
ENDBRANCH  17  18
ENDBRANCH   9  17
ENDBRANCH   3   4
ENDBRANCH   2   3
TORSDOF 6
ENDMDL
MODEL      136
REMARK 921   NORMALIZED FREE ENERGY PREDICTED BY IDOCK:   -5.81 KCAL/MOL
REMARK 922        TOTAL FREE ENERGY PREDICTED BY IDOCK:   -9.00 KCAL/MOL
REMARK 923 INTER-LIGAND FREE ENERGY PREDICTED BY IDOCK:   -7.76 KCAL/MOL
REMARK 924 INTRA-LIGAND FREE ENERGY PREDICTED BY IDOCK:   -1.24 KCAL/MOL
REMARK 927      BINDING AFFINITY PREDICTED BY RF-SCORE:    0.00 PKD
ROOT
HETATM    1  C   UNL     1     -11.027   8.046  72.795  1.00  0.00    -0.449 C  
HETATM    2  C   UNL     1     -11.500   8.281  71.366  1.00  0.00    -0.314 C  
ENDROOT
BRANCH   2   3
HETATM    3  C   UNL     1     -12.088   7.035  70.690  1.00  0.00    -0.332 C  
BRANCH   3   4
HETATM    4  C   UNL     1     -11.041   6.166  70.063  1.00  0.00    -0.392 A  
HETATM    5  N   UNL     1     -10.399   5.270  70.789  1.00  0.00    -0.243 NA 
HETATM    6  C   UNL     1      -9.415   4.733  70.007  1.00  0.00    -0.170 A  
HETATM    7  C   UNL     1      -8.456   3.714  70.585  1.00  0.00    -0.069 C  
HETATM    8  C   UNL     1      -9.433   5.333  68.751  1.00  0.00    -0.128 A  
HETATM    9  N   UNL     1     -10.577   6.153  68.759  1.00  0.00    -0.241 NA 
HETATM   10  O   UNL     1      -7.121   4.252  70.475  1.00  0.00    -0.037 OA 
HETATM   11  C   UNL     1      -8.479   2.393  69.805  1.00  0.00    -0.088 C  
HETATM   12  C   UNL     1      -8.721   3.402  72.067  1.00  0.00    -0.117 C  
HETATM   13  C   UNL     1      -8.543   5.179  67.624  1.00  0.00    -0.104 C  
HETATM   14  O   UNL     1      -7.268   4.880  67.961  1.00  0.00    -0.064 OA 
HETATM   15  O   UNL     1      -8.855   5.352  66.448  1.00  0.00    -0.118 OA 
HETATM   16  H   UNL     1      -6.519   3.612  70.837  1.00  0.00     0.000 HD 
BRANCH   9  17
HETATM   17  C   UNL     1     -11.035   6.837  67.524  1.00  0.00    -0.303 C  
BRANCH  17  18
HETATM   18  C   UNL     1     -10.652   8.278  67.323  1.00  0.00    -0.335 A  
HETATM   19  C   UNL     1     -11.132   9.268  68.185  1.00  0.00     0.050 A  
HETATM   20  C   UNL     1     -11.012  10.620  67.836  1.00  0.00    -0.351 A  
HETATM   21  C   UNL     1     -10.464  11.027  66.598  1.00  0.00    -0.307 A  
HETATM   22  C   UNL     1      -9.801  10.029  65.865  1.00  0.00    -0.330 A  
HETATM   23  C   UNL     1      -9.872   8.675  66.233  1.00  0.00    -0.320 A  
BRANCH  21  24
HETATM   24  C   UNL     1     -10.804  12.378  66.030  1.00  0.00    -0.308 A  
HETATM   25  C   UNL     1     -10.117  13.603  66.252  1.00  0.00    -0.301 A  
HETATM   26  C   UNL     1     -10.478  14.748  65.490  1.00  0.00    -0.378 A  
HETATM   27  C   UNL     1     -11.850  12.411  65.062  1.00  0.00    -0.440 A  
HETATM   28  C   UNL     1     -12.209  13.555  64.350  1.00  0.00    -0.440 A  
HETATM   29  C   UNL     1     -11.508  14.725  64.552  1.00  0.00    -0.333 A  
BRANCH  25  30
HETATM   30  C   UNL     1      -9.066  13.785  67.256  1.00  0.00    -0.232 A  
HETATM   31  N   UNL     1      -7.820  14.441  68.898  1.00  0.00    -0.136 NA 
HETATM   32  H   UNL     1      -9.744  15.310  68.521  1.00  0.00     0.000 HD 
HETATM   33  N   UNL     1      -7.116  13.494  68.298  1.00  0.00    -0.097 NA 
HETATM   34  N   UNL     1      -9.023  14.636  68.263  1.00  0.00    -0.178 NA 
HETATM   35  N   UNL     1      -7.884  13.087  67.281  1.00  0.00    -0.158 NA 
ENDBRANCH  25  30
ENDBRANCH  21  24
ENDBRANCH  17  18
ENDBRANCH   9  17
ENDBRANCH   3   4
ENDBRANCH   2   3
TORSDOF 6
ENDMDL
MODEL      137
REMARK 921   NORMALIZED FREE ENERGY PREDICTED BY IDOCK:   -5.80 KCAL/MOL
REMARK 922        TOTAL FREE ENERGY PREDICTED BY IDOCK:   -8.98 KCAL/MOL
REMARK 923 INTER-LIGAND FREE ENERGY PREDICTED BY IDOCK:   -7.29 KCAL/MOL
REMARK 924 INTRA-LIGAND FREE ENERGY PREDICTED BY IDOCK:   -1.69 KCAL/MOL
REMARK 927      BINDING AFFINITY PREDICTED BY RF-SCORE:    0.00 PKD
ROOT
HETATM    1  C   UNL     1      -6.097  10.863  67.509  1.00  0.00    -0.049 C  
HETATM    2  C   UNL     1      -6.219  10.450  68.971  1.00  0.00    -0.044 C  
ENDROOT
BRANCH   2   3
HETATM    3  C   UNL     1      -7.584  10.767  69.597  1.00  0.00    -0.052 C  
BRANCH   3   4
HETATM    4  C   UNL     1      -8.363   9.536  69.945  1.00  0.00    -0.170 A  
HETATM    5  N   UNL     1      -8.515   9.179  71.206  1.00  0.00    -0.325 NA 
HETATM    6  C   UNL     1      -9.131   7.960  71.219  1.00  0.00    -0.139 A  
HETATM    7  C   UNL     1      -9.386   7.250  72.533  1.00  0.00    -0.143 C  
HETATM    8  C   UNL     1      -9.354   7.531  69.913  1.00  0.00    -0.150 A  
HETATM    9  N   UNL     1      -8.980   8.622  69.107  1.00  0.00    -0.141 NA 
HETATM   10  O   UNL     1      -8.689   5.987  72.495  1.00  0.00    -0.123 OA 
HETATM   11  C   UNL     1     -10.874   6.942  72.743  1.00  0.00    -0.305 C  
HETATM   12  C   UNL     1      -8.880   8.034  73.755  1.00  0.00    -0.313 C  
HETATM   13  C   UNL     1      -9.880   6.283  69.411  1.00  0.00    -0.152 C  
HETATM   14  O   UNL     1      -9.616   5.215  70.197  1.00  0.00    -0.154 OA 
HETATM   15  O   UNL     1     -10.469   6.144  68.342  1.00  0.00    -0.180 OA 
HETATM   16  H   UNL     1      -8.849   5.542  73.318  1.00  0.00     0.000 HD 
BRANCH   9  17
HETATM   17  C   UNL     1      -9.232   8.612  67.644  1.00  0.00    -0.134 C  
BRANCH  17  18
HETATM   18  C   UNL     1     -10.028   9.743  67.050  1.00  0.00    -0.259 A  
HETATM   19  C   UNL     1      -9.881  10.086  65.704  1.00  0.00    -0.363 A  
HETATM   20  C   UNL     1     -10.397  11.299  65.227  1.00  0.00    -0.337 A  
HETATM   21  C   UNL     1     -11.024  12.231  66.085  1.00  0.00    -0.328 A  
HETATM   22  C   UNL     1     -11.346  11.762  67.369  1.00  0.00    -0.376 A  
HETATM   23  C   UNL     1     -10.877  10.525  67.840  1.00  0.00    -0.333 A  
BRANCH  21  24
HETATM   24  C   UNL     1     -11.099  13.683  65.696  1.00  0.00    -0.300 A  
HETATM   25  C   UNL     1     -10.232  14.731  66.108  1.00  0.00    -0.310 A  
HETATM   26  C   UNL     1     -10.350  16.010  65.499  1.00  0.00    -0.415 A  
HETATM   27  C   UNL     1     -12.065  14.021  64.704  1.00  0.00    -0.462 A  
HETATM   28  C   UNL     1     -12.185  15.292  64.142  1.00  0.00    -0.133 A  
HETATM   29  C   UNL     1     -11.312  16.287  64.529  1.00  0.00    -0.209 A  
BRANCH  25  30
HETATM   30  C   UNL     1      -9.227  14.597  67.166  1.00  0.00    -0.221 A  
HETATM   31  N   UNL     1      -7.591  13.994  68.446  1.00  0.00    -0.120 NA 
HETATM   32  H   UNL     1      -7.985  13.018  66.577  1.00  0.00     0.000 HD 
HETATM   33  N   UNL     1      -8.177  14.988  69.095  1.00  0.00    -0.189 NA 
HETATM   34  N   UNL     1      -8.232  13.736  67.258  1.00  0.00    -0.179 NA 
HETATM   35  N   UNL     1      -9.190  15.363  68.305  1.00  0.00    -0.185 NA 
ENDBRANCH  25  30
ENDBRANCH  21  24
ENDBRANCH  17  18
ENDBRANCH   9  17
ENDBRANCH   3   4
ENDBRANCH   2   3
TORSDOF 6
ENDMDL
MODEL      138
REMARK 921   NORMALIZED FREE ENERGY PREDICTED BY IDOCK:   -5.78 KCAL/MOL
REMARK 922        TOTAL FREE ENERGY PREDICTED BY IDOCK:   -8.97 KCAL/MOL
REMARK 923 INTER-LIGAND FREE ENERGY PREDICTED BY IDOCK:   -7.86 KCAL/MOL
REMARK 924 INTRA-LIGAND FREE ENERGY PREDICTED BY IDOCK:   -1.11 KCAL/MOL
REMARK 927      BINDING AFFINITY PREDICTED BY RF-SCORE:    0.00 PKD
ROOT
HETATM    1  C   UNL     1      -6.021   6.822  67.051  1.00  0.00    -0.021 C  
HETATM    2  C   UNL     1      -6.855   7.577  68.080  1.00  0.00    -0.067 C  
ENDROOT
BRANCH   2   3
HETATM    3  C   UNL     1      -8.062   6.789  68.604  1.00  0.00    -0.120 C  
BRANCH   3   4
HETATM    4  C   UNL     1      -8.396   7.118  70.027  1.00  0.00    -0.138 A  
HETATM    5  N   UNL     1      -7.522   6.882  70.987  1.00  0.00    -0.081 NA 
HETATM    6  C   UNL     1      -8.138   7.136  72.180  1.00  0.00    -0.095 A  
HETATM    7  C   UNL     1      -7.406   6.892  73.482  1.00  0.00    -0.081 C  
HETATM    8  C   UNL     1      -9.456   7.527  71.954  1.00  0.00    -0.144 A  
HETATM    9  N   UNL     1      -9.563   7.645  70.556  1.00  0.00    -0.168 NA 
HETATM   10  O   UNL     1      -8.156   5.914  74.234  1.00  0.00    -0.104 OA 
HETATM   11  C   UNL     1      -7.320   8.159  74.342  1.00  0.00    -0.237 C  
HETATM   12  C   UNL     1      -5.981   6.348  73.285  1.00  0.00    -0.057 C  
HETATM   13  C   UNL     1     -10.526   7.805  72.884  1.00  0.00    -0.350 C  
HETATM   14  O   UNL     1     -10.456   7.099  74.035  1.00  0.00    -0.353 OA 
HETATM   15  O   UNL     1     -11.468   8.563  72.670  1.00  0.00    -0.351 OA 
HETATM   16  H   UNL     1      -7.696   5.761  75.051  1.00  0.00     0.000 HD 
BRANCH   9  17
HETATM   17  C   UNL     1     -10.783   8.209  69.928  1.00  0.00    -0.241 C  
BRANCH  17  18
HETATM   18  C   UNL     1     -10.690   9.561  69.275  1.00  0.00    -0.240 A  
HETATM   19  C   UNL     1     -11.611  10.566  69.582  1.00  0.00    -0.342 A  
HETATM   20  C   UNL     1     -11.698  11.710  68.777  1.00  0.00    -0.392 A  
HETATM   21  C   UNL     1     -10.913  11.864  67.612  1.00  0.00    -0.286 A  
HETATM   22  C   UNL     1      -9.858  10.950  67.459  1.00  0.00    -0.192 A  
HETATM   23  C   UNL     1      -9.731   9.826  68.292  1.00  0.00    -0.160 A  
BRANCH  21  24
HETATM   24  C   UNL     1     -11.362  12.795  66.518  1.00  0.00    -0.369 A  
HETATM   25  C   UNL     1     -11.271  14.213  66.504  1.00  0.00    -0.333 A  
HETATM   26  C   UNL     1     -11.585  14.917  65.308  1.00  0.00    -0.300 A  
HETATM   27  C   UNL     1     -11.806  12.181  65.310  1.00  0.00    -0.356 A  
HETATM   28  C   UNL     1     -12.140  12.893  64.159  1.00  0.00    -0.503 A  
HETATM   29  C   UNL     1     -12.012  14.267  64.151  1.00  0.00    -0.401 A  
BRANCH  25  30
HETATM   30  C   UNL     1     -10.906  15.025  67.667  1.00  0.00    -0.291 A  
HETATM   31  N   UNL     1     -10.767  16.513  69.231  1.00  0.00    -0.316 NA 
HETATM   32  H   UNL     1     -12.355  16.532  67.788  1.00  0.00     0.000 HD 
HETATM   33  N   UNL     1      -9.719  15.727  69.420  1.00  0.00    -0.272 NA 
HETATM   34  N   UNL     1     -11.506  16.097  68.149  1.00  0.00    -0.284 NA 
HETATM   35  N   UNL     1      -9.802  14.806  68.454  1.00  0.00    -0.214 NA 
ENDBRANCH  25  30
ENDBRANCH  21  24
ENDBRANCH  17  18
ENDBRANCH   9  17
ENDBRANCH   3   4
ENDBRANCH   2   3
TORSDOF 6
ENDMDL
MODEL      139
REMARK 921   NORMALIZED FREE ENERGY PREDICTED BY IDOCK:   -5.77 KCAL/MOL
REMARK 922        TOTAL FREE ENERGY PREDICTED BY IDOCK:   -8.95 KCAL/MOL
REMARK 923 INTER-LIGAND FREE ENERGY PREDICTED BY IDOCK:   -7.72 KCAL/MOL
REMARK 924 INTRA-LIGAND FREE ENERGY PREDICTED BY IDOCK:   -1.23 KCAL/MOL
REMARK 927      BINDING AFFINITY PREDICTED BY RF-SCORE:    0.00 PKD
ROOT
HETATM    1  C   UNL     1     -12.069  13.042  63.139  1.00  0.00    -0.324 C  
HETATM    2  C   UNL     1     -11.385  12.258  64.252  1.00  0.00    -0.415 C  
ENDROOT
BRANCH   2   3
HETATM    3  C   UNL     1     -11.709  12.767  65.663  1.00  0.00    -0.443 C  
BRANCH   3   4
HETATM    4  C   UNL     1     -10.661  13.690  66.203  1.00  0.00    -0.291 A  
HETATM    5  N   UNL     1     -10.826  14.998  66.130  1.00  0.00    -0.324 NA 
HETATM    6  C   UNL     1      -9.668  15.585  66.557  1.00  0.00    -0.270 A  
HETATM    7  C   UNL     1      -9.523  17.092  66.527  1.00  0.00    -0.276 C  
HETATM    8  C   UNL     1      -8.738  14.603  66.890  1.00  0.00    -0.224 A  
HETATM    9  N   UNL     1      -9.443  13.389  66.790  1.00  0.00    -0.255 NA 
HETATM   10  O   UNL     1      -8.409  17.411  65.666  1.00  0.00    -0.487 OA 
HETATM   11  C   UNL     1      -9.207  17.669  67.912  1.00  0.00    -0.267 C  
HETATM   12  C   UNL     1     -10.766  17.811  65.978  1.00  0.00    -0.119 C  
HETATM   13  C   UNL     1      -7.356  14.717  67.293  1.00  0.00    -0.114 C  
HETATM   14  O   UNL     1      -6.714  15.788  66.775  1.00  0.00    -0.227 OA 
HETATM   15  O   UNL     1      -6.756  13.907  67.996  1.00  0.00    -0.109 OA 
HETATM   16  H   UNL     1      -8.317  18.356  65.647  1.00  0.00     0.000 HD 
BRANCH   9  17
HETATM   17  C   UNL     1      -8.832  12.112  67.233  1.00  0.00    -0.186 C  
BRANCH  17  18
HETATM   18  C   UNL     1      -9.722  11.075  67.862  1.00  0.00    -0.183 A  
HETATM   19  C   UNL     1     -10.218  11.253  69.156  1.00  0.00    -0.123 A  
HETATM   20  C   UNL     1     -10.802  10.177  69.839  1.00  0.00    -0.347 A  
HETATM   21  C   UNL     1     -10.859   8.881  69.279  1.00  0.00    -0.113 A  
HETATM   22  C   UNL     1     -10.556   8.790  67.911  1.00  0.00    -0.236 A  
HETATM   23  C   UNL     1     -10.018   9.878  67.203  1.00  0.00    -0.252 A  
BRANCH  21  24
HETATM   24  C   UNL     1     -10.997   7.678  70.173  1.00  0.00    -0.255 A  
HETATM   25  C   UNL     1     -10.083   6.597  70.309  1.00  0.00    -0.201 A  
HETATM   26  C   UNL     1     -10.295   5.634  71.334  1.00  0.00    -0.287 A  
HETATM   27  C   UNL     1     -12.099   7.687  71.077  1.00  0.00    -0.282 A  
HETATM   28  C   UNL     1     -12.305   6.713  72.054  1.00  0.00    -0.316 A  
HETATM   29  C   UNL     1     -11.390   5.691  72.195  1.00  0.00    -0.277 A  
BRANCH  25  30
HETATM   30  C   UNL     1      -8.934   6.377  69.428  1.00  0.00    -0.131 A  
HETATM   31  N   UNL     1      -7.011   6.397  68.437  1.00  0.00    -0.078 NA 
HETATM   32  H   UNL     1      -7.367   7.502  70.240  1.00  0.00     0.000 HD 
HETATM   33  N   UNL     1      -7.770   5.617  67.683  1.00  0.00    -0.096 NA 
HETATM   34  N   UNL     1      -7.717   6.878  69.514  1.00  0.00    -0.102 NA 
HETATM   35  N   UNL     1      -8.961   5.604  68.293  1.00  0.00    -0.114 NA 
ENDBRANCH  25  30
ENDBRANCH  21  24
ENDBRANCH  17  18
ENDBRANCH   9  17
ENDBRANCH   3   4
ENDBRANCH   2   3
TORSDOF 6
ENDMDL
MODEL      140
REMARK 921   NORMALIZED FREE ENERGY PREDICTED BY IDOCK:   -5.75 KCAL/MOL
REMARK 922        TOTAL FREE ENERGY PREDICTED BY IDOCK:   -8.93 KCAL/MOL
REMARK 923 INTER-LIGAND FREE ENERGY PREDICTED BY IDOCK:   -7.51 KCAL/MOL
REMARK 924 INTRA-LIGAND FREE ENERGY PREDICTED BY IDOCK:   -1.42 KCAL/MOL
REMARK 927      BINDING AFFINITY PREDICTED BY RF-SCORE:    0.00 PKD
ROOT
HETATM    1  C   UNL     1     -13.634   9.084  72.328  1.00  0.00    -0.540 C  
HETATM    2  C   UNL     1     -12.552   8.226  71.683  1.00  0.00    -0.355 C  
ENDROOT
BRANCH   2   3
HETATM    3  C   UNL     1     -11.122   8.654  72.038  1.00  0.00    -0.437 C  
BRANCH   3   4
HETATM    4  C   UNL     1     -10.085   7.713  71.504  1.00  0.00    -0.178 A  
HETATM    5  N   UNL     1      -9.334   7.012  72.332  1.00  0.00    -0.136 NA 
HETATM    6  C   UNL     1      -8.392   6.362  71.586  1.00  0.00    -0.125 A  
HETATM    7  C   UNL     1      -7.332   5.520  72.264  1.00  0.00    -0.094 C  
HETATM    8  C   UNL     1      -8.550   6.687  70.241  1.00  0.00    -0.140 A  
HETATM    9  N   UNL     1      -9.734   7.448  70.191  1.00  0.00    -0.175 NA 
HETATM   10  O   UNL     1      -6.043   6.073  71.922  1.00  0.00    -0.038 OA 
HETATM   11  C   UNL     1      -7.348   4.067  71.774  1.00  0.00    -0.059 C  
HETATM   12  C   UNL     1      -7.452   5.512  73.797  1.00  0.00    -0.091 C  
HETATM   13  C   UNL     1      -7.752   6.337  69.090  1.00  0.00    -0.100 C  
HETATM   14  O   UNL     1      -6.439   6.161  69.359  1.00  0.00    -0.039 OA 
HETATM   15  O   UNL     1      -8.173   6.251  67.939  1.00  0.00    -0.113 OA 
HETATM   16  H   UNL     1      -5.378   5.545  72.347  1.00  0.00     0.000 HD 
BRANCH   9  17
HETATM   17  C   UNL     1     -10.332   7.844  68.892  1.00  0.00    -0.213 C  
BRANCH  17  18
HETATM   18  C   UNL     1     -10.233   9.285  68.471  1.00  0.00    -0.225 A  
HETATM   19  C   UNL     1     -11.084  10.247  69.020  1.00  0.00    -0.277 A  
HETATM   20  C   UNL     1     -11.184  11.515  68.430  1.00  0.00    -0.314 A  
HETATM   21  C   UNL     1     -10.486  11.844  67.246  1.00  0.00    -0.248 A  
HETATM   22  C   UNL     1      -9.485  10.941  66.853  1.00  0.00    -0.198 A  
HETATM   23  C   UNL     1      -9.342   9.687  67.471  1.00  0.00    -0.149 A  
BRANCH  21  24
HETATM   24  C   UNL     1     -10.978  12.962  66.366  1.00  0.00    -0.310 A  
HETATM   25  C   UNL     1     -10.501  14.300  66.326  1.00  0.00    -0.291 A  
HETATM   26  C   UNL     1     -10.967  15.173  65.305  1.00  0.00    -0.405 A  
HETATM   27  C   UNL     1     -11.938  12.607  65.373  1.00  0.00    -0.496 A  
HETATM   28  C   UNL     1     -12.406  13.490  64.401  1.00  0.00    -0.391 A  
HETATM   29  C   UNL     1     -11.906  14.774  64.355  1.00  0.00    -0.393 A  
BRANCH  25  30
HETATM   30  C   UNL     1      -9.571  14.870  67.305  1.00  0.00    -0.215 A  
HETATM   31  N   UNL     1      -7.852  15.420  68.497  1.00  0.00    -0.128 NA 
HETATM   32  H   UNL     1      -7.676  14.153  66.776  1.00  0.00     0.000 HD 
HETATM   33  N   UNL     1      -8.877  16.014  69.089  1.00  0.00    -0.244 NA 
HETATM   34  N   UNL     1      -8.265  14.705  67.399  1.00  0.00    -0.188 NA 
HETATM   35  N   UNL     1      -9.941  15.675  68.353  1.00  0.00    -0.208 NA 
ENDBRANCH  25  30
ENDBRANCH  21  24
ENDBRANCH  17  18
ENDBRANCH   9  17
ENDBRANCH   3   4
ENDBRANCH   2   3
TORSDOF 6
ENDMDL
MODEL      141
REMARK 921   NORMALIZED FREE ENERGY PREDICTED BY IDOCK:   -5.75 KCAL/MOL
REMARK 922        TOTAL FREE ENERGY PREDICTED BY IDOCK:   -8.93 KCAL/MOL
REMARK 923 INTER-LIGAND FREE ENERGY PREDICTED BY IDOCK:   -7.15 KCAL/MOL
REMARK 924 INTRA-LIGAND FREE ENERGY PREDICTED BY IDOCK:   -1.77 KCAL/MOL
REMARK 927      BINDING AFFINITY PREDICTED BY RF-SCORE:    0.00 PKD
ROOT
HETATM    1  C   UNL     1      -9.611   4.114  70.495  1.00  0.00    -0.261 C  
HETATM    2  C   UNL     1      -9.907   4.259  69.007  1.00  0.00    -0.148 C  
ENDROOT
BRANCH   2   3
HETATM    3  C   UNL     1      -9.085   3.322  68.113  1.00  0.00    -0.214 C  
BRANCH   3   4
HETATM    4  C   UNL     1      -8.953   3.827  66.709  1.00  0.00    -0.141 A  
HETATM    5  N   UNL     1      -9.541   3.189  65.715  1.00  0.00    -0.052 NA 
HETATM    6  C   UNL     1      -9.136   3.777  64.549  1.00  0.00    -0.137 A  
HETATM    7  C   UNL     1      -9.593   3.220  63.217  1.00  0.00    -0.098 C  
HETATM    8  C   UNL     1      -8.244   4.809  64.828  1.00  0.00    -0.122 A  
HETATM    9  N   UNL     1      -8.247   4.919  66.232  1.00  0.00    -0.108 NA 
HETATM   10  O   UNL     1      -8.418   2.828  62.476  1.00  0.00    -0.073 OA 
HETATM   11  C   UNL     1     -10.333   4.268  62.377  1.00  0.00    -0.107 C  
HETATM   12  C   UNL     1     -10.500   1.986  63.354  1.00  0.00    -0.162 C  
HETATM   13  C   UNL     1      -7.476   5.653  63.942  1.00  0.00    -0.067 C  
HETATM   14  O   UNL     1      -7.130   5.061  62.777  1.00  0.00    -0.036 OA 
HETATM   15  O   UNL     1      -7.098   6.792  64.203  1.00  0.00    -0.051 OA 
HETATM   16  H   UNL     1      -8.705   2.479  61.640  1.00  0.00     0.000 HD 
BRANCH   9  17
HETATM   17  C   UNL     1      -7.538   6.031  66.912  1.00  0.00    -0.096 C  
BRANCH  17  18
HETATM   18  C   UNL     1      -8.359   7.153  67.487  1.00  0.00    -0.116 A  
HETATM   19  C   UNL     1      -7.843   7.965  68.501  1.00  0.00    -0.119 A  
HETATM   20  C   UNL     1      -8.694   8.812  69.224  1.00  0.00    -0.135 A  
HETATM   21  C   UNL     1     -10.089   8.836  69.001  1.00  0.00    -0.206 A  
HETATM   22  C   UNL     1     -10.536   8.180  67.842  1.00  0.00    -0.259 A  
HETATM   23  C   UNL     1      -9.679   7.368  67.080  1.00  0.00    -0.248 A  
BRANCH  21  24
HETATM   24  C   UNL     1     -11.018   9.326  70.079  1.00  0.00    -0.254 A  
HETATM   25  C   UNL     1     -11.795  10.516  70.071  1.00  0.00    -0.388 A  
HETATM   26  C   UNL     1     -12.751  10.728  71.103  1.00  0.00    -0.532 A  
HETATM   27  C   UNL     1     -11.243   8.436  71.170  1.00  0.00    -0.307 A  
HETATM   28  C   UNL     1     -12.163   8.679  72.189  1.00  0.00    -0.453 A  
HETATM   29  C   UNL     1     -12.933   9.822  72.147  1.00  0.00    -0.483 A  
BRANCH  25  30
HETATM   30  C   UNL     1     -11.653  11.582  69.077  1.00  0.00    -0.318 A  
HETATM   31  N   UNL     1     -11.270  13.427  68.015  1.00  0.00    -0.256 NA 
HETATM   32  H   UNL     1     -10.759  13.186  70.084  1.00  0.00     0.000 HD 
HETATM   33  N   UNL     1     -11.838  12.635  67.119  1.00  0.00    -0.432 NA 
HETATM   34  N   UNL     1     -11.154  12.794  69.229  1.00  0.00    -0.182 NA 
HETATM   35  N   UNL     1     -12.078  11.493  67.774  1.00  0.00    -0.587 NA 
ENDBRANCH  25  30
ENDBRANCH  21  24
ENDBRANCH  17  18
ENDBRANCH   9  17
ENDBRANCH   3   4
ENDBRANCH   2   3
TORSDOF 6
ENDMDL
MODEL      142
REMARK 921   NORMALIZED FREE ENERGY PREDICTED BY IDOCK:   -5.74 KCAL/MOL
REMARK 922        TOTAL FREE ENERGY PREDICTED BY IDOCK:   -8.91 KCAL/MOL
REMARK 923 INTER-LIGAND FREE ENERGY PREDICTED BY IDOCK:   -8.30 KCAL/MOL
REMARK 924 INTRA-LIGAND FREE ENERGY PREDICTED BY IDOCK:   -0.60 KCAL/MOL
REMARK 927      BINDING AFFINITY PREDICTED BY RF-SCORE:    0.00 PKD
ROOT
HETATM    1  C   UNL     1     -14.174   9.074  72.620  1.00  0.00    -0.254 C  
HETATM    2  C   UNL     1     -13.536   8.135  71.603  1.00  0.00    -0.382 C  
ENDROOT
BRANCH   2   3
HETATM    3  C   UNL     1     -12.037   8.379  71.382  1.00  0.00    -0.337 C  
BRANCH   3   4
HETATM    4  C   UNL     1     -11.277   7.115  71.118  1.00  0.00    -0.262 A  
HETATM    5  N   UNL     1     -10.947   6.317  72.116  1.00  0.00    -0.244 NA 
HETATM    6  C   UNL     1     -10.145   5.333  71.610  1.00  0.00    -0.199 A  
HETATM    7  C   UNL     1      -9.545   4.292  72.531  1.00  0.00    -0.138 C  
HETATM    8  C   UNL     1      -9.950   5.539  70.247  1.00  0.00    -0.216 A  
HETATM    9  N   UNL     1     -10.801   6.611  69.919  1.00  0.00    -0.254 NA 
HETATM   10  O   UNL     1      -8.108   4.387  72.430  1.00  0.00    -0.096 OA 
HETATM   11  C   UNL     1      -9.936   2.866  72.122  1.00  0.00    -0.235 C  
HETATM   12  C   UNL     1      -9.931   4.491  74.006  1.00  0.00    -0.199 C  
HETATM   13  C   UNL     1      -9.114   4.838  69.300  1.00  0.00    -0.105 C  
HETATM   14  O   UNL     1      -7.995   4.305  69.839  1.00  0.00    -0.056 OA 
HETATM   15  O   UNL     1      -9.329   4.755  68.094  1.00  0.00    -0.121 OA 
HETATM   16  H   UNL     1      -7.732   3.734  73.008  1.00  0.00     0.000 HD 
BRANCH   9  17
HETATM   17  C   UNL     1     -11.003   7.022  68.507  1.00  0.00    -0.077 C  
BRANCH  17  18
HETATM   18  C   UNL     1     -10.308   8.264  68.020  1.00  0.00    -0.268 A  
HETATM   19  C   UNL     1      -9.480   8.998  68.874  1.00  0.00    -0.151 A  
HETATM   20  C   UNL     1      -9.067  10.289  68.515  1.00  0.00    -0.138 A  
HETATM   21  C   UNL     1      -9.510  10.909  67.325  1.00  0.00    -0.176 A  
HETATM   22  C   UNL     1     -10.153  10.072  66.399  1.00  0.00    -0.307 A  
HETATM   23  C   UNL     1     -10.526   8.759  66.730  1.00  0.00    -0.283 A  
BRANCH  21  24
HETATM   24  C   UNL     1      -9.495  12.410  67.206  1.00  0.00    -0.191 A  
HETATM   25  C   UNL     1     -10.307  13.215  66.361  1.00  0.00    -0.289 A  
HETATM   26  C   UNL     1     -10.276  14.629  66.511  1.00  0.00    -0.282 A  
HETATM   27  C   UNL     1      -8.669  13.108  68.134  1.00  0.00    -0.193 A  
HETATM   28  C   UNL     1      -8.630  14.498  68.243  1.00  0.00    -0.171 A  
HETATM   29  C   UNL     1      -9.451  15.262  67.439  1.00  0.00    -0.200 A  
BRANCH  25  30
HETATM   30  C   UNL     1     -11.164  12.685  65.298  1.00  0.00    -0.300 A  
HETATM   31  N   UNL     1     -11.978  11.838  63.481  1.00  0.00    -0.456 NA 
HETATM   32  H   UNL     1      -9.864  12.009  63.802  1.00  0.00     0.000 HD 
HETATM   33  N   UNL     1     -13.037  12.171  64.202  1.00  0.00    -0.734 NA 
HETATM   34  N   UNL     1     -10.815  12.155  64.141  1.00  0.00    -0.327 NA 
HETATM   35  N   UNL     1     -12.536  12.696  65.326  1.00  0.00    -0.663 NA 
ENDBRANCH  25  30
ENDBRANCH  21  24
ENDBRANCH  17  18
ENDBRANCH   9  17
ENDBRANCH   3   4
ENDBRANCH   2   3
TORSDOF 6
ENDMDL
MODEL      143
REMARK 921   NORMALIZED FREE ENERGY PREDICTED BY IDOCK:   -5.74 KCAL/MOL
REMARK 922        TOTAL FREE ENERGY PREDICTED BY IDOCK:   -8.90 KCAL/MOL
REMARK 923 INTER-LIGAND FREE ENERGY PREDICTED BY IDOCK:   -7.62 KCAL/MOL
REMARK 924 INTRA-LIGAND FREE ENERGY PREDICTED BY IDOCK:   -1.28 KCAL/MOL
REMARK 927      BINDING AFFINITY PREDICTED BY RF-SCORE:    0.00 PKD
ROOT
HETATM    1  C   UNL     1      -6.066  14.317  69.783  1.00  0.00    -0.132 C  
HETATM    2  C   UNL     1      -6.499  14.084  68.340  1.00  0.00    -0.103 C  
ENDROOT
BRANCH   2   3
HETATM    3  C   UNL     1      -7.327  12.809  68.135  1.00  0.00    -0.118 C  
BRANCH   3   4
HETATM    4  C   UNL     1      -8.494  13.015  67.219  1.00  0.00    -0.199 A  
HETATM    5  N   UNL     1      -9.092  14.190  67.159  1.00  0.00    -0.221 NA 
HETATM    6  C   UNL     1     -10.196  14.052  66.365  1.00  0.00    -0.291 A  
HETATM    7  C   UNL     1     -11.134  15.222  66.155  1.00  0.00    -0.280 C  
HETATM    8  C   UNL     1     -10.301  12.733  65.930  1.00  0.00    -0.283 A  
HETATM    9  N   UNL     1      -9.118  12.112  66.375  1.00  0.00    -0.204 NA 
HETATM   10  O   UNL     1     -12.438  14.835  66.639  1.00  0.00    -0.323 OA 
HETATM   11  C   UNL     1     -11.286  15.580  64.672  1.00  0.00    -0.363 C  
HETATM   12  C   UNL     1     -10.704  16.489  66.914  1.00  0.00    -0.175 C  
HETATM   13  C   UNL     1     -11.333  12.076  65.163  1.00  0.00    -0.304 C  
HETATM   14  O   UNL     1     -12.570  12.589  65.345  1.00  0.00    -0.656 OA 
HETATM   15  O   UNL     1     -11.161  11.098  64.440  1.00  0.00    -0.279 OA 
HETATM   16  H   UNL     1     -13.027  15.569  66.507  1.00  0.00     0.000 HD 
BRANCH   9  17
HETATM   17  C   UNL     1      -8.779  10.729  65.958  1.00  0.00    -0.183 C  
BRANCH  17  18
HETATM   18  C   UNL     1      -9.174   9.594  66.864  1.00  0.00    -0.172 A  
HETATM   19  C   UNL     1      -8.467   9.346  68.043  1.00  0.00    -0.120 A  
HETATM   20  C   UNL     1      -8.650   8.138  68.730  1.00  0.00    -0.127 A  
HETATM   21  C   UNL     1      -9.495   7.119  68.237  1.00  0.00    -0.133 A  
HETATM   22  C   UNL     1     -10.346   7.486  67.182  1.00  0.00    -0.384 A  
HETATM   23  C   UNL     1     -10.207   8.716  66.518  1.00  0.00    -0.295 A  
BRANCH  21  24
HETATM   24  C   UNL     1      -9.292   5.692  68.672  1.00  0.00    -0.142 A  
HETATM   25  C   UNL     1      -9.777   5.077  69.858  1.00  0.00    -0.266 A  
HETATM   26  C   UNL     1      -9.636   3.671  70.017  1.00  0.00    -0.244 A  
HETATM   27  C   UNL     1      -8.654   4.831  67.733  1.00  0.00    -0.103 A  
HETATM   28  C   UNL     1      -8.497   3.459  67.924  1.00  0.00    -0.106 A  
HETATM   29  C   UNL     1      -9.005   2.872  69.064  1.00  0.00    -0.179 A  
BRANCH  25  30
HETATM   30  C   UNL     1     -10.394   5.806  70.969  1.00  0.00    -0.230 A  
HETATM   31  N   UNL     1     -11.683   6.959  72.268  1.00  0.00    -0.275 NA 
HETATM   32  H   UNL     1     -12.285   6.391  70.289  1.00  0.00     0.000 HD 
HETATM   33  N   UNL     1     -10.582   6.763  72.975  1.00  0.00    -0.247 NA 
HETATM   34  N   UNL     1     -11.580   6.379  71.026  1.00  0.00    -0.335 NA 
HETATM   35  N   UNL     1      -9.782   6.051  72.174  1.00  0.00    -0.155 NA 
ENDBRANCH  25  30
ENDBRANCH  21  24
ENDBRANCH  17  18
ENDBRANCH   9  17
ENDBRANCH   3   4
ENDBRANCH   2   3
TORSDOF 6
ENDMDL
MODEL      144
REMARK 921   NORMALIZED FREE ENERGY PREDICTED BY IDOCK:   -5.73 KCAL/MOL
REMARK 922        TOTAL FREE ENERGY PREDICTED BY IDOCK:   -8.90 KCAL/MOL
REMARK 923 INTER-LIGAND FREE ENERGY PREDICTED BY IDOCK:   -7.98 KCAL/MOL
REMARK 924 INTRA-LIGAND FREE ENERGY PREDICTED BY IDOCK:   -0.92 KCAL/MOL
REMARK 927      BINDING AFFINITY PREDICTED BY RF-SCORE:    0.00 PKD
ROOT
HETATM    1  C   UNL     1     -12.551  11.132  71.219  1.00  0.00    -0.503 C  
HETATM    2  C   UNL     1     -12.186  11.212  69.742  1.00  0.00    -0.369 C  
ENDROOT
BRANCH   2   3
HETATM    3  C   UNL     1     -11.012  10.311  69.339  1.00  0.00    -0.289 C  
BRANCH   3   4
HETATM    4  C   UNL     1     -10.547  10.555  67.936  1.00  0.00    -0.232 A  
HETATM    5  N   UNL     1     -11.179  11.423  67.168  1.00  0.00    -0.341 NA 
HETATM    6  C   UNL     1     -10.640  11.336  65.916  1.00  0.00    -0.253 A  
HETATM    7  C   UNL     1     -11.205  12.170  64.784  1.00  0.00    -0.323 C  
HETATM    8  C   UNL     1      -9.646  10.361  65.897  1.00  0.00    -0.206 A  
HETATM    9  N   UNL     1      -9.503   9.967  67.241  1.00  0.00    -0.151 NA 
HETATM   10  O   UNL     1     -11.672  11.266  63.760  1.00  0.00    -0.441 OA 
HETATM   11  C   UNL     1     -10.141  13.071  64.145  1.00  0.00    -0.146 C  
HETATM   12  C   UNL     1     -12.388  13.053  65.213  1.00  0.00    -0.537 C  
HETATM   13  C   UNL     1      -8.864   9.837  64.802  1.00  0.00    -0.207 C  
HETATM   14  O   UNL     1      -9.500   9.854  63.609  1.00  0.00    -0.262 OA 
HETATM   15  O   UNL     1      -7.739   9.355  64.906  1.00  0.00    -0.105 OA 
HETATM   16  H   UNL     1     -12.026  11.789  63.051  1.00  0.00     0.000 HD 
BRANCH   9  17
HETATM   17  C   UNL     1      -8.412   9.051  67.657  1.00  0.00    -0.117 C  
BRANCH  17  18
HETATM   18  C   UNL     1      -8.771   7.644  68.047  1.00  0.00    -0.125 A  
HETATM   19  C   UNL     1     -10.093   7.304  68.347  1.00  0.00    -0.188 A  
HETATM   20  C   UNL     1     -10.379   6.085  68.978  1.00  0.00    -0.283 A  
HETATM   21  C   UNL     1      -9.358   5.195  69.379  1.00  0.00    -0.176 A  
HETATM   22  C   UNL     1      -8.076   5.463  68.870  1.00  0.00    -0.094 A  
HETATM   23  C   UNL     1      -7.789   6.659  68.192  1.00  0.00    -0.110 A  
BRANCH  21  24
HETATM   24  C   UNL     1      -9.617   4.191  70.471  1.00  0.00    -0.261 A  
HETATM   25  C   UNL     1     -10.249   4.425  71.722  1.00  0.00    -0.201 A  
HETATM   26  C   UNL     1     -10.567   3.318  72.556  1.00  0.00    -0.066 A  
HETATM   27  C   UNL     1      -9.313   2.833  70.164  1.00  0.00    -0.199 A  
HETATM   28  C   UNL     1      -9.604   1.765  71.012  1.00  0.00    -0.197 A  
HETATM   29  C   UNL     1     -10.250   2.006  72.206  1.00  0.00    -0.226 A  
BRANCH  25  30
HETATM   30  C   UNL     1     -10.571   5.755  72.244  1.00  0.00    -0.218 A  
HETATM   31  N   UNL     1     -11.504   7.628  72.791  1.00  0.00    -0.354 NA 
HETATM   32  H   UNL     1     -12.586   6.079  71.777  1.00  0.00     0.000 HD 
HETATM   33  N   UNL     1     -10.253   7.741  73.209  1.00  0.00    -0.328 NA 
HETATM   34  N   UNL     1     -11.715   6.411  72.189  1.00  0.00    -0.316 NA 
HETATM   35  N   UNL     1      -9.673   6.584  72.871  1.00  0.00    -0.153 NA 
ENDBRANCH  25  30
ENDBRANCH  21  24
ENDBRANCH  17  18
ENDBRANCH   9  17
ENDBRANCH   3   4
ENDBRANCH   2   3
TORSDOF 6
ENDMDL
MODEL      145
REMARK 921   NORMALIZED FREE ENERGY PREDICTED BY IDOCK:   -5.72 KCAL/MOL
REMARK 922        TOTAL FREE ENERGY PREDICTED BY IDOCK:   -8.88 KCAL/MOL
REMARK 923 INTER-LIGAND FREE ENERGY PREDICTED BY IDOCK:   -7.67 KCAL/MOL
REMARK 924 INTRA-LIGAND FREE ENERGY PREDICTED BY IDOCK:   -1.21 KCAL/MOL
REMARK 927      BINDING AFFINITY PREDICTED BY RF-SCORE:    0.00 PKD
ROOT
HETATM    1  C   UNL     1     -10.920   6.924  67.075  1.00  0.00    -0.404 C  
HETATM    2  C   UNL     1      -9.955   7.906  66.422  1.00  0.00    -0.192 C  
ENDROOT
BRANCH   2   3
HETATM    3  C   UNL     1      -9.910   9.282  67.101  1.00  0.00    -0.251 C  
BRANCH   3   4
HETATM    4  C   UNL     1     -10.160   9.209  68.576  1.00  0.00    -0.191 A  
HETATM    5  N   UNL     1      -9.404   8.444  69.341  1.00  0.00    -0.154 NA 
HETATM    6  C   UNL     1      -9.942   8.457  70.598  1.00  0.00    -0.185 A  
HETATM    7  C   UNL     1      -9.330   7.613  71.696  1.00  0.00    -0.138 C  
HETATM    8  C   UNL     1     -11.090   9.246  70.610  1.00  0.00    -0.276 A  
HETATM    9  N   UNL     1     -11.135   9.836  69.333  1.00  0.00    -0.207 NA 
HETATM   10  O   UNL     1     -10.340   6.689  72.157  1.00  0.00    -0.198 OA 
HETATM   11  C   UNL     1      -8.901   8.457  72.902  1.00  0.00    -0.258 C  
HETATM   12  C   UNL     1      -8.117   6.793  71.227  1.00  0.00    -0.111 C  
HETATM   13  C   UNL     1     -12.050   9.490  71.661  1.00  0.00    -0.398 C  
HETATM   14  O   UNL     1     -12.203   8.458  72.522  1.00  0.00    -0.386 OA 
HETATM   15  O   UNL     1     -12.734  10.504  71.770  1.00  0.00    -0.420 OA 
HETATM   16  H   UNL     1      -9.956   6.160  72.846  1.00  0.00     0.000 HD 
BRANCH   9  17
HETATM   17  C   UNL     1     -12.135  10.886  69.013  1.00  0.00    -0.169 C  
BRANCH  17  18
HETATM   18  C   UNL     1     -11.636  12.227  68.550  1.00  0.00    -0.359 A  
HETATM   19  C   UNL     1     -11.261  12.427  67.218  1.00  0.00    -0.357 A  
HETATM   20  C   UNL     1     -10.539  13.572  66.856  1.00  0.00    -0.270 A  
HETATM   21  C   UNL     1     -10.120  14.524  67.813  1.00  0.00    -0.225 A  
HETATM   22  C   UNL     1     -10.696  14.405  69.088  1.00  0.00    -0.254 A  
HETATM   23  C   UNL     1     -11.465  13.286  69.447  1.00  0.00    -0.323 A  
BRANCH  21  24
HETATM   24  C   UNL     1      -8.953  15.428  67.517  1.00  0.00    -0.191 A  
HETATM   25  C   UNL     1      -7.574  15.143  67.705  1.00  0.00    -0.194 A  
HETATM   26  C   UNL     1      -6.603  16.053  67.204  1.00  0.00    -0.177 A  
HETATM   27  C   UNL     1      -9.258  16.654  66.856  1.00  0.00    -0.245 A  
HETATM   28  C   UNL     1      -8.289  17.548  66.402  1.00  0.00    -0.297 A  
HETATM   29  C   UNL     1      -6.955  17.239  66.560  1.00  0.00    -0.298 A  
BRANCH  25  30
HETATM   30  C   UNL     1      -7.067  13.973  68.426  1.00  0.00    -0.102 A  
HETATM   31  N   UNL     1      -6.736  12.016  69.286  1.00  0.00    -0.107 NA 
HETATM   32  H   UNL     1      -8.341  12.392  67.914  1.00  0.00     0.000 HD 
HETATM   33  N   UNL     1      -5.788  12.777  69.808  1.00  0.00    -0.112 NA 
HETATM   34  N   UNL     1      -7.537  12.740  68.436  1.00  0.00    -0.128 NA 
HETATM   35  N   UNL     1      -5.991  13.989  69.278  1.00  0.00    -0.090 NA 
ENDBRANCH  25  30
ENDBRANCH  21  24
ENDBRANCH  17  18
ENDBRANCH   9  17
ENDBRANCH   3   4
ENDBRANCH   2   3
TORSDOF 6
ENDMDL
MODEL      146
REMARK 921   NORMALIZED FREE ENERGY PREDICTED BY IDOCK:   -5.72 KCAL/MOL
REMARK 922        TOTAL FREE ENERGY PREDICTED BY IDOCK:   -8.88 KCAL/MOL
REMARK 923 INTER-LIGAND FREE ENERGY PREDICTED BY IDOCK:   -7.44 KCAL/MOL
REMARK 924 INTRA-LIGAND FREE ENERGY PREDICTED BY IDOCK:   -1.44 KCAL/MOL
REMARK 927      BINDING AFFINITY PREDICTED BY RF-SCORE:    0.00 PKD
ROOT
HETATM    1  C   UNL     1     -12.998  10.262  71.277  1.00  0.00    -0.517 C  
HETATM    2  C   UNL     1     -11.498  10.093  71.064  1.00  0.00    -0.436 C  
ENDROOT
BRANCH   2   3
HETATM    3  C   UNL     1     -10.937  10.912  69.893  1.00  0.00    -0.266 C  
BRANCH   3   4
HETATM    4  C   UNL     1      -9.989  10.129  69.039  1.00  0.00    -0.208 A  
HETATM    5  N   UNL     1     -10.408   9.058  68.390  1.00  0.00    -0.202 NA 
HETATM    6  C   UNL     1      -9.316   8.468  67.819  1.00  0.00    -0.137 A  
HETATM    7  C   UNL     1      -9.465   7.169  67.055  1.00  0.00    -0.155 C  
HETATM    8  C   UNL     1      -8.168   9.187  68.142  1.00  0.00    -0.116 A  
HETATM    9  N   UNL     1      -8.638  10.334  68.811  1.00  0.00    -0.130 NA 
HETATM   10  O   UNL     1      -8.646   6.176  67.707  1.00  0.00    -0.115 OA 
HETATM   11  C   UNL     1      -8.970   7.290  65.609  1.00  0.00     0.009 C  
HETATM   12  C   UNL     1     -10.911   6.645  67.025  1.00  0.00    -0.467 C  
HETATM   13  C   UNL     1      -6.778   8.914  67.863  1.00  0.00    -0.069 C  
HETATM   14  O   UNL     1      -6.477   7.598  67.785  1.00  0.00    -0.051 OA 
HETATM   15  O   UNL     1      -5.899   9.766  67.755  1.00  0.00    -0.040 OA 
HETATM   16  H   UNL     1      -8.740   5.361  67.227  1.00  0.00     0.000 HD 
BRANCH   9  17
HETATM   17  C   UNL     1      -7.716  11.439  69.171  1.00  0.00    -0.008 C  
BRANCH  17  18
HETATM   18  C   UNL     1      -7.827  12.735  68.415  1.00  0.00    -0.132 A  
HETATM   19  C   UNL     1      -7.066  13.845  68.789  1.00  0.00    -0.109 A  
HETATM   20  C   UNL     1      -7.373  15.113  68.277  1.00  0.00    -0.114 A  
HETATM   21  C   UNL     1      -8.479  15.325  67.423  1.00  0.00    -0.197 A  
HETATM   22  C   UNL     1      -9.080  14.168  66.900  1.00  0.00    -0.260 A  
HETATM   23  C   UNL     1      -8.744  12.888  67.370  1.00  0.00    -0.197 A  
BRANCH  21  24
HETATM   24  C   UNL     1      -9.091  16.696  67.307  1.00  0.00    -0.225 A  
HETATM   25  C   UNL     1     -10.171  17.223  68.064  1.00  0.00    -0.332 A  
HETATM   26  C   UNL     1     -10.500  18.601  67.938  1.00  0.00    -0.431 A  
HETATM   27  C   UNL     1      -8.431  17.608  66.433  1.00  0.00    -0.279 A  
HETATM   28  C   UNL     1      -8.791  18.949  66.300  1.00  0.00    -0.260 A  
HETATM   29  C   UNL     1      -9.819  19.453  67.069  1.00  0.00    -0.440 A  
BRANCH  25  30
HETATM   30  C   UNL     1     -11.015  16.426  68.958  1.00  0.00    -0.325 A  
HETATM   31  N   UNL     1     -12.490  15.109  69.835  1.00  0.00    -0.272 NA 
HETATM   32  H   UNL     1     -12.291  15.330  67.711  1.00  0.00     0.000 HD 
HETATM   33  N   UNL     1     -11.865  15.650  70.869  1.00  0.00    -0.351 NA 
HETATM   34  N   UNL     1     -11.981  15.582  68.650  1.00  0.00    -0.290 NA 
HETATM   35  N   UNL     1     -10.952  16.466  70.329  1.00  0.00    -0.320 NA 
ENDBRANCH  25  30
ENDBRANCH  21  24
ENDBRANCH  17  18
ENDBRANCH   9  17
ENDBRANCH   3   4
ENDBRANCH   2   3
TORSDOF 6
ENDMDL
MODEL      147
REMARK 921   NORMALIZED FREE ENERGY PREDICTED BY IDOCK:   -5.71 KCAL/MOL
REMARK 922        TOTAL FREE ENERGY PREDICTED BY IDOCK:   -8.86 KCAL/MOL
REMARK 923 INTER-LIGAND FREE ENERGY PREDICTED BY IDOCK:   -8.01 KCAL/MOL
REMARK 924 INTRA-LIGAND FREE ENERGY PREDICTED BY IDOCK:   -0.85 KCAL/MOL
REMARK 927      BINDING AFFINITY PREDICTED BY RF-SCORE:    0.00 PKD
ROOT
HETATM    1  C   UNL     1     -12.022  13.649  64.081  1.00  0.00    -0.488 C  
HETATM    2  C   UNL     1     -11.174  12.408  64.336  1.00  0.00    -0.384 C  
ENDROOT
BRANCH   2   3
HETATM    3  C   UNL     1      -9.985  12.647  65.276  1.00  0.00    -0.215 C  
BRANCH   3   4
HETATM    4  C   UNL     1     -10.221  13.772  66.236  1.00  0.00    -0.297 A  
HETATM    5  N   UNL     1      -9.521  14.887  66.137  1.00  0.00    -0.298 NA 
HETATM    6  C   UNL     1      -9.836  15.669  67.213  1.00  0.00    -0.225 A  
HETATM    7  C   UNL     1      -9.139  16.998  67.418  1.00  0.00    -0.222 C  
HETATM    8  C   UNL     1     -10.753  15.005  68.025  1.00  0.00    -0.262 A  
HETATM    9  N   UNL     1     -11.096  13.845  67.306  1.00  0.00    -0.293 NA 
HETATM   10  O   UNL     1      -8.454  16.946  68.687  1.00  0.00    -0.243 OA 
HETATM   11  C   UNL     1     -10.131  18.165  67.484  1.00  0.00    -0.358 C  
HETATM   12  C   UNL     1      -8.099  17.312  66.330  1.00  0.00    -0.328 C  
HETATM   13  C   UNL     1     -11.308  15.370  69.307  1.00  0.00    -0.315 C  
HETATM   14  O   UNL     1     -10.482  16.115  70.076  1.00  0.00    -0.280 OA 
HETATM   15  O   UNL     1     -12.403  15.010  69.730  1.00  0.00    -0.297 OA 
HETATM   16  H   UNL     1      -8.017  17.779  68.816  1.00  0.00     0.000 HD 
BRANCH   9  17
HETATM   17  C   UNL     1     -12.186  12.952  67.773  1.00  0.00     0.014 C  
BRANCH  17  18
HETATM   18  C   UNL     1     -11.818  11.590  68.295  1.00  0.00    -0.327 A  
HETATM   19  C   UNL     1     -12.377  11.107  69.481  1.00  0.00    -0.262 A  
HETATM   20  C   UNL     1     -11.829   9.980  70.109  1.00  0.00    -0.245 A  
HETATM   21  C   UNL     1     -10.677   9.334  69.608  1.00  0.00    -0.244 A  
HETATM   22  C   UNL     1     -10.279   9.706  68.313  1.00  0.00    -0.216 A  
HETATM   23  C   UNL     1     -10.857  10.803  67.653  1.00  0.00    -0.332 A  
BRANCH  21  24
HETATM   24  C   UNL     1      -9.823   8.497  70.522  1.00  0.00    -0.206 A  
HETATM   25  C   UNL     1      -9.127   7.302  70.195  1.00  0.00    -0.148 A  
HETATM   26  C   UNL     1      -8.226   6.741  71.143  1.00  0.00    -0.119 A  
HETATM   27  C   UNL     1      -9.581   9.029  71.822  1.00  0.00    -0.278 A  
HETATM   28  C   UNL     1      -8.718   8.445  72.749  1.00  0.00    -0.256 A  
HETATM   29  C   UNL     1      -8.024   7.305  72.401  1.00  0.00    -0.105 A  
BRANCH  25  30
HETATM   30  C   UNL     1      -9.301   6.567  68.940  1.00  0.00    -0.131 A  
HETATM   31  N   UNL     1      -9.078   5.653  66.992  1.00  0.00    -0.113 NA 
HETATM   32  H   UNL     1      -7.469   6.712  67.935  1.00  0.00     0.000 HD 
HETATM   33  N   UNL     1     -10.328   5.395  67.343  1.00  0.00    -0.209 NA 
HETATM   34  N   UNL     1      -8.433   6.380  67.963  1.00  0.00    -0.118 NA 
HETATM   35  N   UNL     1     -10.469   5.961  68.548  1.00  0.00    -0.215 NA 
ENDBRANCH  25  30
ENDBRANCH  21  24
ENDBRANCH  17  18
ENDBRANCH   9  17
ENDBRANCH   3   4
ENDBRANCH   2   3
TORSDOF 6
ENDMDL
MODEL      148
REMARK 921   NORMALIZED FREE ENERGY PREDICTED BY IDOCK:   -5.71 KCAL/MOL
REMARK 922        TOTAL FREE ENERGY PREDICTED BY IDOCK:   -8.86 KCAL/MOL
REMARK 923 INTER-LIGAND FREE ENERGY PREDICTED BY IDOCK:   -7.22 KCAL/MOL
REMARK 924 INTRA-LIGAND FREE ENERGY PREDICTED BY IDOCK:   -1.64 KCAL/MOL
REMARK 927      BINDING AFFINITY PREDICTED BY RF-SCORE:    0.00 PKD
ROOT
HETATM    1  C   UNL     1     -10.510   6.628  71.143  1.00  0.00    -0.247 C  
HETATM    2  C   UNL     1     -10.816   5.567  70.093  1.00  0.00    -0.299 C  
ENDROOT
BRANCH   2   3
HETATM    3  C   UNL     1     -11.026   6.128  68.681  1.00  0.00    -0.415 C  
BRANCH   3   4
HETATM    4  C   UNL     1      -9.813   5.984  67.813  1.00  0.00    -0.119 A  
HETATM    5  N   UNL     1      -9.751   5.022  66.911  1.00  0.00    -0.152 NA 
HETATM    6  C   UNL     1      -8.493   5.037  66.377  1.00  0.00    -0.111 A  
HETATM    7  C   UNL     1      -8.089   3.999  65.351  1.00  0.00    -0.101 C  
HETATM    8  C   UNL     1      -7.736   6.036  66.984  1.00  0.00    -0.101 A  
HETATM    9  N   UNL     1      -8.645   6.728  67.807  1.00  0.00    -0.122 NA 
HETATM   10  O   UNL     1      -6.970   3.261  65.887  1.00  0.00    -0.055 OA 
HETATM   11  C   UNL     1      -7.626   4.637  64.036  1.00  0.00    -0.068 C  
HETATM   12  C   UNL     1      -9.209   2.995  65.031  1.00  0.00    -0.149 C  
HETATM   13  C   UNL     1      -6.340   6.378  66.835  1.00  0.00    -0.041 C  
HETATM   14  O   UNL     1      -5.542   5.330  66.531  1.00  0.00    -0.016 OA 
HETATM   15  O   UNL     1      -5.865   7.496  67.016  1.00  0.00    -0.036 OA 
HETATM   16  H   UNL     1      -6.717   2.609  65.244  1.00  0.00     0.000 HD 
BRANCH   9  17
HETATM   17  C   UNL     1      -8.248   7.979  68.499  1.00  0.00    -0.126 C  
BRANCH  17  18
HETATM   18  C   UNL     1      -8.879   9.270  68.056  1.00  0.00    -0.128 A  
HETATM   19  C   UNL     1     -10.213   9.553  68.361  1.00  0.00    -0.221 A  
HETATM   20  C   UNL     1     -10.874  10.606  67.714  1.00  0.00    -0.338 A  
HETATM   21  C   UNL     1     -10.247  11.373  66.707  1.00  0.00    -0.258 A  
HETATM   22  C   UNL     1      -8.858  11.208  66.585  1.00  0.00    -0.168 A  
HETATM   23  C   UNL     1      -8.176  10.187  67.268  1.00  0.00    -0.117 A  
BRANCH  21  24
HETATM   24  C   UNL     1     -11.080  12.115  65.695  1.00  0.00    -0.360 A  
HETATM   25  C   UNL     1     -11.532  13.461  65.773  1.00  0.00    -0.341 A  
HETATM   26  C   UNL     1     -12.160  14.048  64.641  1.00  0.00    -0.462 A  
HETATM   27  C   UNL     1     -11.333  11.437  64.468  1.00  0.00    -0.184 A  
HETATM   28  C   UNL     1     -11.981  12.023  63.380  1.00  0.00    -0.571 A  
HETATM   29  C   UNL     1     -12.381  13.340  63.460  1.00  0.00    -0.442 A  
BRANCH  25  30
HETATM   30  C   UNL     1     -11.430  14.294  66.974  1.00  0.00    -0.361 A  
HETATM   31  N   UNL     1     -10.868  15.720  68.500  1.00  0.00    -0.274 NA 
HETATM   32  H   UNL     1      -9.851  15.621  66.615  1.00  0.00     0.000 HD 
HETATM   33  N   UNL     1     -11.870  15.037  69.031  1.00  0.00    -0.310 NA 
HETATM   34  N   UNL     1     -10.580  15.269  67.234  1.00  0.00    -0.284 NA 
HETATM   35  N   UNL     1     -12.219  14.153  68.089  1.00  0.00    -0.243 NA 
ENDBRANCH  25  30
ENDBRANCH  21  24
ENDBRANCH  17  18
ENDBRANCH   9  17
ENDBRANCH   3   4
ENDBRANCH   2   3
TORSDOF 6
ENDMDL
MODEL      149
REMARK 921   NORMALIZED FREE ENERGY PREDICTED BY IDOCK:   -5.71 KCAL/MOL
REMARK 922        TOTAL FREE ENERGY PREDICTED BY IDOCK:   -8.86 KCAL/MOL
REMARK 923 INTER-LIGAND FREE ENERGY PREDICTED BY IDOCK:   -8.90 KCAL/MOL
REMARK 924 INTRA-LIGAND FREE ENERGY PREDICTED BY IDOCK:    0.04 KCAL/MOL
REMARK 927      BINDING AFFINITY PREDICTED BY RF-SCORE:    0.00 PKD
ROOT
HETATM    1  C   UNL     1     -13.339  10.785  72.169  1.00  0.00    -0.314 C  
HETATM    2  C   UNL     1     -13.181   9.885  70.949  1.00  0.00    -0.309 C  
ENDROOT
BRANCH   2   3
HETATM    3  C   UNL     1     -11.990  10.250  70.054  1.00  0.00    -0.273 C  
BRANCH   3   4
HETATM    4  C   UNL     1     -11.759  11.727  69.968  1.00  0.00    -0.305 A  
HETATM    5  N   UNL     1     -12.300  12.537  70.859  1.00  0.00    -0.341 NA 
HETATM    6  C   UNL     1     -12.049  13.819  70.458  1.00  0.00    -0.345 A  
HETATM    7  C   UNL     1     -12.604  14.986  71.248  1.00  0.00    -0.339 C  
HETATM    8  C   UNL     1     -11.341  13.807  69.259  1.00  0.00    -0.273 A  
HETATM    9  N   UNL     1     -11.040  12.451  69.031  1.00  0.00    -0.246 NA 
HETATM   10  O   UNL     1     -13.462  15.745  70.370  1.00  0.00    -0.755 OA 
HETATM   11  C   UNL     1     -11.499  15.932  71.733  1.00  0.00    -0.457 C  
HETATM   12  C   UNL     1     -13.436  14.553  72.466  1.00  0.00    -0.580 C  
HETATM   13  C   UNL     1     -10.932  14.893  68.398  1.00  0.00    -0.261 C  
HETATM   14  O   UNL     1     -11.762  15.959  68.420  1.00  0.00    -0.358 OA 
HETATM   15  O   UNL     1      -9.957  14.873  67.651  1.00  0.00    -0.224 OA 
HETATM   16  H   UNL     1     -13.810  16.477  70.865  1.00  0.00     0.000 HD 
BRANCH   9  17
HETATM   17  C   UNL     1     -10.141  12.044  67.923  1.00  0.00    -0.195 C  
BRANCH  17  18
HETATM   18  C   UNL     1      -9.671  10.615  67.874  1.00  0.00    -0.177 A  
HETATM   19  C   UNL     1     -10.392   9.653  67.161  1.00  0.00    -0.319 A  
HETATM   20  C   UNL     1     -10.120   8.291  67.348  1.00  0.00    -0.298 A  
HETATM   21  C   UNL     1      -9.165   7.842  68.288  1.00  0.00    -0.137 A  
HETATM   22  C   UNL     1      -8.317   8.828  68.817  1.00  0.00    -0.124 A  
HETATM   23  C   UNL     1      -8.549  10.196  68.596  1.00  0.00    -0.123 A  
BRANCH  21  24
HETATM   24  C   UNL     1      -9.247   6.444  68.838  1.00  0.00    -0.128 A  
HETATM   25  C   UNL     1      -9.579   6.060  70.166  1.00  0.00    -0.192 A  
HETATM   26  C   UNL     1      -9.780   4.683  70.460  1.00  0.00    -0.284 A  
HETATM   27  C   UNL     1      -9.104   5.385  67.895  1.00  0.00    -0.112 A  
HETATM   28  C   UNL     1      -9.274   4.038  68.213  1.00  0.00    -0.202 A  
HETATM   29  C   UNL     1      -9.630   3.686  69.498  1.00  0.00    -0.207 A  
BRANCH  25  30
HETATM   30  C   UNL     1      -9.695   6.995  71.287  1.00  0.00    -0.171 A  
HETATM   31  N   UNL     1     -10.374   8.306  72.869  1.00  0.00    -0.261 NA 
HETATM   32  H   UNL     1     -11.741   7.128  71.710  1.00  0.00     0.000 HD 
HETATM   33  N   UNL     1      -9.059   8.455  72.849  1.00  0.00    -0.273 NA 
HETATM   34  N   UNL     1     -10.782   7.413  71.907  1.00  0.00    -0.213 NA 
HETATM   35  N   UNL     1      -8.636   7.646  71.871  1.00  0.00    -0.107 NA 
ENDBRANCH  25  30
ENDBRANCH  21  24
ENDBRANCH  17  18
ENDBRANCH   9  17
ENDBRANCH   3   4
ENDBRANCH   2   3
TORSDOF 6
ENDMDL
MODEL      150
REMARK 921   NORMALIZED FREE ENERGY PREDICTED BY IDOCK:   -5.70 KCAL/MOL
REMARK 922        TOTAL FREE ENERGY PREDICTED BY IDOCK:   -8.85 KCAL/MOL
REMARK 923 INTER-LIGAND FREE ENERGY PREDICTED BY IDOCK:   -7.46 KCAL/MOL
REMARK 924 INTRA-LIGAND FREE ENERGY PREDICTED BY IDOCK:   -1.39 KCAL/MOL
REMARK 927      BINDING AFFINITY PREDICTED BY RF-SCORE:    0.00 PKD
ROOT
HETATM    1  C   UNL     1      -5.191  12.377  69.198  1.00  0.00    -0.067 C  
HETATM    2  C   UNL     1      -6.434  12.999  68.574  1.00  0.00    -0.084 C  
ENDROOT
BRANCH   2   3
HETATM    3  C   UNL     1      -7.660  12.077  68.571  1.00  0.00    -0.126 C  
BRANCH   3   4
HETATM    4  C   UNL     1      -8.668  12.454  67.530  1.00  0.00    -0.179 A  
HETATM    5  N   UNL     1      -9.173  13.673  67.504  1.00  0.00    -0.208 NA 
HETATM    6  C   UNL     1     -10.160  13.691  66.559  1.00  0.00    -0.286 A  
HETATM    7  C   UNL     1     -10.980  14.946  66.339  1.00  0.00    -0.336 C  
HETATM    8  C   UNL     1     -10.288  12.428  65.987  1.00  0.00    -0.251 A  
HETATM    9  N   UNL     1      -9.224  11.680  66.525  1.00  0.00    -0.193 NA 
HETATM   10  O   UNL     1     -12.361  14.622  66.601  1.00  0.00    -0.407 OA 
HETATM   11  C   UNL     1     -10.895  15.443  64.891  1.00  0.00    -0.445 C  
HETATM   12  C   UNL     1     -10.580  16.103  67.269  1.00  0.00    -0.305 C  
HETATM   13  C   UNL     1     -11.241  11.924  65.026  1.00  0.00    -0.293 C  
HETATM   14  O   UNL     1     -12.455  12.515  65.089  1.00  0.00    -0.573 OA 
HETATM   15  O   UNL     1     -11.032  11.002  64.242  1.00  0.00    -0.309 OA 
HETATM   16  H   UNL     1     -12.876  15.408  66.463  1.00  0.00     0.000 HD 
BRANCH   9  17
HETATM   17  C   UNL     1      -8.921  10.315  66.025  1.00  0.00    -0.152 C  
BRANCH  17  18
HETATM   18  C   UNL     1      -9.280   9.141  66.894  1.00  0.00    -0.183 A  
HETATM   19  C   UNL     1      -8.379   8.657  67.846  1.00  0.00    -0.123 A  
HETATM   20  C   UNL     1      -8.594   7.409  68.447  1.00  0.00    -0.124 A  
HETATM   21  C   UNL     1      -9.678   6.581  68.078  1.00  0.00    -0.119 A  
HETATM   22  C   UNL     1     -10.672   7.186  67.291  1.00  0.00    -0.399 A  
HETATM   23  C   UNL     1     -10.489   8.458  66.725  1.00  0.00    -0.315 A  
BRANCH  21  24
HETATM   24  C   UNL     1      -9.612   5.097  68.325  1.00  0.00    -0.178 A  
HETATM   25  C   UNL     1      -9.321   4.080  67.376  1.00  0.00    -0.215 A  
HETATM   26  C   UNL     1      -9.129   2.745  67.828  1.00  0.00    -0.223 A  
HETATM   27  C   UNL     1      -9.727   4.678  69.682  1.00  0.00    -0.283 A  
HETATM   28  C   UNL     1      -9.566   3.357  70.099  1.00  0.00    -0.211 A  
HETATM   29  C   UNL     1      -9.248   2.388  69.171  1.00  0.00    -0.197 A  
BRANCH  25  30
HETATM   30  C   UNL     1      -9.239   4.302  65.931  1.00  0.00    -0.145 A  
HETATM   31  N   UNL     1      -9.571   4.380  63.795  1.00  0.00    -0.091 NA 
HETATM   32  H   UNL     1     -11.032   3.568  65.138  1.00  0.00     0.000 HD 
HETATM   33  N   UNL     1      -8.366   4.902  63.968  1.00  0.00    -0.126 NA 
HETATM   34  N   UNL     1     -10.119   4.000  64.996  1.00  0.00    -0.207 NA 
HETATM   35  N   UNL     1      -8.158   4.854  65.288  1.00  0.00    -0.111 NA 
ENDBRANCH  25  30
ENDBRANCH  21  24
ENDBRANCH  17  18
ENDBRANCH   9  17
ENDBRANCH   3   4
ENDBRANCH   2   3
TORSDOF 6
ENDMDL
MODEL      151
REMARK 921   NORMALIZED FREE ENERGY PREDICTED BY IDOCK:   -5.63 KCAL/MOL
REMARK 922        TOTAL FREE ENERGY PREDICTED BY IDOCK:   -8.75 KCAL/MOL
REMARK 923 INTER-LIGAND FREE ENERGY PREDICTED BY IDOCK:   -7.53 KCAL/MOL
REMARK 924 INTRA-LIGAND FREE ENERGY PREDICTED BY IDOCK:   -1.23 KCAL/MOL
REMARK 927      BINDING AFFINITY PREDICTED BY RF-SCORE:    0.00 PKD
ROOT
HETATM    1  C   UNL     1     -12.960  15.388  71.230  1.00  0.00    -0.541 C  
HETATM    2  C   UNL     1     -11.477  15.391  70.880  1.00  0.00    -0.396 C  
ENDROOT
BRANCH   2   3
HETATM    3  C   UNL     1     -11.176  14.986  69.431  1.00  0.00    -0.299 C  
BRANCH   3   4
HETATM    4  C   UNL     1     -10.180  15.889  68.771  1.00  0.00    -0.220 A  
HETATM    5  N   UNL     1     -10.525  17.111  68.412  1.00  0.00    -0.356 NA 
HETATM    6  C   UNL     1      -9.481  17.647  67.712  1.00  0.00    -0.260 A  
HETATM    7  C   UNL     1      -9.602  19.029  67.105  1.00  0.00    -0.312 C  
HETATM    8  C   UNL     1      -8.452  16.714  67.613  1.00  0.00    -0.192 A  
HETATM    9  N   UNL     1      -8.863  15.637  68.422  1.00  0.00    -0.179 NA 
HETATM   10  O   UNL     1      -9.430  18.902  65.678  1.00  0.00    -0.304 OA 
HETATM   11  C   UNL     1      -8.509  19.979  67.612  1.00  0.00    -0.378 C  
HETATM   12  C   UNL     1     -10.967  19.688  67.362  1.00  0.00    -0.386 C  
HETATM   13  C   UNL     1      -7.198  16.770  66.898  1.00  0.00    -0.223 C  
HETATM   14  O   UNL     1      -7.236  17.520  65.774  1.00  0.00    -0.414 OA 
HETATM   15  O   UNL     1      -6.179  16.161  67.212  1.00  0.00    -0.166 OA 
HETATM   16  H   UNL     1      -9.505  19.769  65.297  1.00  0.00     0.000 HD 
BRANCH   9  17
HETATM   17  C   UNL     1      -7.947  14.505  68.709  1.00  0.00    -0.142 C  
BRANCH  17  18
HETATM   18  C   UNL     1      -7.927  13.345  67.752  1.00  0.00    -0.167 A  
HETATM   19  C   UNL     1      -9.110  12.877  67.174  1.00  0.00    -0.220 A  
HETATM   20  C   UNL     1      -9.130  11.639  66.518  1.00  0.00    -0.200 A  
HETATM   21  C   UNL     1      -7.991  10.804  66.466  1.00  0.00    -0.144 A  
HETATM   22  C   UNL     1      -6.779  11.395  66.858  1.00  0.00    -0.145 A  
HETATM   23  C   UNL     1      -6.741  12.659  67.471  1.00  0.00    -0.156 A  
BRANCH  21  24
HETATM   24  C   UNL     1      -8.149   9.324  66.237  1.00  0.00    -0.107 A  
HETATM   25  C   UNL     1      -8.873   8.402  67.040  1.00  0.00    -0.146 A  
HETATM   26  C   UNL     1      -9.060   7.072  66.572  1.00  0.00    -0.183 A  
HETATM   27  C   UNL     1      -7.626   8.816  65.012  1.00  0.00    -0.100 A  
HETATM   28  C   UNL     1      -7.794   7.498  64.588  1.00  0.00    -0.130 A  
HETATM   29  C   UNL     1      -8.529   6.626  65.363  1.00  0.00    -0.112 A  
BRANCH  25  30
HETATM   30  C   UNL     1      -9.420   8.717  68.362  1.00  0.00    -0.138 A  
HETATM   31  N   UNL     1     -10.669   9.004  70.105  1.00  0.00    -0.227 NA 
HETATM   32  H   UNL     1     -11.411   8.067  68.324  1.00  0.00     0.000 HD 
HETATM   33  N   UNL     1      -9.497   9.521  70.441  1.00  0.00    -0.258 NA 
HETATM   34  N   UNL     1     -10.639   8.509  68.823  1.00  0.00    -0.179 NA 
HETATM   35  N   UNL     1      -8.723   9.345  69.364  1.00  0.00    -0.147 NA 
ENDBRANCH  25  30
ENDBRANCH  21  24
ENDBRANCH  17  18
ENDBRANCH   9  17
ENDBRANCH   3   4
ENDBRANCH   2   3
TORSDOF 6
ENDMDL
MODEL      152
REMARK 921   NORMALIZED FREE ENERGY PREDICTED BY IDOCK:   -5.62 KCAL/MOL
REMARK 922        TOTAL FREE ENERGY PREDICTED BY IDOCK:   -8.74 KCAL/MOL
REMARK 923 INTER-LIGAND FREE ENERGY PREDICTED BY IDOCK:   -7.54 KCAL/MOL
REMARK 924 INTRA-LIGAND FREE ENERGY PREDICTED BY IDOCK:   -1.20 KCAL/MOL
REMARK 927      BINDING AFFINITY PREDICTED BY RF-SCORE:    0.00 PKD
ROOT
HETATM    1  C   UNL     1      -9.680   6.699  66.370  1.00  0.00    -0.128 C  
HETATM    2  C   UNL     1     -10.533   7.148  67.551  1.00  0.00    -0.331 C  
ENDROOT
BRANCH   2   3
HETATM    3  C   UNL     1     -11.054   5.995  68.420  1.00  0.00    -0.271 C  
BRANCH   3   4
HETATM    4  C   UNL     1     -10.506   6.026  69.814  1.00  0.00    -0.255 A  
HETATM    5  N   UNL     1      -9.494   5.247  70.147  1.00  0.00    -0.151 NA 
HETATM    6  C   UNL     1      -9.302   5.373  71.494  1.00  0.00    -0.147 A  
HETATM    7  C   UNL     1      -8.245   4.545  72.194  1.00  0.00    -0.105 C  
HETATM    8  C   UNL     1     -10.245   6.251  72.024  1.00  0.00    -0.189 A  
HETATM    9  N   UNL     1     -10.923   6.770  70.904  1.00  0.00    -0.248 NA 
HETATM   10  O   UNL     1      -8.905   3.733  73.187  1.00  0.00    -0.093 OA 
HETATM   11  C   UNL     1      -7.220   5.419  72.927  1.00  0.00    -0.090 C  
HETATM   12  C   UNL     1      -7.483   3.606  71.244  1.00  0.00    -0.044 C  
HETATM   13  C   UNL     1     -10.513   6.629  73.392  1.00  0.00    -0.290 C  
HETATM   14  O   UNL     1     -10.238   5.663  74.297  1.00  0.00    -0.235 OA 
HETATM   15  O   UNL     1     -11.000   7.699  73.746  1.00  0.00    -0.220 OA 
HETATM   16  H   UNL     1      -8.242   3.214  73.626  1.00  0.00     0.000 HD 
BRANCH   9  17
HETATM   17  C   UNL     1     -11.901   7.877  71.050  1.00  0.00    -0.268 C  
BRANCH  17  18
HETATM   18  C   UNL     1     -11.489   9.255  70.611  1.00  0.00    -0.327 A  
HETATM   19  C   UNL     1     -12.401  10.314  70.639  1.00  0.00    -0.416 A  
HETATM   20  C   UNL     1     -12.108  11.511  69.973  1.00  0.00    -0.408 A  
HETATM   21  C   UNL     1     -10.928  11.673  69.212  1.00  0.00    -0.246 A  
HETATM   22  C   UNL     1      -9.947  10.683  69.386  1.00  0.00    -0.183 A  
HETATM   23  C   UNL     1     -10.212   9.500  70.095  1.00  0.00    -0.291 A  
BRANCH  21  24
HETATM   24  C   UNL     1     -10.868  12.710  68.122  1.00  0.00    -0.250 A  
HETATM   25  C   UNL     1     -10.140  12.636  66.904  1.00  0.00    -0.234 A  
HETATM   26  C   UNL     1     -10.343  13.636  65.913  1.00  0.00    -0.304 A  
HETATM   27  C   UNL     1     -11.738  13.829  68.269  1.00  0.00    -0.394 A  
HETATM   28  C   UNL     1     -11.898  14.816  67.297  1.00  0.00    -0.316 A  
HETATM   29  C   UNL     1     -11.210  14.711  66.106  1.00  0.00    -0.341 A  
BRANCH  25  30
HETATM   30  C   UNL     1      -9.146  11.604  66.601  1.00  0.00    -0.194 A  
HETATM   31  N   UNL     1      -7.352  10.416  66.376  1.00  0.00    -0.113 NA 
HETATM   32  H   UNL     1      -7.346  12.287  67.425  1.00  0.00     0.000 HD 
HETATM   33  N   UNL     1      -8.293   9.728  65.749  1.00  0.00    -0.126 NA 
HETATM   34  N   UNL     1      -7.861  11.579  66.903  1.00  0.00    -0.160 NA 
HETATM   35  N   UNL     1      -9.403  10.461  65.885  1.00  0.00    -0.173 NA 
ENDBRANCH  25  30
ENDBRANCH  21  24
ENDBRANCH  17  18
ENDBRANCH   9  17
ENDBRANCH   3   4
ENDBRANCH   2   3
TORSDOF 6
ENDMDL
MODEL      153
REMARK 921   NORMALIZED FREE ENERGY PREDICTED BY IDOCK:   -5.61 KCAL/MOL
REMARK 922        TOTAL FREE ENERGY PREDICTED BY IDOCK:   -8.73 KCAL/MOL
REMARK 923 INTER-LIGAND FREE ENERGY PREDICTED BY IDOCK:   -7.13 KCAL/MOL
REMARK 924 INTRA-LIGAND FREE ENERGY PREDICTED BY IDOCK:   -1.60 KCAL/MOL
REMARK 927      BINDING AFFINITY PREDICTED BY RF-SCORE:    0.00 PKD
ROOT
HETATM    1  C   UNL     1      -7.754  10.665  67.647  1.00  0.00    -0.097 C  
HETATM    2  C   UNL     1      -8.092  10.464  66.174  1.00  0.00    -0.139 C  
ENDROOT
BRANCH   2   3
HETATM    3  C   UNL     1      -9.548  10.791  65.818  1.00  0.00    -0.254 C  
BRANCH   3   4
HETATM    4  C   UNL     1     -10.089  11.953  66.593  1.00  0.00    -0.200 A  
HETATM    5  N   UNL     1      -9.749  13.186  66.267  1.00  0.00    -0.275 NA 
HETATM    6  C   UNL     1     -10.262  14.021  67.218  1.00  0.00    -0.260 A  
HETATM    7  C   UNL     1      -9.983  15.509  67.156  1.00  0.00    -0.242 C  
HETATM    8  C   UNL     1     -10.932  13.277  68.187  1.00  0.00    -0.255 A  
HETATM    9  N   UNL     1     -10.931  11.959  67.692  1.00  0.00    -0.222 NA 
HETATM   10  O   UNL     1      -9.293  15.879  68.369  1.00  0.00    -0.193 OA 
HETATM   11  C   UNL     1     -11.272  16.336  67.095  1.00  0.00     0.102 C  
HETATM   12  C   UNL     1      -9.096  15.910  65.966  1.00  0.00    -0.363 C  
HETATM   13  C   UNL     1     -11.550  13.687  69.426  1.00  0.00    -0.312 C  
HETATM   14  O   UNL     1     -10.968  14.761  70.006  1.00  0.00    -0.227 OA 
HETATM   15  O   UNL     1     -12.485  13.110  69.973  1.00  0.00    -0.203 OA 
HETATM   16  H   UNL     1      -9.118  16.812  68.330  1.00  0.00     0.000 HD 
BRANCH   9  17
HETATM   17  C   UNL     1     -11.704  10.889  68.370  1.00  0.00    -0.218 C  
BRANCH  17  18
HETATM   18  C   UNL     1     -10.987  10.004  69.353  1.00  0.00    -0.280 A  
HETATM   19  C   UNL     1     -10.431   8.789  68.943  1.00  0.00    -0.217 A  
HETATM   20  C   UNL     1     -10.021   7.847  69.897  1.00  0.00    -0.192 A  
HETATM   21  C   UNL     1     -10.203   8.060  71.282  1.00  0.00    -0.230 A  
HETATM   22  C   UNL     1     -10.555   9.365  71.660  1.00  0.00    -0.248 A  
HETATM   23  C   UNL     1     -10.919  10.334  70.710  1.00  0.00    -0.213 A  
BRANCH  21  24
HETATM   24  C   UNL     1     -10.247   6.888  72.226  1.00  0.00    -0.207 A  
HETATM   25  C   UNL     1      -9.402   6.650  73.344  1.00  0.00    -0.155 A  
HETATM   26  C   UNL     1      -9.706   5.578  74.227  1.00  0.00    -0.182 A  
HETATM   27  C   UNL     1     -11.338   5.985  72.059  1.00  0.00    -0.345 A  
HETATM   28  C   UNL     1     -11.598   4.919  72.920  1.00  0.00    -0.227 A  
HETATM   29  C   UNL     1     -10.788   4.725  74.019  1.00  0.00    -0.322 A  
BRANCH  25  30
HETATM   30  C   UNL     1      -8.193   7.423  73.639  1.00  0.00    -0.132 A  
HETATM   31  N   UNL     1      -6.744   8.885  74.302  1.00  0.00    -0.357 NA 
HETATM   32  H   UNL     1      -8.820   9.036  74.816  1.00  0.00     0.000 HD 
HETATM   33  N   UNL     1      -6.044   8.019  73.586  1.00  0.00    -0.074 NA 
HETATM   34  N   UNL     1      -8.072   8.534  74.339  1.00  0.00    -0.314 NA 
HETATM   35  N   UNL     1      -6.939   7.114  73.173  1.00  0.00    -0.072 NA 
ENDBRANCH  25  30
ENDBRANCH  21  24
ENDBRANCH  17  18
ENDBRANCH   9  17
ENDBRANCH   3   4
ENDBRANCH   2   3
TORSDOF 6
ENDMDL
MODEL      154
REMARK 921   NORMALIZED FREE ENERGY PREDICTED BY IDOCK:   -5.60 KCAL/MOL
REMARK 922        TOTAL FREE ENERGY PREDICTED BY IDOCK:   -8.72 KCAL/MOL
REMARK 923 INTER-LIGAND FREE ENERGY PREDICTED BY IDOCK:   -7.28 KCAL/MOL
REMARK 924 INTRA-LIGAND FREE ENERGY PREDICTED BY IDOCK:   -1.44 KCAL/MOL
REMARK 927      BINDING AFFINITY PREDICTED BY RF-SCORE:    0.00 PKD
ROOT
HETATM    1  C   UNL     1      -5.406  14.218  70.318  1.00  0.00    -0.104 C  
HETATM    2  C   UNL     1      -6.057  14.049  68.950  1.00  0.00    -0.086 C  
ENDROOT
BRANCH   2   3
HETATM    3  C   UNL     1      -6.977  12.826  68.845  1.00  0.00    -0.084 C  
BRANCH   3   4
HETATM    4  C   UNL     1      -8.117  13.037  67.896  1.00  0.00    -0.158 A  
HETATM    5  N   UNL     1      -8.757  14.192  67.873  1.00  0.00    -0.171 NA 
HETATM    6  C   UNL     1      -9.825  14.055  67.032  1.00  0.00    -0.260 A  
HETATM    7  C   UNL     1     -10.798  15.201  66.846  1.00  0.00    -0.317 C  
HETATM    8  C   UNL     1      -9.865  12.758  66.528  1.00  0.00    -0.258 A  
HETATM    9  N   UNL     1      -8.677  12.157  66.985  1.00  0.00    -0.185 NA 
HETATM   10  O   UNL     1     -12.103  14.743  67.260  1.00  0.00    -0.483 OA 
HETATM   11  C   UNL     1     -10.911  15.629  65.378  1.00  0.00    -0.394 C  
HETATM   12  C   UNL     1     -10.443  16.441  67.683  1.00  0.00    -0.302 C  
HETATM   13  C   UNL     1     -10.844  12.104  65.691  1.00  0.00    -0.284 C  
HETATM   14  O   UNL     1     -12.105  12.563  65.852  1.00  0.00    -0.537 OA 
HETATM   15  O   UNL     1     -10.609  11.171  64.927  1.00  0.00    -0.309 OA 
HETATM   16  H   UNL     1     -12.714  15.462  67.143  1.00  0.00     0.000 HD 
BRANCH   9  17
HETATM   17  C   UNL     1      -8.272  10.810  66.513  1.00  0.00    -0.148 C  
BRANCH  17  18
HETATM   18  C   UNL     1      -8.564   9.627  67.396  1.00  0.00    -0.125 A  
HETATM   19  C   UNL     1      -9.805   8.987  67.340  1.00  0.00    -0.244 A  
HETATM   20  C   UNL     1     -10.175   8.083  68.346  1.00  0.00    -0.239 A  
HETATM   21  C   UNL     1      -9.348   7.831  69.464  1.00  0.00    -0.149 A  
HETATM   22  C   UNL     1      -8.033   8.316  69.375  1.00  0.00    -0.113 A  
HETATM   23  C   UNL     1      -7.636   9.183  68.343  1.00  0.00    -0.083 A  
BRANCH  21  24
HETATM   24  C   UNL     1      -9.945   7.296  70.738  1.00  0.00    -0.187 A  
HETATM   25  C   UNL     1      -9.885   5.961  71.222  1.00  0.00    -0.215 A  
HETATM   26  C   UNL     1     -10.355   5.677  72.534  1.00  0.00    -0.240 A  
HETATM   27  C   UNL     1     -10.520   8.259  71.618  1.00  0.00    -0.303 A  
HETATM   28  C   UNL     1     -11.005   7.952  72.889  1.00  0.00    -0.452 A  
HETATM   29  C   UNL     1     -10.907   6.659  73.357  1.00  0.00    -0.264 A  
BRANCH  25  30
HETATM   30  C   UNL     1      -9.398   4.824  70.438  1.00  0.00    -0.151 A  
HETATM   31  N   UNL     1      -8.288   3.157  69.620  1.00  0.00    -0.054 NA 
HETATM   32  H   UNL     1      -7.671   4.154  71.416  1.00  0.00     0.000 HD 
HETATM   33  N   UNL     1      -9.296   3.335  68.781  1.00  0.00    -0.169 NA 
HETATM   34  N   UNL     1      -8.333   4.072  70.644  1.00  0.00    -0.069 NA 
HETATM   35  N   UNL     1      -9.984   4.366  69.284  1.00  0.00    -0.147 NA 
ENDBRANCH  25  30
ENDBRANCH  21  24
ENDBRANCH  17  18
ENDBRANCH   9  17
ENDBRANCH   3   4
ENDBRANCH   2   3
TORSDOF 6
ENDMDL
MODEL      155
REMARK 921   NORMALIZED FREE ENERGY PREDICTED BY IDOCK:   -5.60 KCAL/MOL
REMARK 922        TOTAL FREE ENERGY PREDICTED BY IDOCK:   -8.72 KCAL/MOL
REMARK 923 INTER-LIGAND FREE ENERGY PREDICTED BY IDOCK:   -8.00 KCAL/MOL
REMARK 924 INTRA-LIGAND FREE ENERGY PREDICTED BY IDOCK:   -0.72 KCAL/MOL
REMARK 927      BINDING AFFINITY PREDICTED BY RF-SCORE:    0.00 PKD
ROOT
HETATM    1  C   UNL     1      -8.451   3.888  66.533  1.00  0.00    -0.105 C  
HETATM    2  C   UNL     1      -7.642   5.172  66.671  1.00  0.00    -0.088 C  
ENDROOT
BRANCH   2   3
HETATM    3  C   UNL     1      -8.496   6.445  66.725  1.00  0.00    -0.112 C  
BRANCH   3   4
HETATM    4  C   UNL     1      -8.349   7.188  68.018  1.00  0.00    -0.119 A  
HETATM    5  N   UNL     1      -7.282   7.005  68.772  1.00  0.00    -0.088 NA 
HETATM    6  C   UNL     1      -7.480   7.685  69.940  1.00  0.00    -0.083 A  
HETATM    7  C   UNL     1      -6.449   7.613  71.048  1.00  0.00    -0.038 C  
HETATM    8  C   UNL     1      -8.729   8.300  69.921  1.00  0.00    -0.134 A  
HETATM    9  N   UNL     1      -9.216   8.086  68.617  1.00  0.00    -0.143 NA 
HETATM   10  O   UNL     1      -7.092   7.055  72.213  1.00  0.00    -0.071 OA 
HETATM   11  C   UNL     1      -5.923   9.000  71.437  1.00  0.00    -0.062 C  
HETATM   12  C   UNL     1      -5.245   6.723  70.699  1.00  0.00    -0.019 C  
HETATM   13  C   UNL     1      -9.428   9.042  70.945  1.00  0.00    -0.267 C  
HETATM   14  O   UNL     1      -9.138   8.651  72.206  1.00  0.00    -0.259 OA 
HETATM   15  O   UNL     1     -10.262   9.918  70.736  1.00  0.00    -0.240 OA 
HETATM   16  H   UNL     1      -6.445   7.010  72.908  1.00  0.00     0.000 HD 
BRANCH   9  17
HETATM   17  C   UNL     1     -10.463   8.741  68.151  1.00  0.00    -0.191 C  
BRANCH  17  18
HETATM   18  C   UNL     1     -10.360  10.102  67.518  1.00  0.00    -0.279 A  
HETATM   19  C   UNL     1      -9.531  10.312  66.413  1.00  0.00    -0.218 A  
HETATM   20  C   UNL     1      -9.218  11.617  66.008  1.00  0.00    -0.218 A  
HETATM   21  C   UNL     1      -9.674  12.749  66.720  1.00  0.00    -0.243 A  
HETATM   22  C   UNL     1     -10.671  12.509  67.679  1.00  0.00    -0.242 A  
HETATM   23  C   UNL     1     -11.030  11.205  68.058  1.00  0.00    -0.307 A  
BRANCH  21  24
HETATM   24  C   UNL     1      -8.942  14.059  66.604  1.00  0.00    -0.177 A  
HETATM   25  C   UNL     1      -9.425  15.267  66.031  1.00  0.00    -0.372 A  
HETATM   26  C   UNL     1      -8.656  16.456  66.168  1.00  0.00    -0.343 A  
HETATM   27  C   UNL     1      -7.675  14.134  67.254  1.00  0.00    -0.132 A  
HETATM   28  C   UNL     1      -6.922  15.304  67.348  1.00  0.00    -0.212 A  
HETATM   29  C   UNL     1      -7.422  16.475  66.818  1.00  0.00    -0.281 A  
BRANCH  25  30
HETATM   30  C   UNL     1     -10.666  15.373  65.261  1.00  0.00    -0.421 A  
HETATM   31  N   UNL     1     -12.540  15.025  64.237  1.00  0.00    -0.667 NA 
HETATM   32  H   UNL     1     -11.582  13.495  65.396  1.00  0.00     0.000 HD 
HETATM   33  N   UNL     1     -12.227  16.279  63.951  1.00  0.00    -0.748 NA 
HETATM   34  N   UNL     1     -11.584  14.450  65.040  1.00  0.00    -0.357 NA 
HETATM   35  N   UNL     1     -11.068  16.496  64.582  1.00  0.00    -0.765 NA 
ENDBRANCH  25  30
ENDBRANCH  21  24
ENDBRANCH  17  18
ENDBRANCH   9  17
ENDBRANCH   3   4
ENDBRANCH   2   3
TORSDOF 6
ENDMDL
MODEL      156
REMARK 921   NORMALIZED FREE ENERGY PREDICTED BY IDOCK:   -5.59 KCAL/MOL
REMARK 922        TOTAL FREE ENERGY PREDICTED BY IDOCK:   -8.70 KCAL/MOL
REMARK 923 INTER-LIGAND FREE ENERGY PREDICTED BY IDOCK:   -7.87 KCAL/MOL
REMARK 924 INTRA-LIGAND FREE ENERGY PREDICTED BY IDOCK:   -0.83 KCAL/MOL
REMARK 927      BINDING AFFINITY PREDICTED BY RF-SCORE:    0.00 PKD
ROOT
HETATM    1  C   UNL     1      -8.329   7.835  65.428  1.00  0.00    -0.141 C  
HETATM    2  C   UNL     1      -9.081   6.817  66.278  1.00  0.00    -0.165 C  
ENDROOT
BRANCH   2   3
HETATM    3  C   UNL     1     -10.063   7.442  67.277  1.00  0.00    -0.296 C  
BRANCH   3   4
HETATM    4  C   UNL     1      -9.472   7.613  68.643  1.00  0.00    -0.151 A  
HETATM    5  N   UNL     1      -8.191   7.373  68.847  1.00  0.00    -0.127 NA 
HETATM    6  C   UNL     1      -7.963   7.465  70.191  1.00  0.00    -0.112 A  
HETATM    7  C   UNL     1      -6.586   7.173  70.751  1.00  0.00    -0.048 C  
HETATM    8  C   UNL     1      -9.154   7.753  70.853  1.00  0.00    -0.148 A  
HETATM    9  N   UNL     1     -10.089   7.985  69.826  1.00  0.00    -0.192 NA 
HETATM   10  O   UNL     1      -6.709   6.069  71.673  1.00  0.00    -0.056 OA 
HETATM   11  C   UNL     1      -6.020   8.362  71.538  1.00  0.00    -0.041 C  
HETATM   12  C   UNL     1      -5.563   6.779  69.673  1.00  0.00    -0.015 C  
HETATM   13  C   UNL     1      -9.446   7.851  72.264  1.00  0.00    -0.189 C  
HETATM   14  O   UNL     1      -8.680   7.055  73.044  1.00  0.00    -0.120 OA 
HETATM   15  O   UNL     1     -10.339   8.537  72.754  1.00  0.00    -0.252 OA 
HETATM   16  H   UNL     1      -5.846   5.886  72.025  1.00  0.00     0.000 HD 
BRANCH   9  17
HETATM   17  C   UNL     1     -11.450   8.490  70.132  1.00  0.00     0.003 C  
BRANCH  17  18
HETATM   18  C   UNL     1     -11.771   9.922  69.801  1.00  0.00    -0.079 A  
HETATM   19  C   UNL     1     -11.624  10.401  68.497  1.00  0.00    -0.152 A  
HETATM   20  C   UNL     1     -11.646  11.781  68.249  1.00  0.00    -0.373 A  
HETATM   21  C   UNL     1     -11.758  12.725  69.294  1.00  0.00    -0.376 A  
HETATM   22  C   UNL     1     -12.121  12.210  70.549  1.00  0.00    -0.383 A  
HETATM   23  C   UNL     1     -12.152  10.828  70.796  1.00  0.00    -0.473 A  
BRANCH  21  24
HETATM   24  C   UNL     1     -11.274  14.136  69.091  1.00  0.00    -0.307 A  
HETATM   25  C   UNL     1     -11.451  15.241  69.967  1.00  0.00    -0.317 A  
HETATM   26  C   UNL     1     -10.771  16.460  69.693  1.00  0.00    -0.337 A  
HETATM   27  C   UNL     1     -10.435  14.358  67.960  1.00  0.00    -0.237 A  
HETATM   28  C   UNL     1      -9.804  15.573  67.693  1.00  0.00    -0.213 A  
HETATM   29  C   UNL     1      -9.958  16.624  68.573  1.00  0.00    -0.261 A  
BRANCH  25  30
HETATM   30  C   UNL     1     -12.331  15.228  71.138  1.00  0.00    -0.360 A  
HETATM   31  N   UNL     1     -13.209  15.028  73.105  1.00  0.00    -0.489 NA 
HETATM   32  H   UNL     1     -11.130  14.641  72.749  1.00  0.00     0.000 HD 
HETATM   33  N   UNL     1     -14.213  15.395  72.324  1.00  0.00    -0.561 NA 
HETATM   34  N   UNL     1     -12.043  14.915  72.387  1.00  0.00    -0.330 NA 
HETATM   35  N   UNL     1     -13.673  15.519  71.106  1.00  0.00    -0.568 NA 
ENDBRANCH  25  30
ENDBRANCH  21  24
ENDBRANCH  17  18
ENDBRANCH   9  17
ENDBRANCH   3   4
ENDBRANCH   2   3
TORSDOF 6
ENDMDL
MODEL      157
REMARK 921   NORMALIZED FREE ENERGY PREDICTED BY IDOCK:   -5.58 KCAL/MOL
REMARK 922        TOTAL FREE ENERGY PREDICTED BY IDOCK:   -8.70 KCAL/MOL
REMARK 923 INTER-LIGAND FREE ENERGY PREDICTED BY IDOCK:   -7.20 KCAL/MOL
REMARK 924 INTRA-LIGAND FREE ENERGY PREDICTED BY IDOCK:   -1.50 KCAL/MOL
REMARK 927      BINDING AFFINITY PREDICTED BY RF-SCORE:    0.00 PKD
ROOT
HETATM    1  C   UNL     1      -8.023   9.501  70.361  1.00  0.00    -0.200 C  
HETATM    2  C   UNL     1      -8.945  10.369  69.513  1.00  0.00    -0.127 C  
ENDROOT
BRANCH   2   3
HETATM    3  C   UNL     1      -8.323  10.831  68.188  1.00  0.00    -0.120 C  
BRANCH   3   4
HETATM    4  C   UNL     1      -9.270  11.635  67.351  1.00  0.00    -0.168 A  
HETATM    5  N   UNL     1      -9.515  12.897  67.651  1.00  0.00    -0.190 NA 
HETATM    6  C   UNL     1     -10.510  13.333  66.823  1.00  0.00    -0.270 A  
HETATM    7  C   UNL     1     -11.063  14.735  66.969  1.00  0.00    -0.333 C  
HETATM    8  C   UNL     1     -10.916  12.295  65.988  1.00  0.00    -0.292 A  
HETATM    9  N   UNL     1     -10.009  11.249  66.246  1.00  0.00    -0.214 NA 
HETATM   10  O   UNL     1     -12.471  14.627  67.266  1.00  0.00    -0.530 OA 
HETATM   11  C   UNL     1     -10.932  15.545  65.674  1.00  0.00    -0.307 C  
HETATM   12  C   UNL     1     -10.400  15.533  68.104  1.00  0.00    -0.237 C  
HETATM   13  C   UNL     1     -11.987  12.231  65.021  1.00  0.00    -0.354 C  
HETATM   14  O   UNL     1     -13.051  13.009  65.321  1.00  0.00    -0.689 OA 
HETATM   15  O   UNL     1     -12.001  11.505  64.030  1.00  0.00    -0.234 OA 
HETATM   16  H   UNL     1     -12.818  15.506  67.358  1.00  0.00     0.000 HD 
BRANCH   9  17
HETATM   17  C   UNL     1     -10.011  10.016  65.420  1.00  0.00    -0.294 C  
BRANCH  17  18
HETATM   18  C   UNL     1      -9.649   8.715  66.082  1.00  0.00    -0.305 A  
HETATM   19  C   UNL     1      -8.411   8.112  65.838  1.00  0.00    -0.153 A  
HETATM   20  C   UNL     1      -8.190   6.782  66.221  1.00  0.00    -0.120 A  
HETATM   21  C   UNL     1      -9.207   5.994  66.805  1.00  0.00    -0.143 A  
HETATM   22  C   UNL     1     -10.351   6.689  67.231  1.00  0.00    -0.296 A  
HETATM   23  C   UNL     1     -10.561   8.037  66.897  1.00  0.00    -0.324 A  
BRANCH  21  24
HETATM   24  C   UNL     1      -9.135   4.493  66.732  1.00  0.00    -0.126 A  
HETATM   25  C   UNL     1      -9.165   3.575  67.817  1.00  0.00    -0.229 A  
HETATM   26  C   UNL     1      -9.264   2.183  67.546  1.00  0.00    -0.173 A  
HETATM   27  C   UNL     1      -9.170   3.923  65.426  1.00  0.00    -0.151 A  
HETATM   28  C   UNL     1      -9.233   2.551  65.182  1.00  0.00    -0.120 A  
HETATM   29  C   UNL     1      -9.298   1.677  66.247  1.00  0.00     0.127 A  
BRANCH  25  30
HETATM   30  C   UNL     1      -9.063   3.965  69.225  1.00  0.00    -0.132 A  
HETATM   31  N   UNL     1      -9.411   4.663  71.243  1.00  0.00    -0.139 NA 
HETATM   32  H   UNL     1     -10.995   4.530  69.803  1.00  0.00     0.000 HD 
HETATM   33  N   UNL     1      -8.114   4.401  71.196  1.00  0.00    -0.080 NA 
HETATM   34  N   UNL     1     -10.009   4.405  70.033  1.00  0.00    -0.221 NA 
HETATM   35  N   UNL     1      -7.896   3.970  69.949  1.00  0.00    -0.052 NA 
ENDBRANCH  25  30
ENDBRANCH  21  24
ENDBRANCH  17  18
ENDBRANCH   9  17
ENDBRANCH   3   4
ENDBRANCH   2   3
TORSDOF 6
ENDMDL
MODEL      158
REMARK 921   NORMALIZED FREE ENERGY PREDICTED BY IDOCK:   -5.57 KCAL/MOL
REMARK 922        TOTAL FREE ENERGY PREDICTED BY IDOCK:   -8.67 KCAL/MOL
REMARK 923 INTER-LIGAND FREE ENERGY PREDICTED BY IDOCK:   -7.55 KCAL/MOL
REMARK 924 INTRA-LIGAND FREE ENERGY PREDICTED BY IDOCK:   -1.12 KCAL/MOL
REMARK 927      BINDING AFFINITY PREDICTED BY RF-SCORE:    0.00 PKD
ROOT
HETATM    1  C   UNL     1     -11.752  15.524  69.125  1.00  0.00    -0.380 C  
HETATM    2  C   UNL     1     -10.883  14.301  68.853  1.00  0.00    -0.272 C  
ENDROOT
BRANCH   2   3
HETATM    3  C   UNL     1     -11.679  13.016  68.591  1.00  0.00    -0.359 C  
BRANCH   3   4
HETATM    4  C   UNL     1     -10.861  11.777  68.789  1.00  0.00    -0.227 A  
HETATM    5  N   UNL     1     -11.174  10.918  69.741  1.00  0.00    -0.270 NA 
HETATM    6  C   UNL     1     -10.188   9.973  69.787  1.00  0.00    -0.250 A  
HETATM    7  C   UNL     1     -10.231   8.879  70.832  1.00  0.00    -0.240 C  
HETATM    8  C   UNL     1      -9.211  10.267  68.839  1.00  0.00    -0.175 A  
HETATM    9  N   UNL     1      -9.731  11.353  68.110  1.00  0.00    -0.186 NA 
HETATM   10  O   UNL     1      -9.037   8.989  71.637  1.00  0.00    -0.300 OA 
HETATM   11  C   UNL     1     -10.228   7.480  70.203  1.00  0.00    -0.206 C  
HETATM   12  C   UNL     1     -11.445   8.982  71.770  1.00  0.00    -0.442 C  
HETATM   13  C   UNL     1      -7.941   9.632  68.571  1.00  0.00    -0.089 C  
HETATM   14  O   UNL     1      -7.362   9.072  69.657  1.00  0.00    -0.060 OA 
HETATM   15  O   UNL     1      -7.371   9.626  67.483  1.00  0.00    -0.089 OA 
HETATM   16  H   UNL     1      -9.064   8.302  72.292  1.00  0.00     0.000 HD 
BRANCH   9  17
HETATM   17  C   UNL     1      -9.046  11.852  66.891  1.00  0.00    -0.196 C  
BRANCH  17  18
HETATM   18  C   UNL     1      -8.283  13.145  66.981  1.00  0.00    -0.062 A  
HETATM   19  C   UNL     1      -7.125  13.236  67.757  1.00  0.00    -0.149 A  
HETATM   20  C   UNL     1      -6.583  14.492  68.067  1.00  0.00    -0.156 A  
HETATM   21  C   UNL     1      -7.207  15.694  67.663  1.00  0.00    -0.197 A  
HETATM   22  C   UNL     1      -8.232  15.563  66.711  1.00  0.00    -0.277 A  
HETATM   23  C   UNL     1      -8.749  14.306  66.355  1.00  0.00     0.116 A  
BRANCH  21  24
HETATM   24  C   UNL     1      -6.932  16.973  68.406  1.00  0.00    -0.180 A  
HETATM   25  C   UNL     1      -7.703  18.167  68.379  1.00  0.00    -0.303 A  
HETATM   26  C   UNL     1      -7.387  19.218  69.284  1.00  0.00    -0.282 A  
HETATM   27  C   UNL     1      -5.855  16.942  69.339  1.00  0.00    -0.192 A  
HETATM   28  C   UNL     1      -5.543  17.997  70.196  1.00  0.00    -0.244 A  
HETATM   29  C   UNL     1      -6.323  19.134  70.180  1.00  0.00    -0.099 A  
BRANCH  25  30
HETATM   30  C   UNL     1      -8.800  18.416  67.440  1.00  0.00    -0.257 A  
HETATM   31  N   UNL     1     -10.033  18.901  65.730  1.00  0.00    -0.458 NA 
HETATM   32  H   UNL     1      -7.891  18.880  65.611  1.00  0.00     0.000 HD 
HETATM   33  N   UNL     1     -10.892  18.672  66.711  1.00  0.00    -0.253 NA 
HETATM   34  N   UNL     1      -8.738  18.753  66.166  1.00  0.00    -0.476 NA 
HETATM   35  N   UNL     1     -10.132  18.372  67.770  1.00  0.00    -0.338 NA 
ENDBRANCH  25  30
ENDBRANCH  21  24
ENDBRANCH  17  18
ENDBRANCH   9  17
ENDBRANCH   3   4
ENDBRANCH   2   3
TORSDOF 6
ENDMDL
MODEL      159
REMARK 921   NORMALIZED FREE ENERGY PREDICTED BY IDOCK:   -5.56 KCAL/MOL
REMARK 922        TOTAL FREE ENERGY PREDICTED BY IDOCK:   -8.67 KCAL/MOL
REMARK 923 INTER-LIGAND FREE ENERGY PREDICTED BY IDOCK:   -7.54 KCAL/MOL
REMARK 924 INTRA-LIGAND FREE ENERGY PREDICTED BY IDOCK:   -1.13 KCAL/MOL
REMARK 927      BINDING AFFINITY PREDICTED BY RF-SCORE:    0.00 PKD
ROOT
HETATM    1  C   UNL     1      -6.476  10.254  68.295  1.00  0.00    -0.056 C  
HETATM    2  C   UNL     1      -6.995  11.432  69.112  1.00  0.00    -0.118 C  
ENDROOT
BRANCH   2   3
HETATM    3  C   UNL     1      -8.525  11.542  69.146  1.00  0.00     0.214 C  
BRANCH   3   4
HETATM    4  C   UNL     1      -9.202  10.206  69.183  1.00  0.00    -0.197 A  
HETATM    5  N   UNL     1      -9.252   9.517  70.308  1.00  0.00    -0.246 NA 
HETATM    6  C   UNL     1      -9.788   8.293  70.020  1.00  0.00    -0.182 A  
HETATM    7  C   UNL     1      -9.915   7.243  71.104  1.00  0.00    -0.186 C  
HETATM    8  C   UNL     1     -10.064   8.210  68.657  1.00  0.00    -0.196 A  
HETATM    9  N   UNL     1      -9.811   9.502  68.158  1.00  0.00    -0.151 NA 
HETATM   10  O   UNL     1      -9.143   6.094  70.697  1.00  0.00    -0.148 OA 
HETATM   11  C   UNL     1     -11.364   6.777  71.288  1.00  0.00    -0.333 C  
HETATM   12  C   UNL     1      -9.384   7.713  72.468  1.00  0.00    -0.215 C  
HETATM   13  C   UNL     1     -10.540   7.103  67.861  1.00  0.00    -0.208 C  
HETATM   14  O   UNL     1     -10.161   5.888  68.319  1.00  0.00    -0.153 OA 
HETATM   15  O   UNL     1     -11.186   7.207  66.821  1.00  0.00    -0.158 OA 
HETATM   16  H   UNL     1      -9.222   5.435  71.377  1.00  0.00     0.000 HD 
BRANCH   9  17
HETATM   17  C   UNL     1     -10.153   9.860  66.759  1.00  0.00    -0.230 C  
BRANCH  17  18
HETATM   18  C   UNL     1     -10.578  11.274  66.469  1.00  0.00    -0.315 A  
HETATM   19  C   UNL     1      -9.813  12.089  65.631  1.00  0.00    -0.265 A  
HETATM   20  C   UNL     1     -10.048  13.471  65.589  1.00  0.00    -0.292 A  
HETATM   21  C   UNL     1     -11.010  14.089  66.419  1.00  0.00    -0.308 A  
HETATM   22  C   UNL     1     -11.899  13.224  67.077  1.00  0.00    -0.442 A  
HETATM   23  C   UNL     1     -11.703  11.833  67.084  1.00  0.00    -0.267 A  
BRANCH  21  24
HETATM   24  C   UNL     1     -10.898  15.556  66.740  1.00  0.00    -0.291 A  
HETATM   25  C   UNL     1     -11.107  16.179  68.000  1.00  0.00    -0.317 A  
HETATM   26  C   UNL     1     -10.784  17.556  68.156  1.00  0.00    -0.330 A  
HETATM   27  C   UNL     1     -10.403  16.393  65.699  1.00  0.00    -0.371 A  
HETATM   28  C   UNL     1     -10.123  17.750  65.865  1.00  0.00    -0.183 A  
HETATM   29  C   UNL     1     -10.298  18.330  67.103  1.00  0.00    -0.402 A  
BRANCH  25  30
HETATM   30  C   UNL     1     -11.679  15.503  69.167  1.00  0.00    -0.365 A  
HETATM   31  N   UNL     1     -12.906  14.846  70.823  1.00  0.00    -0.361 NA 
HETATM   32  H   UNL     1     -13.559  16.374  69.467  1.00  0.00     0.000 HD 
HETATM   33  N   UNL     1     -11.802  14.122  70.915  1.00  0.00    -0.276 NA 
HETATM   34  N   UNL     1     -12.844  15.706  69.753  1.00  0.00     0.013 NA 
HETATM   35  N   UNL     1     -11.040  14.528  69.892  1.00  0.00    -0.207 NA 
ENDBRANCH  25  30
ENDBRANCH  21  24
ENDBRANCH  17  18
ENDBRANCH   9  17
ENDBRANCH   3   4
ENDBRANCH   2   3
TORSDOF 6
ENDMDL
MODEL      160
REMARK 921   NORMALIZED FREE ENERGY PREDICTED BY IDOCK:   -5.55 KCAL/MOL
REMARK 922        TOTAL FREE ENERGY PREDICTED BY IDOCK:   -8.65 KCAL/MOL
REMARK 923 INTER-LIGAND FREE ENERGY PREDICTED BY IDOCK:   -7.57 KCAL/MOL
REMARK 924 INTRA-LIGAND FREE ENERGY PREDICTED BY IDOCK:   -1.08 KCAL/MOL
REMARK 927      BINDING AFFINITY PREDICTED BY RF-SCORE:    0.00 PKD
ROOT
HETATM    1  C   UNL     1     -12.371  14.527  70.313  1.00  0.00    -0.408 C  
HETATM    2  C   UNL     1     -11.699  14.799  68.973  1.00  0.00    -0.343 C  
ENDROOT
BRANCH   2   3
HETATM    3  C   UNL     1     -10.192  14.510  68.959  1.00  0.00    -0.210 C  
BRANCH   3   4
HETATM    4  C   UNL     1      -9.393  15.622  68.351  1.00  0.00    -0.195 A  
HETATM    5  N   UNL     1      -9.899  16.838  68.274  1.00  0.00    -0.248 NA 
HETATM    6  C   UNL     1      -9.025  17.603  67.553  1.00  0.00    -0.235 A  
HETATM    7  C   UNL     1      -9.361  19.045  67.234  1.00  0.00    -0.304 C  
HETATM    8  C   UNL     1      -7.942  16.827  67.148  1.00  0.00    -0.181 A  
HETATM    9  N   UNL     1      -8.127  15.588  67.791  1.00  0.00    -0.135 NA 
HETATM   10  O   UNL     1      -9.396  19.183  65.798  1.00  0.00    -0.387 OA 
HETATM   11  C   UNL     1      -8.296  20.015  67.758  1.00  0.00    -0.329 C  
HETATM   12  C   UNL     1     -10.727  19.487  67.786  1.00  0.00    -0.487 C  
HETATM   13  C   UNL     1      -6.822  17.149  66.296  1.00  0.00    -0.202 C  
HETATM   14  O   UNL     1      -7.096  18.070  65.345  1.00  0.00    -0.496 OA 
HETATM   15  O   UNL     1      -5.715  16.619  66.355  1.00  0.00    -0.302 OA 
HETATM   16  H   UNL     1      -9.607  20.087  65.597  1.00  0.00     0.000 HD 
BRANCH   9  17
HETATM   17  C   UNL     1      -7.080  14.538  67.740  1.00  0.00    -0.175 C  
BRANCH  17  18
HETATM   18  C   UNL     1      -7.498  13.105  67.920  1.00  0.00    -0.136 A  
HETATM   19  C   UNL     1      -8.451  12.529  67.076  1.00  0.00    -0.161 A  
HETATM   20  C   UNL     1      -9.042  11.304  67.415  1.00  0.00    -0.151 A  
HETATM   21  C   UNL     1      -8.747  10.644  68.628  1.00  0.00    -0.148 A  
HETATM   22  C   UNL     1      -7.637  11.132  69.338  1.00  0.00    -0.013 A  
HETATM   23  C   UNL     1      -7.004  12.333  68.977  1.00  0.00    -0.078 A  
BRANCH  21  24
HETATM   24  C   UNL     1      -9.722   9.653  69.206  1.00  0.00    -0.191 A  
HETATM   25  C   UNL     1      -9.800   8.261  68.931  1.00  0.00    -0.183 A  
HETATM   26  C   UNL     1     -10.675   7.449  69.704  1.00  0.00    -0.245 A  
HETATM   27  C   UNL     1     -10.577  10.139  70.238  1.00  0.00    -0.324 A  
HETATM   28  C   UNL     1     -11.452   9.329  70.962  1.00  0.00    -0.387 A  
HETATM   29  C   UNL     1     -11.489   7.975  70.706  1.00  0.00    -0.273 A  
BRANCH  25  30
HETATM   30  C   UNL     1      -9.057   7.592  67.860  1.00  0.00    -0.134 A  
HETATM   31  N   UNL     1      -8.353   6.769  65.987  1.00  0.00    -0.128 NA 
HETATM   32  H   UNL     1     -10.117   7.985  66.098  1.00  0.00     0.000 HD 
HETATM   33  N   UNL     1      -7.488   6.338  66.891  1.00  0.00    -0.086 NA 
HETATM   34  N   UNL     1      -9.331   7.540  66.570  1.00  0.00    -0.179 NA 
HETATM   35  N   UNL     1      -7.921   6.845  68.051  1.00  0.00    -0.113 NA 
ENDBRANCH  25  30
ENDBRANCH  21  24
ENDBRANCH  17  18
ENDBRANCH   9  17
ENDBRANCH   3   4
ENDBRANCH   2   3
TORSDOF 6
ENDMDL
MODEL      161
REMARK 921   NORMALIZED FREE ENERGY PREDICTED BY IDOCK:   -5.51 KCAL/MOL
REMARK 922        TOTAL FREE ENERGY PREDICTED BY IDOCK:   -8.60 KCAL/MOL
REMARK 923 INTER-LIGAND FREE ENERGY PREDICTED BY IDOCK:   -7.58 KCAL/MOL
REMARK 924 INTRA-LIGAND FREE ENERGY PREDICTED BY IDOCK:   -1.02 KCAL/MOL
REMARK 927      BINDING AFFINITY PREDICTED BY RF-SCORE:    0.00 PKD
ROOT
HETATM    1  C   UNL     1      -7.395   7.299  72.240  1.00  0.00    -0.072 C  
HETATM    2  C   UNL     1      -7.089   7.726  70.809  1.00  0.00    -0.053 C  
ENDROOT
BRANCH   2   3
HETATM    3  C   UNL     1      -8.283   8.355  70.077  1.00  0.00    -0.121 C  
BRANCH   3   4
HETATM    4  C   UNL     1      -8.534   7.734  68.737  1.00  0.00    -0.129 A  
HETATM    5  N   UNL     1      -8.918   6.475  68.649  1.00  0.00    -0.127 NA 
HETATM    6  C   UNL     1      -8.929   6.137  67.325  1.00  0.00    -0.112 A  
HETATM    7  C   UNL     1      -9.268   4.723  66.903  1.00  0.00    -0.126 C  
HETATM    8  C   UNL     1      -8.515   7.224  66.559  1.00  0.00    -0.125 A  
HETATM    9  N   UNL     1      -8.400   8.287  67.475  1.00  0.00    -0.128 NA 
HETATM   10  O   UNL     1      -8.130   4.190  66.192  1.00  0.00    -0.098 OA 
HETATM   11  C   UNL     1     -10.465   4.678  65.946  1.00  0.00    -0.305 C  
HETATM   12  C   UNL     1      -9.564   3.790  68.089  1.00  0.00    -0.176 C  
HETATM   13  C   UNL     1      -8.271   7.335  65.140  1.00  0.00    -0.110 C  
HETATM   14  O   UNL     1      -7.849   6.189  64.560  1.00  0.00    -0.102 OA 
HETATM   15  O   UNL     1      -8.367   8.370  64.486  1.00  0.00    -0.166 OA 
HETATM   16  H   UNL     1      -8.343   3.303  65.927  1.00  0.00     0.000 HD 
BRANCH   9  17
HETATM   17  C   UNL     1      -8.139   9.672  67.008  1.00  0.00    -0.113 C  
BRANCH  17  18
HETATM   18  C   UNL     1      -9.117  10.749  67.388  1.00  0.00    -0.148 A  
HETATM   19  C   UNL     1      -8.668  11.975  67.886  1.00  0.00    -0.170 A  
HETATM   20  C   UNL     1      -9.568  12.857  68.500  1.00  0.00    -0.113 A  
HETATM   21  C   UNL     1     -10.929  12.524  68.687  1.00  0.00    -0.291 A  
HETATM   22  C   UNL     1     -11.385  11.395  67.987  1.00  0.00    -0.372 A  
HETATM   23  C   UNL     1     -10.497  10.531  67.325  1.00  0.00    -0.300 A  
BRANCH  21  24
HETATM   24  C   UNL     1     -11.733  13.208  69.760  1.00  0.00    -0.350 A  
HETATM   25  C   UNL     1     -12.061  14.588  69.841  1.00  0.00    -0.389 A  
HETATM   26  C   UNL     1     -12.979  15.026  70.835  1.00  0.00    -0.463 A  
HETATM   27  C   UNL     1     -12.340  12.359  70.730  1.00  0.00    -0.377 A  
HETATM   28  C   UNL     1     -13.213  12.815  71.718  1.00  0.00    -0.471 A  
HETATM   29  C   UNL     1     -13.549  14.152  71.760  1.00  0.00    -0.483 A  
BRANCH  25  30
HETATM   30  C   UNL     1     -11.480  15.623  68.981  1.00  0.00    -0.363 A  
HETATM   31  N   UNL     1     -10.675  16.787  67.346  1.00  0.00    -0.288 NA 
HETATM   32  H   UNL     1     -11.488  14.826  67.045  1.00  0.00     0.000 HD 
HETATM   33  N   UNL     1     -10.516  17.553  68.415  1.00  0.00    -0.375 NA 
HETATM   34  N   UNL     1     -11.263  15.591  67.680  1.00  0.00    -0.316 NA 
HETATM   35  N   UNL     1     -11.012  16.834  69.428  1.00  0.00    -0.252 NA 
ENDBRANCH  25  30
ENDBRANCH  21  24
ENDBRANCH  17  18
ENDBRANCH   9  17
ENDBRANCH   3   4
ENDBRANCH   2   3
TORSDOF 6
ENDMDL
MODEL      162
REMARK 921   NORMALIZED FREE ENERGY PREDICTED BY IDOCK:   -5.51 KCAL/MOL
REMARK 922        TOTAL FREE ENERGY PREDICTED BY IDOCK:   -8.60 KCAL/MOL
REMARK 923 INTER-LIGAND FREE ENERGY PREDICTED BY IDOCK:   -7.76 KCAL/MOL
REMARK 924 INTRA-LIGAND FREE ENERGY PREDICTED BY IDOCK:   -0.84 KCAL/MOL
REMARK 927      BINDING AFFINITY PREDICTED BY RF-SCORE:    0.00 PKD
ROOT
HETATM    1  C   UNL     1      -5.173  10.308  67.189  1.00  0.00    -0.041 C  
HETATM    2  C   UNL     1      -6.052   9.619  68.225  1.00  0.00    -0.051 C  
ENDROOT
BRANCH   2   3
HETATM    3  C   UNL     1      -7.098   8.670  67.625  1.00  0.00    -0.080 C  
BRANCH   3   4
HETATM    4  C   UNL     1      -7.997   8.067  68.660  1.00  0.00    -0.123 A  
HETATM    5  N   UNL     1      -7.928   6.777  68.930  1.00  0.00    -0.114 NA 
HETATM    6  C   UNL     1      -8.946   6.481  69.792  1.00  0.00    -0.142 A  
HETATM    7  C   UNL     1      -9.173   5.052  70.240  1.00  0.00    -0.139 C  
HETATM    8  C   UNL     1      -9.691   7.628  70.053  1.00  0.00    -0.172 A  
HETATM    9  N   UNL     1      -8.981   8.669  69.427  1.00  0.00    -0.144 NA 
HETATM   10  O   UNL     1     -10.501   4.665  69.826  1.00  0.00    -0.079 OA 
HETATM   11  C   UNL     1      -9.112   4.909  71.765  1.00  0.00    -0.166 C  
HETATM   12  C   UNL     1      -8.175   4.057  69.623  1.00  0.00    -0.069 C  
HETATM   13  C   UNL     1     -10.906   7.807  70.814  1.00  0.00    -0.239 C  
HETATM   14  O   UNL     1     -11.724   6.730  70.812  1.00  0.00    -0.345 OA 
HETATM   15  O   UNL     1     -11.238   8.845  71.380  1.00  0.00    -0.264 OA 
HETATM   16  H   UNL     1     -10.643   3.768  70.106  1.00  0.00     0.000 HD 
BRANCH   9  17
HETATM   17  C   UNL     1      -9.374  10.087  69.622  1.00  0.00    -0.220 C  
BRANCH  17  18
HETATM   18  C   UNL     1      -9.290  11.019  68.444  1.00  0.00    -0.179 A  
HETATM   19  C   UNL     1      -8.458  12.141  68.482  1.00  0.00    -0.083 A  
HETATM   20  C   UNL     1      -8.593  13.148  67.516  1.00  0.00    -0.196 A  
HETATM   21  C   UNL     1      -9.593  13.098  66.520  1.00  0.00    -0.268 A  
HETATM   22  C   UNL     1     -10.257  11.868  66.379  1.00  0.00    -0.240 A  
HETATM   23  C   UNL     1     -10.091  10.832  67.313  1.00  0.00    -0.233 A  
BRANCH  21  24
HETATM   24  C   UNL     1     -10.054  14.364  65.848  1.00  0.00    -0.344 A  
HETATM   25  C   UNL     1     -11.134  14.510  64.935  1.00  0.00    -0.401 A  
HETATM   26  C   UNL     1     -11.534  15.815  64.537  1.00  0.00    -0.292 A  
HETATM   27  C   UNL     1      -9.422  15.569  66.273  1.00  0.00    -0.356 A  
HETATM   28  C   UNL     1      -9.811  16.838  65.844  1.00  0.00    -0.276 A  
HETATM   29  C   UNL     1     -10.883  16.963  64.986  1.00  0.00    -0.077 A  
BRANCH  25  30
HETATM   30  C   UNL     1     -11.856  13.388  64.331  1.00  0.00    -0.408 A  
HETATM   31  N   UNL     1     -12.526  11.734  63.108  1.00  0.00    -0.368 NA 
HETATM   32  H   UNL     1     -10.631  12.687  62.785  1.00  0.00     0.000 HD 
HETATM   33  N   UNL     1     -13.511  11.937  63.968  1.00  0.00    -0.421 NA 
HETATM   34  N   UNL     1     -11.500  12.625  63.315  1.00  0.00    -0.430 NA 
HETATM   35  N   UNL     1     -13.100  12.960  64.725  1.00  0.00    -0.796 NA 
ENDBRANCH  25  30
ENDBRANCH  21  24
ENDBRANCH  17  18
ENDBRANCH   9  17
ENDBRANCH   3   4
ENDBRANCH   2   3
TORSDOF 6
ENDMDL
MODEL      163
REMARK 921   NORMALIZED FREE ENERGY PREDICTED BY IDOCK:   -5.51 KCAL/MOL
REMARK 922        TOTAL FREE ENERGY PREDICTED BY IDOCK:   -8.59 KCAL/MOL
REMARK 923 INTER-LIGAND FREE ENERGY PREDICTED BY IDOCK:   -7.09 KCAL/MOL
REMARK 924 INTRA-LIGAND FREE ENERGY PREDICTED BY IDOCK:   -1.50 KCAL/MOL
REMARK 927      BINDING AFFINITY PREDICTED BY RF-SCORE:    0.00 PKD
ROOT
HETATM    1  C   UNL     1     -12.513   7.507  71.408  1.00  0.00    -0.382 C  
HETATM    2  C   UNL     1     -11.649   8.202  72.454  1.00  0.00    -0.463 C  
ENDROOT
BRANCH   2   3
HETATM    3  C   UNL     1     -10.397   8.878  71.880  1.00  0.00    -0.407 C  
BRANCH   3   4
HETATM    4  C   UNL     1      -9.402   7.896  71.342  1.00  0.00    -0.143 A  
HETATM    5  N   UNL     1      -8.834   7.017  72.146  1.00  0.00    -0.130 NA 
HETATM    6  C   UNL     1      -7.877   6.358  71.427  1.00  0.00    -0.104 A  
HETATM    7  C   UNL     1      -7.000   5.322  72.099  1.00  0.00    -0.082 C  
HETATM    8  C   UNL     1      -7.832   6.861  70.130  1.00  0.00    -0.106 A  
HETATM    9  N   UNL     1      -8.918   7.754  70.052  1.00  0.00    -0.142 NA 
HETATM   10  O   UNL     1      -5.629   5.759  71.979  1.00  0.00    -0.020 OA 
HETATM   11  C   UNL     1      -7.101   3.951  71.418  1.00  0.00    -0.032 C  
HETATM   12  C   UNL     1      -7.310   5.140  73.594  1.00  0.00    -0.087 C  
HETATM   13  C   UNL     1      -6.936   6.564  69.037  1.00  0.00    -0.075 C  
HETATM   14  O   UNL     1      -5.691   6.206  69.423  1.00  0.00    -0.015 OA 
HETATM   15  O   UNL     1      -7.216   6.669  67.845  1.00  0.00    -0.085 OA 
HETATM   16  H   UNL     1      -5.079   5.110  72.400  1.00  0.00     0.000 HD 
BRANCH   9  17
HETATM   17  C   UNL     1      -9.307   8.373  68.761  1.00  0.00    -0.143 C  
BRANCH  17  18
HETATM   18  C   UNL     1     -10.026   9.694  68.791  1.00  0.00    -0.184 A  
HETATM   19  C   UNL     1      -9.344  10.869  69.120  1.00  0.00    -0.096 A  
HETATM   20  C   UNL     1     -10.060  12.035  69.424  1.00  0.00     0.503 A  
HETATM   21  C   UNL     1     -11.472  12.054  69.464  1.00  0.00    -0.351 A  
HETATM   22  C   UNL     1     -12.116  10.931  68.920  1.00  0.00    -0.186 A  
HETATM   23  C   UNL     1     -11.404   9.775  68.564  1.00  0.00     0.025 A  
BRANCH  21  24
HETATM   24  C   UNL     1     -12.190  13.108  70.265  1.00  0.00    -0.376 A  
HETATM   25  C   UNL     1     -12.376  14.474  69.919  1.00  0.00    -0.347 A  
HETATM   26  C   UNL     1     -13.233  15.281  70.716  1.00  0.00    -0.442 A  
HETATM   27  C   UNL     1     -12.868  12.658  71.435  1.00  0.00    -0.358 A  
HETATM   28  C   UNL     1     -13.678  13.476  72.222  1.00  0.00    -0.700 A  
HETATM   29  C   UNL     1     -13.876  14.790  71.851  1.00  0.00    -0.541 A  
BRANCH  25  30
HETATM   30  C   UNL     1     -11.705  15.136  68.797  1.00  0.00    -0.342 A  
HETATM   31  N   UNL     1     -10.601  16.469  67.500  1.00  0.00    -0.321 NA 
HETATM   32  H   UNL     1     -10.769  16.824  69.609  1.00  0.00     0.000 HD 
HETATM   33  N   UNL     1     -11.069  15.528  66.695  1.00  0.00    -0.251 NA 
HETATM   34  N   UNL     1     -10.990  16.245  68.799  1.00  0.00    -0.323 NA 
HETATM   35  N   UNL     1     -11.753  14.702  67.495  1.00  0.00    -0.379 NA 
ENDBRANCH  25  30
ENDBRANCH  21  24
ENDBRANCH  17  18
ENDBRANCH   9  17
ENDBRANCH   3   4
ENDBRANCH   2   3
TORSDOF 6
ENDMDL
MODEL      164
REMARK 921   NORMALIZED FREE ENERGY PREDICTED BY IDOCK:   -5.50 KCAL/MOL
REMARK 922        TOTAL FREE ENERGY PREDICTED BY IDOCK:   -8.58 KCAL/MOL
REMARK 923 INTER-LIGAND FREE ENERGY PREDICTED BY IDOCK:   -7.27 KCAL/MOL
REMARK 924 INTRA-LIGAND FREE ENERGY PREDICTED BY IDOCK:   -1.31 KCAL/MOL
REMARK 927      BINDING AFFINITY PREDICTED BY RF-SCORE:    0.00 PKD
ROOT
HETATM    1  C   UNL     1      -6.640   7.372  69.941  1.00  0.00    -0.043 C  
HETATM    2  C   UNL     1      -6.836   6.781  68.550  1.00  0.00    -0.074 C  
ENDROOT
BRANCH   2   3
HETATM    3  C   UNL     1      -8.285   6.385  68.239  1.00  0.00    -0.116 C  
BRANCH   3   4
HETATM    4  C   UNL     1      -8.453   5.839  66.854  1.00  0.00    -0.108 A  
HETATM    5  N   UNL     1      -8.731   4.562  66.671  1.00  0.00    -0.111 NA 
HETATM    6  C   UNL     1      -8.682   4.317  65.328  1.00  0.00    -0.124 A  
HETATM    7  C   UNL     1      -8.894   2.912  64.802  1.00  0.00    -0.115 C  
HETATM    8  C   UNL     1      -8.341   5.483  64.648  1.00  0.00    -0.131 A  
HETATM    9  N   UNL     1      -8.335   6.487  65.635  1.00  0.00    -0.140 NA 
HETATM   10  O   UNL     1      -7.701   2.522  64.091  1.00  0.00    -0.072 OA 
HETATM   11  C   UNL     1     -10.061   2.838  63.810  1.00  0.00    -0.165 C  
HETATM   12  C   UNL     1      -9.142   1.879  65.914  1.00  0.00    -0.050 C  
HETATM   13  C   UNL     1      -8.072   5.710  63.247  1.00  0.00    -0.100 C  
HETATM   14  O   UNL     1      -7.544   4.644  62.605  1.00  0.00    -0.056 OA 
HETATM   15  O   UNL     1      -8.237   6.777  62.660  1.00  0.00    -0.086 OA 
HETATM   16  H   UNL     1      -7.834   1.641  63.761  1.00  0.00     0.000 HD 
BRANCH   9  17
HETATM   17  C   UNL     1      -8.176   7.917  65.269  1.00  0.00    -0.145 C  
BRANCH  17  18
HETATM   18  C   UNL     1      -8.763   8.956  66.184  1.00  0.00    -0.177 A  
HETATM   19  C   UNL     1     -10.143   9.020  66.396  1.00  0.00    -0.351 A  
HETATM   20  C   UNL     1     -10.709  10.146  67.010  1.00  0.00    -0.264 A  
HETATM   21  C   UNL     1      -9.929  11.265  67.379  1.00  0.00    -0.206 A  
HETATM   22  C   UNL     1      -8.537  11.077  67.354  1.00  0.00    -0.132 A  
HETATM   23  C   UNL     1      -7.960   9.929  66.787  1.00  0.00    -0.116 A  
BRANCH  21  24
HETATM   24  C   UNL     1     -10.575  12.615  67.542  1.00  0.00    -0.236 A  
HETATM   25  C   UNL     1     -11.446  13.268  66.629  1.00  0.00    -0.384 A  
HETATM   26  C   UNL     1     -12.102  14.464  67.030  1.00  0.00    -0.374 A  
HETATM   27  C   UNL     1     -10.397  13.250  68.806  1.00  0.00    -0.154 A  
HETATM   28  C   UNL     1     -11.025  14.442  69.166  1.00  0.00    -0.288 A  
HETATM   29  C   UNL     1     -11.895  15.044  68.281  1.00  0.00    -0.295 A  
BRANCH  25  30
HETATM   30  C   UNL     1     -11.696  12.808  65.260  1.00  0.00    -0.368 A  
HETATM   31  N   UNL     1     -11.563  12.239  63.178  1.00  0.00    -0.300 NA 
HETATM   32  H   UNL     1      -9.837  12.846  64.298  1.00  0.00     0.000 HD 
HETATM   33  N   UNL     1     -12.847  12.120  63.478  1.00  0.00    -0.796 NA 
HETATM   34  N   UNL     1     -10.841  12.668  64.266  1.00  0.00    -0.351 NA 
HETATM   35  N   UNL     1     -12.932  12.473  64.765  1.00  0.00    -0.842 NA 
ENDBRANCH  25  30
ENDBRANCH  21  24
ENDBRANCH  17  18
ENDBRANCH   9  17
ENDBRANCH   3   4
ENDBRANCH   2   3
TORSDOF 6
ENDMDL
MODEL      165
REMARK 921   NORMALIZED FREE ENERGY PREDICTED BY IDOCK:   -5.49 KCAL/MOL
REMARK 922        TOTAL FREE ENERGY PREDICTED BY IDOCK:   -8.57 KCAL/MOL
REMARK 923 INTER-LIGAND FREE ENERGY PREDICTED BY IDOCK:   -6.78 KCAL/MOL
REMARK 924 INTRA-LIGAND FREE ENERGY PREDICTED BY IDOCK:   -1.79 KCAL/MOL
REMARK 927      BINDING AFFINITY PREDICTED BY RF-SCORE:    0.00 PKD
ROOT
HETATM    1  C   UNL     1      -5.907  11.671  68.408  1.00  0.00    -0.045 C  
HETATM    2  C   UNL     1      -6.233  10.952  69.711  1.00  0.00    -0.103 C  
ENDROOT
BRANCH   2   3
HETATM    3  C   UNL     1      -7.685  10.465  69.809  1.00  0.00    -0.126 C  
BRANCH   3   4
HETATM    4  C   UNL     1      -7.789   8.978  69.956  1.00  0.00    -0.088 A  
HETATM    5  N   UNL     1      -8.158   8.448  71.107  1.00  0.00    -0.113 NA 
HETATM    6  C   UNL     1      -8.025   7.092  71.000  1.00  0.00    -0.103 A  
HETATM    7  C   UNL     1      -8.312   6.202  72.191  1.00  0.00    -0.110 C  
HETATM    8  C   UNL     1      -7.535   6.766  69.738  1.00  0.00    -0.091 A  
HETATM    9  N   UNL     1      -7.523   7.983  69.030  1.00  0.00    -0.091 NA 
HETATM   10  O   UNL     1      -7.104   5.477  72.502  1.00  0.00    -0.080 OA 
HETATM   11  C   UNL     1      -9.400   5.165  71.887  1.00  0.00    -0.171 C  
HETATM   12  C   UNL     1      -8.731   6.985  73.446  1.00  0.00    -0.159 C  
HETATM   13  C   UNL     1      -7.140   5.492  69.183  1.00  0.00    -0.064 C  
HETATM   14  O   UNL     1      -6.655   4.618  70.094  1.00  0.00    -0.033 OA 
HETATM   15  O   UNL     1      -7.170   5.201  67.990  1.00  0.00    -0.065 OA 
HETATM   16  H   UNL     1      -7.283   4.919  73.249  1.00  0.00     0.000 HD 
BRANCH   9  17
HETATM   17  C   UNL     1      -7.217   8.019  67.578  1.00  0.00    -0.088 C  
BRANCH  17  18
HETATM   18  C   UNL     1      -8.194   8.701  66.661  1.00  0.00    -0.107 A  
HETATM   19  C   UNL     1      -7.769   9.708  65.789  1.00  0.00    -0.106 A  
HETATM   20  C   UNL     1      -8.710  10.528  65.151  1.00  0.00    -0.197 A  
HETATM   21  C   UNL     1     -10.095  10.410  65.403  1.00  0.00    -0.354 A  
HETATM   22  C   UNL     1     -10.495   9.260  66.103  1.00  0.00     0.042 A  
HETATM   23  C   UNL     1      -9.560   8.402  66.705  1.00  0.00    -0.294 A  
BRANCH  21  24
HETATM   24  C   UNL     1     -11.012  11.575  65.140  1.00  0.00    -0.298 A  
HETATM   25  C   UNL     1     -11.580  12.457  66.098  1.00  0.00    -0.452 A  
HETATM   26  C   UNL     1     -12.282  13.610  65.650  1.00  0.00    -0.490 A  
HETATM   27  C   UNL     1     -11.230  11.909  63.771  1.00  0.00    -0.519 A  
HETATM   28  C   UNL     1     -11.950  13.028  63.354  1.00  0.00    -0.592 A  
HETATM   29  C   UNL     1     -12.464  13.892  64.297  1.00  0.00    -0.305 A  
BRANCH  25  30
HETATM   30  C   UNL     1     -11.527  12.241  67.546  1.00  0.00    -0.347 A  
HETATM   31  N   UNL     1     -11.111  12.316  69.668  1.00  0.00    -0.041 NA 
HETATM   32  H   UNL     1     -10.287  13.750  68.302  1.00  0.00     0.000 HD 
HETATM   33  N   UNL     1     -11.900  11.264  69.516  1.00  0.00    -0.326 NA 
HETATM   34  N   UNL     1     -10.867  12.926  68.461  1.00  0.00    -0.250 NA 
HETATM   35  N   UNL     1     -12.157  11.214  68.204  1.00  0.00    -0.610 NA 
ENDBRANCH  25  30
ENDBRANCH  21  24
ENDBRANCH  17  18
ENDBRANCH   9  17
ENDBRANCH   3   4
ENDBRANCH   2   3
TORSDOF 6
ENDMDL
MODEL      166
REMARK 921   NORMALIZED FREE ENERGY PREDICTED BY IDOCK:   -5.48 KCAL/MOL
REMARK 922        TOTAL FREE ENERGY PREDICTED BY IDOCK:   -8.55 KCAL/MOL
REMARK 923 INTER-LIGAND FREE ENERGY PREDICTED BY IDOCK:   -7.11 KCAL/MOL
REMARK 924 INTRA-LIGAND FREE ENERGY PREDICTED BY IDOCK:   -1.44 KCAL/MOL
REMARK 927      BINDING AFFINITY PREDICTED BY RF-SCORE:    0.00 PKD
ROOT
HETATM    1  C   UNL     1     -12.540  13.657  63.714  1.00  0.00    -0.106 C  
HETATM    2  C   UNL     1     -11.922  12.498  64.486  1.00  0.00    -0.472 C  
ENDROOT
BRANCH   2   3
HETATM    3  C   UNL     1     -12.027  12.637  66.011  1.00  0.00    -0.478 C  
BRANCH   3   4
HETATM    4  C   UNL     1     -10.823  13.290  66.618  1.00  0.00    -0.281 A  
HETATM    5  N   UNL     1     -10.911  14.502  67.131  1.00  0.00    -0.296 NA 
HETATM    6  C   UNL     1      -9.650  14.899  67.475  1.00  0.00    -0.204 A  
HETATM    7  C   UNL     1      -9.414  16.287  68.034  1.00  0.00    -0.223 C  
HETATM    8  C   UNL     1      -8.736  13.902  67.144  1.00  0.00    -0.221 A  
HETATM    9  N   UNL     1      -9.526  12.815  66.723  1.00  0.00    -0.237 NA 
HETATM   10  O   UNL     1      -8.508  16.973  67.145  1.00  0.00    -0.192 OA 
HETATM   11  C   UNL     1      -8.751  16.246  69.417  1.00  0.00    -0.044 C  
HETATM   12  C   UNL     1     -10.699  17.124  68.141  1.00  0.00    -0.366 C  
HETATM   13  C   UNL     1      -7.294  13.886  67.219  1.00  0.00     0.006 C  
HETATM   14  O   UNL     1      -6.718  15.097  67.052  1.00  0.00    -0.235 OA 
HETATM   15  O   UNL     1      -6.606  12.879  67.363  1.00  0.00    -0.161 OA 
HETATM   16  H   UNL     1      -8.360  17.844  67.496  1.00  0.00     0.000 HD 
BRANCH   9  17
HETATM   17  C   UNL     1      -8.916  11.491  66.443  1.00  0.00    -0.197 C  
BRANCH  17  18
HETATM   18  C   UNL     1      -9.366  10.311  67.261  1.00  0.00    -0.169 A  
HETATM   19  C   UNL     1      -9.209  10.306  68.650  1.00  0.00    -0.159 A  
HETATM   20  C   UNL     1      -9.361   9.113  69.369  1.00  0.00    -0.160 A  
HETATM   21  C   UNL     1      -9.618   7.881  68.726  1.00  0.00    -0.152 A  
HETATM   22  C   UNL     1      -9.983   7.961  67.373  1.00  0.00    -0.261 A  
HETATM   23  C   UNL     1      -9.884   9.163  66.653  1.00  0.00    -0.307 A  
BRANCH  21  24
HETATM   24  C   UNL     1      -9.272   6.586  69.411  1.00  0.00    -0.144 A  
HETATM   25  C   UNL     1      -9.909   6.016  70.546  1.00  0.00    -0.222 A  
HETATM   26  C   UNL     1      -9.559   4.697  70.949  1.00  0.00    -0.249 A  
HETATM   27  C   UNL     1      -8.282   5.781  68.775  1.00  0.00    -0.101 A  
HETATM   28  C   UNL     1      -7.932   4.502  69.206  1.00  0.00    -0.069 A  
HETATM   29  C   UNL     1      -8.585   3.950  70.288  1.00  0.00    -0.108 A  
BRANCH  25  30
HETATM   30  C   UNL     1     -10.895   6.715  71.373  1.00  0.00    -0.242 A  
HETATM   31  N   UNL     1     -12.669   7.635  72.202  1.00  0.00    -0.215 NA 
HETATM   32  H   UNL     1     -12.719   6.536  70.361  1.00  0.00     0.000 HD 
HETATM   33  N   UNL     1     -11.703   7.935  73.057  1.00  0.00    -0.232 NA 
HETATM   34  N   UNL     1     -12.185   6.888  71.155  1.00  0.00    -0.375 NA 
HETATM   35  N   UNL     1     -10.605   7.368  72.546  1.00  0.00    -0.240 NA 
ENDBRANCH  25  30
ENDBRANCH  21  24
ENDBRANCH  17  18
ENDBRANCH   9  17
ENDBRANCH   3   4
ENDBRANCH   2   3
TORSDOF 6
ENDMDL
MODEL      167
REMARK 921   NORMALIZED FREE ENERGY PREDICTED BY IDOCK:   -5.47 KCAL/MOL
REMARK 922        TOTAL FREE ENERGY PREDICTED BY IDOCK:   -8.55 KCAL/MOL
REMARK 923 INTER-LIGAND FREE ENERGY PREDICTED BY IDOCK:   -7.83 KCAL/MOL
REMARK 924 INTRA-LIGAND FREE ENERGY PREDICTED BY IDOCK:   -0.72 KCAL/MOL
REMARK 927      BINDING AFFINITY PREDICTED BY RF-SCORE:    0.00 PKD
ROOT
HETATM    1  C   UNL     1      -7.720   2.996  69.100  1.00  0.00    -0.048 C  
HETATM    2  C   UNL     1      -8.933   3.381  68.262  1.00  0.00    -0.184 C  
ENDROOT
BRANCH   2   3
HETATM    3  C   UNL     1      -9.275   4.877  68.309  1.00  0.00    -0.154 C  
BRANCH   3   4
HETATM    4  C   UNL     1      -9.232   5.439  69.697  1.00  0.00    -0.118 A  
HETATM    5  N   UNL     1      -9.674   4.727  70.716  1.00  0.00    -0.182 NA 
HETATM    6  C   UNL     1      -9.652   5.530  71.821  1.00  0.00    -0.151 A  
HETATM    7  C   UNL     1     -10.168   5.013  73.148  1.00  0.00    -0.179 C  
HETATM    8  C   UNL     1      -9.197   6.799  71.472  1.00  0.00    -0.149 A  
HETATM    9  N   UNL     1      -8.797   6.681  70.128  1.00  0.00    -0.141 NA 
HETATM   10  O   UNL     1     -11.262   5.862  73.557  1.00  0.00    -0.449 OA 
HETATM   11  C   UNL     1      -9.102   5.082  74.248  1.00  0.00    -0.114 C  
HETATM   12  C   UNL     1     -10.691   3.569  73.075  1.00  0.00    -0.232 C  
HETATM   13  C   UNL     1      -9.089   8.007  72.256  1.00  0.00    -0.176 C  
HETATM   14  O   UNL     1     -10.013   8.115  73.237  1.00  0.00    -0.266 OA 
HETATM   15  O   UNL     1      -8.285   8.912  72.052  1.00  0.00    -0.362 OA 
HETATM   16  H   UNL     1     -11.586   5.538  74.389  1.00  0.00     0.000 HD 
BRANCH   9  17
HETATM   17  C   UNL     1      -8.093   7.792  69.440  1.00  0.00    -0.126 C  
BRANCH  17  18
HETATM   18  C   UNL     1      -8.917   8.921  68.883  1.00  0.00    -0.137 A  
HETATM   19  C   UNL     1     -10.242   8.711  68.493  1.00  0.00    -0.221 A  
HETATM   20  C   UNL     1     -10.908   9.672  67.721  1.00  0.00    -0.278 A  
HETATM   21  C   UNL     1     -10.261  10.843  67.266  1.00  0.00    -0.242 A  
HETATM   22  C   UNL     1      -9.016  11.123  67.853  1.00  0.00    -0.143 A  
HETATM   23  C   UNL     1      -8.361  10.187  68.670  1.00  0.00    -0.116 A  
BRANCH  21  24
HETATM   24  C   UNL     1     -10.787  11.576  66.060  1.00  0.00    -0.330 A  
HETATM   25  C   UNL     1     -10.463  11.335  64.698  1.00  0.00    -0.387 A  
HETATM   26  C   UNL     1     -11.192  12.011  63.681  1.00  0.00    -0.528 A  
HETATM   27  C   UNL     1     -11.820  12.528  66.302  1.00  0.00    -0.453 A  
HETATM   28  C   UNL     1     -12.500  13.204  65.290  1.00  0.00    -0.550 A  
HETATM   29  C   UNL     1     -12.197  12.932  63.972  1.00  0.00    -0.500 A  
BRANCH  25  30
HETATM   30  C   UNL     1      -9.383  10.449  64.254  1.00  0.00    -0.277 A  
HETATM   31  N   UNL     1      -7.737   9.496  63.224  1.00  0.00    -0.121 NA 
HETATM   32  H   UNL     1      -8.490  11.413  62.624  1.00  0.00     0.000 HD 
HETATM   33  N   UNL     1      -8.076   8.643  64.179  1.00  0.00    -0.157 NA 
HETATM   34  N   UNL     1      -8.538  10.612  63.254  1.00  0.00    -0.169 NA 
HETATM   35  N   UNL     1      -9.095   9.230  64.817  1.00  0.00    -0.188 NA 
ENDBRANCH  25  30
ENDBRANCH  21  24
ENDBRANCH  17  18
ENDBRANCH   9  17
ENDBRANCH   3   4
ENDBRANCH   2   3
TORSDOF 6
ENDMDL
MODEL      168
REMARK 921   NORMALIZED FREE ENERGY PREDICTED BY IDOCK:   -5.47 KCAL/MOL
REMARK 922        TOTAL FREE ENERGY PREDICTED BY IDOCK:   -8.55 KCAL/MOL
REMARK 923 INTER-LIGAND FREE ENERGY PREDICTED BY IDOCK:   -6.80 KCAL/MOL
REMARK 924 INTRA-LIGAND FREE ENERGY PREDICTED BY IDOCK:   -1.75 KCAL/MOL
REMARK 927      BINDING AFFINITY PREDICTED BY RF-SCORE:    0.00 PKD
ROOT
HETATM    1  C   UNL     1      -7.533   8.143  69.874  1.00  0.00    -0.069 C  
HETATM    2  C   UNL     1      -8.111   6.770  69.552  1.00  0.00    -0.126 C  
ENDROOT
BRANCH   2   3
HETATM    3  C   UNL     1      -7.154   5.855  68.777  1.00  0.00    -0.081 C  
BRANCH   3   4
HETATM    4  C   UNL     1      -7.588   5.626  67.362  1.00  0.00    -0.089 A  
HETATM    5  N   UNL     1      -8.130   4.475  67.011  1.00  0.00    -0.102 NA 
HETATM    6  C   UNL     1      -8.290   4.490  65.654  1.00  0.00    -0.115 A  
HETATM    7  C   UNL     1      -8.833   3.271  64.938  1.00  0.00    -0.122 C  
HETATM    8  C   UNL     1      -7.810   5.691  65.136  1.00  0.00    -0.099 A  
HETATM    9  N   UNL     1      -7.491   6.468  66.266  1.00  0.00    -0.080 NA 
HETATM   10  O   UNL     1      -7.832   2.829  63.997  1.00  0.00    -0.075 OA 
HETATM   11  C   UNL     1     -10.101   3.590  64.137  1.00  0.00    -0.204 C  
HETATM   12  C   UNL     1      -9.144   2.100  65.884  1.00  0.00    -0.059 C  
HETATM   13  C   UNL     1      -7.671   6.136  63.770  1.00  0.00    -0.109 C  
HETATM   14  O   UNL     1      -7.442   5.141  62.884  1.00  0.00    -0.046 OA 
HETATM   15  O   UNL     1      -7.693   7.308  63.403  1.00  0.00    -0.114 OA 
HETATM   16  H   UNL     1      -8.172   2.065  63.547  1.00  0.00     0.000 HD 
BRANCH   9  17
HETATM   17  C   UNL     1      -7.101   7.893  66.127  1.00  0.00    -0.062 C  
BRANCH  17  18
HETATM   18  C   UNL     1      -8.150   8.946  66.357  1.00  0.00    -0.110 A  
HETATM   19  C   UNL     1      -9.508   8.616  66.324  1.00  0.00    -0.307 A  
HETATM   20  C   UNL     1     -10.475   9.629  66.254  1.00  0.00    -0.149 A  
HETATM   21  C   UNL     1     -10.121  10.993  66.157  1.00  0.00    -0.286 A  
HETATM   22  C   UNL     1      -8.774  11.296  66.413  1.00  0.00    -0.180 A  
HETATM   23  C   UNL     1      -7.803  10.289  66.536  1.00  0.00    -0.116 A  
BRANCH  21  24
HETATM   24  C   UNL     1     -11.093  11.986  65.578  1.00  0.00    -0.361 A  
HETATM   25  C   UNL     1     -11.722  13.068  66.251  1.00  0.00    -0.440 A  
HETATM   26  C   UNL     1     -12.476  14.010  65.498  1.00  0.00    -0.533 A  
HETATM   27  C   UNL     1     -11.306  11.912  64.170  1.00  0.00    -0.455 A  
HETATM   28  C   UNL     1     -12.077  12.828  63.456  1.00  0.00    -0.642 A  
HETATM   29  C   UNL     1     -12.651  13.893  64.119  1.00  0.00    -0.142 A  
BRANCH  25  30
HETATM   30  C   UNL     1     -11.680  13.269  67.701  1.00  0.00    -0.366 A  
HETATM   31  N   UNL     1     -11.797  13.080  69.853  1.00  0.00    -0.325 NA 
HETATM   32  H   UNL     1     -12.221  11.432  68.547  1.00  0.00     0.000 HD 
HETATM   33  N   UNL     1     -11.448  14.340  69.644  1.00  0.00    -0.274 NA 
HETATM   34  N   UNL     1     -11.950  12.408  68.664  1.00  0.00    -0.286 NA 
HETATM   35  N   UNL     1     -11.376  14.460  68.314  1.00  0.00    -0.273 NA 
ENDBRANCH  25  30
ENDBRANCH  21  24
ENDBRANCH  17  18
ENDBRANCH   9  17
ENDBRANCH   3   4
ENDBRANCH   2   3
TORSDOF 6
ENDMDL
MODEL      169
REMARK 921   NORMALIZED FREE ENERGY PREDICTED BY IDOCK:   -5.47 KCAL/MOL
REMARK 922        TOTAL FREE ENERGY PREDICTED BY IDOCK:   -8.54 KCAL/MOL
REMARK 923 INTER-LIGAND FREE ENERGY PREDICTED BY IDOCK:   -6.98 KCAL/MOL
REMARK 924 INTRA-LIGAND FREE ENERGY PREDICTED BY IDOCK:   -1.55 KCAL/MOL
REMARK 927      BINDING AFFINITY PREDICTED BY RF-SCORE:    0.00 PKD
ROOT
HETATM    1  C   UNL     1      -8.229   5.903  64.274  1.00  0.00    -0.088 C  
HETATM    2  C   UNL     1      -7.581   6.736  65.373  1.00  0.00    -0.090 C  
ENDROOT
BRANCH   2   3
HETATM    3  C   UNL     1      -7.088   8.112  64.905  1.00  0.00    -0.079 C  
BRANCH   3   4
HETATM    4  C   UNL     1      -8.011   9.224  65.301  1.00  0.00    -0.107 A  
HETATM    5  N   UNL     1      -8.777   9.806  64.397  1.00  0.00    -0.189 NA 
HETATM    6  C   UNL     1      -9.394  10.866  64.999  1.00  0.00    -0.226 A  
HETATM    7  C   UNL     1     -10.297  11.778  64.195  1.00  0.00    -0.331 C  
HETATM    8  C   UNL     1      -8.981  10.960  66.326  1.00  0.00    -0.176 A  
HETATM    9  N   UNL     1      -8.197   9.810  66.542  1.00  0.00    -0.119 NA 
HETATM   10  O   UNL     1      -9.746  13.111  64.257  1.00  0.00    -0.648 OA 
HETATM   11  C   UNL     1     -11.715  11.844  64.775  1.00  0.00    -0.282 C  
HETATM   12  C   UNL     1     -10.401  11.377  62.714  1.00  0.00    -0.000 C  
HETATM   13  C   UNL     1      -9.270  11.955  67.332  1.00  0.00    -0.177 C  
HETATM   14  O   UNL     1      -9.486  13.195  66.838  1.00  0.00    -0.229 OA 
HETATM   15  O   UNL     1      -9.274  11.754  68.543  1.00  0.00    -0.196 OA 
HETATM   16  H   UNL     1     -10.312  13.683  63.753  1.00  0.00     0.000 HD 
BRANCH   9  17
HETATM   17  C   UNL     1      -7.708   9.464  67.899  1.00  0.00    -0.088 C  
BRANCH  17  18
HETATM   18  C   UNL     1      -8.194   8.187  68.528  1.00  0.00    -0.125 A  
HETATM   19  C   UNL     1      -9.517   7.769  68.362  1.00  0.00    -0.148 A  
HETATM   20  C   UNL     1     -10.038   6.748  69.168  1.00  0.00    -0.180 A  
HETATM   21  C   UNL     1      -9.279   6.151  70.199  1.00  0.00    -0.164 A  
HETATM   22  C   UNL     1      -7.904   6.436  70.192  1.00  0.00    -0.107 A  
HETATM   23  C   UNL     1      -7.361   7.422  69.351  1.00  0.00    -0.086 A  
BRANCH  21  24
HETATM   24  C   UNL     1      -9.972   5.467  71.347  1.00  0.00    -0.241 A  
HETATM   25  C   UNL     1     -11.091   5.942  72.084  1.00  0.00    -0.333 A  
HETATM   26  C   UNL     1     -11.722   5.078  73.021  1.00  0.00    -0.229 A  
HETATM   27  C   UNL     1      -9.542   4.140  71.643  1.00  0.00    -0.232 A  
HETATM   28  C   UNL     1     -10.156   3.322  72.591  1.00  0.00    -0.232 A  
HETATM   29  C   UNL     1     -11.262   3.786  73.271  1.00  0.00    -0.230 A  
BRANCH  25  30
HETATM   30  C   UNL     1     -11.631   7.299  71.974  1.00  0.00    -0.274 A  
HETATM   31  N   UNL     1     -11.993   9.430  72.059  1.00  0.00    -0.332 NA 
HETATM   32  H   UNL     1     -10.160   8.564  72.761  1.00  0.00     0.000 HD 
HETATM   33  N   UNL     1     -13.095   8.922  71.531  1.00  0.00    -0.337 NA 
HETATM   34  N   UNL     1     -11.082   8.440  72.343  1.00  0.00    -0.365 NA 
HETATM   35  N   UNL     1     -12.874   7.604  71.478  1.00  0.00    -0.343 NA 
ENDBRANCH  25  30
ENDBRANCH  21  24
ENDBRANCH  17  18
ENDBRANCH   9  17
ENDBRANCH   3   4
ENDBRANCH   2   3
TORSDOF 6
ENDMDL
MODEL      170
REMARK 921   NORMALIZED FREE ENERGY PREDICTED BY IDOCK:   -5.46 KCAL/MOL
REMARK 922        TOTAL FREE ENERGY PREDICTED BY IDOCK:   -8.52 KCAL/MOL
REMARK 923 INTER-LIGAND FREE ENERGY PREDICTED BY IDOCK:   -7.26 KCAL/MOL
REMARK 924 INTRA-LIGAND FREE ENERGY PREDICTED BY IDOCK:   -1.26 KCAL/MOL
REMARK 927      BINDING AFFINITY PREDICTED BY RF-SCORE:    0.00 PKD
ROOT
HETATM    1  C   UNL     1     -12.008  16.058  71.550  1.00  0.00    -0.539 C  
HETATM    2  C   UNL     1     -11.907  14.784  70.719  1.00  0.00    -0.370 C  
ENDROOT
BRANCH   2   3
HETATM    3  C   UNL     1     -11.864  15.028  69.205  1.00  0.00    -0.338 C  
BRANCH   3   4
HETATM    4  C   UNL     1     -10.652  15.795  68.774  1.00  0.00    -0.239 A  
HETATM    5  N   UNL     1     -10.756  17.065  68.430  1.00  0.00    -0.367 NA 
HETATM    6  C   UNL     1      -9.541  17.464  67.949  1.00  0.00    -0.267 A  
HETATM    7  C   UNL     1      -9.359  18.866  67.408  1.00  0.00    -0.289 C  
HETATM    8  C   UNL     1      -8.650  16.394  67.975  1.00  0.00    -0.185 A  
HETATM    9  N   UNL     1      -9.342  15.365  68.642  1.00  0.00    -0.193 NA 
HETATM   10  O   UNL     1      -8.958  18.758  66.025  1.00  0.00    -0.479 OA 
HETATM   11  C   UNL     1      -8.252  19.630  68.144  1.00  0.00    -0.348 C  
HETATM   12  C   UNL     1     -10.644  19.709  67.464  1.00  0.00    -0.577 C  
HETATM   13  C   UNL     1      -7.295  16.287  67.488  1.00  0.00    -0.151 C  
HETATM   14  O   UNL     1      -7.028  17.068  66.416  1.00  0.00    -0.239 OA 
HETATM   15  O   UNL     1      -6.441  15.526  67.936  1.00  0.00    -0.126 OA 
HETATM   16  H   UNL     1      -8.845  19.638  65.686  1.00  0.00     0.000 HD 
BRANCH   9  17
HETATM   17  C   UNL     1      -8.658  14.102  69.017  1.00  0.00     0.109 C  
BRANCH  17  18
HETATM   18  C   UNL     1      -8.933  12.871  68.197  1.00  0.00    -0.202 A  
HETATM   19  C   UNL     1      -8.514  11.614  68.640  1.00  0.00    -0.094 A  
HETATM   20  C   UNL     1      -8.515  10.523  67.759  1.00  0.00    -0.114 A  
HETATM   21  C   UNL     1      -8.877  10.661  66.400  1.00  0.00    -0.164 A  
HETATM   22  C   UNL     1      -9.494  11.874  66.051  1.00  0.00    -0.241 A  
HETATM   23  C   UNL     1      -9.545  12.957  66.943  1.00  0.00    -0.240 A  
BRANCH  21  24
HETATM   24  C   UNL     1      -8.394   9.660  65.385  1.00  0.00    -0.146 A  
HETATM   25  C   UNL     1      -8.626   8.258  65.381  1.00  0.00    -0.176 A  
HETATM   26  C   UNL     1      -8.241   7.494  64.245  1.00  0.00     0.002 A  
HETATM   27  C   UNL     1      -7.744  10.193  64.234  1.00  0.00    -0.131 A  
HETATM   28  C   UNL     1      -7.345   9.420  63.144  1.00  0.00    -0.107 A  
HETATM   29  C   UNL     1      -7.610   8.066  63.141  1.00  0.00    -0.126 A  
BRANCH  25  30
HETATM   30  C   UNL     1      -9.212   7.519  66.502  1.00  0.00    -0.174 A  
HETATM   31  N   UNL     1     -10.512   6.666  68.006  1.00  0.00    -0.193 NA 
HETATM   32  H   UNL     1     -11.264   7.931  66.446  1.00  0.00     0.000 HD 
HETATM   33  N   UNL     1      -9.302   6.231  68.321  1.00  0.00    -0.114 NA 
HETATM   34  N   UNL     1     -10.472   7.467  66.890  1.00  0.00    -0.317 NA 
HETATM   35  N   UNL     1      -8.496   6.759  67.393  1.00  0.00    -0.121 NA 
ENDBRANCH  25  30
ENDBRANCH  21  24
ENDBRANCH  17  18
ENDBRANCH   9  17
ENDBRANCH   3   4
ENDBRANCH   2   3
TORSDOF 6
ENDMDL
MODEL      171
REMARK 921   NORMALIZED FREE ENERGY PREDICTED BY IDOCK:   -5.45 KCAL/MOL
REMARK 922        TOTAL FREE ENERGY PREDICTED BY IDOCK:   -8.51 KCAL/MOL
REMARK 923 INTER-LIGAND FREE ENERGY PREDICTED BY IDOCK:   -7.33 KCAL/MOL
REMARK 924 INTRA-LIGAND FREE ENERGY PREDICTED BY IDOCK:   -1.18 KCAL/MOL
REMARK 927      BINDING AFFINITY PREDICTED BY RF-SCORE:    0.00 PKD
ROOT
HETATM    1  C   UNL     1      -5.229  10.564  67.334  1.00  0.00    -0.040 C  
HETATM    2  C   UNL     1      -6.589  11.127  67.731  1.00  0.00    -0.064 C  
ENDROOT
BRANCH   2   3
HETATM    3  C   UNL     1      -7.748  10.637  66.853  1.00  0.00    -0.122 C  
BRANCH   3   4
HETATM    4  C   UNL     1      -9.025  11.374  67.114  1.00  0.00    -0.162 A  
HETATM    5  N   UNL     1      -9.493  12.230  66.224  1.00  0.00    -0.237 NA 
HETATM    6  C   UNL     1     -10.574  12.854  66.780  1.00  0.00    -0.257 A  
HETATM    7  C   UNL     1     -11.294  13.949  66.020  1.00  0.00    -0.324 C  
HETATM    8  C   UNL     1     -10.775  12.384  68.075  1.00  0.00    -0.223 A  
HETATM    9  N   UNL     1      -9.854  11.329  68.222  1.00  0.00    -0.190 NA 
HETATM   10  O   UNL     1     -11.218  15.156  66.807  1.00  0.00    -0.331 OA 
HETATM   11  C   UNL     1     -12.780  13.629  65.819  1.00  0.00    -0.470 C  
HETATM   12  C   UNL     1     -10.674  14.241  64.643  1.00  0.00    -0.384 C  
HETATM   13  C   UNL     1     -11.715  12.799  69.090  1.00  0.00    -0.322 C  
HETATM   14  O   UNL     1     -12.056  14.106  69.028  1.00  0.00    -0.343 OA 
HETATM   15  O   UNL     1     -12.150  12.080  69.986  1.00  0.00    -0.310 OA 
HETATM   16  H   UNL     1     -11.670  15.843  66.331  1.00  0.00     0.000 HD 
BRANCH   9  17
HETATM   17  C   UNL     1      -9.877  10.458  69.423  1.00  0.00    -0.213 C  
BRANCH  17  18
HETATM   18  C   UNL     1      -9.736   8.973  69.230  1.00  0.00    -0.168 A  
HETATM   19  C   UNL     1     -10.867   8.160  69.109  1.00  0.00    -0.033 A  
HETATM   20  C   UNL     1     -10.745   6.768  69.215  1.00  0.00    -0.288 A  
HETATM   21  C   UNL     1      -9.509   6.146  69.500  1.00  0.00    -0.156 A  
HETATM   22  C   UNL     1      -8.373   6.965  69.396  1.00  0.00    -0.132 A  
HETATM   23  C   UNL     1      -8.481   8.357  69.239  1.00  0.00    -0.125 A  
BRANCH  21  24
HETATM   24  C   UNL     1      -9.478   4.769  70.107  1.00  0.00    -0.246 A  
HETATM   25  C   UNL     1      -9.757   4.416  71.455  1.00  0.00    -0.244 A  
HETATM   26  C   UNL     1      -9.851   3.042  71.808  1.00  0.00    -0.230 A  
HETATM   27  C   UNL     1      -9.276   3.686  69.203  1.00  0.00    -0.226 A  
HETATM   28  C   UNL     1      -9.341   2.344  69.577  1.00  0.00    -0.164 A  
HETATM   29  C   UNL     1      -9.647   2.019  70.883  1.00  0.00    -0.181 A  
BRANCH  25  30
HETATM   30  C   UNL     1      -9.920   5.386  72.541  1.00  0.00    -0.168 A  
HETATM   31  N   UNL     1     -10.486   7.044  73.810  1.00  0.00    -0.380 NA 
HETATM   32  H   UNL     1     -11.386   6.732  71.889  1.00  0.00     0.000 HD 
HETATM   33  N   UNL     1      -9.551   6.402  74.493  1.00  0.00    -0.247 NA 
HETATM   34  N   UNL     1     -10.721   6.433  72.602  1.00  0.00    -0.224 NA 
HETATM   35  N   UNL     1      -9.198   5.376  73.709  1.00  0.00    -0.126 NA 
ENDBRANCH  25  30
ENDBRANCH  21  24
ENDBRANCH  17  18
ENDBRANCH   9  17
ENDBRANCH   3   4
ENDBRANCH   2   3
TORSDOF 6
ENDMDL
MODEL      172
REMARK 921   NORMALIZED FREE ENERGY PREDICTED BY IDOCK:   -5.44 KCAL/MOL
REMARK 922        TOTAL FREE ENERGY PREDICTED BY IDOCK:   -8.50 KCAL/MOL
REMARK 923 INTER-LIGAND FREE ENERGY PREDICTED BY IDOCK:   -7.00 KCAL/MOL
REMARK 924 INTRA-LIGAND FREE ENERGY PREDICTED BY IDOCK:   -1.51 KCAL/MOL
REMARK 927      BINDING AFFINITY PREDICTED BY RF-SCORE:    0.00 PKD
ROOT
HETATM    1  C   UNL     1     -12.037  14.576  65.497  1.00  0.00    -0.299 C  
HETATM    2  C   UNL     1     -12.108  13.843  66.831  1.00  0.00    -0.467 C  
ENDROOT
BRANCH   2   3
HETATM    3  C   UNL     1     -11.671  12.374  66.761  1.00  0.00    -0.430 C  
BRANCH   3   4
HETATM    4  C   UNL     1     -10.244  12.173  67.170  1.00  0.00    -0.210 A  
HETATM    5  N   UNL     1      -9.527  13.191  67.606  1.00  0.00    -0.200 NA 
HETATM    6  C   UNL     1      -8.242  12.755  67.764  1.00  0.00    -0.176 A  
HETATM    7  C   UNL     1      -7.158  13.721  68.194  1.00  0.00    -0.118 C  
HETATM    8  C   UNL     1      -8.151  11.416  67.392  1.00  0.00    -0.142 A  
HETATM    9  N   UNL     1      -9.479  11.019  67.146  1.00  0.00    -0.164 NA 
HETATM   10  O   UNL     1      -6.156  13.751  67.155  1.00  0.00    -0.387 OA 
HETATM   11  C   UNL     1      -6.462  13.269  69.484  1.00  0.00    -0.078 C  
HETATM   12  C   UNL     1      -7.670  15.156  68.401  1.00  0.00    -0.118 C  
HETATM   13  C   UNL     1      -7.003  10.545  67.290  1.00  0.00    -0.087 C  
HETATM   14  O   UNL     1      -5.853  11.180  66.971  1.00  0.00    -0.057 OA 
HETATM   15  O   UNL     1      -7.030   9.324  67.416  1.00  0.00    -0.076 OA 
HETATM   16  H   UNL     1      -5.476  14.357  67.425  1.00  0.00     0.000 HD 
BRANCH   9  17
HETATM   17  C   UNL     1      -9.814   9.597  66.885  1.00  0.00    -0.200 C  
BRANCH  17  18
HETATM   18  C   UNL     1     -10.373   8.776  68.015  1.00  0.00    -0.273 A  
HETATM   19  C   UNL     1     -10.749   9.382  69.217  1.00  0.00    -0.228 A  
HETATM   20  C   UNL     1     -10.996   8.598  70.352  1.00  0.00    -0.256 A  
HETATM   21  C   UNL     1     -10.822   7.196  70.342  1.00  0.00    -0.269 A  
HETATM   22  C   UNL     1     -10.661   6.607  69.077  1.00  0.00    -0.273 A  
HETATM   23  C   UNL     1     -10.463   7.384  67.924  1.00  0.00    -0.265 A  
BRANCH  21  24
HETATM   24  C   UNL     1     -10.585   6.456  71.632  1.00  0.00    -0.261 A  
HETATM   25  C   UNL     1      -9.493   6.615  72.527  1.00  0.00    -0.155 A  
HETATM   26  C   UNL     1      -9.526   5.955  73.786  1.00  0.00    -0.141 A  
HETATM   27  C   UNL     1     -11.635   5.596  72.067  1.00  0.00    -0.148 A  
HETATM   28  C   UNL     1     -11.632   4.932  73.294  1.00  0.00    -0.276 A  
HETATM   29  C   UNL     1     -10.581   5.126  74.165  1.00  0.00    -0.322 A  
BRANCH  25  30
HETATM   30  C   UNL     1      -8.290   7.396  72.226  1.00  0.00    -0.101 A  
HETATM   31  N   UNL     1      -6.330   8.091  71.631  1.00  0.00    -0.039 NA 
HETATM   32  H   UNL     1      -6.947   6.057  71.339  1.00  0.00     0.000 HD 
HETATM   33  N   UNL     1      -6.918   9.154  72.157  1.00  0.00    -0.313 NA 
HETATM   34  N   UNL     1      -7.162   6.997  71.672  1.00  0.00    -0.077 NA 
HETATM   35  N   UNL     1      -8.131   8.726  72.527  1.00  0.00    -0.388 NA 
ENDBRANCH  25  30
ENDBRANCH  21  24
ENDBRANCH  17  18
ENDBRANCH   9  17
ENDBRANCH   3   4
ENDBRANCH   2   3
TORSDOF 6
ENDMDL
MODEL      173
REMARK 921   NORMALIZED FREE ENERGY PREDICTED BY IDOCK:   -5.44 KCAL/MOL
REMARK 922        TOTAL FREE ENERGY PREDICTED BY IDOCK:   -8.50 KCAL/MOL
REMARK 923 INTER-LIGAND FREE ENERGY PREDICTED BY IDOCK:   -7.24 KCAL/MOL
REMARK 924 INTRA-LIGAND FREE ENERGY PREDICTED BY IDOCK:   -1.26 KCAL/MOL
REMARK 927      BINDING AFFINITY PREDICTED BY RF-SCORE:    0.00 PKD
ROOT
HETATM    1  C   UNL     1     -11.617  14.664  66.273  1.00  0.00    -0.344 C  
HETATM    2  C   UNL     1     -11.767  13.292  66.920  1.00  0.00    -0.437 C  
ENDROOT
BRANCH   2   3
HETATM    3  C   UNL     1     -11.223  12.137  66.068  1.00  0.00    -0.382 C  
BRANCH   3   4
HETATM    4  C   UNL     1      -9.862  11.687  66.502  1.00  0.00    -0.204 A  
HETATM    5  N   UNL     1      -8.992  12.560  66.973  1.00  0.00    -0.206 NA 
HETATM    6  C   UNL     1      -7.805  11.906  67.148  1.00  0.00    -0.168 A  
HETATM    7  C   UNL     1      -6.581  12.664  67.620  1.00  0.00    -0.143 C  
HETATM    8  C   UNL     1      -7.935  10.578  66.752  1.00  0.00    -0.121 A  
HETATM    9  N   UNL     1      -9.306  10.419  66.471  1.00  0.00    -0.160 NA 
HETATM   10  O   UNL     1      -5.565  12.539  66.603  1.00  0.00    -0.447 OA 
HETATM   11  C   UNL     1      -6.004  12.079  68.914  1.00  0.00    -0.060 C  
HETATM   12  C   UNL     1      -6.844  14.162  67.845  1.00  0.00    -0.173 C  
HETATM   13  C   UNL     1      -6.952   9.525  66.656  1.00  0.00    -0.085 C  
HETATM   14  O   UNL     1      -5.703   9.958  66.373  1.00  0.00    -0.051 OA 
HETATM   15  O   UNL     1      -7.191   8.324  66.756  1.00  0.00    -0.079 OA 
HETATM   16  H   UNL     1      -4.797  13.014  66.898  1.00  0.00     0.000 HD 
BRANCH   9  17
HETATM   17  C   UNL     1      -9.874   9.081  66.174  1.00  0.00    -0.278 C  
BRANCH  17  18
HETATM   18  C   UNL     1     -10.430   8.273  67.314  1.00  0.00    -0.373 A  
HETATM   19  C   UNL     1     -10.439   8.788  68.614  1.00  0.00    -0.213 A  
HETATM   20  C   UNL     1     -10.687   7.941  69.703  1.00  0.00    -0.218 A  
HETATM   21  C   UNL     1     -10.879   6.551  69.539  1.00  0.00    -0.360 A  
HETATM   22  C   UNL     1     -11.081   6.111  68.221  1.00  0.00    -0.336 A  
HETATM   23  C   UNL     1     -10.884   6.964  67.122  1.00  0.00    -0.447 A  
BRANCH  21  24
HETATM   24  C   UNL     1     -10.630   5.614  70.691  1.00  0.00    -0.347 A  
HETATM   25  C   UNL     1      -9.576   4.669  70.819  1.00  0.00    -0.251 A  
HETATM   26  C   UNL     1      -9.398   3.992  72.058  1.00  0.00    -0.187 A  
HETATM   27  C   UNL     1     -11.466   5.782  71.833  1.00  0.00    -0.231 A  
HETATM   28  C   UNL     1     -11.293   5.084  73.027  1.00  0.00    -0.374 A  
HETATM   29  C   UNL     1     -10.244   4.197  73.147  1.00  0.00    -0.220 A  
BRANCH  25  30
HETATM   30  C   UNL     1      -8.661   4.305  69.734  1.00  0.00    -0.073 A  
HETATM   31  N   UNL     1      -7.139   4.252  68.198  1.00  0.00    -0.059 NA 
HETATM   32  H   UNL     1      -7.389   5.949  69.486  1.00  0.00     0.000 HD 
HETATM   33  N   UNL     1      -7.767   3.091  68.090  1.00  0.00    -0.056 NA 
HETATM   34  N   UNL     1      -7.683   5.014  69.204  1.00  0.00    -0.075 NA 
HETATM   35  N   UNL     1      -8.710   3.122  69.039  1.00  0.00    -0.077 NA 
ENDBRANCH  25  30
ENDBRANCH  21  24
ENDBRANCH  17  18
ENDBRANCH   9  17
ENDBRANCH   3   4
ENDBRANCH   2   3
TORSDOF 6
ENDMDL
MODEL      174
REMARK 921   NORMALIZED FREE ENERGY PREDICTED BY IDOCK:   -5.44 KCAL/MOL
REMARK 922        TOTAL FREE ENERGY PREDICTED BY IDOCK:   -8.50 KCAL/MOL
REMARK 923 INTER-LIGAND FREE ENERGY PREDICTED BY IDOCK:   -7.38 KCAL/MOL
REMARK 924 INTRA-LIGAND FREE ENERGY PREDICTED BY IDOCK:   -1.11 KCAL/MOL
REMARK 927      BINDING AFFINITY PREDICTED BY RF-SCORE:    0.00 PKD
ROOT
HETATM    1  C   UNL     1     -10.226   6.828  70.836  1.00  0.00    -0.215 C  
HETATM    2  C   UNL     1     -10.202   5.647  69.873  1.00  0.00    -0.320 C  
ENDROOT
BRANCH   2   3
HETATM    3  C   UNL     1     -10.869   5.930  68.520  1.00  0.00    -0.323 C  
BRANCH   3   4
HETATM    4  C   UNL     1      -9.891   5.960  67.386  1.00  0.00    -0.131 A  
HETATM    5  N   UNL     1     -10.013   5.113  66.381  1.00  0.00    -0.190 NA 
HETATM    6  C   UNL     1      -8.918   5.265  65.578  1.00  0.00    -0.155 A  
HETATM    7  C   UNL     1      -8.735   4.377  64.365  1.00  0.00    -0.145 C  
HETATM    8  C   UNL     1      -8.071   6.231  66.114  1.00  0.00    -0.116 A  
HETATM    9  N   UNL     1      -8.782   6.769  67.204  1.00  0.00    -0.119 NA 
HETATM   10  O   UNL     1      -7.498   3.652  64.531  1.00  0.00    -0.069 OA 
HETATM   11  C   UNL     1      -8.616   5.188  63.069  1.00  0.00    -0.098 C  
HETATM   12  C   UNL     1      -9.866   3.351  64.188  1.00  0.00    -0.172 C  
HETATM   13  C   UNL     1      -6.762   6.672  65.692  1.00  0.00    -0.051 C  
HETATM   14  O   UNL     1      -6.025   5.716  65.083  1.00  0.00    -0.021 OA 
HETATM   15  O   UNL     1      -6.293   7.789  65.898  1.00  0.00    -0.041 OA 
HETATM   16  H   UNL     1      -7.383   3.094  63.771  1.00  0.00     0.000 HD 
BRANCH   9  17
HETATM   17  C   UNL     1      -8.273   7.954  67.938  1.00  0.00    -0.129 C  
BRANCH  17  18
HETATM   18  C   UNL     1      -8.958   9.275  67.721  1.00  0.00    -0.131 A  
HETATM   19  C   UNL     1      -8.283  10.475  67.963  1.00  0.00    -0.112 A  
HETATM   20  C   UNL     1      -8.996  11.680  68.035  1.00  0.00    -0.176 A  
HETATM   21  C   UNL     1     -10.405  11.721  67.926  1.00  0.00    -0.209 A  
HETATM   22  C   UNL     1     -11.018  10.543  67.469  1.00  0.00    -0.365 A  
HETATM   23  C   UNL     1     -10.303   9.341  67.343  1.00  0.00    -0.327 A  
BRANCH  21  24
HETATM   24  C   UNL     1     -11.173  12.880  68.503  1.00  0.00    -0.310 A  
HETATM   25  C   UNL     1     -11.839  12.932  69.758  1.00  0.00    -0.380 A  
HETATM   26  C   UNL     1     -12.364  14.172  70.214  1.00  0.00    -0.421 A  
HETATM   27  C   UNL     1     -11.117  14.101  67.770  1.00  0.00    -0.292 A  
HETATM   28  C   UNL     1     -11.669  15.299  68.221  1.00  0.00    -0.320 A  
HETATM   29  C   UNL     1     -12.280  15.340  69.457  1.00  0.00    -0.273 A  
BRANCH  25  30
HETATM   30  C   UNL     1     -12.061  11.767  70.619  1.00  0.00    -0.311 A  
HETATM   31  N   UNL     1     -11.997   9.850  71.618  1.00  0.00    -0.388 NA 
HETATM   32  H   UNL     1     -10.556  10.398  70.126  1.00  0.00     0.000 HD 
HETATM   33  N   UNL     1     -13.049  10.464  72.136  1.00  0.00    -0.409 NA 
HETATM   34  N   UNL     1     -11.381  10.639  70.676  1.00  0.00    -0.284 NA 
HETATM   35  N   UNL     1     -13.092  11.651  71.519  1.00  0.00    -0.381 NA 
ENDBRANCH  25  30
ENDBRANCH  21  24
ENDBRANCH  17  18
ENDBRANCH   9  17
ENDBRANCH   3   4
ENDBRANCH   2   3
TORSDOF 6
ENDMDL
MODEL      175
REMARK 921   NORMALIZED FREE ENERGY PREDICTED BY IDOCK:   -5.43 KCAL/MOL
REMARK 922        TOTAL FREE ENERGY PREDICTED BY IDOCK:   -8.48 KCAL/MOL
REMARK 923 INTER-LIGAND FREE ENERGY PREDICTED BY IDOCK:   -7.06 KCAL/MOL
REMARK 924 INTRA-LIGAND FREE ENERGY PREDICTED BY IDOCK:   -1.42 KCAL/MOL
REMARK 927      BINDING AFFINITY PREDICTED BY RF-SCORE:    0.00 PKD
ROOT
HETATM    1  C   UNL     1      -8.326   1.533  66.567  1.00  0.00    -0.086 C  
HETATM    2  C   UNL     1      -8.159   2.842  67.328  1.00  0.00    -0.078 C  
ENDROOT
BRANCH   2   3
HETATM    3  C   UNL     1      -9.448   3.349  67.988  1.00  0.00    -0.213 C  
BRANCH   3   4
HETATM    4  C   UNL     1      -9.207   3.975  69.328  1.00  0.00    -0.152 A  
HETATM    5  N   UNL     1      -9.678   3.406  70.422  1.00  0.00    -0.148 NA 
HETATM    6  C   UNL     1      -9.440   4.256  71.465  1.00  0.00    -0.155 A  
HETATM    7  C   UNL     1      -9.928   3.909  72.856  1.00  0.00    -0.146 C  
HETATM    8  C   UNL     1      -8.814   5.409  70.999  1.00  0.00    -0.139 A  
HETATM    9  N   UNL     1      -8.545   5.150  69.641  1.00  0.00    -0.092 NA 
HETATM   10  O   UNL     1     -10.834   4.950  73.278  1.00  0.00    -0.233 OA 
HETATM   11  C   UNL     1      -8.782   3.863  73.874  1.00  0.00    -0.093 C  
HETATM   12  C   UNL     1     -10.681   2.570  72.918  1.00  0.00    -0.199 C  
HETATM   13  C   UNL     1      -8.452   6.626  71.688  1.00  0.00    -0.119 C  
HETATM   14  O   UNL     1      -9.267   6.941  72.720  1.00  0.00    -0.135 OA 
HETATM   15  O   UNL     1      -7.530   7.371  71.367  1.00  0.00    -0.078 OA 
HETATM   16  H   UNL     1     -11.140   4.732  74.151  1.00  0.00     0.000 HD 
BRANCH   9  17
HETATM   17  C   UNL     1      -7.726   6.087  68.833  1.00  0.00    -0.092 C  
BRANCH  17  18
HETATM   18  C   UNL     1      -8.435   7.154  68.043  1.00  0.00    -0.122 A  
HETATM   19  C   UNL     1      -7.805   8.368  67.760  1.00  0.00    -0.107 A  
HETATM   20  C   UNL     1      -8.552   9.453  67.282  1.00  0.00    -0.129 A  
HETATM   21  C   UNL     1      -9.954   9.382  67.123  1.00  0.00    -0.263 A  
HETATM   22  C   UNL     1     -10.515   8.097  67.205  1.00  0.00    -0.396 A  
HETATM   23  C   UNL     1      -9.763   6.991  67.634  1.00  0.00    -0.163 A  
BRANCH  21  24
HETATM   24  C   UNL     1     -10.778  10.641  67.117  1.00  0.00    -0.327 A  
HETATM   25  C   UNL     1     -11.396  11.271  68.232  1.00  0.00    -0.359 A  
HETATM   26  C   UNL     1     -11.988  12.553  68.063  1.00  0.00    -0.281 A  
HETATM   27  C   UNL     1     -10.838  11.350  65.882  1.00  0.00    -0.292 A  
HETATM   28  C   UNL     1     -11.453  12.592  65.732  1.00  0.00    -0.407 A  
HETATM   29  C   UNL     1     -12.016  13.205  66.831  1.00  0.00    -0.421 A  
BRANCH  25  30
HETATM   30  C   UNL     1     -11.502  10.668  69.562  1.00  0.00    -0.291 A  
HETATM   31  N   UNL     1     -12.116  10.019  71.532  1.00  0.00    -0.395 NA 
HETATM   32  H   UNL     1     -13.409  11.169  70.265  1.00  0.00     0.000 HD 
HETATM   33  N   UNL     1     -10.882   9.559  71.396  1.00  0.00    -0.350 NA 
HETATM   34  N   UNL     1     -12.510  10.710  70.412  1.00  0.00    -0.336 NA 
HETATM   35  N   UNL     1     -10.499   9.960  70.178  1.00  0.00    -0.269 NA 
ENDBRANCH  25  30
ENDBRANCH  21  24
ENDBRANCH  17  18
ENDBRANCH   9  17
ENDBRANCH   3   4
ENDBRANCH   2   3
TORSDOF 6
ENDMDL
MODEL      176
REMARK 921   NORMALIZED FREE ENERGY PREDICTED BY IDOCK:   -5.39 KCAL/MOL
REMARK 922        TOTAL FREE ENERGY PREDICTED BY IDOCK:   -8.44 KCAL/MOL
REMARK 923 INTER-LIGAND FREE ENERGY PREDICTED BY IDOCK:   -7.72 KCAL/MOL
REMARK 924 INTRA-LIGAND FREE ENERGY PREDICTED BY IDOCK:   -0.72 KCAL/MOL
REMARK 927      BINDING AFFINITY PREDICTED BY RF-SCORE:    0.00 PKD
ROOT
HETATM    1  C   UNL     1     -12.149  14.832  67.676  1.00  0.00    -0.138 C  
HETATM    2  C   UNL     1     -12.130  13.345  68.010  1.00  0.00    -0.283 C  
ENDROOT
BRANCH   2   3
HETATM    3  C   UNL     1     -11.399  12.482  66.973  1.00  0.00    -0.386 C  
BRANCH   3   4
HETATM    4  C   UNL     1      -9.923  12.411  67.214  1.00  0.00    -0.206 A  
HETATM    5  N   UNL     1      -9.287  13.433  67.753  1.00  0.00    -0.203 NA 
HETATM    6  C   UNL     1      -7.950  13.153  67.720  1.00  0.00    -0.162 A  
HETATM    7  C   UNL     1      -6.945  14.174  68.212  1.00  0.00    -0.106 C  
HETATM    8  C   UNL     1      -7.743  11.915  67.117  1.00  0.00    -0.163 A  
HETATM    9  N   UNL     1      -9.035  11.388  66.925  1.00  0.00    -0.165 NA 
HETATM   10  O   UNL     1      -6.074  14.503  67.109  1.00  0.00    -0.256 OA 
HETATM   11  C   UNL     1      -6.065  13.620  69.338  1.00  0.00    -0.104 C  
HETATM   12  C   UNL     1      -7.596  15.477  68.706  1.00  0.00    -0.152 C  
HETATM   13  C   UNL     1      -6.520  11.232  66.767  1.00  0.00    -0.136 C  
HETATM   14  O   UNL     1      -5.493  12.058  66.461  1.00  0.00    -0.318 OA 
HETATM   15  O   UNL     1      -6.390  10.014  66.683  1.00  0.00    -0.067 OA 
HETATM   16  H   UNL     1      -5.444  15.143  67.418  1.00  0.00     0.000 HD 
BRANCH   9  17
HETATM   17  C   UNL     1      -9.228   9.994  66.454  1.00  0.00    -0.156 C  
BRANCH  17  18
HETATM   18  C   UNL     1      -9.927   9.023  67.367  1.00  0.00    -0.266 A  
HETATM   19  C   UNL     1     -10.476   9.453  68.578  1.00  0.00    -0.239 A  
HETATM   20  C   UNL     1     -10.867   8.517  69.544  1.00  0.00    -0.134 A  
HETATM   21  C   UNL     1     -10.674   7.129  69.360  1.00  0.00    -0.246 A  
HETATM   22  C   UNL     1     -10.329   6.726  68.059  1.00  0.00    -0.224 A  
HETATM   23  C   UNL     1      -9.984   7.658  67.067  1.00  0.00    -0.310 A  
BRANCH  21  24
HETATM   24  C   UNL     1     -10.608   6.211  70.551  1.00  0.00    -0.312 A  
HETATM   25  C   UNL     1     -11.442   6.234  71.702  1.00  0.00    -0.351 A  
HETATM   26  C   UNL     1     -11.347   5.176  72.648  1.00  0.00    -0.254 A  
HETATM   27  C   UNL     1      -9.697   5.119  70.456  1.00  0.00    -0.260 A  
HETATM   28  C   UNL     1      -9.598   4.110  71.413  1.00  0.00    -0.238 A  
HETATM   29  C   UNL     1     -10.439   4.128  72.506  1.00  0.00    -0.205 A  
BRANCH  25  30
HETATM   30  C   UNL     1     -12.386   7.310  72.011  1.00  0.00    -0.263 A  
HETATM   31  N   UNL     1     -13.410   9.045  72.798  1.00  0.00    -0.330 NA 
HETATM   32  H   UNL     1     -11.402   8.558  73.374  1.00  0.00     0.000 HD 
HETATM   33  N   UNL     1     -14.289   8.474  71.990  1.00  0.00    -0.449 NA 
HETATM   34  N   UNL     1     -12.233   8.336  72.827  1.00  0.00    -0.243 NA 
HETATM   35  N   UNL     1     -13.658   7.400  71.502  1.00  0.00    -0.390 NA 
ENDBRANCH  25  30
ENDBRANCH  21  24
ENDBRANCH  17  18
ENDBRANCH   9  17
ENDBRANCH   3   4
ENDBRANCH   2   3
TORSDOF 6
ENDMDL
MODEL      177
REMARK 921   NORMALIZED FREE ENERGY PREDICTED BY IDOCK:   -5.39 KCAL/MOL
REMARK 922        TOTAL FREE ENERGY PREDICTED BY IDOCK:   -8.43 KCAL/MOL
REMARK 923 INTER-LIGAND FREE ENERGY PREDICTED BY IDOCK:   -7.06 KCAL/MOL
REMARK 924 INTRA-LIGAND FREE ENERGY PREDICTED BY IDOCK:   -1.37 KCAL/MOL
REMARK 927      BINDING AFFINITY PREDICTED BY RF-SCORE:    0.00 PKD
ROOT
HETATM    1  C   UNL     1     -11.159  11.843  63.647  1.00  0.00    -0.517 C  
HETATM    2  C   UNL     1     -10.895  10.972  64.869  1.00  0.00    -0.211 C  
ENDROOT
BRANCH   2   3
HETATM    3  C   UNL     1      -9.422  10.927  65.297  1.00  0.00    -0.257 C  
BRANCH   3   4
HETATM    4  C   UNL     1      -9.097  11.923  66.368  1.00  0.00    -0.208 A  
HETATM    5  N   UNL     1      -9.851  12.994  66.530  1.00  0.00    -0.258 NA 
HETATM    6  C   UNL     1      -9.246  13.787  67.464  1.00  0.00    -0.216 A  
HETATM    7  C   UNL     1      -9.843  15.133  67.821  1.00  0.00    -0.223 C  
HETATM    8  C   UNL     1      -8.058  13.196  67.886  1.00  0.00    -0.159 A  
HETATM    9  N   UNL     1      -8.050  11.928  67.273  1.00  0.00    -0.163 NA 
HETATM   10  O   UNL     1      -8.862  16.146  67.514  1.00  0.00    -0.186 OA 
HETATM   11  C   UNL     1     -10.160  15.245  69.317  1.00  0.00    -0.252 C  
HETATM   12  C   UNL     1     -11.122  15.458  67.032  1.00  0.00    -0.273 C  
HETATM   13  C   UNL     1      -7.031  13.683  68.776  1.00  0.00    -0.106 C  
HETATM   14  O   UNL     1      -6.888  15.027  68.774  1.00  0.00    -0.097 OA 
HETATM   15  O   UNL     1      -6.288  12.975  69.451  1.00  0.00    -0.105 OA 
HETATM   16  H   UNL     1      -9.235  16.990  67.737  1.00  0.00     0.000 HD 
BRANCH   9  17
HETATM   17  C   UNL     1      -7.013  10.922  67.615  1.00  0.00    -0.082 C  
BRANCH  17  18
HETATM   18  C   UNL     1      -7.371   9.833  68.589  1.00  0.00    -0.074 A  
HETATM   19  C   UNL     1      -7.919   8.628  68.140  1.00  0.00    -0.107 A  
HETATM   20  C   UNL     1      -8.509   7.742  69.052  1.00  0.00    -0.132 A  
HETATM   21  C   UNL     1      -8.622   8.050  70.426  1.00  0.00    -0.131 A  
HETATM   22  C   UNL     1      -7.874   9.153  70.870  1.00  0.00    -0.163 A  
HETATM   23  C   UNL     1      -7.236  10.020  69.969  1.00  0.00    -0.158 A  
BRANCH  21  24
HETATM   24  C   UNL     1      -9.671   7.373  71.268  1.00  0.00    -0.171 A  
HETATM   25  C   UNL     1     -11.031   7.756  71.420  1.00  0.00    -0.264 A  
HETATM   26  C   UNL     1     -11.921   6.894  72.118  1.00  0.00    -0.302 A  
HETATM   27  C   UNL     1      -9.293   6.141  71.875  1.00  0.00    -0.157 A  
HETATM   28  C   UNL     1     -10.175   5.326  72.584  1.00  0.00    -0.227 A  
HETATM   29  C   UNL     1     -11.499   5.695  72.692  1.00  0.00    -0.339 A  
BRANCH  25  30
HETATM   30  C   UNL     1     -11.589   9.020  70.932  1.00  0.00    -0.290 A  
HETATM   31  N   UNL     1     -12.128  10.777  69.792  1.00  0.00    -0.323 NA 
HETATM   32  H   UNL     1     -10.896   9.228  68.967  1.00  0.00     0.000 HD 
HETATM   33  N   UNL     1     -12.704  10.951  70.971  1.00  0.00    -0.390 NA 
HETATM   34  N   UNL     1     -11.432   9.593  69.754  1.00  0.00    -0.121 NA 
HETATM   35  N   UNL     1     -12.371   9.866  71.679  1.00  0.00    -0.395 NA 
ENDBRANCH  25  30
ENDBRANCH  21  24
ENDBRANCH  17  18
ENDBRANCH   9  17
ENDBRANCH   3   4
ENDBRANCH   2   3
TORSDOF 6
ENDMDL
MODEL      178
REMARK 921   NORMALIZED FREE ENERGY PREDICTED BY IDOCK:   -5.38 KCAL/MOL
REMARK 922        TOTAL FREE ENERGY PREDICTED BY IDOCK:   -8.42 KCAL/MOL
REMARK 923 INTER-LIGAND FREE ENERGY PREDICTED BY IDOCK:   -6.76 KCAL/MOL
REMARK 924 INTRA-LIGAND FREE ENERGY PREDICTED BY IDOCK:   -1.67 KCAL/MOL
REMARK 927      BINDING AFFINITY PREDICTED BY RF-SCORE:    0.00 PKD
ROOT
HETATM    1  C   UNL     1      -6.345  10.129  64.639  1.00  0.00    -0.130 C  
HETATM    2  C   UNL     1      -6.545   8.721  64.090  1.00  0.00    -0.075 C  
ENDROOT
BRANCH   2   3
HETATM    3  C   UNL     1      -7.997   8.230  64.147  1.00  0.00    -0.148 C  
BRANCH   3   4
HETATM    4  C   UNL     1      -8.141   6.926  64.871  1.00  0.00    -0.109 A  
HETATM    5  N   UNL     1      -8.292   5.803  64.194  1.00  0.00    -0.093 NA 
HETATM    6  C   UNL     1      -8.542   4.807  65.095  1.00  0.00    -0.140 A  
HETATM    7  C   UNL     1      -8.828   3.400  64.615  1.00  0.00    -0.116 C  
HETATM    8  C   UNL     1      -8.569   5.335  66.384  1.00  0.00    -0.114 A  
HETATM    9  N   UNL     1      -8.169   6.676  66.232  1.00  0.00    -0.115 NA 
HETATM   10  O   UNL     1     -10.146   3.035  65.076  1.00  0.00    -0.376 OA 
HETATM   11  C   UNL     1      -7.843   2.380  65.199  1.00  0.00    -0.078 C  
HETATM   12  C   UNL     1      -8.807   3.265  63.083  1.00  0.00    -0.092 C  
HETATM   13  C   UNL     1      -8.887   4.712  67.648  1.00  0.00    -0.106 C  
HETATM   14  O   UNL     1      -9.779   3.700  67.557  1.00  0.00    -0.184 OA 
HETATM   15  O   UNL     1      -8.457   5.073  68.740  1.00  0.00    -0.087 OA 
HETATM   16  H   UNL     1     -10.326   2.152  64.775  1.00  0.00     0.000 HD 
BRANCH   9  17
HETATM   17  C   UNL     1      -7.911   7.534  67.416  1.00  0.00    -0.118 C  
BRANCH  17  18
HETATM   18  C   UNL     1      -8.753   8.767  67.600  1.00  0.00    -0.135 A  
HETATM   19  C   UNL     1      -8.178   9.963  68.037  1.00  0.00    -0.113 A  
HETATM   20  C   UNL     1      -8.993  11.015  68.476  1.00  0.00    -0.163 A  
HETATM   21  C   UNL     1     -10.399  10.890  68.547  1.00  0.00    -0.203 A  
HETATM   22  C   UNL     1     -10.948   9.771  67.901  1.00  0.00    -0.246 A  
HETATM   23  C   UNL     1     -10.138   8.733  67.411  1.00  0.00    -0.289 A  
BRANCH  21  24
HETATM   24  C   UNL     1     -11.190  11.780  69.469  1.00  0.00    -0.265 A  
HETATM   25  C   UNL     1     -11.490  13.157  69.288  1.00  0.00    -0.348 A  
HETATM   26  C   UNL     1     -12.400  13.791  70.178  1.00  0.00    -0.390 A  
HETATM   27  C   UNL     1     -11.816  11.140  70.578  1.00  0.00    -0.448 A  
HETATM   28  C   UNL     1     -12.681  11.790  71.458  1.00  0.00    -0.400 A  
HETATM   29  C   UNL     1     -12.989  13.118  71.247  1.00  0.00    -0.339 A  
BRANCH  25  30
HETATM   30  C   UNL     1     -10.888  14.000  68.252  1.00  0.00    -0.255 A  
HETATM   31  N   UNL     1      -9.628  15.309  67.078  1.00  0.00    -0.219 NA 
HETATM   32  H   UNL     1      -9.035  14.606  69.015  1.00  0.00     0.000 HD 
HETATM   33  N   UNL     1     -10.708  15.126  66.335  1.00  0.00    -0.312 NA 
HETATM   34  N   UNL     1      -9.726  14.625  68.266  1.00  0.00    -0.209 NA 
HETATM   35  N   UNL     1     -11.490  14.317  67.060  1.00  0.00    -0.344 NA 
ENDBRANCH  25  30
ENDBRANCH  21  24
ENDBRANCH  17  18
ENDBRANCH   9  17
ENDBRANCH   3   4
ENDBRANCH   2   3
TORSDOF 6
ENDMDL
MODEL      179
REMARK 921   NORMALIZED FREE ENERGY PREDICTED BY IDOCK:   -5.38 KCAL/MOL
REMARK 922        TOTAL FREE ENERGY PREDICTED BY IDOCK:   -8.41 KCAL/MOL
REMARK 923 INTER-LIGAND FREE ENERGY PREDICTED BY IDOCK:   -7.07 KCAL/MOL
REMARK 924 INTRA-LIGAND FREE ENERGY PREDICTED BY IDOCK:   -1.35 KCAL/MOL
REMARK 927      BINDING AFFINITY PREDICTED BY RF-SCORE:    0.00 PKD
ROOT
HETATM    1  C   UNL     1      -7.745   8.099  67.911  1.00  0.00    -0.114 C  
HETATM    2  C   UNL     1      -8.525   8.774  66.789  1.00  0.00    -0.113 C  
ENDROOT
BRANCH   2   3
HETATM    3  C   UNL     1     -10.045   8.777  66.999  1.00  0.00    -0.335 C  
BRANCH   3   4
HETATM    4  C   UNL     1     -10.595  10.149  67.241  1.00  0.00    -0.261 A  
HETATM    5  N   UNL     1     -10.652  11.026  66.257  1.00  0.00    -0.254 NA 
HETATM    6  C   UNL     1     -11.053  12.219  66.789  1.00  0.00    -0.296 A  
HETATM    7  C   UNL     1     -11.149  13.449  65.911  1.00  0.00    -0.280 C  
HETATM    8  C   UNL     1     -11.233  12.085  68.163  1.00  0.00    -0.260 A  
HETATM    9  N   UNL     1     -11.071  10.709  68.415  1.00  0.00    -0.252 NA 
HETATM   10  O   UNL     1     -10.249  14.444  66.444  1.00  0.00    -0.274 OA 
HETATM   11  C   UNL     1     -12.557  14.057  65.922  1.00  0.00    -0.484 C  
HETATM   12  C   UNL     1     -10.752  13.185  64.449  1.00  0.00    -0.426 C  
HETATM   13  C   UNL     1     -11.553  13.070  69.169  1.00  0.00    -0.316 C  
HETATM   14  O   UNL     1     -11.092  14.311  68.895  1.00  0.00    -0.242 OA 
HETATM   15  O   UNL     1     -12.138  12.838  70.224  1.00  0.00    -0.349 OA 
HETATM   16  H   UNL     1     -10.310  15.216  65.894  1.00  0.00     0.000 HD 
BRANCH   9  17
HETATM   17  C   UNL     1     -11.355  10.140  69.756  1.00  0.00    -0.256 C  
BRANCH  17  18
HETATM   18  C   UNL     1     -10.674   8.857  70.145  1.00  0.00    -0.245 A  
HETATM   19  C   UNL     1     -11.208   7.623  69.763  1.00  0.00    -0.042 A  
HETATM   20  C   UNL     1     -10.742   6.442  70.357  1.00  0.00    -0.317 A  
HETATM   21  C   UNL     1      -9.773   6.456  71.386  1.00  0.00    -0.187 A  
HETATM   22  C   UNL     1      -9.109   7.677  71.586  1.00  0.00    -0.157 A  
HETATM   23  C   UNL     1      -9.535   8.858  70.957  1.00  0.00    -0.318 A  
BRANCH  21  24
HETATM   24  C   UNL     1      -9.668   5.295  72.339  1.00  0.00    -0.183 A  
HETATM   25  C   UNL     1      -8.528   4.481  72.581  1.00  0.00    -0.114 A  
HETATM   26  C   UNL     1      -8.562   3.540  73.647  1.00  0.00    -0.082 A  
HETATM   27  C   UNL     1     -10.793   5.070  73.185  1.00  0.00    -0.347 A  
HETATM   28  C   UNL     1     -10.815   4.118  74.204  1.00  0.00    -0.252 A  
HETATM   29  C   UNL     1      -9.688   3.361  74.448  1.00  0.00    -0.148 A  
BRANCH  25  30
HETATM   30  C   UNL     1      -7.308   4.514  71.771  1.00  0.00    -0.072 A  
HETATM   31  N   UNL     1      -5.354   4.907  70.931  1.00  0.00    -0.004 NA 
HETATM   32  H   UNL     1      -5.982   5.775  72.789  1.00  0.00     0.000 HD 
HETATM   33  N   UNL     1      -5.939   4.099  70.060  1.00  0.00    -0.018 NA 
HETATM   34  N   UNL     1      -6.188   5.177  71.989  1.00  0.00    -0.032 NA 
HETATM   35  N   UNL     1      -7.148   3.855  70.577  1.00  0.00    -0.037 NA 
ENDBRANCH  25  30
ENDBRANCH  21  24
ENDBRANCH  17  18
ENDBRANCH   9  17
ENDBRANCH   3   4
ENDBRANCH   2   3
TORSDOF 6
ENDMDL
MODEL      180
REMARK 921   NORMALIZED FREE ENERGY PREDICTED BY IDOCK:   -5.37 KCAL/MOL
REMARK 922        TOTAL FREE ENERGY PREDICTED BY IDOCK:   -8.40 KCAL/MOL
REMARK 923 INTER-LIGAND FREE ENERGY PREDICTED BY IDOCK:   -6.90 KCAL/MOL
REMARK 924 INTRA-LIGAND FREE ENERGY PREDICTED BY IDOCK:   -1.50 KCAL/MOL
REMARK 927      BINDING AFFINITY PREDICTED BY RF-SCORE:    0.00 PKD
ROOT
HETATM    1  C   UNL     1      -6.535  13.305  68.689  1.00  0.00    -0.087 C  
HETATM    2  C   UNL     1      -6.284  11.916  68.114  1.00  0.00    -0.051 C  
ENDROOT
BRANCH   2   3
HETATM    3  C   UNL     1      -7.211  11.546  66.949  1.00  0.00    -0.137 C  
BRANCH   3   4
HETATM    4  C   UNL     1      -8.627  11.980  67.173  1.00  0.00    -0.182 A  
HETATM    5  N   UNL     1      -9.130  12.988  66.487  1.00  0.00    -0.179 NA 
HETATM    6  C   UNL     1     -10.371  13.255  66.993  1.00  0.00    -0.246 A  
HETATM    7  C   UNL     1     -11.181  14.414  66.452  1.00  0.00    -0.345 C  
HETATM    8  C   UNL     1     -10.643  12.391  68.051  1.00  0.00    -0.221 A  
HETATM    9  N   UNL     1      -9.567  11.483  68.061  1.00  0.00    -0.174 NA 
HETATM   10  O   UNL     1     -11.434  15.324  67.543  1.00  0.00    -0.333 OA 
HETATM   11  C   UNL     1     -12.543  13.963  65.910  1.00  0.00    -0.498 C  
HETATM   12  C   UNL     1     -10.457  15.195  65.342  1.00  0.00    -0.416 C  
HETATM   13  C   UNL     1     -11.766  12.341  68.958  1.00  0.00    -0.324 C  
HETATM   14  O   UNL     1     -12.335  13.542  69.201  1.00  0.00    -0.251 OA 
HETATM   15  O   UNL     1     -12.168  11.330  69.528  1.00  0.00    -0.308 OA 
HETATM   16  H   UNL     1     -11.942  16.051  67.204  1.00  0.00     0.000 HD 
BRANCH   9  17
HETATM   17  C   UNL     1      -9.579  10.295  68.950  1.00  0.00    -0.190 C  
BRANCH  17  18
HETATM   18  C   UNL     1      -9.482   8.932  68.320  1.00  0.00    -0.150 A  
HETATM   19  C   UNL     1     -10.633   8.253  67.911  1.00  0.00    -0.212 A  
HETATM   20  C   UNL     1     -10.569   6.890  67.594  1.00  0.00    -0.328 A  
HETATM   21  C   UNL     1      -9.373   6.148  67.727  1.00  0.00    -0.109 A  
HETATM   22  C   UNL     1      -8.204   6.900  67.925  1.00  0.00    -0.114 A  
HETATM   23  C   UNL     1      -8.252   8.278  68.194  1.00  0.00    -0.128 A  
BRANCH  21  24
HETATM   24  C   UNL     1      -9.428   4.652  67.888  1.00  0.00    -0.194 A  
HETATM   25  C   UNL     1      -9.351   3.673  66.860  1.00  0.00    -0.217 A  
HETATM   26  C   UNL     1      -9.242   2.300  67.216  1.00  0.00    -0.140 A  
HETATM   27  C   UNL     1      -9.424   4.161  69.226  1.00  0.00    -0.258 A  
HETATM   28  C   UNL     1      -9.349   2.807  69.552  1.00  0.00    -0.191 A  
HETATM   29  C   UNL     1      -9.240   1.873  68.543  1.00  0.00    -0.228 A  
BRANCH  25  30
HETATM   30  C   UNL     1      -9.416   3.977  65.429  1.00  0.00    -0.172 A  
HETATM   31  N   UNL     1      -9.995   4.247  63.362  1.00  0.00    -0.068 NA 
HETATM   32  H   UNL     1     -11.387   3.572  64.848  1.00  0.00     0.000 HD 
HETATM   33  N   UNL     1      -8.712   4.570  63.397  1.00  0.00    -0.128 NA 
HETATM   34  N   UNL     1     -10.443   3.873  64.606  1.00  0.00    -0.219 NA 
HETATM   35  N   UNL     1      -8.351   4.403  64.674  1.00  0.00    -0.106 NA 
ENDBRANCH  25  30
ENDBRANCH  21  24
ENDBRANCH  17  18
ENDBRANCH   9  17
ENDBRANCH   3   4
ENDBRANCH   2   3
TORSDOF 6
ENDMDL
MODEL      181
REMARK 921   NORMALIZED FREE ENERGY PREDICTED BY IDOCK:   -5.37 KCAL/MOL
REMARK 922        TOTAL FREE ENERGY PREDICTED BY IDOCK:   -8.40 KCAL/MOL
REMARK 923 INTER-LIGAND FREE ENERGY PREDICTED BY IDOCK:   -6.91 KCAL/MOL
REMARK 924 INTRA-LIGAND FREE ENERGY PREDICTED BY IDOCK:   -1.49 KCAL/MOL
REMARK 927      BINDING AFFINITY PREDICTED BY RF-SCORE:    0.00 PKD
ROOT
HETATM    1  C   UNL     1      -7.103   9.285  68.748  1.00  0.00    -0.073 C  
HETATM    2  C   UNL     1      -8.185   8.215  68.827  1.00  0.00    -0.125 C  
ENDROOT
BRANCH   2   3
HETATM    3  C   UNL     1      -9.217   8.286  67.694  1.00  0.00    -0.150 C  
BRANCH   3   4
HETATM    4  C   UNL     1      -9.002   7.237  66.646  1.00  0.00    -0.150 A  
HETATM    5  N   UNL     1      -9.236   5.967  66.919  1.00  0.00    -0.123 NA 
HETATM    6  C   UNL     1      -8.821   5.231  65.846  1.00  0.00    -0.145 A  
HETATM    7  C   UNL     1      -8.898   3.719  65.885  1.00  0.00    -0.122 C  
HETATM    8  C   UNL     1      -8.289   6.074  64.873  1.00  0.00    -0.104 A  
HETATM    9  N   UNL     1      -8.544   7.375  65.347  1.00  0.00    -0.092 NA 
HETATM   10  O   UNL     1      -7.559   3.204  65.721  1.00  0.00    -0.072 OA 
HETATM   11  C   UNL     1      -9.745   3.154  64.738  1.00  0.00    -0.105 C  
HETATM   12  C   UNL     1      -9.457   3.173  67.209  1.00  0.00    -0.164 C  
HETATM   13  C   UNL     1      -7.641   5.771  63.619  1.00  0.00    -0.083 C  
HETATM   14  O   UNL     1      -6.970   4.597  63.612  1.00  0.00    -0.043 OA 
HETATM   15  O   UNL     1      -7.624   6.508  62.637  1.00  0.00    -0.068 OA 
HETATM   16  H   UNL     1      -7.607   2.256  65.745  1.00  0.00     0.000 HD 
BRANCH   9  17
HETATM   17  C   UNL     1      -8.271   8.563  64.500  1.00  0.00    -0.156 C  
BRANCH  17  18
HETATM   18  C   UNL     1      -8.836   9.889  64.928  1.00  0.00    -0.223 A  
HETATM   19  C   UNL     1      -8.083  10.762  65.718  1.00  0.00    -0.135 A  
HETATM   20  C   UNL     1      -8.702  11.852  66.346  1.00  0.00    -0.118 A  
HETATM   21  C   UNL     1     -10.094  12.074  66.255  1.00  0.00    -0.247 A  
HETATM   22  C   UNL     1     -10.774  11.316  65.287  1.00  0.00    -0.302 A  
HETATM   23  C   UNL     1     -10.150  10.253  64.614  1.00  0.00    -0.317 A  
BRANCH  21  24
HETATM   24  C   UNL     1     -10.799  12.891  67.305  1.00  0.00    -0.277 A  
HETATM   25  C   UNL     1     -11.555  14.078  67.108  1.00  0.00    -0.397 A  
HETATM   26  C   UNL     1     -12.297  14.617  68.195  1.00  0.00     0.059 A  
HETATM   27  C   UNL     1     -10.818  12.345  68.621  1.00  0.00    -0.273 A  
HETATM   28  C   UNL     1     -11.526  12.908  69.682  1.00  0.00    -0.251 A  
HETATM   29  C   UNL     1     -12.284  14.040  69.464  1.00  0.00    -0.355 A  
BRANCH  25  30
HETATM   30  C   UNL     1     -11.599  14.825  65.848  1.00  0.00    -0.286 A  
HETATM   31  N   UNL     1     -11.967  15.537  63.839  1.00  0.00    -0.427 NA 
HETATM   32  H   UNL     1     -12.923  13.779  64.610  1.00  0.00     0.000 HD 
HETATM   33  N   UNL     1     -11.094  16.394  64.346  1.00  0.00    -0.834 NA 
HETATM   34  N   UNL     1     -12.283  14.560  64.752  1.00  0.00    -0.441 NA 
HETATM   35  N   UNL     1     -10.864  15.956  65.588  1.00  0.00    -0.314 NA 
ENDBRANCH  25  30
ENDBRANCH  21  24
ENDBRANCH  17  18
ENDBRANCH   9  17
ENDBRANCH   3   4
ENDBRANCH   2   3
TORSDOF 6
ENDMDL
MODEL      182
REMARK 921   NORMALIZED FREE ENERGY PREDICTED BY IDOCK:   -5.32 KCAL/MOL
REMARK 922        TOTAL FREE ENERGY PREDICTED BY IDOCK:   -8.33 KCAL/MOL
REMARK 923 INTER-LIGAND FREE ENERGY PREDICTED BY IDOCK:   -6.86 KCAL/MOL
REMARK 924 INTRA-LIGAND FREE ENERGY PREDICTED BY IDOCK:   -1.48 KCAL/MOL
REMARK 927      BINDING AFFINITY PREDICTED BY RF-SCORE:    0.00 PKD
ROOT
HETATM    1  C   UNL     1      -5.939  10.654  66.053  1.00  0.00    -0.128 C  
HETATM    2  C   UNL     1      -6.588  10.029  67.282  1.00  0.00    -0.069 C  
ENDROOT
BRANCH   2   3
HETATM    3  C   UNL     1      -7.891   9.275  66.986  1.00  0.00    -0.098 C  
BRANCH   3   4
HETATM    4  C   UNL     1      -8.994  10.180  66.530  1.00  0.00    -0.143 A  
HETATM    5  N   UNL     1      -9.171  10.418  65.244  1.00  0.00    -0.184 NA 
HETATM    6  C   UNL     1     -10.137  11.377  65.130  1.00  0.00    -0.271 A  
HETATM    7  C   UNL     1     -10.519  11.914  63.766  1.00  0.00    -0.423 C  
HETATM    8  C   UNL     1     -10.565  11.767  66.396  1.00  0.00    -0.255 A  
HETATM    9  N   UNL     1      -9.918  10.885  67.283  1.00  0.00    -0.182 NA 
HETATM   10  O   UNL     1     -10.258  13.333  63.762  1.00  0.00    -0.681 OA 
HETATM   11  C   UNL     1     -12.012  11.725  63.470  1.00  0.00    -0.484 C  
HETATM   12  C   UNL     1      -9.717  11.280  62.618  1.00  0.00    -0.187 C  
HETATM   13  C   UNL     1     -11.486  12.804  66.799  1.00  0.00    -0.343 C  
HETATM   14  O   UNL     1     -11.523  13.867  65.964  1.00  0.00    -0.325 OA 
HETATM   15  O   UNL     1     -12.155  12.793  67.829  1.00  0.00    -0.314 OA 
HETATM   16  H   UNL     1     -10.498  13.670  62.906  1.00  0.00     0.000 HD 
BRANCH   9  17
HETATM   17  C   UNL     1     -10.252  10.876  68.729  1.00  0.00    -0.196 C  
BRANCH  17  18
HETATM   18  C   UNL     1      -9.938   9.638  69.525  1.00  0.00    -0.223 A  
HETATM   19  C   UNL     1      -8.844   9.609  70.394  1.00  0.00    -0.227 A  
HETATM   20  C   UNL     1      -8.390   8.387  70.909  1.00  0.00    -0.149 A  
HETATM   21  C   UNL     1      -8.971   7.155  70.533  1.00  0.00    -0.155 A  
HETATM   22  C   UNL     1     -10.191   7.239  69.842  1.00  0.00    -0.210 A  
HETATM   23  C   UNL     1     -10.683   8.465  69.364  1.00  0.00    -0.162 A  
BRANCH  21  24
HETATM   24  C   UNL     1      -8.186   5.878  70.665  1.00  0.00    -0.120 A  
HETATM   25  C   UNL     1      -8.447   4.794  71.547  1.00  0.00    -0.121 A  
HETATM   26  C   UNL     1      -7.700   3.592  71.408  1.00  0.00    -0.056 A  
HETATM   27  C   UNL     1      -7.144   5.678  69.714  1.00  0.00    -0.064 A  
HETATM   28  C   UNL     1      -6.401   4.501  69.617  1.00  0.00    -0.028 A  
HETATM   29  C   UNL     1      -6.692   3.446  70.457  1.00  0.00    -0.033 A  
BRANCH  25  30
HETATM   30  C   UNL     1      -9.426   4.838  72.636  1.00  0.00    -0.134 A  
HETATM   31  N   UNL     1     -10.449   4.971  74.537  1.00  0.00    -0.320 NA 
HETATM   32  H   UNL     1      -8.331   5.265  74.369  1.00  0.00     0.000 HD 
HETATM   33  N   UNL     1     -11.400   4.684  73.662  1.00  0.00    -0.271 NA 
HETATM   34  N   UNL     1      -9.224   5.063  73.920  1.00  0.00    -0.118 NA 
HETATM   35  N   UNL     1     -10.770   4.601  72.485  1.00  0.00    -0.182 NA 
ENDBRANCH  25  30
ENDBRANCH  21  24
ENDBRANCH  17  18
ENDBRANCH   9  17
ENDBRANCH   3   4
ENDBRANCH   2   3
TORSDOF 6
ENDMDL
MODEL      183
REMARK 921   NORMALIZED FREE ENERGY PREDICTED BY IDOCK:   -5.31 KCAL/MOL
REMARK 922        TOTAL FREE ENERGY PREDICTED BY IDOCK:   -8.33 KCAL/MOL
REMARK 923 INTER-LIGAND FREE ENERGY PREDICTED BY IDOCK:   -7.59 KCAL/MOL
REMARK 924 INTRA-LIGAND FREE ENERGY PREDICTED BY IDOCK:   -0.74 KCAL/MOL
REMARK 927      BINDING AFFINITY PREDICTED BY RF-SCORE:    0.00 PKD
ROOT
HETATM    1  C   UNL     1      -7.476   7.333  64.558  1.00  0.00    -0.092 C  
HETATM    2  C   UNL     1      -8.676   8.008  65.211  1.00  0.00    -0.062 C  
ENDROOT
BRANCH   2   3
HETATM    3  C   UNL     1      -9.287   7.212  66.371  1.00  0.00    -0.190 C  
BRANCH   3   4
HETATM    4  C   UNL     1      -8.578   7.444  67.670  1.00  0.00    -0.119 A  
HETATM    5  N   UNL     1      -8.279   6.426  68.455  1.00  0.00    -0.113 NA 
HETATM    6  C   UNL     1      -7.778   6.936  69.620  1.00  0.00    -0.110 A  
HETATM    7  C   UNL     1      -7.401   6.009  70.757  1.00  0.00    -0.085 C  
HETATM    8  C   UNL     1      -7.784   8.327  69.566  1.00  0.00    -0.101 A  
HETATM    9  N   UNL     1      -8.172   8.635  68.248  1.00  0.00    -0.121 NA 
HETATM   10  O   UNL     1      -8.206   6.363  71.901  1.00  0.00    -0.109 OA 
HETATM   11  C   UNL     1      -5.932   6.168  71.167  1.00  0.00    -0.030 C  
HETATM   12  C   UNL     1      -7.654   4.526  70.440  1.00  0.00    -0.053 C  
HETATM   13  C   UNL     1      -7.450   9.308  70.572  1.00  0.00    -0.130 C  
HETATM   14  O   UNL     1      -7.692   8.906  71.840  1.00  0.00    -0.310 OA 
HETATM   15  O   UNL     1      -7.035  10.441  70.342  1.00  0.00    -0.253 OA 
HETATM   16  H   UNL     1      -7.970   5.782  72.614  1.00  0.00     0.000 HD 
BRANCH   9  17
HETATM   17  C   UNL     1      -8.135  10.032  67.748  1.00  0.00    -0.109 C  
BRANCH  17  18
HETATM   18  C   UNL     1      -9.307  10.926  68.043  1.00  0.00    -0.160 A  
HETATM   19  C   UNL     1      -9.112  12.269  68.375  1.00  0.00    -0.146 A  
HETATM   20  C   UNL     1     -10.164  13.018  68.921  1.00  0.00    -0.015 A  
HETATM   21  C   UNL     1     -11.422  12.440  69.205  1.00  0.00    -0.358 A  
HETATM   22  C   UNL     1     -11.648  11.165  68.661  1.00  0.00    -0.383 A  
HETATM   23  C   UNL     1     -10.613  10.426  68.066  1.00  0.00    -0.259 A  
BRANCH  21  24
HETATM   24  C   UNL     1     -12.330  13.073  70.226  1.00  0.00    -0.311 A  
HETATM   25  C   UNL     1     -12.896  12.456  71.374  1.00  0.00    -0.360 A  
HETATM   26  C   UNL     1     -13.589  13.258  72.322  1.00  0.00    -0.703 A  
HETATM   27  C   UNL     1     -12.540  14.477  70.098  1.00  0.00    -0.339 A  
HETATM   28  C   UNL     1     -13.252  15.239  71.025  1.00  0.00    -0.546 A  
HETATM   29  C   UNL     1     -13.764  14.630  72.151  1.00  0.00    -0.544 A  
BRANCH  25  30
HETATM   30  C   UNL     1     -12.851  11.016  71.640  1.00  0.00    -0.435 A  
HETATM   31  N   UNL     1     -12.289   8.941  71.885  1.00  0.00    -0.349 NA 
HETATM   32  H   UNL     1     -10.858  10.444  71.344  1.00  0.00     0.000 HD 
HETATM   33  N   UNL     1     -13.590   8.969  72.127  1.00  0.00    -0.438 NA 
HETATM   34  N   UNL     1     -11.819  10.195  71.577  1.00  0.00    -0.333 NA 
HETATM   35  N   UNL     1     -13.940  10.251  71.975  1.00  0.00     0.082 NA 
ENDBRANCH  25  30
ENDBRANCH  21  24
ENDBRANCH  17  18
ENDBRANCH   9  17
ENDBRANCH   3   4
ENDBRANCH   2   3
TORSDOF 6
ENDMDL
MODEL      184
REMARK 921   NORMALIZED FREE ENERGY PREDICTED BY IDOCK:   -5.29 KCAL/MOL
REMARK 922        TOTAL FREE ENERGY PREDICTED BY IDOCK:   -8.30 KCAL/MOL
REMARK 923 INTER-LIGAND FREE ENERGY PREDICTED BY IDOCK:   -6.75 KCAL/MOL
REMARK 924 INTRA-LIGAND FREE ENERGY PREDICTED BY IDOCK:   -1.55 KCAL/MOL
REMARK 927      BINDING AFFINITY PREDICTED BY RF-SCORE:    0.00 PKD
ROOT
HETATM    1  C   UNL     1      -5.962  13.709  70.064  1.00  0.00    -0.146 C  
HETATM    2  C   UNL     1      -6.290  12.289  69.617  1.00  0.00    -0.111 C  
ENDROOT
BRANCH   2   3
HETATM    3  C   UNL     1      -6.651  12.170  68.130  1.00  0.00    -0.061 C  
BRANCH   3   4
HETATM    4  C   UNL     1      -8.073  12.548  67.846  1.00  0.00    -0.163 A  
HETATM    5  N   UNL     1      -8.345  13.643  67.162  1.00  0.00    -0.171 NA 
HETATM    6  C   UNL     1      -9.701  13.815  67.180  1.00  0.00    -0.244 A  
HETATM    7  C   UNL     1     -10.322  15.033  66.529  1.00  0.00    -0.284 C  
HETATM    8  C   UNL     1     -10.294  12.797  67.923  1.00  0.00    -0.226 A  
HETATM    9  N   UNL     1      -9.243  11.912  68.226  1.00  0.00    -0.186 NA 
HETATM   10  O   UNL     1     -11.035  15.764  67.549  1.00  0.00    -0.318 OA 
HETATM   11  C   UNL     1     -11.341  14.652  65.447  1.00  0.00    -0.344 C  
HETATM   12  C   UNL     1      -9.287  15.981  65.902  1.00  0.00    -0.335 C  
HETATM   13  C   UNL     1     -11.671  12.597  68.309  1.00  0.00    -0.342 C  
HETATM   14  O   UNL     1     -12.373  13.741  68.473  1.00  0.00    -0.269 OA 
HETATM   15  O   UNL     1     -12.189  11.507  68.538  1.00  0.00    -0.524 OA 
HETATM   16  H   UNL     1     -11.425  16.528  67.141  1.00  0.00     0.000 HD 
BRANCH   9  17
HETATM   17  C   UNL     1      -9.509  10.603  68.872  1.00  0.00    -0.192 C  
BRANCH  17  18
HETATM   18  C   UNL     1      -9.255   9.351  68.078  1.00  0.00    -0.137 A  
HETATM   19  C   UNL     1     -10.307   8.679  67.450  1.00  0.00    -0.353 A  
HETATM   20  C   UNL     1     -10.119   7.380  66.960  1.00  0.00    -0.328 A  
HETATM   21  C   UNL     1      -8.898   6.688  67.128  1.00  0.00    -0.115 A  
HETATM   22  C   UNL     1      -7.810   7.463  67.561  1.00  0.00    -0.112 A  
HETATM   23  C   UNL     1      -7.978   8.784  68.007  1.00  0.00    -0.106 A  
BRANCH  21  24
HETATM   24  C   UNL     1      -8.869   5.184  67.076  1.00  0.00    -0.109 A  
HETATM   25  C   UNL     1      -9.107   4.281  68.148  1.00  0.00    -0.168 A  
HETATM   26  C   UNL     1      -9.211   2.890  67.873  1.00  0.00    -0.253 A  
HETATM   27  C   UNL     1      -8.716   4.601  65.785  1.00  0.00    -0.124 A  
HETATM   28  C   UNL     1      -8.789   3.229  65.543  1.00  0.00    -0.136 A  
HETATM   29  C   UNL     1      -9.056   2.371  66.589  1.00  0.00    -0.106 A  
BRANCH  25  30
HETATM   30  C   UNL     1      -9.217   4.684  69.553  1.00  0.00    -0.122 A  
HETATM   31  N   UNL     1      -8.868   5.197  71.625  1.00  0.00    -0.133 NA 
HETATM   32  H   UNL     1      -7.257   4.727  70.289  1.00  0.00     0.000 HD 
HETATM   33  N   UNL     1     -10.183   5.249  71.482  1.00  0.00    -0.205 NA 
HETATM   34  N   UNL     1      -8.258   4.844  70.445  1.00  0.00    -0.086 NA 
HETATM   35  N   UNL     1     -10.402   4.930  70.201  1.00  0.00    -0.244 NA 
ENDBRANCH  25  30
ENDBRANCH  21  24
ENDBRANCH  17  18
ENDBRANCH   9  17
ENDBRANCH   3   4
ENDBRANCH   2   3
TORSDOF 6
ENDMDL
MODEL      185
REMARK 921   NORMALIZED FREE ENERGY PREDICTED BY IDOCK:   -5.27 KCAL/MOL
REMARK 922        TOTAL FREE ENERGY PREDICTED BY IDOCK:   -8.27 KCAL/MOL
REMARK 923 INTER-LIGAND FREE ENERGY PREDICTED BY IDOCK:   -7.12 KCAL/MOL
REMARK 924 INTRA-LIGAND FREE ENERGY PREDICTED BY IDOCK:   -1.15 KCAL/MOL
REMARK 927      BINDING AFFINITY PREDICTED BY RF-SCORE:    0.00 PKD
ROOT
HETATM    1  C   UNL     1      -8.949   5.674  71.519  1.00  0.00    -0.148 C  
HETATM    2  C   UNL     1      -9.135   5.714  70.007  1.00  0.00    -0.157 C  
ENDROOT
BRANCH   2   3
HETATM    3  C   UNL     1      -7.894   6.184  69.237  1.00  0.00    -0.104 C  
BRANCH   3   4
HETATM    4  C   UNL     1      -8.110   6.220  67.755  1.00  0.00    -0.114 A  
HETATM    5  N   UNL     1      -8.231   5.096  67.074  1.00  0.00    -0.108 NA 
HETATM    6  C   UNL     1      -8.269   5.420  65.747  1.00  0.00    -0.121 A  
HETATM    7  C   UNL     1      -8.338   4.329  64.699  1.00  0.00    -0.106 C  
HETATM    8  C   UNL     1      -8.146   6.799  65.595  1.00  0.00    -0.122 A  
HETATM    9  N   UNL     1      -8.187   7.311  66.906  1.00  0.00    -0.115 NA 
HETATM   10  O   UNL     1      -7.171   4.449  63.858  1.00  0.00    -0.052 OA 
HETATM   11  C   UNL     1      -9.567   4.475  63.794  1.00  0.00     0.038 C  
HETATM   12  C   UNL     1      -8.347   2.912  65.297  1.00  0.00    -0.093 C  
HETATM   13  C   UNL     1      -8.035   7.607  64.403  1.00  0.00    -0.123 C  
HETATM   14  O   UNL     1      -7.430   6.984  63.367  1.00  0.00    -0.078 OA 
HETATM   15  O   UNL     1      -8.392   8.778  64.308  1.00  0.00    -0.165 OA 
HETATM   16  H   UNL     1      -7.214   3.765  63.201  1.00  0.00     0.000 HD 
BRANCH   9  17
HETATM   17  C   UNL     1      -8.252   8.773  67.153  1.00  0.00    -0.104 C  
BRANCH  17  18
HETATM   18  C   UNL     1      -9.422   9.313  67.929  1.00  0.00    -0.154 A  
HETATM   19  C   UNL     1     -10.472   9.963  67.274  1.00  0.00    -0.319 A  
HETATM   20  C   UNL     1     -11.405  10.707  68.008  1.00  0.00    -0.350 A  
HETATM   21  C   UNL     1     -11.292  10.873  69.407  1.00  0.00    -0.347 A  
HETATM   22  C   UNL     1     -10.366  10.036  70.051  1.00  0.00    -0.323 A  
HETATM   23  C   UNL     1      -9.459   9.247  69.325  1.00  0.00    -0.160 A  
BRANCH  21  24
HETATM   24  C   UNL     1     -11.954  12.043  70.084  1.00  0.00    -0.401 A  
HETATM   25  C   UNL     1     -12.092  13.364  69.579  1.00  0.00    -0.334 A  
HETATM   26  C   UNL     1     -12.904  14.296  70.284  1.00  0.00    -0.207 A  
HETATM   27  C   UNL     1     -12.629  11.764  71.308  1.00  0.00    -0.401 A  
HETATM   28  C   UNL     1     -13.394  12.703  72.000  1.00  0.00    -0.555 A  
HETATM   29  C   UNL     1     -13.546  13.970  71.477  1.00  0.00    -0.382 A  
BRANCH  25  30
HETATM   30  C   UNL     1     -11.415  13.860  68.378  1.00  0.00    -0.311 A  
HETATM   31  N   UNL     1     -10.876  14.505  66.385  1.00  0.00    -0.312 NA 
HETATM   32  H   UNL     1     -12.881  13.928  66.884  1.00  0.00     0.000 HD 
HETATM   33  N   UNL     1      -9.748  14.563  67.074  1.00  0.00    -0.238 NA 
HETATM   34  N   UNL     1     -11.913  14.067  67.173  1.00  0.00    -0.422 NA 
HETATM   35  N   UNL     1     -10.078  14.163  68.307  1.00  0.00    -0.234 NA 
ENDBRANCH  25  30
ENDBRANCH  21  24
ENDBRANCH  17  18
ENDBRANCH   9  17
ENDBRANCH   3   4
ENDBRANCH   2   3
TORSDOF 6
ENDMDL
MODEL      186
REMARK 921   NORMALIZED FREE ENERGY PREDICTED BY IDOCK:   -5.26 KCAL/MOL
REMARK 922        TOTAL FREE ENERGY PREDICTED BY IDOCK:   -8.25 KCAL/MOL
REMARK 923 INTER-LIGAND FREE ENERGY PREDICTED BY IDOCK:   -6.76 KCAL/MOL
REMARK 924 INTRA-LIGAND FREE ENERGY PREDICTED BY IDOCK:   -1.50 KCAL/MOL
REMARK 927      BINDING AFFINITY PREDICTED BY RF-SCORE:    0.00 PKD
ROOT
HETATM    1  C   UNL     1     -12.161  13.144  63.441  1.00  0.00    -0.558 C  
HETATM    2  C   UNL     1     -11.695  11.923  64.225  1.00  0.00    -0.388 C  
ENDROOT
BRANCH   2   3
HETATM    3  C   UNL     1     -11.906  12.037  65.740  1.00  0.00    -0.236 C  
BRANCH   3   4
HETATM    4  C   UNL     1     -10.784  12.750  66.430  1.00  0.00    -0.262 A  
HETATM    5  N   UNL     1     -10.970  13.959  66.927  1.00  0.00    -0.293 NA 
HETATM    6  C   UNL     1      -9.759  14.419  67.360  1.00  0.00    -0.220 A  
HETATM    7  C   UNL     1      -9.634  15.818  67.926  1.00  0.00    -0.214 C  
HETATM    8  C   UNL     1      -8.775  13.467  67.104  1.00  0.00    -0.215 A  
HETATM    9  N   UNL     1      -9.476  12.341  66.634  1.00  0.00    -0.221 NA 
HETATM   10  O   UNL     1      -8.701  16.547  67.101  1.00  0.00    -0.186 OA 
HETATM   11  C   UNL     1      -9.074  15.815  69.353  1.00  0.00    -0.254 C  
HETATM   12  C   UNL     1     -10.964  16.591  67.932  1.00  0.00    -0.288 C  
HETATM   13  C   UNL     1      -7.343  13.524  67.286  1.00  0.00    -0.012 C  
HETATM   14  O   UNL     1      -6.817  14.762  67.153  1.00  0.00    -0.242 OA 
HETATM   15  O   UNL     1      -6.618  12.553  67.486  1.00  0.00    -0.121 OA 
HETATM   16  H   UNL     1      -8.622  17.424  67.456  1.00  0.00     0.000 HD 
BRANCH   9  17
HETATM   17  C   UNL     1      -8.783  11.049  66.408  1.00  0.00    -0.173 C  
BRANCH  17  18
HETATM   18  C   UNL     1      -9.276   9.836  67.149  1.00  0.00    -0.159 A  
HETATM   19  C   UNL     1     -10.044   9.973  68.308  1.00  0.00    -0.182 A  
HETATM   20  C   UNL     1     -10.258   8.868  69.144  1.00  0.00    -0.214 A  
HETATM   21  C   UNL     1      -9.671   7.610  68.882  1.00  0.00    -0.156 A  
HETATM   22  C   UNL     1      -9.097   7.454  67.610  1.00  0.00    -0.126 A  
HETATM   23  C   UNL     1      -8.923   8.545  66.743  1.00  0.00    -0.173 A  
BRANCH  21  24
HETATM   24  C   UNL     1      -9.478   6.621  70.000  1.00  0.00    -0.161 A  
HETATM   25  C   UNL     1      -8.604   6.741  71.115  1.00  0.00    -0.132 A  
HETATM   26  C   UNL     1      -8.683   5.786  72.165  1.00  0.00    -0.133 A  
HETATM   27  C   UNL     1     -10.360   5.501  70.011  1.00  0.00    -0.358 A  
HETATM   28  C   UNL     1     -10.399   4.557  71.037  1.00  0.00    -0.082 A  
HETATM   29  C   UNL     1      -9.569   4.710  72.128  1.00  0.00    -0.203 A  
BRANCH  25  30
HETATM   30  C   UNL     1      -7.578   7.779  71.246  1.00  0.00    -0.080 A  
HETATM   31  N   UNL     1      -6.453   9.582  71.648  1.00  0.00    -0.303 NA 
HETATM   32  H   UNL     1      -8.498   9.364  72.259  1.00  0.00     0.000 HD 
HETATM   33  N   UNL     1      -5.608   8.796  71.000  1.00  0.00    -0.033 NA 
HETATM   34  N   UNL     1      -7.675   8.972  71.803  1.00  0.00    -0.343 NA 
HETATM   35  N   UNL     1      -6.302   7.680  70.749  1.00  0.00    -0.038 NA 
ENDBRANCH  25  30
ENDBRANCH  21  24
ENDBRANCH  17  18
ENDBRANCH   9  17
ENDBRANCH   3   4
ENDBRANCH   2   3
TORSDOF 6
ENDMDL
MODEL      187
REMARK 921   NORMALIZED FREE ENERGY PREDICTED BY IDOCK:   -5.23 KCAL/MOL
REMARK 922        TOTAL FREE ENERGY PREDICTED BY IDOCK:   -8.22 KCAL/MOL
REMARK 923 INTER-LIGAND FREE ENERGY PREDICTED BY IDOCK:   -6.59 KCAL/MOL
REMARK 924 INTRA-LIGAND FREE ENERGY PREDICTED BY IDOCK:   -1.63 KCAL/MOL
REMARK 927      BINDING AFFINITY PREDICTED BY RF-SCORE:    0.00 PKD
ROOT
HETATM    1  C   UNL     1     -10.691   7.771  72.980  1.00  0.00    -0.446 C  
HETATM    2  C   UNL     1     -10.865   8.287  71.556  1.00  0.00    -0.308 C  
ENDROOT
BRANCH   2   3
HETATM    3  C   UNL     1     -11.767   7.408  70.680  1.00  0.00    -0.270 C  
BRANCH   3   4
HETATM    4  C   UNL     1     -11.001   6.378  69.908  1.00  0.00    -0.348 A  
HETATM    5  N   UNL     1     -10.476   5.338  70.528  1.00  0.00    -0.262 NA 
HETATM    6  C   UNL     1      -9.721   4.653  69.618  1.00  0.00    -0.213 A  
HETATM    7  C   UNL     1      -8.931   3.434  70.048  1.00  0.00    -0.104 C  
HETATM    8  C   UNL     1      -9.761   5.303  68.387  1.00  0.00    -0.141 A  
HETATM    9  N   UNL     1     -10.704   6.335  68.556  1.00  0.00    -0.261 NA 
HETATM   10  O   UNL     1      -7.536   3.698  69.787  1.00  0.00    -0.045 OA 
HETATM   11  C   UNL     1      -9.315   2.185  69.247  1.00  0.00    -0.176 C  
HETATM   12  C   UNL     1      -9.080   3.111  71.544  1.00  0.00    -0.168 C  
HETATM   13  C   UNL     1      -9.059   5.029  67.156  1.00  0.00    -0.114 C  
HETATM   14  O   UNL     1      -7.842   4.463  67.326  1.00  0.00    -0.094 OA 
HETATM   15  O   UNL     1      -9.464   5.317  66.033  1.00  0.00    -0.155 OA 
HETATM   16  H   UNL     1      -7.040   2.934  70.057  1.00  0.00     0.000 HD 
BRANCH   9  17
HETATM   17  C   UNL     1     -11.152   7.155  67.404  1.00  0.00    -0.138 C  
BRANCH  17  18
HETATM   18  C   UNL     1     -10.652   8.570  67.298  1.00  0.00    -0.315 A  
HETATM   19  C   UNL     1      -9.518   8.869  66.537  1.00  0.00    -0.272 A  
HETATM   20  C   UNL     1      -8.894  10.117  66.667  1.00  0.00    -0.145 A  
HETATM   21  C   UNL     1      -9.342  11.082  67.597  1.00  0.00    -0.162 A  
HETATM   22  C   UNL     1     -10.597  10.837  68.177  1.00  0.00    -0.238 A  
HETATM   23  C   UNL     1     -11.257   9.609  68.012  1.00  0.00     0.015 A  
BRANCH  21  24
HETATM   24  C   UNL     1      -8.403  12.152  68.086  1.00  0.00    -0.170 A  
HETATM   25  C   UNL     1      -8.567  13.559  67.973  1.00  0.00    -0.177 A  
HETATM   26  C   UNL     1      -7.661  14.421  68.651  1.00  0.00    -0.132 A  
HETATM   27  C   UNL     1      -7.292  11.709  68.862  1.00  0.00    -0.107 A  
HETATM   28  C   UNL     1      -6.396  12.572  69.492  1.00  0.00    -0.112 A  
HETATM   29  C   UNL     1      -6.591  13.935  69.401  1.00  0.00    -0.114 A  
BRANCH  25  30
HETATM   30  C   UNL     1      -9.602  14.203  67.160  1.00  0.00    -0.244 A  
HETATM   31  N   UNL     1     -11.434  15.028  66.360  1.00  0.00    -0.281 NA 
HETATM   32  H   UNL     1     -11.336  14.196  68.334  1.00  0.00     0.000 HD 
HETATM   33  N   UNL     1     -10.547  15.173  65.387  1.00  0.00    -0.359 NA 
HETATM   34  N   UNL     1     -10.868  14.426  67.457  1.00  0.00    -0.278 NA 
HETATM   35  N   UNL     1      -9.413  14.662  65.880  1.00  0.00    -0.254 NA 
ENDBRANCH  25  30
ENDBRANCH  21  24
ENDBRANCH  17  18
ENDBRANCH   9  17
ENDBRANCH   3   4
ENDBRANCH   2   3
TORSDOF 6
ENDMDL
MODEL      188
REMARK 921   NORMALIZED FREE ENERGY PREDICTED BY IDOCK:   -5.23 KCAL/MOL
REMARK 922        TOTAL FREE ENERGY PREDICTED BY IDOCK:   -8.22 KCAL/MOL
REMARK 923 INTER-LIGAND FREE ENERGY PREDICTED BY IDOCK:   -6.79 KCAL/MOL
REMARK 924 INTRA-LIGAND FREE ENERGY PREDICTED BY IDOCK:   -1.43 KCAL/MOL
REMARK 927      BINDING AFFINITY PREDICTED BY RF-SCORE:    0.00 PKD
ROOT
HETATM    1  C   UNL     1     -12.035  13.523  69.315  1.00  0.00    -0.378 C  
HETATM    2  C   UNL     1     -11.421  12.236  69.852  1.00  0.00    -0.190 C  
ENDROOT
BRANCH   2   3
HETATM    3  C   UNL     1     -12.210  10.970  69.493  1.00  0.00    -0.352 C  
BRANCH   3   4
HETATM    4  C   UNL     1     -11.389   9.723  69.605  1.00  0.00    -0.122 A  
HETATM    5  N   UNL     1     -11.377   9.033  70.730  1.00  0.00    -0.269 NA 
HETATM    6  C   UNL     1     -10.444   8.043  70.598  1.00  0.00    -0.210 A  
HETATM    7  C   UNL     1     -10.149   7.116  71.759  1.00  0.00    -0.183 C  
HETATM    8  C   UNL     1      -9.836   8.133  69.349  1.00  0.00    -0.182 A  
HETATM    9  N   UNL     1     -10.556   9.133  68.668  1.00  0.00    -0.203 NA 
HETATM   10  O   UNL     1      -8.755   7.264  72.099  1.00  0.00    -0.119 OA 
HETATM   11  C   UNL     1     -10.374   5.644  71.392  1.00  0.00    -0.287 C  
HETATM   12  C   UNL     1     -10.980   7.431  73.014  1.00  0.00    -0.422 C  
HETATM   13  C   UNL     1      -8.737   7.385  68.783  1.00  0.00    -0.128 C  
HETATM   14  O   UNL     1      -7.836   6.952  69.692  1.00  0.00    -0.113 OA 
HETATM   15  O   UNL     1      -8.564   7.185  67.583  1.00  0.00    -0.122 OA 
HETATM   16  H   UNL     1      -8.569   6.683  72.827  1.00  0.00     0.000 HD 
BRANCH   9  17
HETATM   17  C   UNL     1     -10.311   9.406  67.230  1.00  0.00    -0.260 C  
BRANCH  17  18
HETATM   18  C   UNL     1      -9.859  10.784  66.833  1.00  0.00    -0.224 A  
HETATM   19  C   UNL     1      -8.729  11.359  67.419  1.00  0.00    -0.145 A  
HETATM   20  C   UNL     1      -8.477  12.729  67.263  1.00  0.00    -0.194 A  
HETATM   21  C   UNL     1      -9.368  13.578  66.569  1.00  0.00    -0.227 A  
HETATM   22  C   UNL     1     -10.365  12.936  65.816  1.00  0.00    -0.297 A  
HETATM   23  C   UNL     1     -10.594  11.554  65.925  1.00  0.00    -0.318 A  
BRANCH  21  24
HETATM   24  C   UNL     1      -9.368  15.058  66.843  1.00  0.00    -0.258 A  
HETATM   25  C   UNL     1      -8.441  15.787  67.636  1.00  0.00    -0.171 A  
HETATM   26  C   UNL     1      -8.495  17.208  67.637  1.00  0.00    -0.204 A  
HETATM   27  C   UNL     1     -10.325  15.832  66.124  1.00  0.00    -0.333 A  
HETATM   28  C   UNL     1     -10.382  17.225  66.166  1.00  0.00    -0.320 A  
HETATM   29  C   UNL     1      -9.451  17.918  66.912  1.00  0.00    -0.279 A  
BRANCH  25  30
HETATM   30  C   UNL     1      -7.433  15.167  68.500  1.00  0.00    -0.121 A  
HETATM   31  N   UNL     1      -5.616  14.459  69.436  1.00  0.00    -0.089 NA 
HETATM   32  H   UNL     1      -5.578  15.750  67.724  1.00  0.00     0.000 HD 
HETATM   33  N   UNL     1      -6.593  13.914  70.143  1.00  0.00    -0.019 NA 
HETATM   34  N   UNL     1      -6.118  15.230  68.415  1.00  0.00    -0.098 NA 
HETATM   35  N   UNL     1      -7.719  14.349  69.566  1.00  0.00     0.049 NA 
ENDBRANCH  25  30
ENDBRANCH  21  24
ENDBRANCH  17  18
ENDBRANCH   9  17
ENDBRANCH   3   4
ENDBRANCH   2   3
TORSDOF 6
ENDMDL
MODEL      189
REMARK 921   NORMALIZED FREE ENERGY PREDICTED BY IDOCK:   -5.21 KCAL/MOL
REMARK 922        TOTAL FREE ENERGY PREDICTED BY IDOCK:   -8.19 KCAL/MOL
REMARK 923 INTER-LIGAND FREE ENERGY PREDICTED BY IDOCK:   -7.16 KCAL/MOL
REMARK 924 INTRA-LIGAND FREE ENERGY PREDICTED BY IDOCK:   -1.03 KCAL/MOL
REMARK 927      BINDING AFFINITY PREDICTED BY RF-SCORE:    0.00 PKD
ROOT
HETATM    1  C   UNL     1     -10.605   7.469  67.362  1.00  0.00    -0.364 C  
HETATM    2  C   UNL     1     -10.846   6.188  68.153  1.00  0.00    -0.389 C  
ENDROOT
BRANCH   2   3
HETATM    3  C   UNL     1     -11.281   6.424  69.605  1.00  0.00    -0.483 C  
BRANCH   3   4
HETATM    4  C   UNL     1     -10.122   6.537  70.547  1.00  0.00    -0.185 A  
HETATM    5  N   UNL     1      -9.286   5.526  70.696  1.00  0.00    -0.155 NA 
HETATM    6  C   UNL     1      -8.427   5.846  71.709  1.00  0.00    -0.131 A  
HETATM    7  C   UNL     1      -7.382   4.849  72.165  1.00  0.00    -0.082 C  
HETATM    8  C   UNL     1      -8.753   7.098  72.225  1.00  0.00    -0.120 A  
HETATM    9  N   UNL     1      -9.758   7.589  71.371  1.00  0.00    -0.167 NA 
HETATM   10  O   UNL     1      -7.625   4.561  73.558  1.00  0.00    -0.080 OA 
HETATM   11  C   UNL     1      -5.960   5.414  72.059  1.00  0.00    -0.022 C  
HETATM   12  C   UNL     1      -7.431   3.522  71.391  1.00  0.00    -0.044 C  
HETATM   13  C   UNL     1      -8.210   7.821  73.351  1.00  0.00    -0.171 C  
HETATM   14  O   UNL     1      -7.749   7.030  74.347  1.00  0.00    -0.111 OA 
HETATM   15  O   UNL     1      -8.198   9.044  73.466  1.00  0.00    -0.130 OA 
HETATM   16  H   UNL     1      -6.970   3.935  73.844  1.00  0.00     0.000 HD 
BRANCH   9  17
HETATM   17  C   UNL     1     -10.253   8.983  71.496  1.00  0.00    -0.344 C  
BRANCH  17  18
HETATM   18  C   UNL     1     -10.450   9.785  70.238  1.00  0.00    -0.345 A  
HETATM   19  C   UNL     1      -9.418   9.908  69.304  1.00  0.00    -0.218 A  
HETATM   20  C   UNL     1      -9.500  10.872  68.290  1.00  0.00    -0.168 A  
HETATM   21  C   UNL     1     -10.581  11.779  68.208  1.00  0.00    -0.236 A  
HETATM   22  C   UNL     1     -11.690  11.486  69.019  1.00  0.00    -0.400 A  
HETATM   23  C   UNL     1     -11.637  10.487  70.005  1.00  0.00    -0.392 A  
BRANCH  21  24
HETATM   24  C   UNL     1     -10.416  13.086  67.479  1.00  0.00    -0.229 A  
HETATM   25  C   UNL     1      -9.201  13.767  67.197  1.00  0.00    -0.245 A  
HETATM   26  C   UNL     1      -9.225  14.904  66.343  1.00  0.00    -0.317 A  
HETATM   27  C   UNL     1     -11.595  13.635  66.895  1.00  0.00    -0.397 A  
HETATM   28  C   UNL     1     -11.599  14.771  66.086  1.00  0.00    -0.292 A  
HETATM   29  C   UNL     1     -10.407  15.399  65.794  1.00  0.00    -0.381 A  
BRANCH  25  30
HETATM   30  C   UNL     1      -7.902  13.398  67.765  1.00  0.00    -0.158 A  
HETATM   31  N   UNL     1      -5.976  12.519  68.209  1.00  0.00    -0.057 NA 
HETATM   32  H   UNL     1      -7.089  11.980  66.457  1.00  0.00     0.000 HD 
HETATM   33  N   UNL     1      -6.206  13.351  69.213  1.00  0.00    -0.098 NA 
HETATM   34  N   UNL     1      -7.016  12.533  67.311  1.00  0.00    -0.141 NA 
HETATM   35  N   UNL     1      -7.397  13.895  68.942  1.00  0.00    -0.107 NA 
ENDBRANCH  25  30
ENDBRANCH  21  24
ENDBRANCH  17  18
ENDBRANCH   9  17
ENDBRANCH   3   4
ENDBRANCH   2   3
TORSDOF 6
ENDMDL
MODEL      190
REMARK 921   NORMALIZED FREE ENERGY PREDICTED BY IDOCK:   -5.20 KCAL/MOL
REMARK 922        TOTAL FREE ENERGY PREDICTED BY IDOCK:   -8.18 KCAL/MOL
REMARK 923 INTER-LIGAND FREE ENERGY PREDICTED BY IDOCK:   -6.34 KCAL/MOL
REMARK 924 INTRA-LIGAND FREE ENERGY PREDICTED BY IDOCK:   -1.83 KCAL/MOL
REMARK 927      BINDING AFFINITY PREDICTED BY RF-SCORE:    0.00 PKD
ROOT
HETATM    1  C   UNL     1     -10.629   8.191  71.983  1.00  0.00    -0.334 C  
HETATM    2  C   UNL     1     -11.599   7.025  71.830  1.00  0.00    -0.315 C  
ENDROOT
BRANCH   2   3
HETATM    3  C   UNL     1     -11.863   6.620  70.374  1.00  0.00    -0.407 C  
BRANCH   3   4
HETATM    4  C   UNL     1     -10.606   6.304  69.622  1.00  0.00    -0.264 A  
HETATM    5  N   UNL     1      -9.886   5.246  69.946  1.00  0.00    -0.191 NA 
HETATM    6  C   UNL     1      -8.738   5.286  69.206  1.00  0.00    -0.100 A  
HETATM    7  C   UNL     1      -7.668   4.232  69.403  1.00  0.00    -0.054 C  
HETATM    8  C   UNL     1      -8.733   6.425  68.404  1.00  0.00    -0.113 A  
HETATM    9  N   UNL     1     -10.008   6.995  68.581  1.00  0.00    -0.152 NA 
HETATM   10  O   UNL     1      -6.459   4.902  69.816  1.00  0.00    -0.032 OA 
HETATM   11  C   UNL     1      -7.352   3.482  68.103  1.00  0.00    -0.051 C  
HETATM   12  C   UNL     1      -8.029   3.196  70.480  1.00  0.00    -0.049 C  
HETATM   13  C   UNL     1      -7.713   6.956  67.531  1.00  0.00    -0.111 C  
HETATM   14  O   UNL     1      -6.449   6.676  67.922  1.00  0.00    -0.051 OA 
HETATM   15  O   UNL     1      -7.922   7.653  66.542  1.00  0.00    -0.102 OA 
HETATM   16  H   UNL     1      -5.788   4.241  69.940  1.00  0.00     0.000 HD 
BRANCH   9  17
HETATM   17  C   UNL     1     -10.452   8.145  67.755  1.00  0.00    -0.214 C  
BRANCH  17  18
HETATM   18  C   UNL     1     -10.388   9.522  68.357  1.00  0.00    -0.237 A  
HETATM   19  C   UNL     1     -11.512  10.085  68.969  1.00  0.00    -0.069 A  
HETATM   20  C   UNL     1     -11.537  11.453  69.270  1.00  0.00    -0.384 A  
HETATM   21  C   UNL     1     -10.471  12.314  68.922  1.00  0.00    -0.131 A  
HETATM   22  C   UNL     1      -9.284  11.684  68.514  1.00  0.00    -0.163 A  
HETATM   23  C   UNL     1      -9.233  10.304  68.258  1.00  0.00    -0.139 A  
BRANCH  21  24
HETATM   24  C   UNL     1     -10.712  13.792  68.774  1.00  0.00    -0.267 A  
HETATM   25  C   UNL     1     -11.047  14.495  67.585  1.00  0.00    -0.314 A  
HETATM   26  C   UNL     1     -11.411  15.868  67.670  1.00  0.00    -0.151 A  
HETATM   27  C   UNL     1     -10.735  14.551  69.981  1.00  0.00     0.040 A  
HETATM   28  C   UNL     1     -11.064  15.905  70.037  1.00  0.00    -0.356 A  
HETATM   29  C   UNL     1     -11.420  16.563  68.878  1.00  0.00    -0.131 A  
BRANCH  25  30
HETATM   30  C   UNL     1     -11.007  13.908  66.244  1.00  0.00    -0.298 A  
HETATM   31  N   UNL     1     -11.449  12.948  64.356  1.00  0.00    -0.337 NA 
HETATM   32  H   UNL     1     -12.977  13.349  65.807  1.00  0.00     0.000 HD 
HETATM   33  N   UNL     1     -10.142  13.159  64.329  1.00  0.00    -0.277 NA 
HETATM   34  N   UNL     1     -11.995  13.399  65.534  1.00  0.00    -0.374 NA 
HETATM   35  N   UNL     1      -9.866  13.752  65.496  1.00  0.00    -0.216 NA 
ENDBRANCH  25  30
ENDBRANCH  21  24
ENDBRANCH  17  18
ENDBRANCH   9  17
ENDBRANCH   3   4
ENDBRANCH   2   3
TORSDOF 6
ENDMDL
MODEL      191
REMARK 921   NORMALIZED FREE ENERGY PREDICTED BY IDOCK:   -5.20 KCAL/MOL
REMARK 922        TOTAL FREE ENERGY PREDICTED BY IDOCK:   -8.17 KCAL/MOL
REMARK 923 INTER-LIGAND FREE ENERGY PREDICTED BY IDOCK:   -6.89 KCAL/MOL
REMARK 924 INTRA-LIGAND FREE ENERGY PREDICTED BY IDOCK:   -1.28 KCAL/MOL
REMARK 927      BINDING AFFINITY PREDICTED BY RF-SCORE:    0.00 PKD
ROOT
HETATM    1  C   UNL     1     -10.193  10.742  64.424  1.00  0.00    -0.432 C  
HETATM    2  C   UNL     1      -9.462   9.427  64.662  1.00  0.00    -0.022 C  
ENDROOT
BRANCH   2   3
HETATM    3  C   UNL     1      -8.390   9.497  65.758  1.00  0.00    -0.132 C  
BRANCH   3   4
HETATM    4  C   UNL     1      -8.839   8.884  67.049  1.00  0.00    -0.126 A  
HETATM    5  N   UNL     1      -9.297   7.647  67.074  1.00  0.00    -0.149 NA 
HETATM    6  C   UNL     1      -9.765   7.403  68.334  1.00  0.00    -0.153 A  
HETATM    7  C   UNL     1     -10.419   6.078  68.661  1.00  0.00    -0.241 C  
HETATM    8  C   UNL     1      -9.610   8.542  69.121  1.00  0.00    -0.167 A  
HETATM    9  N   UNL     1      -8.883   9.440  68.317  1.00  0.00    -0.128 NA 
HETATM   10  O   UNL     1     -11.770   6.346  69.092  1.00  0.00    -0.583 OA 
HETATM   11  C   UNL     1      -9.710   5.352  69.811  1.00  0.00    -0.248 C  
HETATM   12  C   UNL     1     -10.487   5.121  67.458  1.00  0.00    -0.148 C  
HETATM   13  C   UNL     1     -10.034   8.813  70.475  1.00  0.00    -0.189 C  
HETATM   14  O   UNL     1     -11.158   8.160  70.845  1.00  0.00    -0.249 OA 
HETATM   15  O   UNL     1      -9.487   9.603  71.241  1.00  0.00    -0.154 OA 
HETATM   16  H   UNL     1     -12.181   5.515  69.297  1.00  0.00     0.000 HD 
BRANCH   9  17
HETATM   17  C   UNL     1      -8.372  10.719  68.870  1.00  0.00    -0.147 C  
BRANCH  17  18
HETATM   18  C   UNL     1      -8.849  12.004  68.251  1.00  0.00    -0.182 A  
HETATM   19  C   UNL     1      -8.051  12.690  67.331  1.00  0.00    -0.182 A  
HETATM   20  C   UNL     1      -8.363  14.010  66.977  1.00  0.00    -0.127 A  
HETATM   21  C   UNL     1      -9.441  14.706  67.568  1.00  0.00    -0.198 A  
HETATM   22  C   UNL     1     -10.341  13.925  68.311  1.00  0.00    -0.249 A  
HETATM   23  C   UNL     1     -10.063  12.585  68.630  1.00  0.00    -0.139 A  
BRANCH  21  24
HETATM   24  C   UNL     1      -9.452  16.211  67.581  1.00  0.00    -0.220 A  
HETATM   25  C   UNL     1      -8.452  17.075  68.105  1.00  0.00    -0.227 A  
HETATM   26  C   UNL     1      -8.551  18.474  67.871  1.00  0.00    -0.304 A  
HETATM   27  C   UNL     1     -10.519  16.840  66.875  1.00  0.00    -0.269 A  
HETATM   28  C   UNL     1     -10.613  18.219  66.685  1.00  0.00    -0.324 A  
HETATM   29  C   UNL     1      -9.615  19.039  67.170  1.00  0.00    -0.360 A  
BRANCH  25  30
HETATM   30  C   UNL     1      -7.322  16.623  68.920  1.00  0.00    -0.225 A  
HETATM   31  N   UNL     1      -5.996  15.610  70.297  1.00  0.00    -0.138 NA 
HETATM   32  H   UNL     1      -8.001  14.931  69.950  1.00  0.00     0.000 HD 
HETATM   33  N   UNL     1      -5.285  16.623  69.829  1.00  0.00    -0.147 NA 
HETATM   34  N   UNL     1      -7.257  15.600  69.751  1.00  0.00    -0.144 NA 
HETATM   35  N   UNL     1      -6.103  17.252  68.977  1.00  0.00    -0.188 NA 
ENDBRANCH  25  30
ENDBRANCH  21  24
ENDBRANCH  17  18
ENDBRANCH   9  17
ENDBRANCH   3   4
ENDBRANCH   2   3
TORSDOF 6
ENDMDL
MODEL      192
REMARK 921   NORMALIZED FREE ENERGY PREDICTED BY IDOCK:   -5.09 KCAL/MOL
REMARK 922        TOTAL FREE ENERGY PREDICTED BY IDOCK:   -8.03 KCAL/MOL
REMARK 923 INTER-LIGAND FREE ENERGY PREDICTED BY IDOCK:   -6.19 KCAL/MOL
REMARK 924 INTRA-LIGAND FREE ENERGY PREDICTED BY IDOCK:   -1.84 KCAL/MOL
REMARK 927      BINDING AFFINITY PREDICTED BY RF-SCORE:    0.00 PKD
ROOT
HETATM    1  C   UNL     1      -7.655   8.924  66.174  1.00  0.00    -0.091 C  
HETATM    2  C   UNL     1      -7.275   8.729  67.637  1.00  0.00    -0.080 C  
ENDROOT
BRANCH   2   3
HETATM    3  C   UNL     1      -7.957   7.527  68.305  1.00  0.00    -0.123 C  
BRANCH   3   4
HETATM    4  C   UNL     1      -8.260   7.763  69.753  1.00  0.00    -0.129 A  
HETATM    5  N   UNL     1      -7.302   7.676  70.655  1.00  0.00    -0.066 NA 
HETATM    6  C   UNL     1      -7.882   7.790  71.887  1.00  0.00    -0.095 A  
HETATM    7  C   UNL     1      -7.041   7.662  73.140  1.00  0.00    -0.074 C  
HETATM    8  C   UNL     1      -9.260   7.933  71.747  1.00  0.00    -0.150 A  
HETATM    9  N   UNL     1      -9.470   8.055  70.360  1.00  0.00    -0.166 NA 
HETATM   10  O   UNL     1      -7.551   6.549  73.903  1.00  0.00    -0.085 OA 
HETATM   11  C   UNL     1      -7.139   8.907  74.030  1.00  0.00     0.136 C  
HETATM   12  C   UNL     1      -5.554   7.395  72.848  1.00  0.00    -0.040 C  
HETATM   13  C   UNL     1     -10.305   7.991  72.742  1.00  0.00    -0.339 C  
HETATM   14  O   UNL     1     -10.038   7.290  73.866  1.00  0.00    -0.324 OA 
HETATM   15  O   UNL     1     -11.382   8.565  72.602  1.00  0.00    -0.343 OA 
HETATM   16  H   UNL     1      -7.024   6.469  74.689  1.00  0.00     0.000 HD 
BRANCH   9  17
HETATM   17  C   UNL     1     -10.809   8.395  69.817  1.00  0.00    -0.183 C  
BRANCH  17  18
HETATM   18  C   UNL     1     -10.989   9.728  69.146  1.00  0.00    -0.205 A  
HETATM   19  C   UNL     1     -10.777   9.868  67.772  1.00  0.00    -0.332 A  
HETATM   20  C   UNL     1     -10.666  11.145  67.204  1.00  0.00    -0.305 A  
HETATM   21  C   UNL     1     -10.707  12.318  67.992  1.00  0.00    -0.245 A  
HETATM   22  C   UNL     1     -11.138  12.150  69.318  1.00  0.00    -0.229 A  
HETATM   23  C   UNL     1     -11.301  10.875  69.883  1.00  0.00    -0.381 A  
BRANCH  21  24
HETATM   24  C   UNL     1     -10.090  13.592  67.481  1.00  0.00    -0.237 A  
HETATM   25  C   UNL     1      -8.741  14.015  67.628  1.00  0.00    -0.189 A  
HETATM   26  C   UNL     1      -8.295  15.168  66.926  1.00  0.00    -0.267 A  
HETATM   27  C   UNL     1     -10.916  14.402  66.647  1.00  0.00    -0.318 A  
HETATM   28  C   UNL     1     -10.465  15.549  65.994  1.00  0.00    -0.335 A  
HETATM   29  C   UNL     1      -9.144  15.925  66.119  1.00  0.00    -0.385 A  
BRANCH  25  30
HETATM   30  C   UNL     1      -7.764  13.357  68.499  1.00  0.00    -0.124 A  
HETATM   31  N   UNL     1      -6.138  12.866  69.838  1.00  0.00    -0.138 NA 
HETATM   32  H   UNL     1      -6.589  14.893  69.301  1.00  0.00     0.000 HD 
HETATM   33  N   UNL     1      -6.666  11.698  69.507  1.00  0.00    -0.113 NA 
HETATM   34  N   UNL     1      -6.801  13.899  69.219  1.00  0.00    -0.113 NA 
HETATM   35  N   UNL     1      -7.672  11.999  68.678  1.00  0.00    -0.121 NA 
ENDBRANCH  25  30
ENDBRANCH  21  24
ENDBRANCH  17  18
ENDBRANCH   9  17
ENDBRANCH   3   4
ENDBRANCH   2   3
TORSDOF 6
ENDMDL
MODEL      193
REMARK 921   NORMALIZED FREE ENERGY PREDICTED BY IDOCK:   -5.07 KCAL/MOL
REMARK 922        TOTAL FREE ENERGY PREDICTED BY IDOCK:   -8.00 KCAL/MOL
REMARK 923 INTER-LIGAND FREE ENERGY PREDICTED BY IDOCK:   -6.28 KCAL/MOL
REMARK 924 INTRA-LIGAND FREE ENERGY PREDICTED BY IDOCK:   -1.73 KCAL/MOL
REMARK 927      BINDING AFFINITY PREDICTED BY RF-SCORE:    0.00 PKD
ROOT
HETATM    1  C   UNL     1     -12.394  14.684  64.386  1.00  0.00    -0.420 C  
HETATM    2  C   UNL     1     -11.524  13.451  64.179  1.00  0.00    -0.421 C  
ENDROOT
BRANCH   2   3
HETATM    3  C   UNL     1     -10.094  13.598  64.716  1.00  0.00    -0.268 C  
BRANCH   3   4
HETATM    4  C   UNL     1     -10.028  14.406  65.976  1.00  0.00    -0.317 A  
HETATM    5  N   UNL     1      -9.444  15.590  65.976  1.00  0.00    -0.335 NA 
HETATM    6  C   UNL     1      -9.400  16.029  67.270  1.00  0.00    -0.210 A  
HETATM    7  C   UNL     1      -8.723  17.341  67.606  1.00  0.00    -0.219 C  
HETATM    8  C   UNL     1      -9.961  15.071  68.111  1.00  0.00    -0.220 A  
HETATM    9  N   UNL     1     -10.488  14.094  67.244  1.00  0.00    -0.271 NA 
HETATM   10  O   UNL     1      -7.644  17.059  68.523  1.00  0.00    -0.209 OA 
HETATM   11  C   UNL     1      -9.674  18.317  68.308  1.00  0.00    -0.350 C  
HETATM   12  C   UNL     1      -8.127  18.048  66.377  1.00  0.00    -0.292 C  
HETATM   13  C   UNL     1     -10.058  15.027  69.551  1.00  0.00    -0.166 C  
HETATM   14  O   UNL     1      -9.047  15.653  70.194  1.00  0.00     0.104 OA 
HETATM   15  O   UNL     1     -10.931  14.435  70.182  1.00  0.00    -0.105 OA 
HETATM   16  H   UNL     1      -7.219  17.882  68.734  1.00  0.00     0.000 HD 
BRANCH   9  17
HETATM   17  C   UNL     1     -11.321  12.982  67.764  1.00  0.00    -0.292 C  
BRANCH  17  18
HETATM   18  C   UNL     1     -10.680  11.632  67.938  1.00  0.00    -0.241 A  
HETATM   19  C   UNL     1      -9.320  11.523  68.242  1.00  0.00    -0.190 A  
HETATM   20  C   UNL     1      -8.671  10.287  68.123  1.00  0.00    -0.123 A  
HETATM   21  C   UNL     1      -9.338   9.136  67.646  1.00  0.00    -0.154 A  
HETATM   22  C   UNL     1     -10.737   9.229  67.563  1.00  0.00    -0.272 A  
HETATM   23  C   UNL     1     -11.404  10.454  67.730  1.00  0.00    -0.205 A  
BRANCH  21  24
HETATM   24  C   UNL     1      -8.551   8.002  67.047  1.00  0.00    -0.127 A  
HETATM   25  C   UNL     1      -7.924   7.967  65.771  1.00  0.00    -0.111 A  
HETATM   26  C   UNL     1      -7.073   6.875  65.445  1.00  0.00    -0.068 A  
HETATM   27  C   UNL     1      -8.295   6.891  67.902  1.00  0.00    -0.121 A  
HETATM   28  C   UNL     1      -7.483   5.813  67.549  1.00  0.00    -0.078 A  
HETATM   29  C   UNL     1      -6.855   5.814  66.322  1.00  0.00    -0.058 A  
BRANCH  25  30
HETATM   30  C   UNL     1      -8.125   8.978  64.730  1.00  0.00    -0.144 A  
HETATM   31  N   UNL     1      -7.922  10.575  63.285  1.00  0.00    -0.114 NA 
HETATM   32  H   UNL     1      -6.249   9.854  64.417  1.00  0.00     0.000 HD 
HETATM   33  N   UNL     1      -9.206  10.253  63.253  1.00  0.00    -0.270 NA 
HETATM   34  N   UNL     1      -7.243   9.802  64.196  1.00  0.00    -0.124 NA 
HETATM   35  N   UNL     1      -9.334   9.266  64.147  1.00  0.00     0.113 NA 
ENDBRANCH  25  30
ENDBRANCH  21  24
ENDBRANCH  17  18
ENDBRANCH   9  17
ENDBRANCH   3   4
ENDBRANCH   2   3
TORSDOF 6
ENDMDL
MODEL      194
REMARK 921   NORMALIZED FREE ENERGY PREDICTED BY IDOCK:   -5.07 KCAL/MOL
REMARK 922        TOTAL FREE ENERGY PREDICTED BY IDOCK:   -8.00 KCAL/MOL
REMARK 923 INTER-LIGAND FREE ENERGY PREDICTED BY IDOCK:   -6.69 KCAL/MOL
REMARK 924 INTRA-LIGAND FREE ENERGY PREDICTED BY IDOCK:   -1.31 KCAL/MOL
REMARK 927      BINDING AFFINITY PREDICTED BY RF-SCORE:    0.00 PKD
ROOT
HETATM    1  C   UNL     1      -8.867   6.584  70.361  1.00  0.00    -0.151 C  
HETATM    2  C   UNL     1      -8.824   6.518  68.839  1.00  0.00    -0.126 C  
ENDROOT
BRANCH   2   3
HETATM    3  C   UNL     1      -7.497   6.990  68.231  1.00  0.00    -0.099 C  
BRANCH   3   4
HETATM    4  C   UNL     1      -7.609   7.313  66.772  1.00  0.00    -0.100 A  
HETATM    5  N   UNL     1      -7.522   6.354  65.870  1.00  0.00    -0.080 NA 
HETATM    6  C   UNL     1      -7.510   6.944  64.638  1.00  0.00    -0.098 A  
HETATM    7  C   UNL     1      -7.351   6.100  63.391  1.00  0.00    -0.066 C  
HETATM    8  C   UNL     1      -7.572   8.328  64.779  1.00  0.00    -0.103 A  
HETATM    9  N   UNL     1      -7.778   8.541  66.156  1.00  0.00    -0.092 NA 
HETATM   10  O   UNL     1      -6.155   6.539  62.712  1.00  0.00    -0.033 OA 
HETATM   11  C   UNL     1      -8.521   6.284  62.417  1.00  0.00     0.023 C  
HETATM   12  C   UNL     1      -7.203   4.599  63.689  1.00  0.00    -0.050 C  
HETATM   13  C   UNL     1      -7.491   9.378  63.791  1.00  0.00    -0.112 C  
HETATM   14  O   UNL     1      -6.731   9.069  62.716  1.00  0.00    -0.095 OA 
HETATM   15  O   UNL     1      -8.000  10.491  63.899  1.00  0.00    -0.112 OA 
HETATM   16  H   UNL     1      -6.054   6.009  61.929  1.00  0.00     0.000 HD 
BRANCH   9  17
HETATM   17  C   UNL     1      -8.065   9.898  66.684  1.00  0.00    -0.117 C  
BRANCH  17  18
HETATM   18  C   UNL     1      -9.260  10.076  67.580  1.00  0.00    -0.151 A  
HETATM   19  C   UNL     1     -10.464  10.570  67.071  1.00  0.00    -0.304 A  
HETATM   20  C   UNL     1     -11.473  11.000  67.944  1.00  0.00    -0.358 A  
HETATM   21  C   UNL     1     -11.293  11.005  69.346  1.00  0.00    -0.352 A  
HETATM   22  C   UNL     1     -10.173  10.306  69.823  1.00  0.00    -0.262 A  
HETATM   23  C   UNL     1      -9.180   9.825  68.953  1.00  0.00    -0.155 A  
BRANCH  21  24
HETATM   24  C   UNL     1     -12.127  11.913  70.210  1.00  0.00    -0.409 A  
HETATM   25  C   UNL     1     -12.902  11.549  71.344  1.00  0.00    -0.489 A  
HETATM   26  C   UNL     1     -13.484  12.571  72.144  1.00  0.00    -0.523 A  
HETATM   27  C   UNL     1     -12.025  13.309  69.940  1.00  0.00    -0.400 A  
HETATM   28  C   UNL     1     -12.632  14.294  70.719  1.00  0.00    -0.427 A  
HETATM   29  C   UNL     1     -13.350  13.924  71.837  1.00  0.00    -0.496 A  
BRANCH  25  30
HETATM   30  C   UNL     1     -13.183  10.166  71.739  1.00  0.00    -0.438 A  
HETATM   31  N   UNL     1     -14.008   8.186  72.011  1.00  0.00    -0.352 NA 
HETATM   32  H   UNL     1     -14.868   9.591  70.638  1.00  0.00     0.000 HD 
HETATM   33  N   UNL     1     -12.978   8.238  72.841  1.00  0.00     0.006 NA 
HETATM   34  N   UNL     1     -14.151   9.370  71.328  1.00  0.00    -0.103 NA 
HETATM   35  N   UNL     1     -12.466   9.463  72.675  1.00  0.00    -0.066 NA 
ENDBRANCH  25  30
ENDBRANCH  21  24
ENDBRANCH  17  18
ENDBRANCH   9  17
ENDBRANCH   3   4
ENDBRANCH   2   3
TORSDOF 6
ENDMDL
MODEL      195
REMARK 921   NORMALIZED FREE ENERGY PREDICTED BY IDOCK:   -5.06 KCAL/MOL
REMARK 922        TOTAL FREE ENERGY PREDICTED BY IDOCK:   -7.98 KCAL/MOL
REMARK 923 INTER-LIGAND FREE ENERGY PREDICTED BY IDOCK:   -6.68 KCAL/MOL
REMARK 924 INTRA-LIGAND FREE ENERGY PREDICTED BY IDOCK:   -1.30 KCAL/MOL
REMARK 927      BINDING AFFINITY PREDICTED BY RF-SCORE:    0.00 PKD
ROOT
HETATM    1  C   UNL     1      -7.752   4.890  64.654  1.00  0.00    -0.079 C  
HETATM    2  C   UNL     1      -7.154   5.800  65.720  1.00  0.00    -0.070 C  
ENDROOT
BRANCH   2   3
HETATM    3  C   UNL     1      -7.964   7.078  65.976  1.00  0.00    -0.109 C  
BRANCH   3   4
HETATM    4  C   UNL     1      -8.311   7.266  67.421  1.00  0.00    -0.119 A  
HETATM    5  N   UNL     1      -7.558   6.728  68.361  1.00  0.00    -0.102 NA 
HETATM    6  C   UNL     1      -8.182   6.933  69.559  1.00  0.00    -0.131 A  
HETATM    7  C   UNL     1      -7.589   6.367  70.833  1.00  0.00    -0.093 C  
HETATM    8  C   UNL     1      -9.382   7.608  69.355  1.00  0.00    -0.152 A  
HETATM    9  N   UNL     1      -9.381   7.940  67.986  1.00  0.00    -0.145 NA 
HETATM   10  O   UNL     1      -8.559   5.466  71.408  1.00  0.00    -0.127 OA 
HETATM   11  C   UNL     1      -7.309   7.459  71.873  1.00  0.00    -0.079 C  
HETATM   12  C   UNL     1      -6.289   5.580  70.600  1.00  0.00    -0.031 C  
HETATM   13  C   UNL     1     -10.430   7.964  70.283  1.00  0.00    -0.225 C  
HETATM   14  O   UNL     1     -10.568   7.106  71.318  1.00  0.00    -0.214 OA 
HETATM   15  O   UNL     1     -11.193   8.919  70.155  1.00  0.00    -0.238 OA 
HETATM   16  H   UNL     1      -8.187   5.111  72.207  1.00  0.00     0.000 HD 
BRANCH   9  17
HETATM   17  C   UNL     1     -10.429   8.820  67.413  1.00  0.00    -0.279 C  
BRANCH  17  18
HETATM   18  C   UNL     1     -10.055  10.231  67.049  1.00  0.00    -0.268 A  
HETATM   19  C   UNL     1      -9.123  10.939  67.812  1.00  0.00    -0.149 A  
HETATM   20  C   UNL     1      -8.989  12.325  67.649  1.00  0.00    -0.181 A  
HETATM   21  C   UNL     1      -9.816  13.055  66.766  1.00  0.00    -0.243 A  
HETATM   22  C   UNL     1     -10.578  12.291  65.867  1.00  0.00    -0.290 A  
HETATM   23  C   UNL     1     -10.679  10.896  65.989  1.00  0.00    -0.208 A  
BRANCH  21  24
HETATM   24  C   UNL     1     -10.021  14.532  66.972  1.00  0.00    -0.255 A  
HETATM   25  C   UNL     1     -10.620  15.170  68.092  1.00  0.00    -0.246 A  
HETATM   26  C   UNL     1     -10.569  16.588  68.193  1.00  0.00    -0.329 A  
HETATM   27  C   UNL     1      -9.435  15.392  65.998  1.00  0.00    -0.381 A  
HETATM   28  C   UNL     1      -9.425  16.783  66.100  1.00  0.00    -0.295 A  
HETATM   29  C   UNL     1      -9.979  17.384  67.212  1.00  0.00    -0.302 A  
BRANCH  25  30
HETATM   30  C   UNL     1     -11.334  14.461  69.156  1.00  0.00    -0.277 A  
HETATM   31  N   UNL     1     -12.548  13.114  70.336  1.00  0.00    -0.177 NA 
HETATM   32  H   UNL     1     -12.240  12.813  68.235  1.00  0.00     0.000 HD 
HETATM   33  N   UNL     1     -12.138  14.036  71.193  1.00  0.00    -0.327 NA 
HETATM   34  N   UNL     1     -12.066  13.366  69.074  1.00  0.00    -0.307 NA 
HETATM   35  N   UNL     1     -11.387  14.871  70.466  1.00  0.00    -0.254 NA 
ENDBRANCH  25  30
ENDBRANCH  21  24
ENDBRANCH  17  18
ENDBRANCH   9  17
ENDBRANCH   3   4
ENDBRANCH   2   3
TORSDOF 6
ENDMDL
MODEL      196
REMARK 921   NORMALIZED FREE ENERGY PREDICTED BY IDOCK:   -5.02 KCAL/MOL
REMARK 922        TOTAL FREE ENERGY PREDICTED BY IDOCK:   -7.94 KCAL/MOL
REMARK 923 INTER-LIGAND FREE ENERGY PREDICTED BY IDOCK:   -6.40 KCAL/MOL
REMARK 924 INTRA-LIGAND FREE ENERGY PREDICTED BY IDOCK:   -1.54 KCAL/MOL
REMARK 927      BINDING AFFINITY PREDICTED BY RF-SCORE:    0.00 PKD
ROOT
HETATM    1  C   UNL     1      -5.806  10.156  64.239  1.00  0.00    -0.139 C  
HETATM    2  C   UNL     1      -5.982   8.671  63.943  1.00  0.00    -0.071 C  
ENDROOT
BRANCH   2   3
HETATM    3  C   UNL     1      -7.414   8.277  63.557  1.00  0.00    -0.119 C  
BRANCH   3   4
HETATM    4  C   UNL     1      -8.103   7.479  64.621  1.00  0.00    -0.101 A  
HETATM    5  N   UNL     1      -8.416   6.215  64.405  1.00  0.00     0.006 NA 
HETATM    6  C   UNL     1      -9.156   5.785  65.471  1.00  0.00    -0.025 A  
HETATM    7  C   UNL     1      -9.724   4.381  65.486  1.00  0.00    -0.200 C  
HETATM    8  C   UNL     1      -9.327   6.829  66.377  1.00  0.00    -0.136 A  
HETATM    9  N   UNL     1      -8.523   7.872  65.880  1.00  0.00    -0.132 NA 
HETATM   10  O   UNL     1     -11.161   4.488  65.573  1.00  0.00    -0.852 OA 
HETATM   11  C   UNL     1      -9.252   3.581  66.705  1.00  0.00    -0.199 C  
HETATM   12  C   UNL     1      -9.385   3.576  64.221  1.00  0.00    -0.138 C  
HETATM   13  C   UNL     1     -10.103   6.899  67.593  1.00  0.00    -0.161 C  
HETATM   14  O   UNL     1     -11.207   6.119  67.591  1.00  0.00    -0.294 OA 
HETATM   15  O   UNL     1      -9.855   7.632  68.547  1.00  0.00    -0.159 OA 
HETATM   16  H   UNL     1     -11.518   3.608  65.583  1.00  0.00     0.000 HD 
BRANCH   9  17
HETATM   17  C   UNL     1      -8.308   9.111  66.668  1.00  0.00    -0.122 C  
BRANCH  17  18
HETATM   18  C   UNL     1      -9.199  10.293  66.396  1.00  0.00    -0.186 A  
HETATM   19  C   UNL     1      -9.330  10.802  65.101  1.00  0.00    -0.254 A  
HETATM   20  C   UNL     1      -9.922  12.056  64.896  1.00  0.00    -0.253 A  
HETATM   21  C   UNL     1     -10.349  12.865  65.974  1.00  0.00    -0.294 A  
HETATM   22  C   UNL     1     -10.404  12.236  67.228  1.00  0.00    -0.228 A  
HETATM   23  C   UNL     1      -9.859  10.958  67.435  1.00  0.00    -0.199 A  
BRANCH  21  24
HETATM   24  C   UNL     1     -10.490  14.352  65.791  1.00  0.00    -0.329 A  
HETATM   25  C   UNL     1      -9.616  15.364  66.274  1.00  0.00    -0.342 A  
HETATM   26  C   UNL     1      -9.813  16.709  65.854  1.00  0.00    -0.301 A  
HETATM   27  C   UNL     1     -11.541  14.786  64.932  1.00  0.00    -0.401 A  
HETATM   28  C   UNL     1     -11.735  16.115  64.558  1.00  0.00    -0.065 A  
HETATM   29  C   UNL     1     -10.857  17.080  65.007  1.00  0.00    -0.017 A  
BRANCH  25  30
HETATM   30  C   UNL     1      -8.526  15.125  67.223  1.00  0.00    -0.198 A  
HETATM   31  N   UNL     1      -6.662  14.624  68.199  1.00  0.00    -0.116 NA 
HETATM   32  H   UNL     1      -6.880  14.544  66.067  1.00  0.00     0.000 HD 
HETATM   33  N   UNL     1      -7.487  14.933  69.187  1.00  0.00    -0.147 NA 
HETATM   34  N   UNL     1      -7.290  14.732  66.982  1.00  0.00    -0.062 NA 
HETATM   35  N   UNL     1      -8.642  15.243  68.586  1.00  0.00    -0.163 NA 
ENDBRANCH  25  30
ENDBRANCH  21  24
ENDBRANCH  17  18
ENDBRANCH   9  17
ENDBRANCH   3   4
ENDBRANCH   2   3
TORSDOF 6
ENDMDL
MODEL      197
REMARK 921   NORMALIZED FREE ENERGY PREDICTED BY IDOCK:   -5.00 KCAL/MOL
REMARK 922        TOTAL FREE ENERGY PREDICTED BY IDOCK:   -7.91 KCAL/MOL
REMARK 923 INTER-LIGAND FREE ENERGY PREDICTED BY IDOCK:   -6.18 KCAL/MOL
REMARK 924 INTRA-LIGAND FREE ENERGY PREDICTED BY IDOCK:   -1.73 KCAL/MOL
REMARK 927      BINDING AFFINITY PREDICTED BY RF-SCORE:    0.00 PKD
ROOT
HETATM    1  C   UNL     1      -7.383   8.813  71.434  1.00  0.00    -0.117 C  
HETATM    2  C   UNL     1      -6.641   7.593  70.901  1.00  0.00    -0.038 C  
ENDROOT
BRANCH   2   3
HETATM    3  C   UNL     1      -6.170   7.733  69.448  1.00  0.00    -0.034 C  
BRANCH   3   4
HETATM    4  C   UNL     1      -6.861   6.783  68.519  1.00  0.00    -0.074 A  
HETATM    5  N   UNL     1      -7.075   5.533  68.885  1.00  0.00    -0.060 NA 
HETATM    6  C   UNL     1      -7.581   4.867  67.804  1.00  0.00    -0.083 A  
HETATM    7  C   UNL     1      -7.868   3.383  67.892  1.00  0.00    -0.072 C  
HETATM    8  C   UNL     1      -7.667   5.732  66.716  1.00  0.00    -0.100 A  
HETATM    9  N   UNL     1      -7.332   6.997  67.234  1.00  0.00    -0.089 NA 
HETATM   10  O   UNL     1      -7.061   2.717  66.897  1.00  0.00    -0.048 OA 
HETATM   11  C   UNL     1      -9.335   3.060  67.578  1.00  0.00    -0.229 C  
HETATM   12  C   UNL     1      -7.526   2.777  69.263  1.00  0.00    -0.044 C  
HETATM   13  C   UNL     1      -8.042   5.481  65.344  1.00  0.00    -0.123 C  
HETATM   14  O   UNL     1      -7.744   4.236  64.907  1.00  0.00    -0.076 OA 
HETATM   15  O   UNL     1      -8.536   6.310  64.584  1.00  0.00    -0.076 OA 
HETATM   16  H   UNL     1      -7.242   1.786  66.952  1.00  0.00     0.000 HD 
BRANCH   9  17
HETATM   17  C   UNL     1      -7.473   8.222  66.408  1.00  0.00    -0.080 C  
BRANCH  17  18
HETATM   18  C   UNL     1      -8.415   9.295  66.880  1.00  0.00    -0.128 A  
HETATM   19  C   UNL     1      -7.944  10.380  67.624  1.00  0.00    -0.106 A  
HETATM   20  C   UNL     1      -8.846  11.216  68.297  1.00  0.00    -0.155 A  
HETATM   21  C   UNL     1     -10.237  10.966  68.297  1.00  0.00    -0.191 A  
HETATM   22  C   UNL     1     -10.688  10.011  67.371  1.00  0.00    -0.336 A  
HETATM   23  C   UNL     1      -9.792   9.202  66.652  1.00  0.00    -0.307 A  
BRANCH  21  24
HETATM   24  C   UNL     1     -11.104  11.522  69.394  1.00  0.00    -0.287 A  
HETATM   25  C   UNL     1     -11.669  12.824  69.468  1.00  0.00    -0.383 A  
HETATM   26  C   UNL     1     -12.608  13.116  70.496  1.00  0.00    -0.237 A  
HETATM   27  C   UNL     1     -11.509  10.603  70.405  1.00  0.00    -0.422 A  
HETATM   28  C   UNL     1     -12.407  10.920  71.424  1.00  0.00    -0.403 A  
HETATM   29  C   UNL     1     -12.973  12.177  71.460  1.00  0.00    -0.398 A  
BRANCH  25  30
HETATM   30  C   UNL     1     -11.319  13.924  68.566  1.00  0.00    -0.280 A  
HETATM   31  N   UNL     1     -10.585  15.746  67.660  1.00  0.00    -0.294 NA 
HETATM   32  H   UNL     1     -10.151  15.242  69.699  1.00  0.00     0.000 HD 
HETATM   33  N   UNL     1     -11.282  15.152  66.704  1.00  0.00    -0.311 NA 
HETATM   34  N   UNL     1     -10.603  15.004  68.816  1.00  0.00    -0.232 NA 
HETATM   35  N   UNL     1     -11.739  14.025  67.263  1.00  0.00    -0.368 NA 
ENDBRANCH  25  30
ENDBRANCH  21  24
ENDBRANCH  17  18
ENDBRANCH   9  17
ENDBRANCH   3   4
ENDBRANCH   2   3
TORSDOF 6
ENDMDL
MODEL      198
REMARK 921   NORMALIZED FREE ENERGY PREDICTED BY IDOCK:   -4.98 KCAL/MOL
REMARK 922        TOTAL FREE ENERGY PREDICTED BY IDOCK:   -7.88 KCAL/MOL
REMARK 923 INTER-LIGAND FREE ENERGY PREDICTED BY IDOCK:   -6.52 KCAL/MOL
REMARK 924 INTRA-LIGAND FREE ENERGY PREDICTED BY IDOCK:   -1.36 KCAL/MOL
REMARK 927      BINDING AFFINITY PREDICTED BY RF-SCORE:    0.00 PKD
ROOT
HETATM    1  C   UNL     1      -6.100   9.793  71.324  1.00  0.00    -0.003 C  
HETATM    2  C   UNL     1      -6.375   8.332  71.658  1.00  0.00    -0.049 C  
ENDROOT
BRANCH   2   3
HETATM    3  C   UNL     1      -7.783   7.858  71.273  1.00  0.00    -0.086 C  
BRANCH   3   4
HETATM    4  C   UNL     1      -7.791   7.000  70.046  1.00  0.00    -0.113 A  
HETATM    5  N   UNL     1      -8.221   5.754  70.109  1.00  0.00    -0.114 NA 
HETATM    6  C   UNL     1      -7.982   5.172  68.895  1.00  0.00    -0.085 A  
HETATM    7  C   UNL     1      -8.309   3.710  68.675  1.00  0.00    -0.077 C  
HETATM    8  C   UNL     1      -7.360   6.087  68.049  1.00  0.00    -0.084 A  
HETATM    9  N   UNL     1      -7.373   7.302  68.761  1.00  0.00    -0.093 NA 
HETATM   10  O   UNL     1      -7.083   3.032  68.327  1.00  0.00    -0.048 OA 
HETATM   11  C   UNL     1      -9.287   3.507  67.512  1.00  0.00    -0.249 C  
HETATM   12  C   UNL     1      -8.893   3.024  69.920  1.00  0.00    -0.152 C  
HETATM   13  C   UNL     1      -6.826   5.923  66.718  1.00  0.00    -0.059 C  
HETATM   14  O   UNL     1      -6.362   4.680  66.457  1.00  0.00    -0.034 OA 
HETATM   15  O   UNL     1      -6.728   6.817  65.881  1.00  0.00    -0.049 OA 
HETATM   16  H   UNL     1      -7.288   2.114  68.188  1.00  0.00     0.000 HD 
BRANCH   9  17
HETATM   17  C   UNL     1      -6.943   8.568  68.117  1.00  0.00    -0.074 C  
BRANCH  17  18
HETATM   18  C   UNL     1      -7.998   9.572  67.743  1.00  0.00    -0.099 A  
HETATM   19  C   UNL     1      -7.792  10.462  66.686  1.00  0.00    -0.120 A  
HETATM   20  C   UNL     1      -8.638  11.568  66.523  1.00  0.00    -0.172 A  
HETATM   21  C   UNL     1      -9.677  11.854  67.437  1.00  0.00    -0.189 A  
HETATM   22  C   UNL     1      -9.990  10.832  68.348  1.00  0.00    -0.174 A  
HETATM   23  C   UNL     1      -9.178   9.694  68.485  1.00  0.00    -0.137 A  
BRANCH  21  24
HETATM   24  C   UNL     1     -10.216  13.255  67.553  1.00  0.00    -0.222 A  
HETATM   25  C   UNL     1     -11.184  13.876  66.720  1.00  0.00    -0.328 A  
HETATM   26  C   UNL     1     -11.702  15.149  67.088  1.00  0.00    -0.141 A  
HETATM   27  C   UNL     1      -9.807  13.994  68.701  1.00  0.00    -0.191 A  
HETATM   28  C   UNL     1     -10.304  15.255  69.026  1.00  0.00    -0.242 A  
HETATM   29  C   UNL     1     -11.270  15.829  68.225  1.00  0.00    -0.356 A  
BRANCH  25  30
HETATM   30  C   UNL     1     -11.672  13.308  65.461  1.00  0.00    -0.346 A  
HETATM   31  N   UNL     1     -12.813  12.365  63.884  1.00  0.00    -0.763 NA 
HETATM   32  H   UNL     1     -13.645  12.714  65.829  1.00  0.00     0.000 HD 
HETATM   33  N   UNL     1     -11.628  12.603  63.345  1.00  0.00    -0.501 NA 
HETATM   34  N   UNL     1     -12.854  12.788  65.190  1.00  0.00    -0.776 NA 
HETATM   35  N   UNL     1     -10.919  13.186  64.319  1.00  0.00    -0.387 NA 
ENDBRANCH  25  30
ENDBRANCH  21  24
ENDBRANCH  17  18
ENDBRANCH   9  17
ENDBRANCH   3   4
ENDBRANCH   2   3
TORSDOF 6
ENDMDL
MODEL      199
REMARK 921   NORMALIZED FREE ENERGY PREDICTED BY IDOCK:   -4.94 KCAL/MOL
REMARK 922        TOTAL FREE ENERGY PREDICTED BY IDOCK:   -7.83 KCAL/MOL
REMARK 923 INTER-LIGAND FREE ENERGY PREDICTED BY IDOCK:   -6.59 KCAL/MOL
REMARK 924 INTRA-LIGAND FREE ENERGY PREDICTED BY IDOCK:   -1.24 KCAL/MOL
REMARK 927      BINDING AFFINITY PREDICTED BY RF-SCORE:    0.00 PKD
ROOT
HETATM    1  C   UNL     1     -13.134  15.772  71.340  1.00  0.00    -0.446 C  
HETATM    2  C   UNL     1     -11.635  16.041  71.289  1.00  0.00    -0.506 C  
ENDROOT
BRANCH   2   3
HETATM    3  C   UNL     1     -10.901  15.276  70.179  1.00  0.00    -0.302 C  
BRANCH   3   4
HETATM    4  C   UNL     1      -9.942  16.137  69.417  1.00  0.00    -0.243 A  
HETATM    5  N   UNL     1     -10.355  17.258  68.858  1.00  0.00    -0.347 NA 
HETATM    6  C   UNL     1      -9.321  17.756  68.116  1.00  0.00    -0.281 A  
HETATM    7  C   UNL     1      -9.510  19.014  67.294  1.00  0.00    -0.308 C  
HETATM    8  C   UNL     1      -8.226  16.899  68.200  1.00  0.00    -0.207 A  
HETATM    9  N   UNL     1      -8.597  15.934  69.156  1.00  0.00    -0.242 NA 
HETATM   10  O   UNL     1      -9.267  18.678  65.911  1.00  0.00    -0.472 OA 
HETATM   11  C   UNL     1      -8.509  20.110  67.679  1.00  0.00    -0.357 C  
HETATM   12  C   UNL     1     -10.928  19.600  67.398  1.00  0.00    -0.386 C  
HETATM   13  C   UNL     1      -6.949  16.937  67.526  1.00  0.00    -0.142 C  
HETATM   14  O   UNL     1      -6.989  17.497  66.296  1.00  0.00    -0.245 OA 
HETATM   15  O   UNL     1      -5.905  16.463  67.965  1.00  0.00    -0.101 OA 
HETATM   16  H   UNL     1      -9.386  19.467  65.395  1.00  0.00     0.000 HD 
BRANCH   9  17
HETATM   17  C   UNL     1      -7.619  14.932  69.648  1.00  0.00    -0.098 C  
BRANCH  17  18
HETATM   18  C   UNL     1      -7.498  13.629  68.906  1.00  0.00    -0.033 A  
HETATM   19  C   UNL     1      -8.616  13.048  68.302  1.00  0.00    -0.167 A  
HETATM   20  C   UNL     1      -8.566  11.717  67.865  1.00  0.00    -0.150 A  
HETATM   21  C   UNL     1      -7.425  10.908  68.067  1.00  0.00    -0.090 A  
HETATM   22  C   UNL     1      -6.261  11.580  68.472  1.00  0.00    -0.050 A  
HETATM   23  C   UNL     1      -6.288  12.929  68.864  1.00  0.00    -0.090 A  
BRANCH  21  24
HETATM   24  C   UNL     1      -7.556   9.408  68.076  1.00  0.00    -0.083 A  
HETATM   25  C   UNL     1      -7.696   8.550  66.952  1.00  0.00    -0.091 A  
HETATM   26  C   UNL     1      -7.628   7.142  67.142  1.00  0.00    -0.103 A  
HETATM   27  C   UNL     1      -7.391   8.768  69.339  1.00  0.00    -0.072 A  
HETATM   28  C   UNL     1      -7.360   7.384  69.506  1.00  0.00    -0.085 A  
HETATM   29  C   UNL     1      -7.462   6.566  68.401  1.00  0.00    -0.088 A  
BRANCH  25  30
HETATM   30  C   UNL     1      -7.948   9.017  65.587  1.00  0.00    -0.104 A  
HETATM   31  N   UNL     1      -7.808   9.652  63.524  1.00  0.00    -0.129 NA 
HETATM   32  H   UNL     1      -6.103   8.923  64.602  1.00  0.00     0.000 HD 
HETATM   33  N   UNL     1      -9.077   9.842  63.849  1.00  0.00    -0.247 NA 
HETATM   34  N   UNL     1      -7.097   9.150  64.587  1.00  0.00    -0.089 NA 
HETATM   35  N   UNL     1      -9.166   9.451  65.125  1.00  0.00    -0.236 NA 
ENDBRANCH  25  30
ENDBRANCH  21  24
ENDBRANCH  17  18
ENDBRANCH   9  17
ENDBRANCH   3   4
ENDBRANCH   2   3
TORSDOF 6
ENDMDL
MODEL      200
REMARK 921   NORMALIZED FREE ENERGY PREDICTED BY IDOCK:   -4.93 KCAL/MOL
REMARK 922        TOTAL FREE ENERGY PREDICTED BY IDOCK:   -7.81 KCAL/MOL
REMARK 923 INTER-LIGAND FREE ENERGY PREDICTED BY IDOCK:   -6.20 KCAL/MOL
REMARK 924 INTRA-LIGAND FREE ENERGY PREDICTED BY IDOCK:   -1.61 KCAL/MOL
REMARK 927      BINDING AFFINITY PREDICTED BY RF-SCORE:    0.00 PKD
ROOT
HETATM    1  C   UNL     1      -5.746  10.623  70.916  1.00  0.00    -0.074 C  
HETATM    2  C   UNL     1      -6.410   9.333  71.383  1.00  0.00    -0.053 C  
ENDROOT
BRANCH   2   3
HETATM    3  C   UNL     1      -7.741   9.027  70.684  1.00  0.00    -0.131 C  
BRANCH   3   4
HETATM    4  C   UNL     1      -7.718   7.731  69.933  1.00  0.00    -0.095 A  
HETATM    5  N   UNL     1      -8.331   6.669  70.421  1.00  0.00    -0.125 NA 
HETATM    6  C   UNL     1      -8.026   5.609  69.615  1.00  0.00    -0.095 A  
HETATM    7  C   UNL     1      -8.532   4.223  69.956  1.00  0.00    -0.065 C  
HETATM    8  C   UNL     1      -7.172   6.023  68.596  1.00  0.00    -0.084 A  
HETATM    9  N   UNL     1      -7.097   7.422  68.735  1.00  0.00    -0.078 NA 
HETATM   10  O   UNL     1      -7.386   3.366  70.141  1.00  0.00    -0.041 OA 
HETATM   11  C   UNL     1      -9.372   3.621  68.823  1.00  0.00    -0.231 C  
HETATM   12  C   UNL     1      -9.367   4.183  71.247  1.00  0.00    -0.218 C  
HETATM   13  C   UNL     1      -6.501   5.264  67.566  1.00  0.00    -0.052 C  
HETATM   14  O   UNL     1      -6.194   3.996  67.923  1.00  0.00    -0.034 OA 
HETATM   15  O   UNL     1      -6.165   5.705  66.470  1.00  0.00    -0.031 OA 
HETATM   16  H   UNL     1      -7.703   2.497  70.355  1.00  0.00     0.000 HD 
BRANCH   9  17
HETATM   17  C   UNL     1      -6.406   8.254  67.718  1.00  0.00    -0.053 C  
BRANCH  17  18
HETATM   18  C   UNL     1      -7.245   9.005  66.721  1.00  0.00    -0.086 A  
HETATM   19  C   UNL     1      -7.117  10.389  66.582  1.00  0.00    -0.112 A  
HETATM   20  C   UNL     1      -8.082  11.117  65.872  1.00  0.00    -0.017 A  
HETATM   21  C   UNL     1      -9.230  10.499  65.328  1.00  0.00    -0.238 A  
HETATM   22  C   UNL     1      -9.215   9.096  65.297  1.00  0.00    -0.243 A  
HETATM   23  C   UNL     1      -8.224   8.355  65.962  1.00  0.00    -0.112 A  
BRANCH  21  24
HETATM   24  C   UNL     1     -10.462  11.316  65.043  1.00  0.00    -0.359 A  
HETATM   25  C   UNL     1     -11.369  11.866  65.990  1.00  0.00    -0.375 A  
HETATM   26  C   UNL     1     -12.381  12.760  65.543  1.00  0.00    -0.495 A  
HETATM   27  C   UNL     1     -10.671  11.688  63.683  1.00  0.00    -0.500 A  
HETATM   28  C   UNL     1     -11.691  12.541  63.263  1.00  0.00    -0.478 A  
HETATM   29  C   UNL     1     -12.540  13.094  64.199  1.00  0.00    -0.261 A  
BRANCH  25  30
HETATM   30  C   UNL     1     -11.361  11.543  67.419  1.00  0.00    -0.298 A  
HETATM   31  N   UNL     1     -11.268  10.586  69.356  1.00  0.00    -0.251 NA 
HETATM   32  H   UNL     1     -10.901   9.504  67.540  1.00  0.00     0.000 HD 
HETATM   33  N   UNL     1     -11.584  11.844  69.617  1.00  0.00    -0.316 NA 
HETATM   34  N   UNL     1     -11.133  10.383  68.003  1.00  0.00    -0.298 NA 
HETATM   35  N   UNL     1     -11.643  12.439  68.420  1.00  0.00    -0.303 NA 
ENDBRANCH  25  30
ENDBRANCH  21  24
ENDBRANCH  17  18
ENDBRANCH   9  17
ENDBRANCH   3   4
ENDBRANCH   2   3
TORSDOF 6
ENDMDL
MODEL      201
REMARK 921   NORMALIZED FREE ENERGY PREDICTED BY IDOCK:   -4.92 KCAL/MOL
REMARK 922        TOTAL FREE ENERGY PREDICTED BY IDOCK:   -7.80 KCAL/MOL
REMARK 923 INTER-LIGAND FREE ENERGY PREDICTED BY IDOCK:   -6.21 KCAL/MOL
REMARK 924 INTRA-LIGAND FREE ENERGY PREDICTED BY IDOCK:   -1.59 KCAL/MOL
REMARK 927      BINDING AFFINITY PREDICTED BY RF-SCORE:    0.00 PKD
ROOT
HETATM    1  C   UNL     1     -11.995  11.516  68.900  1.00  0.00    -0.364 C  
HETATM    2  C   UNL     1     -10.818  10.602  68.578  1.00  0.00    -0.275 C  
ENDROOT
BRANCH   2   3
HETATM    3  C   UNL     1      -9.606  11.331  67.983  1.00  0.00    -0.182 C  
BRANCH   3   4
HETATM    4  C   UNL     1      -9.004  10.603  66.821  1.00  0.00    -0.138 A  
HETATM    5  N   UNL     1      -9.196  11.041  65.591  1.00  0.00    -0.205 NA 
HETATM    6  C   UNL     1      -8.665  10.116  64.736  1.00  0.00    -0.185 A  
HETATM    7  C   UNL     1      -8.789  10.305  63.238  1.00  0.00    -0.222 C  
HETATM    8  C   UNL     1      -8.141   9.050  65.462  1.00  0.00    -0.110 A  
HETATM    9  N   UNL     1      -8.242   9.447  66.809  1.00  0.00    -0.112 NA 
HETATM   10  O   UNL     1      -9.517   9.177  62.709  1.00  0.00    -0.477 OA 
HETATM   11  C   UNL     1      -7.421  10.329  62.545  1.00  0.00    -0.151 C  
HETATM   12  C   UNL     1      -9.548  11.584  62.848  1.00  0.00    -0.314 C  
HETATM   13  C   UNL     1      -7.569   7.800  65.016  1.00  0.00    -0.096 C  
HETATM   14  O   UNL     1      -8.078   7.344  63.850  1.00  0.00    -0.114 OA 
HETATM   15  O   UNL     1      -6.736   7.145  65.636  1.00  0.00    -0.050 OA 
HETATM   16  H   UNL     1      -9.594   9.295  61.769  1.00  0.00     0.000 HD 
BRANCH   9  17
HETATM   17  C   UNL     1      -7.628   8.638  67.891  1.00  0.00    -0.098 C  
BRANCH  17  18
HETATM   18  C   UNL     1      -8.537   7.972  68.887  1.00  0.00    -0.131 A  
HETATM   19  C   UNL     1      -8.216   7.959  70.247  1.00  0.00    -0.124 A  
HETATM   20  C   UNL     1      -8.902   7.107  71.123  1.00  0.00    -0.144 A  
HETATM   21  C   UNL     1      -9.888   6.204  70.665  1.00  0.00    -0.214 A  
HETATM   22  C   UNL     1     -10.335   6.399  69.348  1.00  0.00    -0.252 A  
HETATM   23  C   UNL     1      -9.686   7.288  68.476  1.00  0.00    -0.149 A  
BRANCH  21  24
HETATM   24  C   UNL     1     -10.229   4.983  71.478  1.00  0.00    -0.273 A  
HETATM   25  C   UNL     1      -9.772   3.654  71.267  1.00  0.00    -0.239 A  
HETATM   26  C   UNL     1     -10.059   2.659  72.242  1.00  0.00    -0.230 A  
HETATM   27  C   UNL     1     -10.988   5.207  72.664  1.00  0.00    -0.303 A  
HETATM   28  C   UNL     1     -11.285   4.208  73.591  1.00  0.00    -0.312 A  
HETATM   29  C   UNL     1     -10.804   2.932  73.389  1.00  0.00    -0.300 A  
BRANCH  25  30
HETATM   30  C   UNL     1      -9.044   3.215  70.075  1.00  0.00    -0.127 A  
HETATM   31  N   UNL     1      -8.442   2.547  68.107  1.00  0.00    -0.070 NA 
HETATM   32  H   UNL     1     -10.481   3.032  68.563  1.00  0.00     0.000 HD 
HETATM   33  N   UNL     1      -7.326   2.546  68.819  1.00  0.00    -0.047 NA 
HETATM   34  N   UNL     1      -9.512   2.951  68.869  1.00  0.00    -0.155 NA 
HETATM   35  N   UNL     1      -7.695   2.958  70.037  1.00  0.00    -0.043 NA 
ENDBRANCH  25  30
ENDBRANCH  21  24
ENDBRANCH  17  18
ENDBRANCH   9  17
ENDBRANCH   3   4
ENDBRANCH   2   3
TORSDOF 6
ENDMDL
MODEL      202
REMARK 921   NORMALIZED FREE ENERGY PREDICTED BY IDOCK:   -4.91 KCAL/MOL
REMARK 922        TOTAL FREE ENERGY PREDICTED BY IDOCK:   -7.78 KCAL/MOL
REMARK 923 INTER-LIGAND FREE ENERGY PREDICTED BY IDOCK:   -6.34 KCAL/MOL
REMARK 924 INTRA-LIGAND FREE ENERGY PREDICTED BY IDOCK:   -1.44 KCAL/MOL
REMARK 927      BINDING AFFINITY PREDICTED BY RF-SCORE:    0.00 PKD
ROOT
HETATM    1  C   UNL     1      -9.223   3.902  70.781  1.00  0.00    -0.198 C  
HETATM    2  C   UNL     1      -9.397   4.272  69.313  1.00  0.00    -0.231 C  
ENDROOT
BRANCH   2   3
HETATM    3  C   UNL     1      -8.715   3.302  68.340  1.00  0.00    -0.139 C  
BRANCH   3   4
HETATM    4  C   UNL     1      -8.772   3.770  66.918  1.00  0.00    -0.114 A  
HETATM    5  N   UNL     1      -9.386   3.044  66.003  1.00  0.00    -0.117 NA 
HETATM    6  C   UNL     1      -9.159   3.629  64.789  1.00  0.00    -0.134 A  
HETATM    7  C   UNL     1      -9.684   2.985  63.523  1.00  0.00    -0.116 C  
HETATM    8  C   UNL     1      -8.353   4.753  64.952  1.00  0.00    -0.134 A  
HETATM    9  N   UNL     1      -8.231   4.910  66.346  1.00  0.00    -0.108 NA 
HETATM   10  O   UNL     1      -8.554   2.686  62.677  1.00  0.00    -0.074 OA 
HETATM   11  C   UNL     1     -10.605   3.926  62.737  1.00  0.00    -0.186 C  
HETATM   12  C   UNL     1     -10.444   1.673  63.780  1.00  0.00    -0.023 C  
HETATM   13  C   UNL     1      -7.765   5.638  63.974  1.00  0.00    -0.095 C  
HETATM   14  O   UNL     1      -7.475   5.044  62.794  1.00  0.00    -0.042 OA 
HETATM   15  O   UNL     1      -7.481   6.817  64.168  1.00  0.00    -0.079 OA 
HETATM   16  H   UNL     1      -8.884   2.283  61.883  1.00  0.00     0.000 HD 
BRANCH   9  17
HETATM   17  C   UNL     1      -7.576   6.109  66.925  1.00  0.00    -0.099 C  
BRANCH  17  18
HETATM   18  C   UNL     1      -8.411   7.341  67.145  1.00  0.00    -0.118 A  
HETATM   19  C   UNL     1      -7.869   8.466  67.773  1.00  0.00    -0.107 A  
HETATM   20  C   UNL     1      -8.710   9.490  68.228  1.00  0.00    -0.120 A  
HETATM   21  C   UNL     1     -10.117   9.402  68.123  1.00  0.00    -0.215 A  
HETATM   22  C   UNL     1     -10.607   8.375  67.300  1.00  0.00    -0.328 A  
HETATM   23  C   UNL     1      -9.765   7.371  66.796  1.00  0.00    -0.271 A  
BRANCH  21  24
HETATM   24  C   UNL     1     -10.994  10.213  69.039  1.00  0.00    -0.265 A  
HETATM   25  C   UNL     1     -11.443   9.856  70.340  1.00  0.00    -0.372 A  
HETATM   26  C   UNL     1     -12.121  10.825  71.130  1.00  0.00    -0.415 A  
HETATM   27  C   UNL     1     -11.301  11.537  68.609  1.00  0.00    -0.330 A  
HETATM   28  C   UNL     1     -11.997  12.461  69.389  1.00  0.00    -0.319 A  
HETATM   29  C   UNL     1     -12.394  12.109  70.662  1.00  0.00    -0.385 A  
BRANCH  25  30
HETATM   30  C   UNL     1     -11.287   8.522  70.925  1.00  0.00    -0.268 A  
HETATM   31  N   UNL     1     -11.535   6.482  71.601  1.00  0.00    -0.283 NA 
HETATM   32  H   UNL     1     -13.011   7.461  70.391  1.00  0.00     0.000 HD 
HETATM   33  N   UNL     1     -10.373   6.865  72.106  1.00  0.00    -0.198 NA 
HETATM   34  N   UNL     1     -12.114   7.495  70.875  1.00  0.00    -0.266 NA 
HETATM   35  N   UNL     1     -10.218   8.128  71.690  1.00  0.00    -0.194 NA 
ENDBRANCH  25  30
ENDBRANCH  21  24
ENDBRANCH  17  18
ENDBRANCH   9  17
ENDBRANCH   3   4
ENDBRANCH   2   3
TORSDOF 6
ENDMDL
MODEL      203
REMARK 921   NORMALIZED FREE ENERGY PREDICTED BY IDOCK:   -4.91 KCAL/MOL
REMARK 922        TOTAL FREE ENERGY PREDICTED BY IDOCK:   -7.78 KCAL/MOL
REMARK 923 INTER-LIGAND FREE ENERGY PREDICTED BY IDOCK:   -6.14 KCAL/MOL
REMARK 924 INTRA-LIGAND FREE ENERGY PREDICTED BY IDOCK:   -1.63 KCAL/MOL
REMARK 927      BINDING AFFINITY PREDICTED BY RF-SCORE:    0.00 PKD
ROOT
HETATM    1  C   UNL     1      -6.256  14.057  69.802  1.00  0.00    -0.137 C  
HETATM    2  C   UNL     1      -6.200  12.656  69.206  1.00  0.00    -0.105 C  
ENDROOT
BRANCH   2   3
HETATM    3  C   UNL     1      -6.773  12.558  67.786  1.00  0.00    -0.123 C  
BRANCH   3   4
HETATM    4  C   UNL     1      -8.254  12.777  67.741  1.00  0.00    -0.176 A  
HETATM    5  N   UNL     1      -8.759  13.767  67.030  1.00  0.00    -0.221 NA 
HETATM    6  C   UNL     1     -10.100  13.818  67.286  1.00  0.00    -0.239 A  
HETATM    7  C   UNL     1     -10.953  14.903  66.662  1.00  0.00    -0.325 C  
HETATM    8  C   UNL     1     -10.441  12.834  68.210  1.00  0.00    -0.241 A  
HETATM    9  N   UNL     1      -9.264  12.081  68.385  1.00  0.00    -0.184 NA 
HETATM   10  O   UNL     1     -11.546  15.669  67.731  1.00  0.00    -0.270 OA 
HETATM   11  C   UNL     1     -12.101  14.324  65.825  1.00  0.00    -0.414 C  
HETATM   12  C   UNL     1     -10.152  15.870  65.774  1.00  0.00    -0.389 C  
HETATM   13  C   UNL     1     -11.698  12.553  68.863  1.00  0.00    -0.322 C  
HETATM   14  O   UNL     1     -12.477  13.641  69.057  1.00  0.00    -0.170 OA 
HETATM   15  O   UNL     1     -12.048  11.450  69.275  1.00  0.00    -0.325 OA 
HETATM   16  H   UNL     1     -12.081  16.349  67.340  1.00  0.00     0.000 HD 
BRANCH   9  17
HETATM   17  C   UNL     1      -9.271  10.827  69.179  1.00  0.00    -0.116 C  
BRANCH  17  18
HETATM   18  C   UNL     1      -9.105   9.522  68.450  1.00  0.00    -0.127 A  
HETATM   19  C   UNL     1      -7.843   8.935  68.318  1.00  0.00    -0.101 A  
HETATM   20  C   UNL     1      -7.648   7.886  67.410  1.00  0.00    -0.097 A  
HETATM   21  C   UNL     1      -8.684   7.426  66.566  1.00  0.00    -0.149 A  
HETATM   22  C   UNL     1      -9.975   7.882  66.878  1.00  0.00    -0.332 A  
HETATM   23  C   UNL     1     -10.189   8.898  67.824  1.00  0.00    -0.283 A  
BRANCH  21  24
HETATM   24  C   UNL     1      -8.352   6.701  65.289  1.00  0.00    -0.112 A  
HETATM   25  C   UNL     1      -8.423   5.302  65.051  1.00  0.00    -0.150 A  
HETATM   26  C   UNL     1      -8.240   4.813  63.728  1.00  0.00    -0.115 A  
HETATM   27  C   UNL     1      -8.060   7.517  64.158  1.00  0.00    -0.055 A  
HETATM   28  C   UNL     1      -7.852   7.014  62.874  1.00  0.00    -0.111 A  
HETATM   29  C   UNL     1      -7.960   5.657  62.654  1.00  0.00    -0.097 A  
BRANCH  25  30
HETATM   30  C   UNL     1      -8.638   4.299  66.098  1.00  0.00    -0.113 A  
HETATM   31  N   UNL     1      -9.447   2.980  67.609  1.00  0.00    -0.194 NA 
HETATM   32  H   UNL     1     -10.702   4.272  66.446  1.00  0.00     0.000 HD 
HETATM   33  N   UNL     1      -8.140   2.770  67.643  1.00  0.00    -0.074 NA 
HETATM   34  N   UNL     1      -9.769   3.925  66.665  1.00  0.00    -0.201 NA 
HETATM   35  N   UNL     1      -7.637   3.586  66.710  1.00  0.00    -0.079 NA 
ENDBRANCH  25  30
ENDBRANCH  21  24
ENDBRANCH  17  18
ENDBRANCH   9  17
ENDBRANCH   3   4
ENDBRANCH   2   3
TORSDOF 6
ENDMDL
MODEL      204
REMARK 921   NORMALIZED FREE ENERGY PREDICTED BY IDOCK:   -4.89 KCAL/MOL
REMARK 922        TOTAL FREE ENERGY PREDICTED BY IDOCK:   -7.76 KCAL/MOL
REMARK 923 INTER-LIGAND FREE ENERGY PREDICTED BY IDOCK:   -6.30 KCAL/MOL
REMARK 924 INTRA-LIGAND FREE ENERGY PREDICTED BY IDOCK:   -1.46 KCAL/MOL
REMARK 927      BINDING AFFINITY PREDICTED BY RF-SCORE:    0.00 PKD
ROOT
HETATM    1  C   UNL     1      -6.567  16.628  68.922  1.00  0.00    -0.178 C  
HETATM    2  C   UNL     1      -6.500  15.736  67.688  1.00  0.00    -0.190 C  
ENDROOT
BRANCH   2   3
HETATM    3  C   UNL     1      -6.690  14.243  67.985  1.00  0.00    -0.154 C  
BRANCH   3   4
HETATM    4  C   UNL     1      -8.054  13.747  67.617  1.00  0.00    -0.177 A  
HETATM    5  N   UNL     1      -9.092  14.560  67.663  1.00  0.00    -0.189 NA 
HETATM    6  C   UNL     1     -10.212  13.815  67.422  1.00  0.00    -0.252 A  
HETATM    7  C   UNL     1     -11.581  14.461  67.475  1.00  0.00    -0.373 C  
HETATM    8  C   UNL     1      -9.860  12.481  67.239  1.00  0.00    -0.204 A  
HETATM    9  N   UNL     1      -8.452  12.479  67.228  1.00  0.00    -0.178 NA 
HETATM   10  O   UNL     1     -12.346  13.791  68.499  1.00  0.00    -0.441 OA 
HETATM   11  C   UNL     1     -12.347  14.298  66.156  1.00  0.00    -0.411 C  
HETATM   12  C   UNL     1     -11.534  15.958  67.822  1.00  0.00    -0.128 C  
HETATM   13  C   UNL     1     -10.682  11.308  67.057  1.00  0.00    -0.260 C  
HETATM   14  O   UNL     1     -11.886  11.375  67.670  1.00  0.00    -0.609 OA 
HETATM   15  O   UNL     1     -10.341  10.292  66.457  1.00  0.00    -0.232 OA 
HETATM   16  H   UNL     1     -13.205  14.195  68.532  1.00  0.00     0.000 HD 
BRANCH   9  17
HETATM   17  C   UNL     1      -7.693  11.250  66.885  1.00  0.00    -0.152 C  
BRANCH  17  18
HETATM   18  C   UNL     1      -7.137  10.419  68.009  1.00  0.00    -0.082 A  
HETATM   19  C   UNL     1      -6.740   9.097  67.789  1.00  0.00    -0.065 A  
HETATM   20  C   UNL     1      -6.495   8.247  68.876  1.00  0.00    -0.052 A  
HETATM   21  C   UNL     1      -6.691   8.667  70.211  1.00  0.00    -0.040 A  
HETATM   22  C   UNL     1      -6.872  10.047  70.399  1.00  0.00    -0.140 A  
HETATM   23  C   UNL     1      -7.069  10.918  69.314  1.00  0.00    -0.124 A  
BRANCH  21  24
HETATM   24  C   UNL     1      -6.927   7.650  71.296  1.00  0.00    -0.050 A  
HETATM   25  C   UNL     1      -8.179   7.193  71.788  1.00  0.00    -0.105 A  
HETATM   26  C   UNL     1      -8.210   6.097  72.694  1.00  0.00    -0.107 A  
HETATM   27  C   UNL     1      -5.773   6.978  71.792  1.00  0.00    -0.037 A  
HETATM   28  C   UNL     1      -5.824   5.927  72.707  1.00  0.00    -0.036 A  
HETATM   29  C   UNL     1      -7.049   5.472  73.147  1.00  0.00    -0.082 A  
BRANCH  25  30
HETATM   30  C   UNL     1      -9.468   7.804  71.452  1.00  0.00    -0.148 A  
HETATM   31  N   UNL     1     -11.239   8.570  70.475  1.00  0.00    -0.257 NA 
HETATM   32  H   UNL     1      -9.733   7.484  69.400  1.00  0.00     0.000 HD 
HETATM   33  N   UNL     1     -11.365   8.941  71.739  1.00  0.00    -0.338 NA 
HETATM   34  N   UNL     1     -10.070   7.873  70.281  1.00  0.00    -0.194 NA 
HETATM   35  N   UNL     1     -10.270   8.469  72.346  1.00  0.00    -0.317 NA 
ENDBRANCH  25  30
ENDBRANCH  21  24
ENDBRANCH  17  18
ENDBRANCH   9  17
ENDBRANCH   3   4
ENDBRANCH   2   3
TORSDOF 6
ENDMDL
MODEL      205
REMARK 921   NORMALIZED FREE ENERGY PREDICTED BY IDOCK:   -4.87 KCAL/MOL
REMARK 922        TOTAL FREE ENERGY PREDICTED BY IDOCK:   -7.74 KCAL/MOL
REMARK 923 INTER-LIGAND FREE ENERGY PREDICTED BY IDOCK:   -6.18 KCAL/MOL
REMARK 924 INTRA-LIGAND FREE ENERGY PREDICTED BY IDOCK:   -1.56 KCAL/MOL
REMARK 927      BINDING AFFINITY PREDICTED BY RF-SCORE:    0.00 PKD
ROOT
HETATM    1  C   UNL     1     -11.772   9.470  71.051  1.00  0.00    -0.419 C  
HETATM    2  C   UNL     1     -10.272   9.308  71.263  1.00  0.00    -0.383 C  
ENDROOT
BRANCH   2   3
HETATM    3  C   UNL     1      -9.415   9.911  70.143  1.00  0.00    -0.214 C  
BRANCH   3   4
HETATM    4  C   UNL     1      -8.859   8.875  69.215  1.00  0.00    -0.139 A  
HETATM    5  N   UNL     1      -9.587   7.828  68.875  1.00  0.00    -0.153 NA 
HETATM    6  C   UNL     1      -8.789   6.988  68.151  1.00  0.00    -0.129 A  
HETATM    7  C   UNL     1      -9.325   5.655  67.670  1.00  0.00    -0.110 C  
HETATM    8  C   UNL     1      -7.508   7.523  68.053  1.00  0.00    -0.105 A  
HETATM    9  N   UNL     1      -7.608   8.806  68.624  1.00  0.00    -0.095 NA 
HETATM   10  O   UNL     1      -8.506   4.616  68.246  1.00  0.00    -0.097 OA 
HETATM   11  C   UNL     1      -9.236   5.513  66.146  1.00  0.00    -0.166 C  
HETATM   12  C   UNL     1     -10.782   5.399  68.092  1.00  0.00    -0.076 C  
HETATM   13  C   UNL     1      -6.301   6.974  67.479  1.00  0.00    -0.046 C  
HETATM   14  O   UNL     1      -6.222   5.626  67.543  1.00  0.00    -0.028 OA 
HETATM   15  O   UNL     1      -5.375   7.635  67.016  1.00  0.00    -0.028 OA 
HETATM   16  H   UNL     1      -8.842   3.780  67.945  1.00  0.00     0.000 HD 
BRANCH   9  17
HETATM   17  C   UNL     1      -6.477   9.764  68.555  1.00  0.00    -0.051 C  
BRANCH  17  18
HETATM   18  C   UNL     1      -6.786  11.218  68.324  1.00  0.00    -0.059 A  
HETATM   19  C   UNL     1      -6.687  12.141  69.369  1.00  0.00    -0.056 A  
HETATM   20  C   UNL     1      -7.241  13.421  69.230  1.00  0.00     0.117 A  
HETATM   21  C   UNL     1      -7.958  13.802  68.073  1.00  0.00    -0.156 A  
HETATM   22  C   UNL     1      -7.848  12.938  66.972  1.00  0.00    -0.006 A  
HETATM   23  C   UNL     1      -7.249  11.673  67.086  1.00  0.00    -0.145 A  
BRANCH  21  24
HETATM   24  C   UNL     1      -8.953  14.930  68.140  1.00  0.00    -0.176 A  
HETATM   25  C   UNL     1     -10.367  14.838  68.028  1.00  0.00    -0.237 A  
HETATM   26  C   UNL     1     -11.160  15.988  68.292  1.00  0.00    -0.351 A  
HETATM   27  C   UNL     1      -8.431  16.211  68.482  1.00  0.00    -0.197 A  
HETATM   28  C   UNL     1      -9.226  17.335  68.705  1.00  0.00    -0.266 A  
HETATM   29  C   UNL     1     -10.599  17.220  68.627  1.00  0.00    -0.329 A  
BRANCH  25  30
HETATM   30  C   UNL     1     -11.081  13.628  67.615  1.00  0.00    -0.273 A  
HETATM   31  N   UNL     1     -12.011  11.679  67.480  1.00  0.00    -0.621 NA 
HETATM   32  H   UNL     1     -11.109  12.379  69.295  1.00  0.00     0.000 HD 
HETATM   33  N   UNL     1     -12.150  12.203  66.272  1.00  0.00    -0.589 NA 
HETATM   34  N   UNL     1     -11.349  12.544  68.318  1.00  0.00    -0.263 NA 
HETATM   35  N   UNL     1     -11.575  13.408  66.352  1.00  0.00    -0.331 NA 
ENDBRANCH  25  30
ENDBRANCH  21  24
ENDBRANCH  17  18
ENDBRANCH   9  17
ENDBRANCH   3   4
ENDBRANCH   2   3
TORSDOF 6
ENDMDL
MODEL      206
REMARK 921   NORMALIZED FREE ENERGY PREDICTED BY IDOCK:   -4.86 KCAL/MOL
REMARK 922        TOTAL FREE ENERGY PREDICTED BY IDOCK:   -7.71 KCAL/MOL
REMARK 923 INTER-LIGAND FREE ENERGY PREDICTED BY IDOCK:   -6.68 KCAL/MOL
REMARK 924 INTRA-LIGAND FREE ENERGY PREDICTED BY IDOCK:   -1.04 KCAL/MOL
REMARK 927      BINDING AFFINITY PREDICTED BY RF-SCORE:    0.00 PKD
ROOT
HETATM    1  C   UNL     1      -7.578   7.616  71.497  1.00  0.00    -0.081 C  
HETATM    2  C   UNL     1      -6.578   7.111  70.463  1.00  0.00    -0.048 C  
ENDROOT
BRANCH   2   3
HETATM    3  C   UNL     1      -6.954   7.450  69.014  1.00  0.00    -0.077 C  
BRANCH   3   4
HETATM    4  C   UNL     1      -7.503   6.274  68.267  1.00  0.00    -0.090 A  
HETATM    5  N   UNL     1      -7.582   5.093  68.851  1.00  0.00    -0.079 NA 
HETATM    6  C   UNL     1      -7.975   4.189  67.905  1.00  0.00    -0.086 A  
HETATM    7  C   UNL     1      -8.093   2.721  68.257  1.00  0.00    -0.060 C  
HETATM    8  C   UNL     1      -8.129   4.829  66.677  1.00  0.00    -0.107 A  
HETATM    9  N   UNL     1      -7.957   6.197  66.961  1.00  0.00    -0.102 NA 
HETATM   10  O   UNL     1      -7.185   1.989  67.406  1.00  0.00    -0.053 OA 
HETATM   11  C   UNL     1      -9.502   2.175  67.995  1.00  0.00    -0.201 C  
HETATM   12  C   UNL     1      -7.723   2.415  69.718  1.00  0.00    -0.046 C  
HETATM   13  C   UNL     1      -8.431   4.295  65.370  1.00  0.00    -0.118 C  
HETATM   14  O   UNL     1      -7.979   3.036  65.168  1.00  0.00    -0.081 OA 
HETATM   15  O   UNL     1      -8.995   4.910  64.469  1.00  0.00    -0.151 OA 
HETATM   16  H   UNL     1      -7.259   1.068  67.626  1.00  0.00     0.000 HD 
BRANCH   9  17
HETATM   17  C   UNL     1      -8.214   7.229  65.926  1.00  0.00    -0.132 C  
BRANCH  17  18
HETATM   18  C   UNL     1      -9.283   8.254  66.190  1.00  0.00    -0.250 A  
HETATM   19  C   UNL     1      -9.290   9.470  65.502  1.00  0.00    -0.317 A  
HETATM   20  C   UNL     1     -10.102  10.523  65.944  1.00  0.00    -0.323 A  
HETATM   21  C   UNL     1     -10.887  10.420  67.115  1.00  0.00    -0.301 A  
HETATM   22  C   UNL     1     -11.024   9.128  67.648  1.00  0.00    -0.024 A  
HETATM   23  C   UNL     1     -10.252   8.052  67.179  1.00  0.00    -0.362 A  
BRANCH  21  24
HETATM   24  C   UNL     1     -11.323  11.662  67.844  1.00  0.00    -0.369 A  
HETATM   25  C   UNL     1     -11.479  11.827  69.247  1.00  0.00    -0.369 A  
HETATM   26  C   UNL     1     -11.729  13.126  69.770  1.00  0.00    -0.350 A  
HETATM   27  C   UNL     1     -11.468  12.839  67.053  1.00  0.00    -0.397 A  
HETATM   28  C   UNL     1     -11.746  14.098  67.584  1.00  0.00    -0.421 A  
HETATM   29  C   UNL     1     -11.860  14.246  68.951  1.00  0.00    -0.372 A  
BRANCH  25  30
HETATM   30  C   UNL     1     -11.439  10.726  70.213  1.00  0.00    -0.319 A  
HETATM   31  N   UNL     1     -10.869   9.127  71.554  1.00  0.00    -0.343 NA 
HETATM   32  H   UNL     1      -9.410  10.313  70.522  1.00  0.00     0.000 HD 
HETATM   33  N   UNL     1     -12.193   9.124  71.570  1.00  0.00    -0.328 NA 
HETATM   34  N   UNL     1     -10.389  10.106  70.717  1.00  0.00     0.002 NA 
HETATM   35  N   UNL     1     -12.548  10.112  70.740  1.00  0.00    -0.323 NA 
ENDBRANCH  25  30
ENDBRANCH  21  24
ENDBRANCH  17  18
ENDBRANCH   9  17
ENDBRANCH   3   4
ENDBRANCH   2   3
TORSDOF 6
ENDMDL
MODEL      207
REMARK 921   NORMALIZED FREE ENERGY PREDICTED BY IDOCK:   -4.85 KCAL/MOL
REMARK 922        TOTAL FREE ENERGY PREDICTED BY IDOCK:   -7.70 KCAL/MOL
REMARK 923 INTER-LIGAND FREE ENERGY PREDICTED BY IDOCK:   -7.11 KCAL/MOL
REMARK 924 INTRA-LIGAND FREE ENERGY PREDICTED BY IDOCK:   -0.59 KCAL/MOL
REMARK 927      BINDING AFFINITY PREDICTED BY RF-SCORE:    0.00 PKD
ROOT
HETATM    1  C   UNL     1      -8.378  15.879  68.867  1.00  0.00    -0.226 C  
HETATM    2  C   UNL     1      -6.972  15.361  68.589  1.00  0.00    -0.111 C  
ENDROOT
BRANCH   2   3
HETATM    3  C   UNL     1      -6.917  14.219  67.567  1.00  0.00    -0.177 C  
BRANCH   3   4
HETATM    4  C   UNL     1      -8.252  13.576  67.343  1.00  0.00    -0.181 A  
HETATM    5  N   UNL     1      -9.130  14.132  66.531  1.00  0.00    -0.219 NA 
HETATM    6  C   UNL     1     -10.293  13.422  66.631  1.00  0.00    -0.269 A  
HETATM    7  C   UNL     1     -11.522  13.860  65.861  1.00  0.00    -0.325 C  
HETATM    8  C   UNL     1     -10.139  12.394  67.558  1.00  0.00    -0.202 A  
HETATM    9  N   UNL     1      -8.774  12.421  67.902  1.00  0.00    -0.167 NA 
HETATM   10  O   UNL     1     -12.565  14.141  66.818  1.00  0.00    -0.554 OA 
HETATM   11  C   UNL     1     -12.042  12.759  64.930  1.00  0.00    -0.490 C  
HETATM   12  C   UNL     1     -11.292  15.129  65.024  1.00  0.00    -0.381 C  
HETATM   13  C   UNL     1     -11.096  11.445  68.076  1.00  0.00    -0.257 C  
HETATM   14  O   UNL     1     -12.365  11.909  68.127  1.00  0.00    -0.347 OA 
HETATM   15  O   UNL     1     -10.821  10.325  68.501  1.00  0.00    -0.213 OA 
HETATM   16  H   UNL     1     -13.336  14.416  66.335  1.00  0.00     0.000 HD 
BRANCH   9  17
HETATM   17  C   UNL     1      -8.179  11.358  68.750  1.00  0.00    -0.107 C  
BRANCH  17  18
HETATM   18  C   UNL     1      -7.867  10.031  68.116  1.00  0.00    -0.089 A  
HETATM   19  C   UNL     1      -7.879   9.886  66.726  1.00  0.00    -0.109 A  
HETATM   20  C   UNL     1      -7.871   8.606  66.153  1.00  0.00    -0.098 A  
HETATM   21  C   UNL     1      -7.908   7.435  66.942  1.00  0.00    -0.115 A  
HETATM   22  C   UNL     1      -7.675   7.614  68.316  1.00  0.00    -0.120 A  
HETATM   23  C   UNL     1      -7.630   8.893  68.894  1.00  0.00    -0.087 A  
BRANCH  21  24
HETATM   24  C   UNL     1      -8.409   6.143  66.353  1.00  0.00    -0.120 A  
HETATM   25  C   UNL     1      -9.504   5.358  66.806  1.00  0.00    -0.144 A  
HETATM   26  C   UNL     1      -9.942   4.259  66.018  1.00  0.00    -0.234 A  
HETATM   27  C   UNL     1      -7.802   5.730  65.132  1.00  0.00    -0.105 A  
HETATM   28  C   UNL     1      -8.228   4.628  64.391  1.00  0.00    -0.112 A  
HETATM   29  C   UNL     1      -9.314   3.898  64.827  1.00  0.00    -0.157 A  
BRANCH  25  30
HETATM   30  C   UNL     1     -10.206   5.581  68.072  1.00  0.00    -0.181 A  
HETATM   31  N   UNL     1     -11.467   6.295  69.679  1.00  0.00    -0.429 NA 
HETATM   32  H   UNL     1     -11.573   7.123  67.703  1.00  0.00     0.000 HD 
HETATM   33  N   UNL     1     -10.726   5.346  70.229  1.00  0.00    -0.263 NA 
HETATM   34  N   UNL     1     -11.154   6.456  68.350  1.00  0.00    -0.317 NA 
HETATM   35  N   UNL     1      -9.944   4.903  69.238  1.00  0.00    -0.205 NA 
ENDBRANCH  25  30
ENDBRANCH  21  24
ENDBRANCH  17  18
ENDBRANCH   9  17
ENDBRANCH   3   4
ENDBRANCH   2   3
TORSDOF 6
ENDMDL
MODEL      208
REMARK 921   NORMALIZED FREE ENERGY PREDICTED BY IDOCK:   -4.84 KCAL/MOL
REMARK 922        TOTAL FREE ENERGY PREDICTED BY IDOCK:   -7.69 KCAL/MOL
REMARK 923 INTER-LIGAND FREE ENERGY PREDICTED BY IDOCK:   -6.16 KCAL/MOL
REMARK 924 INTRA-LIGAND FREE ENERGY PREDICTED BY IDOCK:   -1.52 KCAL/MOL
REMARK 927      BINDING AFFINITY PREDICTED BY RF-SCORE:    0.00 PKD
ROOT
HETATM    1  C   UNL     1     -12.348   7.047  71.525  1.00  0.00    -0.420 C  
HETATM    2  C   UNL     1     -12.886   8.422  71.901  1.00  0.00    -0.384 C  
ENDROOT
BRANCH   2   3
HETATM    3  C   UNL     1     -12.021   9.588  71.402  1.00  0.00    -0.464 C  
BRANCH   3   4
HETATM    4  C   UNL     1     -10.626   9.169  71.054  1.00  0.00    -0.292 A  
HETATM    5  N   UNL     1      -9.712   9.050  71.998  1.00  0.00    -0.288 NA 
HETATM    6  C   UNL     1      -8.516   8.803  71.387  1.00  0.00    -0.188 A  
HETATM    7  C   UNL     1      -7.250   8.683  72.211  1.00  0.00    -0.001 C  
HETATM    8  C   UNL     1      -8.687   8.787  70.005  1.00  0.00    -0.144 A  
HETATM    9  N   UNL     1     -10.079   8.884  69.814  1.00  0.00    -0.193 NA 
HETATM   10  O   UNL     1      -6.337   9.709  71.769  1.00  0.00    -0.300 OA 
HETATM   11  C   UNL     1      -6.553   7.333  72.003  1.00  0.00    -0.054 C  
HETATM   12  C   UNL     1      -7.487   8.875  73.718  1.00  0.00     0.277 C  
HETATM   13  C   UNL     1      -7.720   8.665  68.939  1.00  0.00    -0.100 C  
HETATM   14  O   UNL     1      -6.503   9.173  69.235  1.00  0.00    -0.044 OA 
HETATM   15  O   UNL     1      -7.952   8.202  67.825  1.00  0.00    -0.122 OA 
HETATM   16  H   UNL     1      -5.543   9.633  72.286  1.00  0.00     0.000 HD 
BRANCH   9  17
HETATM   17  C   UNL     1     -10.676   8.731  68.464  1.00  0.00    -0.060 C  
BRANCH  17  18
HETATM   18  C   UNL     1     -10.998   9.975  67.681  1.00  0.00    -0.297 A  
HETATM   19  C   UNL     1     -10.368  10.230  66.460  1.00  0.00    -0.276 A  
HETATM   20  C   UNL     1     -10.451  11.503  65.879  1.00  0.00    -0.303 A  
HETATM   21  C   UNL     1     -11.112  12.574  66.521  1.00  0.00    -0.330 A  
HETATM   22  C   UNL     1     -11.910  12.229  67.624  1.00  0.00    -0.334 A  
HETATM   23  C   UNL     1     -11.874  10.942  68.184  1.00  0.00    -0.125 A  
BRANCH  21  24
HETATM   24  C   UNL     1     -10.764  13.996  66.168  1.00  0.00    -0.289 A  
HETATM   25  C   UNL     1      -9.679  14.766  66.669  1.00  0.00    -0.281 A  
HETATM   26  C   UNL     1      -9.403  16.034  66.089  1.00  0.00    -0.377 A  
HETATM   27  C   UNL     1     -11.527  14.591  65.122  1.00  0.00    -0.368 A  
HETATM   28  C   UNL     1     -11.258  15.851  64.589  1.00  0.00    -0.361 A  
HETATM   29  C   UNL     1     -10.180  16.570  65.063  1.00  0.00     0.274 A  
BRANCH  25  30
HETATM   30  C   UNL     1      -8.829  14.356  67.789  1.00  0.00    -0.186 A  
HETATM   31  N   UNL     1      -7.765  14.178  69.664  1.00  0.00     0.276 NA 
HETATM   32  H   UNL     1      -9.215  15.723  69.328  1.00  0.00     0.000 HD 
HETATM   33  N   UNL     1      -7.296  13.192  68.916  1.00  0.00    -0.065 NA 
HETATM   34  N   UNL     1      -8.707  14.909  68.981  1.00  0.00    -0.193 NA 
HETATM   35  N   UNL     1      -7.952  13.300  67.755  1.00  0.00    -0.151 NA 
ENDBRANCH  25  30
ENDBRANCH  21  24
ENDBRANCH  17  18
ENDBRANCH   9  17
ENDBRANCH   3   4
ENDBRANCH   2   3
TORSDOF 6
ENDMDL
MODEL      209
REMARK 921   NORMALIZED FREE ENERGY PREDICTED BY IDOCK:   -4.83 KCAL/MOL
REMARK 922        TOTAL FREE ENERGY PREDICTED BY IDOCK:   -7.67 KCAL/MOL
REMARK 923 INTER-LIGAND FREE ENERGY PREDICTED BY IDOCK:   -6.52 KCAL/MOL
REMARK 924 INTRA-LIGAND FREE ENERGY PREDICTED BY IDOCK:   -1.15 KCAL/MOL
REMARK 927      BINDING AFFINITY PREDICTED BY RF-SCORE:    0.00 PKD
ROOT
HETATM    1  C   UNL     1     -10.893   5.740  66.666  1.00  0.00    -0.290 C  
HETATM    2  C   UNL     1      -9.467   5.915  66.159  1.00  0.00    -0.131 C  
ENDROOT
BRANCH   2   3
HETATM    3  C   UNL     1      -8.672   7.001  66.895  1.00  0.00    -0.122 C  
BRANCH   3   4
HETATM    4  C   UNL     1      -9.185   7.260  68.278  1.00  0.00    -0.133 A  
HETATM    5  N   UNL     1      -8.664   6.625  69.310  1.00  0.00    -0.131 NA 
HETATM    6  C   UNL     1      -9.411   6.940  70.410  1.00  0.00    -0.159 A  
HETATM    7  C   UNL     1      -9.098   6.307  71.750  1.00  0.00    -0.144 C  
HETATM    8  C   UNL     1     -10.452   7.789  70.044  1.00  0.00    -0.230 A  
HETATM    9  N   UNL     1     -10.207   8.098  68.692  1.00  0.00    -0.204 NA 
HETATM   10  O   UNL     1     -10.265   5.573  72.176  1.00  0.00    -0.187 OA 
HETATM   11  C   UNL     1      -8.802   7.357  72.828  1.00  0.00    -0.168 C  
HETATM   12  C   UNL     1      -7.915   5.326  71.696  1.00  0.00    -0.115 C  
HETATM   13  C   UNL     1     -11.553   8.314  70.818  1.00  0.00    -0.236 C  
HETATM   14  O   UNL     1     -11.965   7.501  71.817  1.00  0.00    -0.280 OA 
HETATM   15  O   UNL     1     -12.133   9.373  70.592  1.00  0.00    -0.239 OA 
HETATM   16  H   UNL     1     -10.069   5.176  73.016  1.00  0.00     0.000 HD 
BRANCH   9  17
HETATM   17  C   UNL     1     -11.016   9.121  67.984  1.00  0.00     0.031 C  
BRANCH  17  18
HETATM   18  C   UNL     1     -10.351  10.412  67.596  1.00  0.00    -0.260 A  
HETATM   19  C   UNL     1     -10.021  11.363  68.565  1.00  0.00    -0.203 A  
HETATM   20  C   UNL     1      -9.669  12.665  68.182  1.00  0.00    -0.219 A  
HETATM   21  C   UNL     1      -9.689  13.075  66.830  1.00  0.00    -0.248 A  
HETATM   22  C   UNL     1      -9.808  12.049  65.879  1.00  0.00    -0.259 A  
HETATM   23  C   UNL     1     -10.111  10.729  66.255  1.00  0.00    -0.285 A  
BRANCH  21  24
HETATM   24  C   UNL     1      -9.820  14.535  66.486  1.00  0.00    -0.297 A  
HETATM   25  C   UNL     1      -8.899  15.576  66.786  1.00  0.00    -0.297 A  
HETATM   26  C   UNL     1      -9.106  16.867  66.227  1.00  0.00    -0.302 A  
HETATM   27  C   UNL     1     -10.923  14.891  65.658  1.00  0.00    -0.347 A  
HETATM   28  C   UNL     1     -11.125  16.174  65.147  1.00  0.00    -0.256 A  
HETATM   29  C   UNL     1     -10.202  17.163  65.419  1.00  0.00     0.043 A  
BRANCH  25  30
HETATM   30  C   UNL     1      -7.747  15.422  67.677  1.00  0.00    -0.160 A  
HETATM   31  N   UNL     1      -6.290  15.558  69.271  1.00  0.00    -0.124 NA 
HETATM   32  H   UNL     1      -8.133  16.654  69.326  1.00  0.00     0.000 HD 
HETATM   33  N   UNL     1      -5.753  14.724  68.394  1.00  0.00    -0.097 NA 
HETATM   34  N   UNL     1      -7.518  16.001  68.840  1.00  0.00    -0.174 NA 
HETATM   35  N   UNL     1      -6.652  14.639  67.407  1.00  0.00    -0.298 NA 
ENDBRANCH  25  30
ENDBRANCH  21  24
ENDBRANCH  17  18
ENDBRANCH   9  17
ENDBRANCH   3   4
ENDBRANCH   2   3
TORSDOF 6
ENDMDL
MODEL      210
REMARK 921   NORMALIZED FREE ENERGY PREDICTED BY IDOCK:   -4.81 KCAL/MOL
REMARK 922        TOTAL FREE ENERGY PREDICTED BY IDOCK:   -7.65 KCAL/MOL
REMARK 923 INTER-LIGAND FREE ENERGY PREDICTED BY IDOCK:   -6.70 KCAL/MOL
REMARK 924 INTRA-LIGAND FREE ENERGY PREDICTED BY IDOCK:   -0.95 KCAL/MOL
REMARK 927      BINDING AFFINITY PREDICTED BY RF-SCORE:    0.00 PKD
ROOT
HETATM    1  C   UNL     1      -7.697   5.034  64.222  1.00  0.00    -0.085 C  
HETATM    2  C   UNL     1      -7.325   5.507  65.623  1.00  0.00    -0.073 C  
ENDROOT
BRANCH   2   3
HETATM    3  C   UNL     1      -8.449   6.258  66.347  1.00  0.00    -0.125 C  
BRANCH   3   4
HETATM    4  C   UNL     1      -8.619   5.818  67.769  1.00  0.00    -0.101 A  
HETATM    5  N   UNL     1      -7.680   5.105  68.361  1.00  0.00    -0.079 NA 
HETATM    6  C   UNL     1      -8.157   4.725  69.584  1.00  0.00    -0.065 A  
HETATM    7  C   UNL     1      -7.327   3.832  70.481  1.00  0.00    -0.041 C  
HETATM    8  C   UNL     1      -9.454   5.204  69.752  1.00  0.00    -0.150 A  
HETATM    9  N   UNL     1      -9.683   6.025  68.631  1.00  0.00    -0.124 NA 
HETATM   10  O   UNL     1      -8.079   2.623  70.720  1.00  0.00    -0.049 OA 
HETATM   11  C   UNL     1      -7.058   4.476  71.846  1.00  0.00    -0.056 C  
HETATM   12  C   UNL     1      -5.977   3.435  69.862  1.00  0.00    -0.023 C  
HETATM   13  C   UNL     1     -10.405   4.989  70.818  1.00  0.00    -0.195 C  
HETATM   14  O   UNL     1     -10.284   3.791  71.434  1.00  0.00    -0.092 OA 
HETATM   15  O   UNL     1     -11.298   5.769  71.135  1.00  0.00    -0.215 OA 
HETATM   16  H   UNL     1      -7.559   2.063  71.283  1.00  0.00     0.000 HD 
BRANCH   9  17
HETATM   17  C   UNL     1     -10.908   6.857  68.532  1.00  0.00    -0.180 C  
BRANCH  17  18
HETATM   18  C   UNL     1     -10.820   8.305  68.929  1.00  0.00     0.002 A  
HETATM   19  C   UNL     1     -10.505   8.666  70.241  1.00  0.00    -0.229 A  
HETATM   20  C   UNL     1     -10.702   9.985  70.674  1.00  0.00    -0.325 A  
HETATM   21  C   UNL     1     -11.269  10.969  69.834  1.00  0.00    -0.327 A  
HETATM   22  C   UNL     1     -11.365  10.632  68.474  1.00  0.00    -0.348 A  
HETATM   23  C   UNL     1     -11.122   9.325  68.020  1.00  0.00     0.055 A  
BRANCH  21  24
HETATM   24  C   UNL     1     -11.934  12.180  70.432  1.00  0.00    -0.360 A  
HETATM   25  C   UNL     1     -12.000  13.487  69.878  1.00  0.00    -0.416 A  
HETATM   26  C   UNL     1     -12.824  14.464  70.503  1.00  0.00    -0.353 A  
HETATM   27  C   UNL     1     -12.692  11.960  71.619  1.00  0.00    -0.340 A  
HETATM   28  C   UNL     1     -13.469  12.943  72.233  1.00  0.00    -0.631 A  
HETATM   29  C   UNL     1     -13.549  14.196  71.663  1.00  0.00    -0.446 A  
BRANCH  25  30
HETATM   30  C   UNL     1     -11.235  13.923  68.708  1.00  0.00    -0.272 A  
HETATM   31  N   UNL     1     -10.565  14.536  66.744  1.00  0.00    -0.273 NA 
HETATM   32  H   UNL     1     -12.636  14.175  67.172  1.00  0.00     0.000 HD 
HETATM   33  N   UNL     1      -9.460  14.459  67.468  1.00  0.00    -0.204 NA 
HETATM   34  N   UNL     1     -11.668  14.203  67.493  1.00  0.00    -0.366 NA 
HETATM   35  N   UNL     1      -9.871  14.079  68.683  1.00  0.00    -0.218 NA 
ENDBRANCH  25  30
ENDBRANCH  21  24
ENDBRANCH  17  18
ENDBRANCH   9  17
ENDBRANCH   3   4
ENDBRANCH   2   3
TORSDOF 6
ENDMDL
MODEL      211
REMARK 921   NORMALIZED FREE ENERGY PREDICTED BY IDOCK:   -4.80 KCAL/MOL
REMARK 922        TOTAL FREE ENERGY PREDICTED BY IDOCK:   -7.64 KCAL/MOL
REMARK 923 INTER-LIGAND FREE ENERGY PREDICTED BY IDOCK:   -6.43 KCAL/MOL
REMARK 924 INTRA-LIGAND FREE ENERGY PREDICTED BY IDOCK:   -1.21 KCAL/MOL
REMARK 927      BINDING AFFINITY PREDICTED BY RF-SCORE:    0.00 PKD
ROOT
HETATM    1  C   UNL     1     -11.751  13.645  69.308  1.00  0.00    -0.376 C  
HETATM    2  C   UNL     1     -11.689  12.139  69.531  1.00  0.00    -0.402 C  
ENDROOT
BRANCH   2   3
HETATM    3  C   UNL     1     -11.600  11.319  68.237  1.00  0.00    -0.370 C  
BRANCH   3   4
HETATM    4  C   UNL     1     -10.200  10.900  67.910  1.00  0.00    -0.179 A  
HETATM    5  N   UNL     1      -9.187  11.704  68.172  1.00  0.00    -0.178 NA 
HETATM    6  C   UNL     1      -8.062  11.137  67.643  1.00  0.00    -0.117 A  
HETATM    7  C   UNL     1      -6.734  11.862  67.724  1.00  0.00    -0.087 C  
HETATM    8  C   UNL     1      -8.390   9.942  67.009  1.00  0.00    -0.121 A  
HETATM    9  N   UNL     1      -9.749   9.734  67.313  1.00  0.00    -0.163 NA 
HETATM   10  O   UNL     1      -6.270  12.084  66.375  1.00  0.00    -0.477 OA 
HETATM   11  C   UNL     1      -5.666  11.030  68.442  1.00  0.00    -0.042 C  
HETATM   12  C   UNL     1      -6.830  13.228  68.423  1.00  0.00    -0.098 C  
HETATM   13  C   UNL     1      -7.578   9.038  66.229  1.00  0.00    -0.092 C  
HETATM   14  O   UNL     1      -6.567   9.638  65.562  1.00  0.00    -0.073 OA 
HETATM   15  O   UNL     1      -7.783   7.833  66.105  1.00  0.00    -0.085 OA 
HETATM   16  H   UNL     1      -5.437  12.538  66.426  1.00  0.00     0.000 HD 
BRANCH   9  17
HETATM   17  C   UNL     1     -10.428   8.465  66.951  1.00  0.00    -0.289 C  
BRANCH  17  18
HETATM   18  C   UNL     1     -10.577   7.408  68.010  1.00  0.00    -0.235 A  
HETATM   19  C   UNL     1     -10.892   7.759  69.326  1.00  0.00    -0.091 A  
HETATM   20  C   UNL     1     -10.751   6.819  70.356  1.00  0.00    -0.281 A  
HETATM   21  C   UNL     1     -10.240   5.523  70.120  1.00  0.00    -0.333 A  
HETATM   22  C   UNL     1     -10.145   5.139  68.772  1.00  0.00    -0.231 A  
HETATM   23  C   UNL     1     -10.334   6.060  67.729  1.00  0.00    -0.254 A  
BRANCH  21  24
HETATM   24  C   UNL     1      -9.623   4.737  71.246  1.00  0.00    -0.232 A  
HETATM   25  C   UNL     1      -8.957   5.252  72.390  1.00  0.00    -0.137 A  
HETATM   26  C   UNL     1      -8.592   4.364  73.440  1.00  0.00    -0.097 A  
HETATM   27  C   UNL     1      -9.845   3.329  71.228  1.00  0.00    -0.169 A  
HETATM   28  C   UNL     1      -9.450   2.471  72.254  1.00  0.00    -0.169 A  
HETATM   29  C   UNL     1      -8.836   2.993  73.373  1.00  0.00    -0.080 A  
BRANCH  25  30
HETATM   30  C   UNL     1      -8.575   6.657  72.556  1.00  0.00    -0.124 A  
HETATM   31  N   UNL     1      -8.394   8.729  73.150  1.00  0.00    -0.345 NA 
HETATM   32  H   UNL     1      -9.768   7.392  74.112  1.00  0.00     0.000 HD 
HETATM   33  N   UNL     1      -7.531   8.587  72.156  1.00  0.00    -0.223 NA 
HETATM   34  N   UNL     1      -9.050   7.549  73.404  1.00  0.00    -0.189 NA 
HETATM   35  N   UNL     1      -7.641   7.306  71.786  1.00  0.00    -0.085 NA 
ENDBRANCH  25  30
ENDBRANCH  21  24
ENDBRANCH  17  18
ENDBRANCH   9  17
ENDBRANCH   3   4
ENDBRANCH   2   3
TORSDOF 6
ENDMDL
MODEL      212
REMARK 921   NORMALIZED FREE ENERGY PREDICTED BY IDOCK:   -4.79 KCAL/MOL
REMARK 922        TOTAL FREE ENERGY PREDICTED BY IDOCK:   -7.63 KCAL/MOL
REMARK 923 INTER-LIGAND FREE ENERGY PREDICTED BY IDOCK:   -6.48 KCAL/MOL
REMARK 924 INTRA-LIGAND FREE ENERGY PREDICTED BY IDOCK:   -1.15 KCAL/MOL
REMARK 927      BINDING AFFINITY PREDICTED BY RF-SCORE:    0.00 PKD
ROOT
HETATM    1  C   UNL     1      -6.776   8.697  71.802  1.00  0.00    -0.085 C  
HETATM    2  C   UNL     1      -6.516   7.475  70.929  1.00  0.00    -0.039 C  
ENDROOT
BRANCH   2   3
HETATM    3  C   UNL     1      -7.758   6.608  70.683  1.00  0.00    -0.104 C  
BRANCH   3   4
HETATM    4  C   UNL     1      -7.682   5.836  69.401  1.00  0.00    -0.092 A  
HETATM    5  N   UNL     1      -7.994   4.554  69.378  1.00  0.00    -0.062 NA 
HETATM    6  C   UNL     1      -7.698   4.079  68.132  1.00  0.00    -0.066 A  
HETATM    7  C   UNL     1      -7.885   2.610  67.813  1.00  0.00    -0.060 C  
HETATM    8  C   UNL     1      -7.160   5.101  67.354  1.00  0.00    -0.066 A  
HETATM    9  N   UNL     1      -7.289   6.260  68.143  1.00  0.00    -0.087 NA 
HETATM   10  O   UNL     1      -6.600   2.073  67.433  1.00  0.00    -0.031 OA 
HETATM   11  C   UNL     1      -8.836   2.394  66.629  1.00  0.00    -0.139 C  
HETATM   12  C   UNL     1      -8.407   1.792  69.005  1.00  0.00    -0.072 C  
HETATM   13  C   UNL     1      -6.609   5.076  66.019  1.00  0.00    -0.045 C  
HETATM   14  O   UNL     1      -6.029   3.902  65.682  1.00  0.00    -0.022 OA 
HETATM   15  O   UNL     1      -6.592   6.028  65.244  1.00  0.00    -0.041 OA 
HETATM   16  H   UNL     1      -6.718   1.152  67.233  1.00  0.00     0.000 HD 
BRANCH   9  17
HETATM   17  C   UNL     1      -6.977   7.600  67.588  1.00  0.00    -0.081 C  
BRANCH  17  18
HETATM   18  C   UNL     1      -8.071   8.632  67.558  1.00  0.00    -0.106 A  
HETATM   19  C   UNL     1      -9.385   8.269  67.251  1.00  0.00    -0.181 A  
HETATM   20  C   UNL     1     -10.334   9.255  66.947  1.00  0.00    -0.316 A  
HETATM   21  C   UNL     1      -9.993  10.625  66.884  1.00  0.00    -0.245 A  
HETATM   22  C   UNL     1      -8.735  10.968  67.408  1.00  0.00    -0.132 A  
HETATM   23  C   UNL     1      -7.794   9.988  67.764  1.00  0.00    -0.094 A  
BRANCH  21  24
HETATM   24  C   UNL     1     -10.839  11.577  66.082  1.00  0.00    -0.330 A  
HETATM   25  C   UNL     1     -11.607  12.668  66.572  1.00  0.00    -0.441 A  
HETATM   26  C   UNL     1     -12.204  13.568  65.646  1.00  0.00    -0.500 A  
HETATM   27  C   UNL     1     -10.757  11.452  64.664  1.00  0.00    -0.378 A  
HETATM   28  C   UNL     1     -11.378  12.328  63.774  1.00  0.00    -0.534 A  
HETATM   29  C   UNL     1     -12.090  13.401  64.267  1.00  0.00    -0.479 A  
BRANCH  25  30
HETATM   30  C   UNL     1     -11.867  12.917  67.992  1.00  0.00    -0.343 A  
HETATM   31  N   UNL     1     -12.275  13.779  69.934  1.00  0.00    -0.331 NA 
HETATM   32  H   UNL     1     -12.243  14.971  68.151  1.00  0.00     0.000 HD 
HETATM   33  N   UNL     1     -12.074  12.492  70.172  1.00  0.00    -0.332 NA 
HETATM   34  N   UNL     1     -12.144  14.058  68.594  1.00  0.00    -0.339 NA 
HETATM   35  N   UNL     1     -11.820  11.957  68.972  1.00  0.00    -0.310 NA 
ENDBRANCH  25  30
ENDBRANCH  21  24
ENDBRANCH  17  18
ENDBRANCH   9  17
ENDBRANCH   3   4
ENDBRANCH   2   3
TORSDOF 6
ENDMDL
MODEL      213
REMARK 921   NORMALIZED FREE ENERGY PREDICTED BY IDOCK:   -4.79 KCAL/MOL
REMARK 922        TOTAL FREE ENERGY PREDICTED BY IDOCK:   -7.62 KCAL/MOL
REMARK 923 INTER-LIGAND FREE ENERGY PREDICTED BY IDOCK:   -6.35 KCAL/MOL
REMARK 924 INTRA-LIGAND FREE ENERGY PREDICTED BY IDOCK:   -1.26 KCAL/MOL
REMARK 927      BINDING AFFINITY PREDICTED BY RF-SCORE:    0.00 PKD
ROOT
HETATM    1  C   UNL     1     -12.416  10.463  71.299  1.00  0.00    -0.521 C  
HETATM    2  C   UNL     1     -11.680   9.545  70.330  1.00  0.00    -0.227 C  
ENDROOT
BRANCH   2   3
HETATM    3  C   UNL     1     -10.356  10.119  69.809  1.00  0.00    -0.297 C  
BRANCH   3   4
HETATM    4  C   UNL     1     -10.538  11.016  68.624  1.00  0.00    -0.196 A  
HETATM    5  N   UNL     1     -10.457  12.326  68.763  1.00  0.00    -0.200 NA 
HETATM    6  C   UNL     1     -10.805  12.891  67.569  1.00  0.00    -0.235 A  
HETATM    7  C   UNL     1     -10.872  14.397  67.430  1.00  0.00    -0.292 C  
HETATM    8  C   UNL     1     -11.137  11.893  66.655  1.00  0.00    -0.310 A  
HETATM    9  N   UNL     1     -10.823  10.687  67.309  1.00  0.00    -0.286 NA 
HETATM   10  O   UNL     1     -12.223  14.747  67.060  1.00  0.00    -0.438 OA 
HETATM   11  C   UNL     1      -9.948  14.916  66.321  1.00  0.00    -0.300 C  
HETATM   12  C   UNL     1     -10.529  15.142  68.730  1.00  0.00    -0.234 C  
HETATM   13  C   UNL     1     -11.655  11.985  65.310  1.00  0.00    -0.279 C  
HETATM   14  O   UNL     1     -12.425  13.074  65.087  1.00  0.00    -0.460 OA 
HETATM   15  O   UNL     1     -11.487  11.145  64.430  1.00  0.00    -0.073 OA 
HETATM   16  H   UNL     1     -12.265  15.692  66.973  1.00  0.00     0.000 HD 
BRANCH   9  17
HETATM   17  C   UNL     1     -10.882   9.390  66.590  1.00  0.00     0.121 C  
BRANCH  17  18
HETATM   18  C   UNL     1     -10.229   8.193  67.223  1.00  0.00    -0.348 A  
HETATM   19  C   UNL     1      -8.848   8.001  67.126  1.00  0.00    -0.138 A  
HETATM   20  C   UNL     1      -8.285   6.762  67.461  1.00  0.00    -0.122 A  
HETATM   21  C   UNL     1      -9.082   5.661  67.849  1.00  0.00    -0.107 A  
HETATM   22  C   UNL     1     -10.424   5.950  68.144  1.00  0.00    -0.291 A  
HETATM   23  C   UNL     1     -10.987   7.205  67.859  1.00  0.00    -0.154 A  
BRANCH  21  24
HETATM   24  C   UNL     1      -8.554   4.259  67.703  1.00  0.00    -0.110 A  
HETATM   25  C   UNL     1      -8.531   3.466  66.523  1.00  0.00    -0.109 A  
HETATM   26  C   UNL     1      -7.832   2.227  66.533  1.00  0.00    -0.072 A  
HETATM   27  C   UNL     1      -7.888   3.715  68.839  1.00  0.00    -0.052 A  
HETATM   28  C   UNL     1      -7.236   2.482  68.836  1.00  0.00    -0.044 A  
HETATM   29  C   UNL     1      -7.193   1.742  67.673  1.00  0.00    -0.046 A  
BRANCH  25  30
HETATM   30  C   UNL     1      -9.221   3.821  65.281  1.00  0.00    -0.151 A  
HETATM   31  N   UNL     1     -10.658   4.188  63.707  1.00  0.00    -0.102 NA 
HETATM   32  H   UNL     1     -11.260   3.531  65.658  1.00  0.00     0.000 HD 
HETATM   33  N   UNL     1      -9.483   4.448  63.156  1.00  0.00    -0.120 NA 
HETATM   34  N   UNL     1     -10.513   3.794  65.015  1.00  0.00    -0.052 NA 
HETATM   35  N   UNL     1      -8.591   4.221  64.128  1.00  0.00    -0.110 NA 
ENDBRANCH  25  30
ENDBRANCH  21  24
ENDBRANCH  17  18
ENDBRANCH   9  17
ENDBRANCH   3   4
ENDBRANCH   2   3
TORSDOF 6
ENDMDL
MODEL      214
REMARK 921   NORMALIZED FREE ENERGY PREDICTED BY IDOCK:   -4.77 KCAL/MOL
REMARK 922        TOTAL FREE ENERGY PREDICTED BY IDOCK:   -7.60 KCAL/MOL
REMARK 923 INTER-LIGAND FREE ENERGY PREDICTED BY IDOCK:   -6.11 KCAL/MOL
REMARK 924 INTRA-LIGAND FREE ENERGY PREDICTED BY IDOCK:   -1.49 KCAL/MOL
REMARK 927      BINDING AFFINITY PREDICTED BY RF-SCORE:    0.00 PKD
ROOT
HETATM    1  C   UNL     1      -9.699   4.243  64.285  1.00  0.00    -0.110 C  
HETATM    2  C   UNL     1      -8.178   4.182  64.212  1.00  0.00    -0.096 C  
ENDROOT
BRANCH   2   3
HETATM    3  C   UNL     1      -7.468   5.113  65.204  1.00  0.00    -0.073 C  
BRANCH   3   4
HETATM    4  C   UNL     1      -7.773   6.559  64.964  1.00  0.00    -0.103 A  
HETATM    5  N   UNL     1      -7.075   7.249  64.082  1.00  0.00    -0.063 NA 
HETATM    6  C   UNL     1      -7.465   8.555  64.175  1.00  0.00    -0.112 A  
HETATM    7  C   UNL     1      -6.790   9.613  63.328  1.00  0.00    -0.110 C  
HETATM    8  C   UNL     1      -8.430   8.688  65.170  1.00  0.00    -0.179 A  
HETATM    9  N   UNL     1      -8.719   7.369  65.571  1.00  0.00    -0.082 NA 
HETATM   10  O   UNL     1      -6.191  10.578  64.219  1.00  0.00    -0.305 OA 
HETATM   11  C   UNL     1      -7.791  10.369  62.445  1.00  0.00    -0.182 C  
HETATM   12  C   UNL     1      -5.681   9.051  62.424  1.00  0.00    -0.087 C  
HETATM   13  C   UNL     1      -9.072   9.866  65.705  1.00  0.00    -0.168 C  
HETATM   14  O   UNL     1      -8.304  10.978  65.672  1.00  0.00    -0.149 OA 
HETATM   15  O   UNL     1     -10.192   9.892  66.210  1.00  0.00    -0.243 OA 
HETATM   16  H   UNL     1      -5.768  11.242  63.688  1.00  0.00     0.000 HD 
BRANCH   9  17
HETATM   17  C   UNL     1      -9.833   7.083  66.508  1.00  0.00    -0.108 C  
BRANCH  17  18
HETATM   18  C   UNL     1      -9.533   6.288  67.750  1.00  0.00    -0.118 A  
HETATM   19  C   UNL     1      -9.905   4.944  67.842  1.00  0.00    -0.196 A  
HETATM   20  C   UNL     1      -9.885   4.294  69.084  1.00  0.00    -0.163 A  
HETATM   21  C   UNL     1      -9.550   4.973  70.277  1.00  0.00    -0.255 A  
HETATM   22  C   UNL     1      -8.977   6.245  70.118  1.00  0.00    -0.149 A  
HETATM   23  C   UNL     1      -8.945   6.887  68.869  1.00  0.00    -0.131 A  
BRANCH  21  24
HETATM   24  C   UNL     1     -10.018   4.440  71.605  1.00  0.00    -0.256 A  
HETATM   25  C   UNL     1     -11.023   4.989  72.446  1.00  0.00    -0.198 A  
HETATM   26  C   UNL     1     -11.456   4.251  73.582  1.00  0.00    -0.206 A  
HETATM   27  C   UNL     1      -9.486   3.178  72.001  1.00  0.00    -0.203 A  
HETATM   28  C   UNL     1      -9.902   2.487  73.138  1.00  0.00    -0.170 A  
HETATM   29  C   UNL     1     -10.904   3.017  73.924  1.00  0.00    -0.293 A  
BRANCH  25  30
HETATM   30  C   UNL     1     -11.635   6.305  72.246  1.00  0.00    -0.309 A  
HETATM   31  N   UNL     1     -12.782   8.007  71.562  1.00  0.00    -0.313 NA 
HETATM   32  H   UNL     1     -13.035   6.055  70.709  1.00  0.00     0.000 HD 
HETATM   33  N   UNL     1     -11.997   8.490  72.512  1.00  0.00    -0.373 NA 
HETATM   34  N   UNL     1     -12.566   6.662  71.382  1.00  0.00    -0.281 NA 
HETATM   35  N   UNL     1     -11.285   7.439  72.936  1.00  0.00    -0.332 NA 
ENDBRANCH  25  30
ENDBRANCH  21  24
ENDBRANCH  17  18
ENDBRANCH   9  17
ENDBRANCH   3   4
ENDBRANCH   2   3
TORSDOF 6
ENDMDL
MODEL      215
REMARK 921   NORMALIZED FREE ENERGY PREDICTED BY IDOCK:   -4.76 KCAL/MOL
REMARK 922        TOTAL FREE ENERGY PREDICTED BY IDOCK:   -7.58 KCAL/MOL
REMARK 923 INTER-LIGAND FREE ENERGY PREDICTED BY IDOCK:   -5.95 KCAL/MOL
REMARK 924 INTRA-LIGAND FREE ENERGY PREDICTED BY IDOCK:   -1.63 KCAL/MOL
REMARK 927      BINDING AFFINITY PREDICTED BY RF-SCORE:    0.00 PKD
ROOT
HETATM    1  C   UNL     1      -7.973   6.428  67.972  1.00  0.00    -0.109 C  
HETATM    2  C   UNL     1      -9.099   6.474  66.946  1.00  0.00    -0.144 C  
ENDROOT
BRANCH   2   3
HETATM    3  C   UNL     1     -10.440   6.961  67.512  1.00  0.00    -0.314 C  
BRANCH   3   4
HETATM    4  C   UNL     1     -10.580   8.452  67.471  1.00  0.00    -0.215 A  
HETATM    5  N   UNL     1     -10.345   9.111  66.352  1.00  0.00    -0.223 NA 
HETATM    6  C   UNL     1     -10.404  10.446  66.638  1.00  0.00    -0.231 A  
HETATM    7  C   UNL     1     -10.109  11.469  65.561  1.00  0.00    -0.243 C  
HETATM    8  C   UNL     1     -10.666  10.625  67.994  1.00  0.00    -0.233 A  
HETATM    9  N   UNL     1     -10.917   9.331  68.487  1.00  0.00    -0.062 NA 
HETATM   10  O   UNL     1      -8.981  12.257  65.998  1.00  0.00    -0.412 OA 
HETATM   11  C   UNL     1     -11.282  12.434  65.346  1.00  0.00    -0.358 C  
HETATM   12  C   UNL     1      -9.750  10.838  64.206  1.00  0.00    -0.357 C  
HETATM   13  C   UNL     1     -10.725  11.830  68.788  1.00  0.00    -0.221 C  
HETATM   14  O   UNL     1      -9.916  12.821  68.352  1.00  0.00    -0.226 OA 
HETATM   15  O   UNL     1     -11.391  11.970  69.811  1.00  0.00    -0.225 OA 
HETATM   16  H   UNL     1      -8.796  12.899  65.322  1.00  0.00     0.000 HD 
BRANCH   9  17
HETATM   17  C   UNL     1     -11.403   9.122  69.874  1.00  0.00    -0.030 C  
BRANCH  17  18
HETATM   18  C   UNL     1     -10.732   8.070  70.714  1.00  0.00    -0.236 A  
HETATM   19  C   UNL     1      -9.606   8.382  71.480  1.00  0.00    -0.273 A  
HETATM   20  C   UNL     1      -8.824   7.357  72.029  1.00  0.00    -0.141 A  
HETATM   21  C   UNL     1      -9.103   5.993  71.785  1.00  0.00    -0.148 A  
HETATM   22  C   UNL     1     -10.351   5.718  71.203  1.00  0.00    -0.286 A  
HETATM   23  C   UNL     1     -11.168   6.741  70.696  1.00  0.00    -0.361 A  
BRANCH  21  24
HETATM   24  C   UNL     1      -8.014   4.963  71.926  1.00  0.00    -0.109 A  
HETATM   25  C   UNL     1      -8.165   3.594  72.276  1.00  0.00    -0.083 A  
HETATM   26  C   UNL     1      -7.041   2.727  72.188  1.00  0.00    -0.034 A  
HETATM   27  C   UNL     1      -6.705   5.372  71.539  1.00  0.00    -0.056 A  
HETATM   28  C   UNL     1      -5.609   4.512  71.491  1.00  0.00    -0.011 A  
HETATM   29  C   UNL     1      -5.781   3.179  71.800  1.00  0.00    -0.009 A  
BRANCH  25  30
HETATM   30  C   UNL     1      -9.413   3.004  72.768  1.00  0.00    -0.103 A  
HETATM   31  N   UNL     1     -11.273   1.929  73.020  1.00  0.00    -0.120 NA 
HETATM   32  H   UNL     1     -10.104   1.764  71.229  1.00  0.00     0.000 HD 
HETATM   33  N   UNL     1     -11.126   2.615  74.143  1.00  0.00    -0.110 NA 
HETATM   34  N   UNL     1     -10.227   2.163  72.160  1.00  0.00    -0.157 NA 
HETATM   35  N   UNL     1      -9.977   3.282  73.989  1.00  0.00    -0.114 NA 
ENDBRANCH  25  30
ENDBRANCH  21  24
ENDBRANCH  17  18
ENDBRANCH   9  17
ENDBRANCH   3   4
ENDBRANCH   2   3
TORSDOF 6
ENDMDL
MODEL      216
REMARK 921   NORMALIZED FREE ENERGY PREDICTED BY IDOCK:   -4.74 KCAL/MOL
REMARK 922        TOTAL FREE ENERGY PREDICTED BY IDOCK:   -7.56 KCAL/MOL
REMARK 923 INTER-LIGAND FREE ENERGY PREDICTED BY IDOCK:   -6.27 KCAL/MOL
REMARK 924 INTRA-LIGAND FREE ENERGY PREDICTED BY IDOCK:   -1.29 KCAL/MOL
REMARK 927      BINDING AFFINITY PREDICTED BY RF-SCORE:    0.00 PKD
ROOT
HETATM    1  C   UNL     1     -12.780  10.592  71.566  1.00  0.00    -0.558 C  
HETATM    2  C   UNL     1     -12.106   9.590  70.636  1.00  0.00    -0.230 C  
ENDROOT
BRANCH   2   3
HETATM    3  C   UNL     1     -10.753  10.062  70.086  1.00  0.00    -0.361 C  
BRANCH   3   4
HETATM    4  C   UNL     1     -10.887  11.172  69.089  1.00  0.00    -0.238 A  
HETATM    5  N   UNL     1     -10.815  12.430  69.481  1.00  0.00     0.063 NA 
HETATM    6  C   UNL     1     -11.113  13.216  68.404  1.00  0.00    -0.268 A  
HETATM    7  C   UNL     1     -11.178  14.721  68.555  1.00  0.00    -0.276 C  
HETATM    8  C   UNL     1     -11.404  12.415  67.302  1.00  0.00    -0.323 A  
HETATM    9  N   UNL     1     -11.115  11.103  67.724  1.00  0.00    -0.263 NA 
HETATM   10  O   UNL     1     -12.513  15.144  68.203  1.00  0.00    -0.398 OA 
HETATM   11  C   UNL     1     -10.209  15.438  67.607  1.00  0.00    -0.246 C  
HETATM   12  C   UNL     1     -10.891  15.200  69.988  1.00  0.00    -0.275 C  
HETATM   13  C   UNL     1     -11.864  12.767  65.979  1.00  0.00    -0.439 C  
HETATM   14  O   UNL     1     -12.626  13.883  65.938  1.00  0.00    -0.478 OA 
HETATM   15  O   UNL     1     -11.657  12.111  64.962  1.00  0.00    -0.330 OA 
HETATM   16  H   UNL     1     -12.553  16.088  68.298  1.00  0.00     0.000 HD 
BRANCH   9  17
HETATM   17  C   UNL     1     -11.141   9.970  66.767  1.00  0.00     0.187 C  
BRANCH  17  18
HETATM   18  C   UNL     1     -10.198   8.821  66.997  1.00  0.00    -0.351 A  
HETATM   19  C   UNL     1      -8.815   9.020  66.976  1.00  0.00    -0.131 A  
HETATM   20  C   UNL     1      -7.948   7.921  66.905  1.00  0.00    -0.108 A  
HETATM   21  C   UNL     1      -8.429   6.596  66.796  1.00  0.00    -0.117 A  
HETATM   22  C   UNL     1      -9.801   6.421  67.039  1.00  0.00    -0.194 A  
HETATM   23  C   UNL     1     -10.672   7.516  67.163  1.00  0.00    -0.379 A  
BRANCH  21  24
HETATM   24  C   UNL     1      -7.551   5.520  66.216  1.00  0.00    -0.091 A  
HETATM   25  C   UNL     1      -7.078   4.350  66.871  1.00  0.00    -0.068 A  
HETATM   26  C   UNL     1      -6.402   3.355  66.111  1.00  0.00    -0.032 A  
HETATM   27  C   UNL     1      -7.271   5.617  64.822  1.00  0.00    -0.065 A  
HETATM   28  C   UNL     1      -6.578   4.644  64.103  1.00  0.00    -0.042 A  
HETATM   29  C   UNL     1      -6.157   3.499  64.746  1.00  0.00    -0.023 A  
BRANCH  25  30
HETATM   30  C   UNL     1      -7.203   4.106  68.309  1.00  0.00    -0.059 A  
HETATM   31  N   UNL     1      -7.676   3.343  70.278  1.00  0.00    -0.044 NA 
HETATM   32  H   UNL     1      -8.281   2.320  68.492  1.00  0.00     0.000 HD 
HETATM   33  N   UNL     1      -7.013   4.467  70.502  1.00  0.00    -0.036 NA 
HETATM   34  N   UNL     1      -7.807   3.110  68.930  1.00  0.00    -0.050 NA 
HETATM   35  N   UNL     1      -6.720   4.941  69.286  1.00  0.00    -0.047 NA 
ENDBRANCH  25  30
ENDBRANCH  21  24
ENDBRANCH  17  18
ENDBRANCH   9  17
ENDBRANCH   3   4
ENDBRANCH   2   3
TORSDOF 6
ENDMDL
MODEL      217
REMARK 921   NORMALIZED FREE ENERGY PREDICTED BY IDOCK:   -4.73 KCAL/MOL
REMARK 922        TOTAL FREE ENERGY PREDICTED BY IDOCK:   -7.54 KCAL/MOL
REMARK 923 INTER-LIGAND FREE ENERGY PREDICTED BY IDOCK:   -6.69 KCAL/MOL
REMARK 924 INTRA-LIGAND FREE ENERGY PREDICTED BY IDOCK:   -0.85 KCAL/MOL
REMARK 927      BINDING AFFINITY PREDICTED BY RF-SCORE:    0.00 PKD
ROOT
HETATM    1  C   UNL     1     -11.793  12.231  63.922  1.00  0.00    -0.553 C  
HETATM    2  C   UNL     1     -12.237  12.699  65.303  1.00  0.00    -0.532 C  
ENDROOT
BRANCH   2   3
HETATM    3  C   UNL     1     -11.459  12.058  66.459  1.00  0.00    -0.413 C  
BRANCH   3   4
HETATM    4  C   UNL     1     -10.323  12.909  66.937  1.00  0.00    -0.243 A  
HETATM    5  N   UNL     1     -10.477  14.214  67.063  1.00  0.00    -0.270 NA 
HETATM    6  C   UNL     1      -9.257  14.747  67.369  1.00  0.00    -0.196 A  
HETATM    7  C   UNL     1      -9.095  16.246  67.513  1.00  0.00    -0.192 C  
HETATM    8  C   UNL     1      -8.300  13.736  67.415  1.00  0.00    -0.193 A  
HETATM    9  N   UNL     1      -9.031  12.541  67.273  1.00  0.00    -0.185 NA 
HETATM   10  O   UNL     1      -8.131  16.682  66.532  1.00  0.00    -0.241 OA 
HETATM   11  C   UNL     1      -8.551  16.637  68.892  1.00  0.00    -0.235 C  
HETATM   12  C   UNL     1     -10.401  17.023  67.273  1.00  0.00    -0.311 C  
HETATM   13  C   UNL     1      -6.869  13.805  67.600  1.00  0.00    -0.175 C  
HETATM   14  O   UNL     1      -6.304  14.939  67.128  1.00  0.00    -0.258 OA 
HETATM   15  O   UNL     1      -6.176  12.913  68.083  1.00  0.00    -0.073 OA 
HETATM   16  H   UNL     1      -8.029  17.622  66.622  1.00  0.00     0.000 HD 
BRANCH   9  17
HETATM   17  C   UNL     1      -8.375  11.221  67.441  1.00  0.00    -0.137 C  
BRANCH  17  18
HETATM   18  C   UNL     1      -8.375  10.592  68.807  1.00  0.00    -0.144 A  
HETATM   19  C   UNL     1      -7.199  10.517  69.557  1.00  0.00    -0.137 A  
HETATM   20  C   UNL     1      -7.137   9.690  70.688  1.00  0.00    -0.117 A  
HETATM   21  C   UNL     1      -8.223   8.872  71.074  1.00  0.00    -0.217 A  
HETATM   22  C   UNL     1      -9.446   9.136  70.436  1.00  0.00    -0.269 A  
HETATM   23  C   UNL     1      -9.529  10.002  69.333  1.00  0.00    -0.237 A  
BRANCH  21  24
HETATM   24  C   UNL     1      -7.985   7.656  71.928  1.00  0.00    -0.105 A  
HETATM   25  C   UNL     1      -8.244   6.301  71.587  1.00  0.00    -0.118 A  
HETATM   26  C   UNL     1      -7.791   5.268  72.454  1.00  0.00    -0.102 A  
HETATM   27  C   UNL     1      -7.307   7.875  73.162  1.00  0.00    -0.135 A  
HETATM   28  C   UNL     1      -6.900   6.848  74.014  1.00  0.00    -0.078 A  
HETATM   29  C   UNL     1      -7.128   5.538  73.650  1.00  0.00    -0.086 A  
BRANCH  25  30
HETATM   30  C   UNL     1      -8.993   5.881  70.400  1.00  0.00    -0.147 A  
HETATM   31  N   UNL     1     -10.485   5.204  68.987  1.00  0.00    -0.139 NA 
HETATM   32  H   UNL     1     -10.957   5.558  71.049  1.00  0.00     0.000 HD 
HETATM   33  N   UNL     1      -9.370   5.299  68.280  1.00  0.00    -0.114 NA 
HETATM   34  N   UNL     1     -10.267   5.553  70.298  1.00  0.00    -0.234 NA 
HETATM   35  N   UNL     1      -8.445   5.717  69.152  1.00  0.00    -0.102 NA 
ENDBRANCH  25  30
ENDBRANCH  21  24
ENDBRANCH  17  18
ENDBRANCH   9  17
ENDBRANCH   3   4
ENDBRANCH   2   3
TORSDOF 6
ENDMDL
MODEL      218
REMARK 921   NORMALIZED FREE ENERGY PREDICTED BY IDOCK:   -4.71 KCAL/MOL
REMARK 922        TOTAL FREE ENERGY PREDICTED BY IDOCK:   -7.52 KCAL/MOL
REMARK 923 INTER-LIGAND FREE ENERGY PREDICTED BY IDOCK:   -6.32 KCAL/MOL
REMARK 924 INTRA-LIGAND FREE ENERGY PREDICTED BY IDOCK:   -1.20 KCAL/MOL
REMARK 927      BINDING AFFINITY PREDICTED BY RF-SCORE:    0.00 PKD
ROOT
HETATM    1  C   UNL     1      -9.250  17.239  68.407  1.00  0.00    -0.268 C  
HETATM    2  C   UNL     1      -7.881  16.787  67.913  1.00  0.00    -0.178 C  
ENDROOT
BRANCH   2   3
HETATM    3  C   UNL     1      -7.923  15.989  66.603  1.00  0.00    -0.291 C  
BRANCH   3   4
HETATM    4  C   UNL     1      -8.964  14.912  66.612  1.00  0.00    -0.270 A  
HETATM    5  N   UNL     1      -9.975  14.958  65.766  1.00  0.00    -0.326 NA 
HETATM    6  C   UNL     1     -10.834  13.946  66.093  1.00  0.00    -0.290 A  
HETATM    7  C   UNL     1     -12.135  13.778  65.337  1.00  0.00    -0.407 C  
HETATM    8  C   UNL     1     -10.347  13.255  67.199  1.00  0.00    -0.248 A  
HETATM    9  N   UNL     1      -9.071  13.802  67.434  1.00  0.00    -0.211 NA 
HETATM   10  O   UNL     1     -13.216  13.904  66.285  1.00  0.00    -0.319 OA 
HETATM   11  C   UNL     1     -12.254  12.392  64.693  1.00  0.00    -0.499 C  
HETATM   12  C   UNL     1     -12.341  14.837  64.240  1.00  0.00    -0.345 C  
HETATM   13  C   UNL     1     -10.933  12.183  67.969  1.00  0.00    -0.229 C  
HETATM   14  O   UNL     1     -12.284  12.205  68.012  1.00  0.00    -0.419 OA 
HETATM   15  O   UNL     1     -10.301  11.336  68.596  1.00  0.00    -0.188 OA 
HETATM   16  H   UNL     1     -14.033  13.799  65.811  1.00  0.00     0.000 HD 
BRANCH   9  17
HETATM   17  C   UNL     1      -8.158  13.206  68.440  1.00  0.00    -0.130 C  
BRANCH  17  18
HETATM   18  C   UNL     1      -7.413  11.951  68.072  1.00  0.00    -0.107 A  
HETATM   19  C   UNL     1      -7.342  11.530  66.742  1.00  0.00    -0.111 A  
HETATM   20  C   UNL     1      -6.902  10.234  66.438  1.00  0.00    -0.106 A  
HETATM   21  C   UNL     1      -6.575   9.301  67.448  1.00  0.00    -0.064 A  
HETATM   22  C   UNL     1      -6.447   9.823  68.746  1.00  0.00    -0.046 A  
HETATM   23  C   UNL     1      -6.837  11.137  69.052  1.00  0.00    -0.092 A  
BRANCH  21  24
HETATM   24  C   UNL     1      -6.611   7.826  67.153  1.00  0.00    -0.063 A  
HETATM   25  C   UNL     1      -7.612   6.895  67.543  1.00  0.00    -0.109 A  
HETATM   26  C   UNL     1      -7.569   5.572  67.023  1.00  0.00    -0.092 A  
HETATM   27  C   UNL     1      -5.600   7.332  66.278  1.00  0.00    -0.027 A  
HETATM   28  C   UNL     1      -5.559   6.020  65.806  1.00  0.00    -0.016 A  
HETATM   29  C   UNL     1      -6.558   5.140  66.166  1.00  0.00    -0.052 A  
BRANCH  25  30
HETATM   30  C   UNL     1      -8.688   7.194  68.491  1.00  0.00    -0.126 A  
HETATM   31  N   UNL     1      -9.935   7.459  70.239  1.00  0.00    -0.187 NA 
HETATM   32  H   UNL     1      -7.899   6.800  70.391  1.00  0.00     0.000 HD 
HETATM   33  N   UNL     1     -10.716   7.773  69.217  1.00  0.00    -0.190 NA 
HETATM   34  N   UNL     1      -8.682   7.093  69.807  1.00  0.00    -0.141 NA 
HETATM   35  N   UNL     1      -9.947   7.609  68.135  1.00  0.00    -0.169 NA 
ENDBRANCH  25  30
ENDBRANCH  21  24
ENDBRANCH  17  18
ENDBRANCH   9  17
ENDBRANCH   3   4
ENDBRANCH   2   3
TORSDOF 6
ENDMDL
MODEL      219
REMARK 921   NORMALIZED FREE ENERGY PREDICTED BY IDOCK:   -4.68 KCAL/MOL
REMARK 922        TOTAL FREE ENERGY PREDICTED BY IDOCK:   -7.47 KCAL/MOL
REMARK 923 INTER-LIGAND FREE ENERGY PREDICTED BY IDOCK:   -5.84 KCAL/MOL
REMARK 924 INTRA-LIGAND FREE ENERGY PREDICTED BY IDOCK:   -1.63 KCAL/MOL
REMARK 927      BINDING AFFINITY PREDICTED BY RF-SCORE:    0.00 PKD
ROOT
HETATM    1  C   UNL     1      -5.853   9.435  66.787  1.00  0.00    -0.055 C  
HETATM    2  C   UNL     1      -7.312   9.733  67.114  1.00  0.00    -0.087 C  
ENDROOT
BRANCH   2   3
HETATM    3  C   UNL     1      -7.543  10.221  68.550  1.00  0.00    -0.089 C  
BRANCH   3   4
HETATM    4  C   UNL     1      -8.853  10.927  68.720  1.00  0.00    -0.161 A  
HETATM    5  N   UNL     1      -9.015  12.150  68.250  1.00  0.00    -0.193 NA 
HETATM    6  C   UNL     1     -10.236  12.595  68.670  1.00  0.00    -0.154 A  
HETATM    7  C   UNL     1     -10.686  14.004  68.343  1.00  0.00    -0.251 C  
HETATM    8  C   UNL     1     -10.851  11.619  69.449  1.00  0.00    -0.096 A  
HETATM    9  N   UNL     1     -10.006  10.496  69.353  1.00  0.00    -0.219 NA 
HETATM   10  O   UNL     1     -10.914  14.695  69.590  1.00  0.00    -0.258 OA 
HETATM   11  C   UNL     1     -12.007  14.022  67.565  1.00  0.00    -0.430 C  
HETATM   12  C   UNL     1      -9.645  14.803  67.542  1.00  0.00    -0.208 C  
HETATM   13  C   UNL     1     -12.090  11.651  70.191  1.00  0.00    -0.333 C  
HETATM   14  O   UNL     1     -12.425  12.875  70.656  1.00  0.00    -0.323 OA 
HETATM   15  O   UNL     1     -12.783  10.670  70.451  1.00  0.00    -0.333 OA 
HETATM   16  H   UNL     1     -11.196  15.579  69.385  1.00  0.00     0.000 HD 
BRANCH   9  17
HETATM   17  C   UNL     1     -10.411   9.186  69.920  1.00  0.00    -0.223 C  
BRANCH  17  18
HETATM   18  C   UNL     1     -10.530   8.012  68.986  1.00  0.00    -0.212 A  
HETATM   19  C   UNL     1     -10.376   6.706  69.461  1.00  0.00    -0.232 A  
HETATM   20  C   UNL     1     -10.204   5.647  68.559  1.00  0.00    -0.253 A  
HETATM   21  C   UNL     1     -10.122   5.860  67.165  1.00  0.00    -0.213 A  
HETATM   22  C   UNL     1     -10.497   7.137  66.717  1.00  0.00    -0.300 A  
HETATM   23  C   UNL     1     -10.722   8.194  67.613  1.00  0.00    -0.203 A  
BRANCH  21  24
HETATM   24  C   UNL     1      -9.443   4.844  66.285  1.00  0.00    -0.160 A  
HETATM   25  C   UNL     1      -8.135   4.310  66.439  1.00  0.00    -0.102 A  
HETATM   26  C   UNL     1      -7.726   3.228  65.612  1.00  0.00    -0.081 A  
HETATM   27  C   UNL     1     -10.245   4.259  65.262  1.00  0.00    -0.234 A  
HETATM   28  C   UNL     1      -9.811   3.220  64.440  1.00  0.00    -0.162 A  
HETATM   29  C   UNL     1      -8.552   2.689  64.627  1.00  0.00    -0.092 A  
BRANCH  25  30
HETATM   30  C   UNL     1      -7.142   4.828  67.383  1.00  0.00    -0.065 A  
HETATM   31  N   UNL     1      -5.834   5.194  69.066  1.00  0.00    -0.019 NA 
HETATM   32  H   UNL     1      -7.113   3.475  68.980  1.00  0.00     0.000 HD 
HETATM   33  N   UNL     1      -5.626   6.216  68.250  1.00  0.00    -0.011 NA 
HETATM   34  N   UNL     1      -6.770   4.333  68.548  1.00  0.00    -0.046 NA 
HETATM   35  N   UNL     1      -6.435   5.993  67.208  1.00  0.00    -0.045 NA 
ENDBRANCH  25  30
ENDBRANCH  21  24
ENDBRANCH  17  18
ENDBRANCH   9  17
ENDBRANCH   3   4
ENDBRANCH   2   3
TORSDOF 6
ENDMDL
MODEL      220
REMARK 921   NORMALIZED FREE ENERGY PREDICTED BY IDOCK:   -4.68 KCAL/MOL
REMARK 922        TOTAL FREE ENERGY PREDICTED BY IDOCK:   -7.47 KCAL/MOL
REMARK 923 INTER-LIGAND FREE ENERGY PREDICTED BY IDOCK:   -5.88 KCAL/MOL
REMARK 924 INTRA-LIGAND FREE ENERGY PREDICTED BY IDOCK:   -1.59 KCAL/MOL
REMARK 927      BINDING AFFINITY PREDICTED BY RF-SCORE:    0.00 PKD
ROOT
HETATM    1  C   UNL     1      -7.864   9.098  70.783  1.00  0.00    -0.173 C  
HETATM    2  C   UNL     1      -7.478   8.461  69.454  1.00  0.00    -0.089 C  
ENDROOT
BRANCH   2   3
HETATM    3  C   UNL     1      -8.650   8.295  68.477  1.00  0.00    -0.133 C  
BRANCH   3   4
HETATM    4  C   UNL     1      -8.202   8.073  67.065  1.00  0.00    -0.116 A  
HETATM    5  N   UNL     1      -8.511   6.954  66.438  1.00  0.00    -0.124 NA 
HETATM    6  C   UNL     1      -7.858   6.960  65.237  1.00  0.00    -0.118 A  
HETATM    7  C   UNL     1      -7.962   5.768  64.309  1.00  0.00    -0.125 C  
HETATM    8  C   UNL     1      -7.096   8.119  65.121  1.00  0.00    -0.067 A  
HETATM    9  N   UNL     1      -7.440   8.891  66.247  1.00  0.00    -0.090 NA 
HETATM   10  O   UNL     1      -6.631   5.249  64.106  1.00  0.00    -0.039 OA 
HETATM   11  C   UNL     1      -8.515   6.156  62.932  1.00  0.00     0.114 C  
HETATM   12  C   UNL     1      -8.833   4.633  64.873  1.00  0.00    -0.151 C  
HETATM   13  C   UNL     1      -6.168   8.535  64.096  1.00  0.00    -0.067 C  
HETATM   14  O   UNL     1      -5.531   7.514  63.479  1.00  0.00    -0.036 OA 
HETATM   15  O   UNL     1      -5.903   9.700  63.813  1.00  0.00    -0.087 OA 
HETATM   16  H   UNL     1      -6.696   4.501  63.523  1.00  0.00     0.000 HD 
BRANCH   9  17
HETATM   17  C   UNL     1      -6.955  10.286  66.394  1.00  0.00    -0.111 C  
BRANCH  17  18
HETATM   18  C   UNL     1      -7.920  11.328  66.888  1.00  0.00    -0.155 A  
HETATM   19  C   UNL     1      -9.065  11.645  66.152  1.00  0.00    -0.209 A  
HETATM   20  C   UNL     1      -9.802  12.796  66.460  1.00  0.00    -0.258 A  
HETATM   21  C   UNL     1      -9.393  13.696  67.470  1.00  0.00    -0.223 A  
HETATM   22  C   UNL     1      -8.377  13.238  68.324  1.00  0.00    -0.154 A  
HETATM   23  C   UNL     1      -7.665  12.058  68.054  1.00  0.00    -0.132 A  
BRANCH  21  24
HETATM   24  C   UNL     1      -9.865  15.126  67.443  1.00  0.00    -0.224 A  
HETATM   25  C   UNL     1     -10.642  15.794  68.428  1.00  0.00    -0.264 A  
HETATM   26  C   UNL     1     -10.844  17.197  68.317  1.00  0.00    -0.314 A  
HETATM   27  C   UNL     1      -9.369  15.933  66.379  1.00  0.00    -0.329 A  
HETATM   28  C   UNL     1      -9.607  17.303  66.272  1.00  0.00    -0.268 A  
HETATM   29  C   UNL     1     -10.334  17.942  67.255  1.00  0.00    -0.374 A  
BRANCH  25  30
HETATM   30  C   UNL     1     -11.296  15.122  69.553  1.00  0.00    -0.285 A  
HETATM   31  N   UNL     1     -11.915  14.395  71.494  1.00  0.00    -0.301 NA 
HETATM   32  H   UNL     1     -10.392  15.889  71.279  1.00  0.00     0.000 HD 
HETATM   33  N   UNL     1     -12.655  13.718  70.629  1.00  0.00    -0.331 NA 
HETATM   34  N   UNL     1     -11.068  15.261  70.845  1.00  0.00    -0.321 NA 
HETATM   35  N   UNL     1     -12.273  14.166  69.428  1.00  0.00    -0.325 NA 
ENDBRANCH  25  30
ENDBRANCH  21  24
ENDBRANCH  17  18
ENDBRANCH   9  17
ENDBRANCH   3   4
ENDBRANCH   2   3
TORSDOF 6
ENDMDL
MODEL      221
REMARK 921   NORMALIZED FREE ENERGY PREDICTED BY IDOCK:   -4.63 KCAL/MOL
REMARK 922        TOTAL FREE ENERGY PREDICTED BY IDOCK:   -7.41 KCAL/MOL
REMARK 923 INTER-LIGAND FREE ENERGY PREDICTED BY IDOCK:   -6.33 KCAL/MOL
REMARK 924 INTRA-LIGAND FREE ENERGY PREDICTED BY IDOCK:   -1.08 KCAL/MOL
REMARK 927      BINDING AFFINITY PREDICTED BY RF-SCORE:    0.00 PKD
ROOT
HETATM    1  C   UNL     1      -9.366  10.339  63.223  1.00  0.00    -0.340 C  
HETATM    2  C   UNL     1      -8.550   9.129  62.783  1.00  0.00    -0.209 C  
ENDROOT
BRANCH   2   3
HETATM    3  C   UNL     1      -7.529   8.652  63.825  1.00  0.00    -0.116 C  
BRANCH   3   4
HETATM    4  C   UNL     1      -8.018   7.485  64.626  1.00  0.00    -0.133 A  
HETATM    5  N   UNL     1      -8.272   6.333  64.034  1.00  0.00    -0.055 NA 
HETATM    6  C   UNL     1      -8.835   5.506  64.965  1.00  0.00    -0.046 A  
HETATM    7  C   UNL     1      -9.302   4.121  64.569  1.00  0.00    -0.162 C  
HETATM    8  C   UNL     1      -8.954   6.176  66.180  1.00  0.00    -0.155 A  
HETATM    9  N   UNL     1      -8.293   7.403  65.980  1.00  0.00    -0.136 NA 
HETATM   10  O   UNL     1     -10.719   4.040  64.834  1.00  0.00    -0.474 OA 
HETATM   11  C   UNL     1      -8.621   3.024  65.397  1.00  0.00    -0.112 C  
HETATM   12  C   UNL     1      -9.080   3.807  63.080  1.00  0.00    -0.105 C  
HETATM   13  C   UNL     1      -9.566   5.768  67.423  1.00  0.00    -0.115 C  
HETATM   14  O   UNL     1     -10.606   4.917  67.274  1.00  0.00    -0.102 OA 
HETATM   15  O   UNL     1      -9.243   6.174  68.536  1.00  0.00    -0.117 OA 
HETATM   16  H   UNL     1     -11.012   3.172  64.586  1.00  0.00     0.000 HD 
BRANCH   9  17
HETATM   17  C   UNL     1      -8.059   8.337  67.110  1.00  0.00    -0.108 C  
BRANCH  17  18
HETATM   18  C   UNL     1      -8.882   9.594  67.178  1.00  0.00    -0.141 A  
HETATM   19  C   UNL     1      -8.350  10.817  66.759  1.00  0.00    -0.136 A  
HETATM   20  C   UNL     1      -9.001  12.014  67.083  1.00  0.00    -0.185 A  
HETATM   21  C   UNL     1     -10.168  12.037  67.881  1.00  0.00    -0.203 A  
HETATM   22  C   UNL     1     -10.788  10.796  68.096  1.00  0.00    -0.284 A  
HETATM   23  C   UNL     1     -10.167   9.590  67.729  1.00  0.00    -0.265 A  
BRANCH  21  24
HETATM   24  C   UNL     1     -10.544  13.287  68.632  1.00  0.00    -0.264 A  
HETATM   25  C   UNL     1      -9.790  14.487  68.738  1.00  0.00    -0.220 A  
HETATM   26  C   UNL     1     -10.385  15.628  69.344  1.00  0.00    -0.260 A  
HETATM   27  C   UNL     1     -11.856  13.317  69.188  1.00  0.00    -0.378 A  
HETATM   28  C   UNL     1     -12.408  14.438  69.807  1.00  0.00    -0.333 A  
HETATM   29  C   UNL     1     -11.675  15.605  69.870  1.00  0.00    -0.372 A  
BRANCH  25  30
HETATM   30  C   UNL     1      -8.401  14.627  68.295  1.00  0.00    -0.148 A  
HETATM   31  N   UNL     1      -6.248  14.604  68.092  1.00  0.00    -0.128 NA 
HETATM   32  H   UNL     1      -7.237  13.682  69.756  1.00  0.00     0.000 HD 
HETATM   33  N   UNL     1      -6.678  15.273  67.033  1.00  0.00    -0.194 NA 
HETATM   34  N   UNL     1      -7.298  14.204  68.882  1.00  0.00    -0.124 NA 
HETATM   35  N   UNL     1      -8.010  15.289  67.157  1.00  0.00    -0.205 NA 
ENDBRANCH  25  30
ENDBRANCH  21  24
ENDBRANCH  17  18
ENDBRANCH   9  17
ENDBRANCH   3   4
ENDBRANCH   2   3
TORSDOF 6
ENDMDL
MODEL      222
REMARK 921   NORMALIZED FREE ENERGY PREDICTED BY IDOCK:   -4.63 KCAL/MOL
REMARK 922        TOTAL FREE ENERGY PREDICTED BY IDOCK:   -7.40 KCAL/MOL
REMARK 923 INTER-LIGAND FREE ENERGY PREDICTED BY IDOCK:   -6.36 KCAL/MOL
REMARK 924 INTRA-LIGAND FREE ENERGY PREDICTED BY IDOCK:   -1.04 KCAL/MOL
REMARK 927      BINDING AFFINITY PREDICTED BY RF-SCORE:    0.00 PKD
ROOT
HETATM    1  C   UNL     1     -12.085  15.807  64.264  1.00  0.00     0.010 C  
HETATM    2  C   UNL     1     -11.738  14.324  64.318  1.00  0.00    -0.348 C  
ENDROOT
BRANCH   2   3
HETATM    3  C   UNL     1     -10.303  14.035  64.775  1.00  0.00    -0.407 C  
BRANCH   3   4
HETATM    4  C   UNL     1      -9.866  14.912  65.907  1.00  0.00    -0.332 A  
HETATM    5  N   UNL     1      -9.073  15.942  65.682  1.00  0.00    -0.299 NA 
HETATM    6  C   UNL     1      -8.723  16.467  66.894  1.00  0.00    -0.205 A  
HETATM    7  C   UNL     1      -7.757  17.631  66.970  1.00  0.00    -0.209 C  
HETATM    8  C   UNL     1      -9.305  15.721  67.916  1.00  0.00    -0.200 A  
HETATM    9  N   UNL     1     -10.152  14.809  67.258  1.00  0.00    -0.235 NA 
HETATM   10  O   UNL     1      -6.612  17.206  67.739  1.00  0.00    -0.139 OA 
HETATM   11  C   UNL     1      -8.365  18.840  67.690  1.00  0.00    -0.291 C  
HETATM   12  C   UNL     1      -7.256  18.095  65.592  1.00  0.00    -0.118 C  
HETATM   13  C   UNL     1      -9.160  15.817  69.350  1.00  0.00    -0.254 C  
HETATM   14  O   UNL     1      -7.951  16.268  69.755  1.00  0.00     0.112 OA 
HETATM   15  O   UNL     1     -10.008  15.476  70.170  1.00  0.00    -0.275 OA 
HETATM   16  H   UNL     1      -6.006  17.936  67.786  1.00  0.00     0.000 HD 
BRANCH   9  17
HETATM   17  C   UNL     1     -11.083  13.943  68.024  1.00  0.00    -0.259 C  
BRANCH  17  18
HETATM   18  C   UNL     1     -10.709  12.500  68.227  1.00  0.00    -0.246 A  
HETATM   19  C   UNL     1      -9.422  12.150  68.644  1.00  0.00    -0.052 A  
HETATM   20  C   UNL     1      -8.994  10.818  68.559  1.00  0.00    -0.160 A  
HETATM   21  C   UNL     1      -9.810   9.806  68.006  1.00  0.00    -0.173 A  
HETATM   22  C   UNL     1     -11.157  10.147  67.804  1.00  0.00    -0.293 A  
HETATM   23  C   UNL     1     -11.609  11.470  67.936  1.00  0.00    -0.352 A  
BRANCH  21  24
HETATM   24  C   UNL     1      -9.187   8.550  67.456  1.00  0.00    -0.151 A  
HETATM   25  C   UNL     1      -8.994   7.317  68.135  1.00  0.00    -0.132 A  
HETATM   26  C   UNL     1      -8.549   6.183  67.400  1.00  0.00    -0.106 A  
HETATM   27  C   UNL     1      -8.875   8.558  66.065  1.00  0.00    -0.208 A  
HETATM   28  C   UNL     1      -8.408   7.442  65.371  1.00  0.00    -0.122 A  
HETATM   29  C   UNL     1      -8.260   6.244  66.038  1.00  0.00    -0.125 A  
BRANCH  25  30
HETATM   30  C   UNL     1      -9.189   7.132  69.575  1.00  0.00    -0.149 A  
HETATM   31  N   UNL     1      -9.237   6.409  71.613  1.00  0.00    -0.145 NA 
HETATM   32  H   UNL     1      -8.239   5.328  70.052  1.00  0.00     0.000 HD 
HETATM   33  N   UNL     1      -9.922   7.541  71.641  1.00  0.00    -0.175 NA 
HETATM   34  N   UNL     1      -8.783   6.140  70.344  1.00  0.00    -0.140 NA 
HETATM   35  N   UNL     1      -9.894   7.991  70.381  1.00  0.00    -0.183 NA 
ENDBRANCH  25  30
ENDBRANCH  21  24
ENDBRANCH  17  18
ENDBRANCH   9  17
ENDBRANCH   3   4
ENDBRANCH   2   3
TORSDOF 6
ENDMDL
MODEL      223
REMARK 921   NORMALIZED FREE ENERGY PREDICTED BY IDOCK:   -4.61 KCAL/MOL
REMARK 922        TOTAL FREE ENERGY PREDICTED BY IDOCK:   -7.38 KCAL/MOL
REMARK 923 INTER-LIGAND FREE ENERGY PREDICTED BY IDOCK:   -6.02 KCAL/MOL
REMARK 924 INTRA-LIGAND FREE ENERGY PREDICTED BY IDOCK:   -1.36 KCAL/MOL
REMARK 927      BINDING AFFINITY PREDICTED BY RF-SCORE:    0.00 PKD
ROOT
HETATM    1  C   UNL     1      -5.918   9.470  71.866  1.00  0.00     0.075 C  
HETATM    2  C   UNL     1      -6.114   7.959  71.893  1.00  0.00    -0.040 C  
ENDROOT
BRANCH   2   3
HETATM    3  C   UNL     1      -7.560   7.512  71.639  1.00  0.00    -0.084 C  
BRANCH   3   4
HETATM    4  C   UNL     1      -7.710   6.728  70.371  1.00  0.00    -0.100 A  
HETATM    5  N   UNL     1      -8.160   5.488  70.407  1.00  0.00    -0.101 NA 
HETATM    6  C   UNL     1      -8.056   4.975  69.144  1.00  0.00    -0.083 A  
HETATM    7  C   UNL     1      -8.435   3.533  68.875  1.00  0.00    -0.078 C  
HETATM    8  C   UNL     1      -7.501   5.927  68.293  1.00  0.00    -0.085 A  
HETATM    9  N   UNL     1      -7.416   7.098  69.070  1.00  0.00    -0.092 NA 
HETATM   10  O   UNL     1      -7.266   2.856  68.367  1.00  0.00    -0.048 OA 
HETATM   11  C   UNL     1      -9.530   3.415  67.807  1.00  0.00    -0.229 C  
HETATM   12  C   UNL     1      -8.908   2.785  70.133  1.00  0.00    -0.148 C  
HETATM   13  C   UNL     1      -7.107   5.832  66.907  1.00  0.00    -0.070 C  
HETATM   14  O   UNL     1      -6.699   4.600  66.530  1.00  0.00    -0.048 OA 
HETATM   15  O   UNL     1      -7.074   6.772  66.117  1.00  0.00    -0.063 OA 
HETATM   16  H   UNL     1      -7.504   1.952  68.198  1.00  0.00     0.000 HD 
BRANCH   9  17
HETATM   17  C   UNL     1      -7.024   8.392  68.458  1.00  0.00    -0.069 C  
BRANCH  17  18
HETATM   18  C   UNL     1      -8.086   9.441  68.266  1.00  0.00    -0.109 A  
HETATM   19  C   UNL     1      -9.410   9.074  68.009  1.00  0.00    -0.153 A  
HETATM   20  C   UNL     1     -10.328  10.031  67.554  1.00  0.00    -0.282 A  
HETATM   21  C   UNL     1      -9.945  11.364  67.286  1.00  0.00    -0.217 A  
HETATM   22  C   UNL     1      -8.679  11.745  67.760  1.00  0.00    -0.155 A  
HETATM   23  C   UNL     1      -7.768  10.803  68.266  1.00  0.00    -0.109 A  
BRANCH  21  24
HETATM   24  C   UNL     1     -10.760  12.209  66.344  1.00  0.00    -0.292 A  
HETATM   25  C   UNL     1     -10.868  12.066  64.935  1.00  0.00    -0.349 A  
HETATM   26  C   UNL     1     -11.825  12.847  64.229  1.00  0.00    -0.457 A  
HETATM   27  C   UNL     1     -11.618  13.176  66.946  1.00  0.00    -0.417 A  
HETATM   28  C   UNL     1     -12.527  13.955  66.230  1.00  0.00    -0.454 A  
HETATM   29  C   UNL     1     -12.644  13.778  64.868  1.00  0.00    -0.380 A  
BRANCH  25  30
HETATM   30  C   UNL     1     -10.021  11.181  64.131  1.00  0.00    -0.316 A  
HETATM   31  N   UNL     1      -8.837   9.551  63.344  1.00  0.00    -0.231 NA 
HETATM   32  H   UNL     1      -9.922   9.375  65.186  1.00  0.00     0.000 HD 
HETATM   33  N   UNL     1      -8.686  10.531  62.467  1.00  0.00    -0.214 NA 
HETATM   34  N   UNL     1      -9.653   9.939  64.380  1.00  0.00    -0.260 NA 
HETATM   35  N   UNL     1      -9.417  11.541  62.952  1.00  0.00    -0.365 NA 
ENDBRANCH  25  30
ENDBRANCH  21  24
ENDBRANCH  17  18
ENDBRANCH   9  17
ENDBRANCH   3   4
ENDBRANCH   2   3
TORSDOF 6
ENDMDL
MODEL      224
REMARK 921   NORMALIZED FREE ENERGY PREDICTED BY IDOCK:   -4.59 KCAL/MOL
REMARK 922        TOTAL FREE ENERGY PREDICTED BY IDOCK:   -7.35 KCAL/MOL
REMARK 923 INTER-LIGAND FREE ENERGY PREDICTED BY IDOCK:   -6.54 KCAL/MOL
REMARK 924 INTRA-LIGAND FREE ENERGY PREDICTED BY IDOCK:   -0.81 KCAL/MOL
REMARK 927      BINDING AFFINITY PREDICTED BY RF-SCORE:    0.00 PKD
ROOT
HETATM    1  C   UNL     1      -8.634  10.349  62.396  1.00  0.00    -0.242 C  
HETATM    2  C   UNL     1      -7.848   9.120  62.834  1.00  0.00    -0.129 C  
ENDROOT
BRANCH   2   3
HETATM    3  C   UNL     1      -7.600   9.043  64.346  1.00  0.00    -0.112 C  
BRANCH   3   4
HETATM    4  C   UNL     1      -8.145   7.791  64.962  1.00  0.00    -0.139 A  
HETATM    5  N   UNL     1      -7.692   6.612  64.582  1.00  0.00    -0.105 NA 
HETATM    6  C   UNL     1      -8.459   5.659  65.191  1.00  0.00    -0.144 A  
HETATM    7  C   UNL     1      -8.224   4.191  64.898  1.00  0.00    -0.098 C  
HETATM    8  C   UNL     1      -9.442   6.270  65.965  1.00  0.00     0.012 A  
HETATM    9  N   UNL     1      -9.136   7.643  65.918  1.00  0.00    -0.107 NA 
HETATM   10  O   UNL     1      -9.442   3.652  64.342  1.00  0.00    -0.135 OA 
HETATM   11  C   UNL     1      -7.911   3.393  66.169  1.00  0.00    -0.092 C  
HETATM   12  C   UNL     1      -7.093   3.948  63.886  1.00  0.00    -0.050 C  
HETATM   13  C   UNL     1     -10.539   5.700  66.712  1.00  0.00    -0.304 C  
HETATM   14  O   UNL     1     -11.026   4.552  66.191  1.00  0.00     0.069 OA 
HETATM   15  O   UNL     1     -11.056   6.206  67.705  1.00  0.00    -0.328 OA 
HETATM   16  H   UNL     1      -9.295   2.731  64.159  1.00  0.00     0.000 HD 
BRANCH   9  17
HETATM   17  C   UNL     1      -9.867   8.618  66.766  1.00  0.00    -0.253 C  
BRANCH  17  18
HETATM   18  C   UNL     1      -9.610  10.084  66.550  1.00  0.00    -0.237 A  
HETATM   19  C   UNL     1      -8.724  10.781  67.375  1.00  0.00    -0.126 A  
HETATM   20  C   UNL     1      -8.702  12.183  67.358  1.00  0.00    -0.177 A  
HETATM   21  C   UNL     1      -9.597  12.933  66.562  1.00  0.00    -0.259 A  
HETATM   22  C   UNL     1     -10.311  12.208  65.594  1.00  0.00    -0.289 A  
HETATM   23  C   UNL     1     -10.301  10.804  65.570  1.00  0.00    -0.308 A  
BRANCH  21  24
HETATM   24  C   UNL     1      -9.914  14.359  66.923  1.00  0.00    -0.261 A  
HETATM   25  C   UNL     1     -10.656  14.818  68.045  1.00  0.00    -0.244 A  
HETATM   26  C   UNL     1     -10.705  16.213  68.322  1.00  0.00    -0.307 A  
HETATM   27  C   UNL     1      -9.293  15.365  66.126  1.00  0.00    -0.367 A  
HETATM   28  C   UNL     1      -9.382  16.730  66.397  1.00  0.00    -0.305 A  
HETATM   29  C   UNL     1     -10.076  17.156  67.510  1.00  0.00    -0.301 A  
BRANCH  25  30
HETATM   30  C   UNL     1     -11.423  13.944  68.937  1.00  0.00    -0.301 A  
HETATM   31  N   UNL     1     -12.401  12.286  69.923  1.00  0.00    -0.120 NA 
HETATM   32  H   UNL     1     -11.131  11.999  68.218  1.00  0.00     0.000 HD 
HETATM   33  N   UNL     1     -12.790  13.356  70.598  1.00  0.00    -0.151 NA 
HETATM   34  N   UNL     1     -11.562  12.633  68.891  1.00  0.00    -0.296 NA 
HETATM   35  N   UNL     1     -12.187  14.384  69.989  1.00  0.00    -0.336 NA 
ENDBRANCH  25  30
ENDBRANCH  21  24
ENDBRANCH  17  18
ENDBRANCH   9  17
ENDBRANCH   3   4
ENDBRANCH   2   3
TORSDOF 6
ENDMDL
MODEL      225
REMARK 921   NORMALIZED FREE ENERGY PREDICTED BY IDOCK:   -4.50 KCAL/MOL
REMARK 922        TOTAL FREE ENERGY PREDICTED BY IDOCK:   -7.24 KCAL/MOL
REMARK 923 INTER-LIGAND FREE ENERGY PREDICTED BY IDOCK:   -6.64 KCAL/MOL
REMARK 924 INTRA-LIGAND FREE ENERGY PREDICTED BY IDOCK:   -0.60 KCAL/MOL
REMARK 927      BINDING AFFINITY PREDICTED BY RF-SCORE:    0.00 PKD
ROOT
HETATM    1  C   UNL     1     -12.794   8.744  72.504  1.00  0.00    -0.380 C  
HETATM    2  C   UNL     1     -13.150   9.739  71.405  1.00  0.00    -0.489 C  
ENDROOT
BRANCH   2   3
HETATM    3  C   UNL     1     -12.329   9.569  70.120  1.00  0.00     0.291 C  
BRANCH   3   4
HETATM    4  C   UNL     1     -11.808  10.869  69.588  1.00  0.00    -0.344 A  
HETATM    5  N   UNL     1     -12.000  11.987  70.262  1.00  0.00    -0.345 NA 
HETATM    6  C   UNL     1     -11.556  13.019  69.484  1.00  0.00    -0.276 A  
HETATM    7  C   UNL     1     -11.704  14.450  69.960  1.00  0.00    -0.298 C  
HETATM    8  C   UNL     1     -11.088  12.526  68.269  1.00  0.00    -0.257 A  
HETATM    9  N   UNL     1     -11.127  11.125  68.410  1.00  0.00    -0.225 NA 
HETATM   10  O   UNL     1     -12.521  15.152  69.000  1.00  0.00    -0.585 OA 
HETATM   11  C   UNL     1     -10.356  15.177  70.029  1.00  0.00    -0.180 C  
HETATM   12  C   UNL     1     -12.384  14.564  71.335  1.00  0.00    -0.425 C  
HETATM   13  C   UNL     1     -10.615  13.218  67.093  1.00  0.00    -0.258 C  
HETATM   14  O   UNL     1     -11.183  14.429  66.897  1.00  0.00    -0.314 OA 
HETATM   15  O   UNL     1      -9.813  12.764  66.281  1.00  0.00    -0.258 OA 
HETATM   16  H   UNL     1     -12.614  16.049  69.298  1.00  0.00     0.000 HD 
BRANCH   9  17
HETATM   17  C   UNL     1     -10.543  10.237  67.375  1.00  0.00    -0.270 C  
BRANCH  17  18
HETATM   18  C   UNL     1     -10.331   8.788  67.716  1.00  0.00    -0.297 A  
HETATM   19  C   UNL     1      -9.184   8.377  68.400  1.00  0.00    -0.135 A  
HETATM   20  C   UNL     1      -8.853   7.017  68.465  1.00  0.00    -0.124 A  
HETATM   21  C   UNL     1      -9.619   6.030  67.805  1.00  0.00    -0.113 A  
HETATM   22  C   UNL     1     -10.869   6.449  67.319  1.00  0.00    -0.463 A  
HETATM   23  C   UNL     1     -11.233   7.805  67.296  1.00  0.00     0.457 A  
BRANCH  21  24
HETATM   24  C   UNL     1      -9.000   4.705  67.451  1.00  0.00    -0.119 A  
HETATM   25  C   UNL     1      -9.007   3.516  68.230  1.00  0.00    -0.179 A  
HETATM   26  C   UNL     1      -8.522   2.308  67.657  1.00  0.00    -0.098 A  
HETATM   27  C   UNL     1      -8.460   4.592  66.136  1.00  0.00    -0.114 A  
HETATM   28  C   UNL     1      -7.960   3.403  65.605  1.00  0.00    -0.089 A  
HETATM   29  C   UNL     1      -8.007   2.251  66.363  1.00  0.00    -0.077 A  
BRANCH  25  30
HETATM   30  C   UNL     1      -9.451   3.450  69.624  1.00  0.00    -0.153 A  
HETATM   31  N   UNL     1     -10.011   2.847  71.625  1.00  0.00    -0.136 NA 
HETATM   32  H   UNL     1      -9.190   1.458  70.212  1.00  0.00     0.000 HD 
HETATM   33  N   UNL     1     -10.305   4.137  71.567  1.00  0.00    -0.033 NA 
HETATM   34  N   UNL     1      -9.490   2.408  70.432  1.00  0.00    -0.125 NA 
HETATM   35  N   UNL     1      -9.960   4.512  70.330  1.00  0.00    -0.228 NA 
ENDBRANCH  25  30
ENDBRANCH  21  24
ENDBRANCH  17  18
ENDBRANCH   9  17
ENDBRANCH   3   4
ENDBRANCH   2   3
TORSDOF 6
ENDMDL
MODEL      226
REMARK 921   NORMALIZED FREE ENERGY PREDICTED BY IDOCK:   -4.49 KCAL/MOL
REMARK 922        TOTAL FREE ENERGY PREDICTED BY IDOCK:   -7.21 KCAL/MOL
REMARK 923 INTER-LIGAND FREE ENERGY PREDICTED BY IDOCK:   -6.52 KCAL/MOL
REMARK 924 INTRA-LIGAND FREE ENERGY PREDICTED BY IDOCK:   -0.70 KCAL/MOL
REMARK 927      BINDING AFFINITY PREDICTED BY RF-SCORE:    0.00 PKD
ROOT
HETATM    1  C   UNL     1     -10.995  17.483  65.125  1.00  0.00     0.313 C  
HETATM    2  C   UNL     1     -11.113  16.157  64.385  1.00  0.00    -0.104 C  
ENDROOT
BRANCH   2   3
HETATM    3  C   UNL     1     -10.379  14.994  65.065  1.00  0.00    -0.390 C  
BRANCH   3   4
HETATM    4  C   UNL     1      -9.319  15.455  66.019  1.00  0.00    -0.329 A  
HETATM    5  N   UNL     1      -8.555  16.487  65.715  1.00  0.00    -0.381 NA 
HETATM    6  C   UNL     1      -7.596  16.591  66.683  1.00  0.00    -0.275 A  
HETATM    7  C   UNL     1      -6.519  17.649  66.577  1.00  0.00    -0.222 C  
HETATM    8  C   UNL     1      -7.758  15.570  67.617  1.00  0.00    -0.158 A  
HETATM    9  N   UNL     1      -8.959  14.933  67.249  1.00  0.00    -0.188 NA 
HETATM   10  O   UNL     1      -5.242  16.977  66.531  1.00  0.00    -0.277 OA 
HETATM   11  C   UNL     1      -6.500  18.578  67.797  1.00  0.00    -0.209 C  
HETATM   12  C   UNL     1      -6.643  18.518  65.314  1.00  0.00    -0.180 C  
HETATM   13  C   UNL     1      -6.949  15.201  68.754  1.00  0.00    -0.111 C  
HETATM   14  O   UNL     1      -5.633  15.474  68.610  1.00  0.00    -0.088 OA 
HETATM   15  O   UNL     1      -7.365  14.634  69.762  1.00  0.00    -0.122 OA 
HETATM   16  H   UNL     1      -4.566  17.641  66.465  1.00  0.00     0.000 HD 
BRANCH   9  17
HETATM   17  C   UNL     1      -9.563  13.887  68.112  1.00  0.00    -0.218 C  
BRANCH  17  18
HETATM   18  C   UNL     1      -9.590  12.472  67.603  1.00  0.00    -0.190 A  
HETATM   19  C   UNL     1     -10.792  11.884  67.199  1.00  0.00    -0.301 A  
HETATM   20  C   UNL     1     -10.864  10.498  67.000  1.00  0.00    -0.288 A  
HETATM   21  C   UNL     1      -9.762   9.650  67.251  1.00  0.00    -0.213 A  
HETATM   22  C   UNL     1      -8.526  10.290  67.440  1.00  0.00    -0.125 A  
HETATM   23  C   UNL     1      -8.435  11.684  67.590  1.00  0.00    -0.142 A  
BRANCH  21  24
HETATM   24  C   UNL     1      -9.984   8.188  67.533  1.00  0.00    -0.251 A  
HETATM   25  C   UNL     1     -10.574   7.615  68.692  1.00  0.00    -0.161 A  
HETATM   26  C   UNL     1     -10.862   6.222  68.708  1.00  0.00    -0.398 A  
HETATM   27  C   UNL     1      -9.690   7.289  66.467  1.00  0.00    -0.207 A  
HETATM   28  C   UNL     1      -9.951   5.920  66.516  1.00  0.00    -0.196 A  
HETATM   29  C   UNL     1     -10.557   5.386  67.635  1.00  0.00    -0.188 A  
BRANCH  25  30
HETATM   30  C   UNL     1     -10.879   8.363  69.914  1.00  0.00    -0.207 A  
HETATM   31  N   UNL     1     -10.815   9.463  71.776  1.00  0.00    -0.296 NA 
HETATM   32  H   UNL     1      -9.027   8.881  70.743  1.00  0.00     0.000 HD 
HETATM   33  N   UNL     1     -12.104   9.288  71.533  1.00  0.00    -0.337 NA 
HETATM   34  N   UNL     1     -10.046   8.893  70.790  1.00  0.00    -0.209 NA 
HETATM   35  N   UNL     1     -12.147   8.606  70.382  1.00  0.00     0.130 NA 
ENDBRANCH  25  30
ENDBRANCH  21  24
ENDBRANCH  17  18
ENDBRANCH   9  17
ENDBRANCH   3   4
ENDBRANCH   2   3
TORSDOF 6
ENDMDL
MODEL      227
REMARK 921   NORMALIZED FREE ENERGY PREDICTED BY IDOCK:   -4.45 KCAL/MOL
REMARK 922        TOTAL FREE ENERGY PREDICTED BY IDOCK:   -7.17 KCAL/MOL
REMARK 923 INTER-LIGAND FREE ENERGY PREDICTED BY IDOCK:   -6.85 KCAL/MOL
REMARK 924 INTRA-LIGAND FREE ENERGY PREDICTED BY IDOCK:   -0.32 KCAL/MOL
REMARK 927      BINDING AFFINITY PREDICTED BY RF-SCORE:    0.00 PKD
ROOT
HETATM    1  C   UNL     1      -8.889   3.013  65.619  1.00  0.00    -0.138 C  
HETATM    2  C   UNL     1      -8.197   3.849  66.689  1.00  0.00    -0.100 C  
ENDROOT
BRANCH   2   3
HETATM    3  C   UNL     1      -8.602   5.329  66.684  1.00  0.00    -0.110 C  
BRANCH   3   4
HETATM    4  C   UNL     1      -8.211   6.042  67.941  1.00  0.00    -0.112 A  
HETATM    5  N   UNL     1      -8.282   5.425  69.105  1.00  0.00    -0.093 NA 
HETATM    6  C   UNL     1      -8.011   6.345  70.079  1.00  0.00    -0.112 A  
HETATM    7  C   UNL     1      -8.082   5.951  71.539  1.00  0.00    -0.115 C  
HETATM    8  C   UNL     1      -7.782   7.590  69.499  1.00  0.00    -0.104 A  
HETATM    9  N   UNL     1      -7.776   7.346  68.112  1.00  0.00    -0.118 NA 
HETATM   10  O   UNL     1      -9.079   6.780  72.173  1.00  0.00    -0.138 OA 
HETATM   11  C   UNL     1      -6.755   6.198  72.268  1.00  0.00    -0.068 C  
HETATM   12  C   UNL     1      -8.481   4.482  71.753  1.00  0.00    -0.116 C  
HETATM   13  C   UNL     1      -7.556   8.881  70.104  1.00  0.00    -0.074 C  
HETATM   14  O   UNL     1      -8.166   9.047  71.299  1.00  0.00    -0.224 OA 
HETATM   15  O   UNL     1      -6.922   9.800  69.592  1.00  0.00    -0.061 OA 
HETATM   16  H   UNL     1      -9.123   6.533  73.089  1.00  0.00     0.000 HD 
BRANCH   9  17
HETATM   17  C   UNL     1      -7.393   8.410  67.151  1.00  0.00    -0.085 C  
BRANCH  17  18
HETATM   18  C   UNL     1      -8.486   9.115  66.396  1.00  0.00    -0.129 A  
HETATM   19  C   UNL     1      -8.183   9.941  65.310  1.00  0.00    -0.145 A  
HETATM   20  C   UNL     1      -9.155  10.809  64.794  1.00  0.00    -0.222 A  
HETATM   21  C   UNL     1     -10.438  10.924  65.377  1.00  0.00    -0.291 A  
HETATM   22  C   UNL     1     -10.776   9.934  66.314  1.00  0.00     0.013 A  
HETATM   23  C   UNL     1      -9.822   9.025  66.801  1.00  0.00    -0.300 A  
BRANCH  21  24
HETATM   24  C   UNL     1     -11.254  12.171  65.165  1.00  0.00    -0.378 A  
HETATM   25  C   UNL     1     -11.831  13.002  66.163  1.00  0.00    -0.466 A  
HETATM   26  C   UNL     1     -12.421  14.238  65.781  1.00  0.00    -0.421 A  
HETATM   27  C   UNL     1     -11.351  12.640  63.823  1.00  0.00    -0.529 A  
HETATM   28  C   UNL     1     -11.964  13.841  63.466  1.00  0.00    -0.197 A  
HETATM   29  C   UNL     1     -12.486  14.653  64.451  1.00  0.00    -0.312 A  
BRANCH  25  30
HETATM   30  C   UNL     1     -11.896  12.655  67.585  1.00  0.00    -0.329 A  
HETATM   31  N   UNL     1     -11.797  12.617  69.746  1.00  0.00    -0.327 NA 
HETATM   32  H   UNL     1     -11.299  14.374  68.620  1.00  0.00     0.000 HD 
HETATM   33  N   UNL     1     -12.189  11.399  69.405  1.00  0.00    -0.270 NA 
HETATM   34  N   UNL     1     -11.606  13.401  68.633  1.00  0.00    -0.303 NA 
HETATM   35  N   UNL     1     -12.250  11.419  68.069  1.00  0.00    -0.471 NA 
ENDBRANCH  25  30
ENDBRANCH  21  24
ENDBRANCH  17  18
ENDBRANCH   9  17
ENDBRANCH   3   4
ENDBRANCH   2   3
TORSDOF 6
ENDMDL
MODEL      228
REMARK 921   NORMALIZED FREE ENERGY PREDICTED BY IDOCK:   -4.42 KCAL/MOL
REMARK 922        TOTAL FREE ENERGY PREDICTED BY IDOCK:   -7.13 KCAL/MOL
REMARK 923 INTER-LIGAND FREE ENERGY PREDICTED BY IDOCK:   -6.59 KCAL/MOL
REMARK 924 INTRA-LIGAND FREE ENERGY PREDICTED BY IDOCK:   -0.53 KCAL/MOL
REMARK 927      BINDING AFFINITY PREDICTED BY RF-SCORE:    0.00 PKD
ROOT
HETATM    1  C   UNL     1      -8.430   2.462  66.666  1.00  0.00    -0.099 C  
HETATM    2  C   UNL     1      -8.008   3.365  67.818  1.00  0.00    -0.080 C  
ENDROOT
BRANCH   2   3
HETATM    3  C   UNL     1      -9.048   4.431  68.189  1.00  0.00    -0.161 C  
BRANCH   3   4
HETATM    4  C   UNL     1      -8.667   5.214  69.407  1.00  0.00    -0.099 A  
HETATM    5  N   UNL     1      -8.863   4.710  70.611  1.00  0.00    -0.102 NA 
HETATM    6  C   UNL     1      -8.566   5.684  71.521  1.00  0.00    -0.132 A  
HETATM    7  C   UNL     1      -8.758   5.427  73.001  1.00  0.00    -0.121 C  
HETATM    8  C   UNL     1      -8.189   6.849  70.858  1.00  0.00    -0.118 A  
HETATM    9  N   UNL     1      -8.123   6.485  69.500  1.00  0.00    -0.117 NA 
HETATM   10  O   UNL     1      -9.709   6.392  73.498  1.00  0.00    -0.155 OA 
HETATM   11  C   UNL     1      -7.459   5.620  73.794  1.00  0.00    -0.090 C  
HETATM   12  C   UNL     1      -9.304   4.023  73.308  1.00  0.00    -0.127 C  
HETATM   13  C   UNL     1      -7.879   8.164  71.370  1.00  0.00    -0.101 C  
HETATM   14  O   UNL     1      -8.541   8.486  72.504  1.00  0.00    -0.284 OA 
HETATM   15  O   UNL     1      -7.134   8.975  70.827  1.00  0.00    -0.071 OA 
HETATM   16  H   UNL     1      -9.830   6.231  74.426  1.00  0.00     0.000 HD 
BRANCH   9  17
HETATM   17  C   UNL     1      -7.588   7.424  68.482  1.00  0.00    -0.114 C  
BRANCH  17  18
HETATM   18  C   UNL     1      -8.503   8.489  67.944  1.00  0.00    -0.130 A  
HETATM   19  C   UNL     1      -7.984   9.608  67.287  1.00  0.00    -0.106 A  
HETATM   20  C   UNL     1      -8.800  10.721  67.043  1.00  0.00    -0.137 A  
HETATM   21  C   UNL     1     -10.138  10.778  67.493  1.00  0.00    -0.218 A  
HETATM   22  C   UNL     1     -10.684   9.566  67.947  1.00  0.00    -0.285 A  
HETATM   23  C   UNL     1      -9.885   8.429  68.148  1.00  0.00    -0.196 A  
BRANCH  21  24
HETATM   24  C   UNL     1     -10.813  12.109  67.687  1.00  0.00    -0.272 A  
HETATM   25  C   UNL     1     -11.495  12.880  66.706  1.00  0.00    -0.391 A  
HETATM   26  C   UNL     1     -12.224  14.031  67.112  1.00  0.00    -0.356 A  
HETATM   27  C   UNL     1     -10.890  12.588  69.028  1.00  0.00    -0.183 A  
HETATM   28  C   UNL     1     -11.585  13.739  69.399  1.00  0.00    -0.365 A  
HETATM   29  C   UNL     1     -12.270  14.455  68.439  1.00  0.00    -0.178 A  
BRANCH  25  30
HETATM   30  C   UNL     1     -11.469  12.590  65.270  1.00  0.00    -0.333 A  
HETATM   31  N   UNL     1     -11.773  12.551  63.129  1.00  0.00    -0.364 NA 
HETATM   32  H   UNL     1     -12.683  14.042  64.374  1.00  0.00     0.000 HD 
HETATM   33  N   UNL     1     -10.983  11.518  63.376  1.00  0.00    -0.371 NA 
HETATM   34  N   UNL     1     -12.087  13.219  64.289  1.00  0.00    -0.420 NA 
HETATM   35  N   UNL     1     -10.794  11.539  64.700  1.00  0.00    -0.317 NA 
ENDBRANCH  25  30
ENDBRANCH  21  24
ENDBRANCH  17  18
ENDBRANCH   9  17
ENDBRANCH   3   4
ENDBRANCH   2   3
TORSDOF 6
ENDMDL
MODEL      229
REMARK 921   NORMALIZED FREE ENERGY PREDICTED BY IDOCK:   -4.41 KCAL/MOL
REMARK 922        TOTAL FREE ENERGY PREDICTED BY IDOCK:   -7.11 KCAL/MOL
REMARK 923 INTER-LIGAND FREE ENERGY PREDICTED BY IDOCK:   -5.77 KCAL/MOL
REMARK 924 INTRA-LIGAND FREE ENERGY PREDICTED BY IDOCK:   -1.34 KCAL/MOL
REMARK 927      BINDING AFFINITY PREDICTED BY RF-SCORE:    0.00 PKD
ROOT
HETATM    1  C   UNL     1      -9.346   3.547  67.170  1.00  0.00    -0.229 C  
HETATM    2  C   UNL     1      -8.439   4.057  68.283  1.00  0.00    -0.105 C  
ENDROOT
BRANCH   2   3
HETATM    3  C   UNL     1      -8.383   5.587  68.390  1.00  0.00    -0.098 C  
BRANCH   3   4
HETATM    4  C   UNL     1      -8.632   6.081  69.782  1.00  0.00    -0.130 A  
HETATM    5  N   UNL     1      -7.824   5.732  70.766  1.00  0.00    -0.099 NA 
HETATM    6  C   UNL     1      -8.366   6.198  71.931  1.00  0.00    -0.118 A  
HETATM    7  C   UNL     1      -7.697   5.897  73.256  1.00  0.00    -0.098 C  
HETATM    8  C   UNL     1      -9.570   6.846  71.664  1.00  0.00    -0.161 A  
HETATM    9  N   UNL     1      -9.655   6.884  70.259  1.00  0.00    -0.169 NA 
HETATM   10  O   UNL     1      -8.636   5.159  74.067  1.00  0.00    -0.109 OA 
HETATM   11  C   UNL     1      -7.337   7.174  74.024  1.00  0.00    -0.106 C  
HETATM   12  C   UNL     1      -6.424   5.047  73.113  1.00  0.00    -0.060 C  
HETATM   13  C   UNL     1     -10.550   7.413  72.560  1.00  0.00    -0.261 C  
HETATM   14  O   UNL     1     -10.629   6.794  73.759  1.00  0.00    -0.337 OA 
HETATM   15  O   UNL     1     -11.309   8.338  72.282  1.00  0.00    -0.325 OA 
HETATM   16  H   UNL     1      -8.217   4.970  74.898  1.00  0.00     0.000 HD 
BRANCH   9  17
HETATM   17  C   UNL     1     -10.729   7.650  69.580  1.00  0.00    -0.209 C  
BRANCH  17  18
HETATM   18  C   UNL     1     -10.375   8.971  68.954  1.00  0.00    -0.232 A  
HETATM   19  C   UNL     1      -9.720   9.022  67.720  1.00  0.00    -0.190 A  
HETATM   20  C   UNL     1      -9.144  10.221  67.279  1.00  0.00    -0.150 A  
HETATM   21  C   UNL     1      -9.151  11.389  68.074  1.00  0.00    -0.171 A  
HETATM   22  C   UNL     1      -9.998  11.363  69.195  1.00  0.00    -0.005 A  
HETATM   23  C   UNL     1     -10.622  10.177  69.617  1.00  0.00    -0.286 A  
BRANCH  21  24
HETATM   24  C   UNL     1      -8.126  12.467  67.842  1.00  0.00    -0.163 A  
HETATM   25  C   UNL     1      -8.363  13.859  67.677  1.00  0.00    -0.183 A  
HETATM   26  C   UNL     1      -7.256  14.751  67.643  1.00  0.00    -0.208 A  
HETATM   27  C   UNL     1      -6.761  12.067  67.926  1.00  0.00    -0.080 A  
HETATM   28  C   UNL     1      -5.689  12.957  67.857  1.00  0.00    -0.121 A  
HETATM   29  C   UNL     1      -5.938  14.307  67.733  1.00  0.00    -0.112 A  
BRANCH  25  30
HETATM   30  C   UNL     1      -9.691  14.451  67.498  1.00  0.00    -0.215 A  
HETATM   31  N   UNL     1     -11.581  15.182  66.742  1.00  0.00    -0.210 NA 
HETATM   32  H   UNL     1     -10.210  14.093  65.502  1.00  0.00     0.000 HD 
HETATM   33  N   UNL     1     -11.550  15.574  68.006  1.00  0.00    -0.317 NA 
HETATM   34  N   UNL     1     -10.438  14.494  66.412  1.00  0.00    -0.288 NA 
HETATM   35  N   UNL     1     -10.381  15.123  68.476  1.00  0.00    -0.225 NA 
ENDBRANCH  25  30
ENDBRANCH  21  24
ENDBRANCH  17  18
ENDBRANCH   9  17
ENDBRANCH   3   4
ENDBRANCH   2   3
TORSDOF 6
ENDMDL
MODEL      230
REMARK 921   NORMALIZED FREE ENERGY PREDICTED BY IDOCK:   -4.37 KCAL/MOL
REMARK 922        TOTAL FREE ENERGY PREDICTED BY IDOCK:   -7.06 KCAL/MOL
REMARK 923 INTER-LIGAND FREE ENERGY PREDICTED BY IDOCK:   -5.67 KCAL/MOL
REMARK 924 INTRA-LIGAND FREE ENERGY PREDICTED BY IDOCK:   -1.39 KCAL/MOL
REMARK 927      BINDING AFFINITY PREDICTED BY RF-SCORE:    0.00 PKD
ROOT
HETATM    1  C   UNL     1      -6.382  16.216  68.946  1.00  0.00    -0.129 C  
HETATM    2  C   UNL     1      -6.794  15.687  67.578  1.00  0.00    -0.221 C  
ENDROOT
BRANCH   2   3
HETATM    3  C   UNL     1      -7.141  14.193  67.564  1.00  0.00    -0.184 C  
BRANCH   3   4
HETATM    4  C   UNL     1      -8.596  13.932  67.810  1.00  0.00    -0.182 A  
HETATM    5  N   UNL     1      -9.213  14.513  68.822  1.00  0.00    -0.186 NA 
HETATM    6  C   UNL     1     -10.473  13.988  68.893  1.00  0.00    -0.200 A  
HETATM    7  C   UNL     1     -11.412  14.411  70.003  1.00  0.00    -0.238 C  
HETATM    8  C   UNL     1     -10.640  13.028  67.898  1.00  0.00    -0.229 A  
HETATM    9  N   UNL     1      -9.468  13.106  67.121  1.00  0.00    -0.230 NA 
HETATM   10  O   UNL     1     -11.759  13.232  70.760  1.00  0.00    -0.491 OA 
HETATM   11  C   UNL     1     -12.718  15.004  69.460  1.00  0.00     0.088 C  
HETATM   12  C   UNL     1     -10.788  15.429  70.971  1.00  0.00    -0.207 C  
HETATM   13  C   UNL     1     -11.744  12.137  67.628  1.00  0.00    -0.316 C  
HETATM   14  O   UNL     1     -12.444  11.773  68.726  1.00  0.00    -0.209 OA 
HETATM   15  O   UNL     1     -12.026  11.677  66.524  1.00  0.00    -0.474 OA 
HETATM   16  H   UNL     1     -12.348  13.497  71.457  1.00  0.00     0.000 HD 
BRANCH   9  17
HETATM   17  C   UNL     1      -9.340  12.346  65.853  1.00  0.00    -0.062 C  
BRANCH  17  18
HETATM   18  C   UNL     1      -8.607  11.032  65.881  1.00  0.00    -0.165 A  
HETATM   19  C   UNL     1      -9.230   9.860  65.444  1.00  0.00    -0.264 A  
HETATM   20  C   UNL     1      -8.660   8.612  65.732  1.00  0.00    -0.184 A  
HETATM   21  C   UNL     1      -7.486   8.490  66.509  1.00  0.00    -0.088 A  
HETATM   22  C   UNL     1      -6.777   9.680  66.740  1.00  0.00    -0.075 A  
HETATM   23  C   UNL     1      -7.316  10.934  66.409  1.00  0.00    -0.141 A  
BRANCH  21  24
HETATM   24  C   UNL     1      -7.187   7.200  67.226  1.00  0.00    -0.086 A  
HETATM   25  C   UNL     1      -7.266   6.955  68.624  1.00  0.00    -0.088 A  
HETATM   26  C   UNL     1      -7.117   5.624  69.104  1.00  0.00    -0.065 A  
HETATM   27  C   UNL     1      -6.922   6.068  66.403  1.00  0.00    -0.067 A  
HETATM   28  C   UNL     1      -6.747   4.776  66.898  1.00  0.00    -0.051 A  
HETATM   29  C   UNL     1      -6.862   4.549  68.254  1.00  0.00    -0.051 A  
BRANCH  25  30
HETATM   30  C   UNL     1      -7.457   8.000  69.633  1.00  0.00    -0.091 A  
HETATM   31  N   UNL     1      -7.235   9.463  71.210  1.00  0.00    -0.326 NA 
HETATM   32  H   UNL     1      -5.560   8.366  70.440  1.00  0.00     0.000 HD 
HETATM   33  N   UNL     1      -8.529   9.461  70.933  1.00  0.00    -0.288 NA 
HETATM   34  N   UNL     1      -6.561   8.562  70.421  1.00  0.00    -0.035 NA 
HETATM   35  N   UNL     1      -8.670   8.556  69.958  1.00  0.00    -0.133 NA 
ENDBRANCH  25  30
ENDBRANCH  21  24
ENDBRANCH  17  18
ENDBRANCH   9  17
ENDBRANCH   3   4
ENDBRANCH   2   3
TORSDOF 6
ENDMDL
MODEL      231
REMARK 921   NORMALIZED FREE ENERGY PREDICTED BY IDOCK:   -4.36 KCAL/MOL
REMARK 922        TOTAL FREE ENERGY PREDICTED BY IDOCK:   -7.04 KCAL/MOL
REMARK 923 INTER-LIGAND FREE ENERGY PREDICTED BY IDOCK:   -6.00 KCAL/MOL
REMARK 924 INTRA-LIGAND FREE ENERGY PREDICTED BY IDOCK:   -1.04 KCAL/MOL
REMARK 927      BINDING AFFINITY PREDICTED BY RF-SCORE:    0.00 PKD
ROOT
HETATM    1  C   UNL     1      -6.216  10.660  70.202  1.00  0.00    -0.125 C  
HETATM    2  C   UNL     1      -7.651  10.208  69.961  1.00  0.00    -0.164 C  
ENDROOT
BRANCH   2   3
HETATM    3  C   UNL     1      -8.000  10.002  68.481  1.00  0.00    -0.102 C  
BRANCH   3   4
HETATM    4  C   UNL     1      -8.812  11.126  67.914  1.00  0.00    -0.136 A  
HETATM    5  N   UNL     1      -8.569  12.371  68.279  1.00  0.00    -0.181 NA 
HETATM    6  C   UNL     1      -9.540  13.159  67.729  1.00  0.00    -0.208 A  
HETATM    7  C   UNL     1      -9.572  14.644  68.023  1.00  0.00    -0.212 C  
HETATM    8  C   UNL     1     -10.434  12.371  67.009  1.00  0.00    -0.220 A  
HETATM    9  N   UNL     1      -9.870  11.082  67.022  1.00  0.00    -0.179 NA 
HETATM   10  O   UNL     1     -10.834  14.942  68.658  1.00  0.00    -0.236 OA 
HETATM   11  C   UNL     1      -9.496  15.488  66.745  1.00  0.00    -0.257 C  
HETATM   12  C   UNL     1      -8.447  15.100  68.967  1.00  0.00    -0.214 C  
HETATM   13  C   UNL     1     -11.664  12.721  66.337  1.00  0.00    -0.403 C  
HETATM   14  O   UNL     1     -12.328  13.755  66.900  1.00  0.00    -0.392 OA 
HETATM   15  O   UNL     1     -12.135  12.124  65.372  1.00  0.00    -0.477 OA 
HETATM   16  H   UNL     1     -10.854  15.873  68.843  1.00  0.00     0.000 HD 
BRANCH   9  17
HETATM   17  C   UNL     1     -10.452   9.985  66.209  1.00  0.00    -0.102 C  
BRANCH  17  18
HETATM   18  C   UNL     1      -9.860   8.608  66.341  1.00  0.00    -0.341 A  
HETATM   19  C   UNL     1      -8.715   8.253  65.622  1.00  0.00    -0.188 A  
HETATM   20  C   UNL     1      -8.336   6.908  65.525  1.00  0.00    -0.138 A  
HETATM   21  C   UNL     1      -9.113   5.871  66.089  1.00  0.00    -0.160 A  
HETATM   22  C   UNL     1     -10.121   6.275  66.979  1.00  0.00    -0.225 A  
HETATM   23  C   UNL     1     -10.477   7.627  67.123  1.00  0.00    -0.412 A  
BRANCH  21  24
HETATM   24  C   UNL     1      -8.997   4.467  65.559  1.00  0.00    -0.135 A  
HETATM   25  C   UNL     1      -8.156   3.430  66.047  1.00  0.00    -0.093 A  
HETATM   26  C   UNL     1      -8.308   2.113  65.532  1.00  0.00    -0.092 A  
HETATM   27  C   UNL     1      -9.924   4.098  64.542  1.00  0.00    -0.170 A  
HETATM   28  C   UNL     1     -10.035   2.806  64.028  1.00  0.00    -0.142 A  
HETATM   29  C   UNL     1      -9.235   1.804  64.537  1.00  0.00    -0.129 A  
BRANCH  25  30
HETATM   30  C   UNL     1      -7.093   3.629  67.035  1.00  0.00    -0.063 A  
HETATM   31  N   UNL     1      -5.291   4.167  68.103  1.00  0.00    -0.011 NA 
HETATM   32  H   UNL     1      -5.648   4.812  66.089  1.00  0.00     0.000 HD 
HETATM   33  N   UNL     1      -5.978   3.425  68.956  1.00  0.00    -0.023 NA 
HETATM   34  N   UNL     1      -5.962   4.298  66.911  1.00  0.00    -0.023 NA 
HETATM   35  N   UNL     1      -7.093   3.090  68.298  1.00  0.00    -0.049 NA 
ENDBRANCH  25  30
ENDBRANCH  21  24
ENDBRANCH  17  18
ENDBRANCH   9  17
ENDBRANCH   3   4
ENDBRANCH   2   3
TORSDOF 6
ENDMDL
MODEL      232
REMARK 921   NORMALIZED FREE ENERGY PREDICTED BY IDOCK:   -4.35 KCAL/MOL
REMARK 922        TOTAL FREE ENERGY PREDICTED BY IDOCK:   -7.02 KCAL/MOL
REMARK 923 INTER-LIGAND FREE ENERGY PREDICTED BY IDOCK:   -6.00 KCAL/MOL
REMARK 924 INTRA-LIGAND FREE ENERGY PREDICTED BY IDOCK:   -1.03 KCAL/MOL
REMARK 927      BINDING AFFINITY PREDICTED BY RF-SCORE:    0.00 PKD
ROOT
HETATM    1  C   UNL     1      -9.489   6.240  67.113  1.00  0.00    -0.136 C  
HETATM    2  C   UNL     1      -8.162   6.926  66.812  1.00  0.00    -0.114 C  
ENDROOT
BRANCH   2   3
HETATM    3  C   UNL     1      -7.814   8.063  67.781  1.00  0.00    -0.126 C  
BRANCH   3   4
HETATM    4  C   UNL     1      -8.674   8.065  69.007  1.00  0.00    -0.137 A  
HETATM    5  N   UNL     1      -8.273   7.446  70.102  1.00  0.00    -0.131 NA 
HETATM    6  C   UNL     1      -9.303   7.484  70.999  1.00  0.00    -0.156 A  
HETATM    7  C   UNL     1      -9.170   6.793  72.340  1.00  0.00    -0.134 C  
HETATM    8  C   UNL     1     -10.396   8.135  70.433  1.00  0.00    -0.206 A  
HETATM    9  N   UNL     1      -9.925   8.627  69.201  1.00  0.00    -0.186 NA 
HETATM   10  O   UNL     1     -10.209   5.794  72.427  1.00  0.00    -0.183 OA 
HETATM   11  C   UNL     1      -9.371   7.762  73.511  1.00  0.00    -0.351 C  
HETATM   12  C   UNL     1      -7.817   6.086  72.527  1.00  0.00    -0.104 C  
HETATM   13  C   UNL     1     -11.733   8.340  70.940  1.00  0.00    -0.239 C  
HETATM   14  O   UNL     1     -12.169   7.360  71.763  1.00  0.00    -0.301 OA 
HETATM   15  O   UNL     1     -12.469   9.275  70.634  1.00  0.00    -0.123 OA 
HETATM   16  H   UNL     1     -10.126   5.361  73.268  1.00  0.00     0.000 HD 
BRANCH   9  17
HETATM   17  C   UNL     1     -10.759   9.531  68.370  1.00  0.00    -0.186 C  
BRANCH  17  18
HETATM   18  C   UNL     1     -10.268  10.932  68.128  1.00  0.00    -0.197 A  
HETATM   19  C   UNL     1      -9.137  11.164  67.342  1.00  0.00    -0.143 A  
HETATM   20  C   UNL     1      -8.521  12.423  67.350  1.00  0.00    -0.179 A  
HETATM   21  C   UNL     1      -8.977  13.471  68.182  1.00  0.00    -0.187 A  
HETATM   22  C   UNL     1     -10.230  13.274  68.784  1.00  0.00    -0.119 A  
HETATM   23  C   UNL     1     -10.881  12.030  68.739  1.00  0.00    -0.267 A  
BRANCH  21  24
HETATM   24  C   UNL     1      -8.045  14.590  68.565  1.00  0.00    -0.148 A  
HETATM   25  C   UNL     1      -8.247  15.983  68.369  1.00  0.00    -0.165 A  
HETATM   26  C   UNL     1      -7.337  16.905  68.955  1.00  0.00    -0.236 A  
HETATM   27  C   UNL     1      -6.896  14.222  69.324  1.00  0.00    -0.124 A  
HETATM   28  C   UNL     1      -5.998  15.143  69.863  1.00  0.00    -0.136 A  
HETATM   29  C   UNL     1      -6.228  16.492  69.692  1.00  0.00    -0.220 A  
BRANCH  25  30
HETATM   30  C   UNL     1      -9.326  16.550  67.557  1.00  0.00    -0.218 A  
HETATM   31  N   UNL     1     -10.809  16.991  66.045  1.00  0.00    -0.087 NA 
HETATM   32  H   UNL     1      -9.587  15.231  65.952  1.00  0.00     0.000 HD 
HETATM   33  N   UNL     1     -10.885  18.002  66.896  1.00  0.00    -0.180 NA 
HETATM   34  N   UNL     1      -9.848  16.090  66.436  1.00  0.00    -0.269 NA 
HETATM   35  N   UNL     1      -9.968  17.733  67.832  1.00  0.00    -0.306 NA 
ENDBRANCH  25  30
ENDBRANCH  21  24
ENDBRANCH  17  18
ENDBRANCH   9  17
ENDBRANCH   3   4
ENDBRANCH   2   3
TORSDOF 6
ENDMDL
MODEL      233
REMARK 921   NORMALIZED FREE ENERGY PREDICTED BY IDOCK:   -4.30 KCAL/MOL
REMARK 922        TOTAL FREE ENERGY PREDICTED BY IDOCK:   -6.97 KCAL/MOL
REMARK 923 INTER-LIGAND FREE ENERGY PREDICTED BY IDOCK:   -5.27 KCAL/MOL
REMARK 924 INTRA-LIGAND FREE ENERGY PREDICTED BY IDOCK:   -1.70 KCAL/MOL
REMARK 927      BINDING AFFINITY PREDICTED BY RF-SCORE:    0.00 PKD
ROOT
HETATM    1  C   UNL     1     -11.624   7.053  70.326  1.00  0.00    -0.309 C  
HETATM    2  C   UNL     1     -11.166   5.904  69.436  1.00  0.00    -0.277 C  
ENDROOT
BRANCH   2   3
HETATM    3  C   UNL     1     -11.230   6.213  67.935  1.00  0.00    -0.137 C  
BRANCH   3   4
HETATM    4  C   UNL     1      -9.891   6.137  67.268  1.00  0.00    -0.134 A  
HETATM    5  N   UNL     1      -9.636   5.182  66.394  1.00  0.00    -0.150 NA 
HETATM    6  C   UNL     1      -8.313   5.266  66.063  1.00  0.00    -0.118 A  
HETATM    7  C   UNL     1      -7.699   4.253  65.120  1.00  0.00    -0.085 C  
HETATM    8  C   UNL     1      -7.715   6.303  66.774  1.00  0.00    -0.100 A  
HETATM    9  N   UNL     1      -8.778   6.943  67.440  1.00  0.00    -0.120 NA 
HETATM   10  O   UNL     1      -6.639   3.576  65.828  1.00  0.00    -0.038 OA 
HETATM   11  C   UNL     1      -7.071   4.918  63.889  1.00  0.00    -0.049 C  
HETATM   12  C   UNL     1      -8.699   3.191  64.634  1.00  0.00    -0.101 C  
HETATM   13  C   UNL     1      -6.334   6.721  66.843  1.00  0.00    -0.042 C  
HETATM   14  O   UNL     1      -5.443   5.718  66.674  1.00  0.00    -0.011 OA 
HETATM   15  O   UNL     1      -5.954   7.862  67.089  1.00  0.00    -0.046 OA 
HETATM   16  H   UNL     1      -6.254   2.941  65.237  1.00  0.00     0.000 HD 
BRANCH   9  17
HETATM   17  C   UNL     1      -8.562   8.212  68.178  1.00  0.00    -0.129 C  
BRANCH  17  18
HETATM   18  C   UNL     1      -9.204   9.464  67.647  1.00  0.00    -0.142 A  
HETATM   19  C   UNL     1      -8.933   9.908  66.349  1.00  0.00    -0.169 A  
HETATM   20  C   UNL     1      -9.298  11.204  65.959  1.00  0.00    -0.228 A  
HETATM   21  C   UNL     1      -9.891  12.115  66.861  1.00  0.00    -0.213 A  
HETATM   22  C   UNL     1     -10.344  11.571  68.074  1.00  0.00    -0.208 A  
HETATM   23  C   UNL     1     -10.027  10.256  68.454  1.00  0.00    -0.173 A  
BRANCH  21  24
HETATM   24  C   UNL     1      -9.801  13.596  66.606  1.00  0.00    -0.284 A  
HETATM   25  C   UNL     1      -8.766  14.479  67.017  1.00  0.00    -0.256 A  
HETATM   26  C   UNL     1      -8.762  15.816  66.533  1.00  0.00    -0.354 A  
HETATM   27  C   UNL     1     -10.796  14.149  65.748  1.00  0.00    -0.297 A  
HETATM   28  C   UNL     1     -10.790  15.474  65.311  1.00  0.00    -0.425 A  
HETATM   29  C   UNL     1      -9.759  16.307  65.691  1.00  0.00    -0.206 A  
BRANCH  25  30
HETATM   30  C   UNL     1      -7.700  14.116  67.954  1.00  0.00    -0.158 A  
HETATM   31  N   UNL     1      -5.906  13.381  68.913  1.00  0.00    -0.073 NA 
HETATM   32  H   UNL     1      -6.184  13.262  66.789  1.00  0.00     0.000 HD 
HETATM   33  N   UNL     1      -6.653  13.840  69.904  1.00  0.00    -0.051 NA 
HETATM   34  N   UNL     1      -6.541  13.538  67.704  1.00  0.00    -0.168 NA 
HETATM   35  N   UNL     1      -7.765  14.294  69.314  1.00  0.00    -0.019 NA 
ENDBRANCH  25  30
ENDBRANCH  21  24
ENDBRANCH  17  18
ENDBRANCH   9  17
ENDBRANCH   3   4
ENDBRANCH   2   3
TORSDOF 6
ENDMDL
MODEL      234
REMARK 921   NORMALIZED FREE ENERGY PREDICTED BY IDOCK:   -4.28 KCAL/MOL
REMARK 922        TOTAL FREE ENERGY PREDICTED BY IDOCK:   -6.93 KCAL/MOL
REMARK 923 INTER-LIGAND FREE ENERGY PREDICTED BY IDOCK:   -5.29 KCAL/MOL
REMARK 924 INTRA-LIGAND FREE ENERGY PREDICTED BY IDOCK:   -1.64 KCAL/MOL
REMARK 927      BINDING AFFINITY PREDICTED BY RF-SCORE:    0.00 PKD
ROOT
HETATM    1  C   UNL     1     -10.986   9.580  71.016  1.00  0.00    -0.424 C  
HETATM    2  C   UNL     1      -9.966  10.033  69.978  1.00  0.00    -0.273 C  
ENDROOT
BRANCH   2   3
HETATM    3  C   UNL     1      -8.698   9.170  69.931  1.00  0.00    -0.170 C  
BRANCH   3   4
HETATM    4  C   UNL     1      -8.190   8.961  68.538  1.00  0.00    -0.116 A  
HETATM    5  N   UNL     1      -8.609   9.734  67.554  1.00  0.00    -0.125 NA 
HETATM    6  C   UNL     1      -8.103   9.231  66.389  1.00  0.00    -0.107 A  
HETATM    7  C   UNL     1      -8.465   9.869  65.064  1.00  0.00    -0.154 C  
HETATM    8  C   UNL     1      -7.355   8.087  66.655  1.00  0.00    -0.088 A  
HETATM    9  N   UNL     1      -7.305   8.008  68.060  1.00  0.00    -0.094 NA 
HETATM   10  O   UNL     1      -9.123   8.869  64.257  1.00  0.00    -0.419 OA 
HETATM   11  C   UNL     1      -7.226  10.334  64.290  1.00  0.00    -0.063 C  
HETATM   12  C   UNL     1      -9.420  11.066  65.207  1.00  0.00    -0.259 C  
HETATM   13  C   UNL     1      -6.710   7.156  65.759  1.00  0.00    -0.052 C  
HETATM   14  O   UNL     1      -7.325   7.023  64.562  1.00  0.00    -0.071 OA 
HETATM   15  O   UNL     1      -5.723   6.479  66.035  1.00  0.00    -0.020 OA 
HETATM   16  H   UNL     1      -9.351   9.269  63.426  1.00  0.00     0.000 HD 
BRANCH   9  17
HETATM   17  C   UNL     1      -6.448   7.005  68.738  1.00  0.00    -0.032 C  
BRANCH  17  18
HETATM   18  C   UNL     1      -7.111   5.814  69.375  1.00  0.00    -0.065 A  
HETATM   19  C   UNL     1      -8.397   5.426  68.992  1.00  0.00    -0.100 A  
HETATM   20  C   UNL     1      -9.117   4.510  69.771  1.00  0.00    -0.166 A  
HETATM   21  C   UNL     1      -8.603   3.996  70.983  1.00  0.00    -0.108 A  
HETATM   22  C   UNL     1      -7.239   4.234  71.220  1.00  0.00    -0.040 A  
HETATM   23  C   UNL     1      -6.494   5.111  70.415  1.00  0.00    -0.034 A  
BRANCH  21  24
HETATM   24  C   UNL     1      -9.539   3.455  72.031  1.00  0.00    -0.214 A  
HETATM   25  C   UNL     1     -10.142   4.173  73.099  1.00  0.00    -0.204 A  
HETATM   26  C   UNL     1     -11.139   3.535  73.887  1.00  0.00    -0.224 A  
HETATM   27  C   UNL     1      -9.968   2.108  71.857  1.00  0.00    -0.219 A  
HETATM   28  C   UNL     1     -10.925   1.491  72.663  1.00  0.00    -0.183 A  
HETATM   29  C   UNL     1     -11.526   2.213  73.673  1.00  0.00    -0.307 A  
BRANCH  25  30
HETATM   30  C   UNL     1      -9.778   5.540  73.480  1.00  0.00    -0.149 A  
HETATM   31  N   UNL     1      -9.657   7.681  73.761  1.00  0.00    -0.276 NA 
HETATM   32  H   UNL     1     -11.287   6.769  72.707  1.00  0.00     0.000 HD 
HETATM   33  N   UNL     1      -8.570   7.203  74.345  1.00  0.00    -0.187 NA 
HETATM   34  N   UNL     1     -10.409   6.668  73.217  1.00  0.00    -0.230 NA 
HETATM   35  N   UNL     1      -8.641   5.879  74.172  1.00  0.00    -0.119 NA 
ENDBRANCH  25  30
ENDBRANCH  21  24
ENDBRANCH  17  18
ENDBRANCH   9  17
ENDBRANCH   3   4
ENDBRANCH   2   3
TORSDOF 6
ENDMDL
MODEL      235
REMARK 921   NORMALIZED FREE ENERGY PREDICTED BY IDOCK:   -4.25 KCAL/MOL
REMARK 922        TOTAL FREE ENERGY PREDICTED BY IDOCK:   -6.90 KCAL/MOL
REMARK 923 INTER-LIGAND FREE ENERGY PREDICTED BY IDOCK:   -5.30 KCAL/MOL
REMARK 924 INTRA-LIGAND FREE ENERGY PREDICTED BY IDOCK:   -1.60 KCAL/MOL
REMARK 927      BINDING AFFINITY PREDICTED BY RF-SCORE:    0.00 PKD
ROOT
HETATM    1  C   UNL     1      -9.691   6.040  70.586  1.00  0.00    -0.209 C  
HETATM    2  C   UNL     1     -10.104   5.142  69.427  1.00  0.00    -0.305 C  
ENDROOT
BRANCH   2   3
HETATM    3  C   UNL     1     -10.565   5.906  68.179  1.00  0.00    -0.312 C  
BRANCH   3   4
HETATM    4  C   UNL     1      -9.704   5.637  66.983  1.00  0.00    -0.143 A  
HETATM    5  N   UNL     1     -10.170   4.921  65.976  1.00  0.00    -0.249 NA 
HETATM    6  C   UNL     1      -9.139   4.714  65.104  1.00  0.00    -0.155 A  
HETATM    7  C   UNL     1      -9.345   3.862  63.869  1.00  0.00    -0.148 C  
HETATM    8  C   UNL     1      -7.979   5.306  65.598  1.00  0.00    -0.106 A  
HETATM    9  N   UNL     1      -8.395   6.017  66.740  1.00  0.00    -0.106 NA 
HETATM   10  O   UNL     1      -8.431   2.748  63.944  1.00  0.00    -0.085 OA 
HETATM   11  C   UNL     1      -9.025   4.628  62.580  1.00  0.00    -0.127 C  
HETATM   12  C   UNL     1     -10.771   3.298  63.753  1.00  0.00    -0.225 C  
HETATM   13  C   UNL     1      -6.625   5.282  65.097  1.00  0.00    -0.040 C  
HETATM   14  O   UNL     1      -6.303   4.152  64.427  1.00  0.00    -0.031 OA 
HETATM   15  O   UNL     1      -5.785   6.158  65.286  1.00  0.00    -0.023 OA 
HETATM   16  H   UNL     1      -8.560   2.213  63.169  1.00  0.00     0.000 HD 
BRANCH   9  17
HETATM   17  C   UNL     1      -7.464   6.925  67.455  1.00  0.00    -0.097 C  
BRANCH  17  18
HETATM   18  C   UNL     1      -7.749   8.402  67.430  1.00  0.00    -0.098 A  
HETATM   19  C   UNL     1      -8.852   8.926  68.111  1.00  0.00    -0.134 A  
HETATM   20  C   UNL     1      -9.275  10.238  67.857  1.00  0.00    -0.143 A  
HETATM   21  C   UNL     1      -8.652  11.047  66.881  1.00  0.00    -0.143 A  
HETATM   22  C   UNL     1      -7.427  10.573  66.383  1.00  0.00    -0.133 A  
HETATM   23  C   UNL     1      -6.967   9.278  66.671  1.00  0.00    -0.081 A  
BRANCH  21  24
HETATM   24  C   UNL     1      -9.399  12.201  66.268  1.00  0.00    -0.221 A  
HETATM   25  C   UNL     1      -9.075  13.582  66.358  1.00  0.00    -0.064 A  
HETATM   26  C   UNL     1      -9.797  14.517  65.567  1.00  0.00    -0.320 A  
HETATM   27  C   UNL     1     -10.474  11.863  65.395  1.00  0.00    -0.312 A  
HETATM   28  C   UNL     1     -11.191  12.801  64.652  1.00  0.00    -0.356 A  
HETATM   29  C   UNL     1     -10.840  14.133  64.724  1.00  0.00    -0.426 A  
BRANCH  25  30
HETATM   30  C   UNL     1      -8.055  14.130  67.255  1.00  0.00    -0.168 A  
HETATM   31  N   UNL     1      -6.246  14.894  68.161  1.00  0.00    -0.125 NA 
HETATM   32  H   UNL     1      -6.343  14.392  66.078  1.00  0.00     0.000 HD 
HETATM   33  N   UNL     1      -7.121  14.838  69.153  1.00  0.00    -0.133 NA 
HETATM   34  N   UNL     1      -6.805  14.455  66.985  1.00  0.00     0.073 NA 
HETATM   35  N   UNL     1      -8.241  14.364  68.595  1.00  0.00    -0.150 NA 
ENDBRANCH  25  30
ENDBRANCH  21  24
ENDBRANCH  17  18
ENDBRANCH   9  17
ENDBRANCH   3   4
ENDBRANCH   2   3
TORSDOF 6
ENDMDL
MODEL      236
REMARK 921   NORMALIZED FREE ENERGY PREDICTED BY IDOCK:   -4.24 KCAL/MOL
REMARK 922        TOTAL FREE ENERGY PREDICTED BY IDOCK:   -6.88 KCAL/MOL
REMARK 923 INTER-LIGAND FREE ENERGY PREDICTED BY IDOCK:   -6.77 KCAL/MOL
REMARK 924 INTRA-LIGAND FREE ENERGY PREDICTED BY IDOCK:   -0.10 KCAL/MOL
REMARK 927      BINDING AFFINITY PREDICTED BY RF-SCORE:    0.00 PKD
ROOT
HETATM    1  C   UNL     1      -6.194   5.715  72.575  1.00  0.00    -0.047 C  
HETATM    2  C   UNL     1      -5.898   6.092  71.128  1.00  0.00    -0.026 C  
ENDROOT
BRANCH   2   3
HETATM    3  C   UNL     1      -7.084   5.892  70.176  1.00  0.00    -0.071 C  
BRANCH   3   4
HETATM    4  C   UNL     1      -8.278   6.715  70.555  1.00  0.00    -0.118 A  
HETATM    5  N   UNL     1      -9.268   6.174  71.238  1.00  0.00    -0.150 NA 
HETATM    6  C   UNL     1     -10.272   7.098  71.314  1.00  0.00    -0.190 A  
HETATM    7  C   UNL     1     -11.582   6.746  71.987  1.00  0.00    -0.291 C  
HETATM    8  C   UNL     1      -9.899   8.254  70.633  1.00  0.00    -0.182 A  
HETATM    9  N   UNL     1      -8.555   8.042  70.270  1.00  0.00    -0.131 NA 
HETATM   10  O   UNL     1     -12.633   6.885  71.008  1.00  0.00    -0.409 OA 
HETATM   11  C   UNL     1     -11.909   7.697  73.145  1.00  0.00     0.266 C  
HETATM   12  C   UNL     1     -11.621   5.305  72.523  1.00  0.00    -0.166 C  
HETATM   13  C   UNL     1     -10.644   9.459  70.349  1.00  0.00    -0.261 C  
HETATM   14  O   UNL     1     -11.976   9.268  70.217  1.00  0.00    -0.082 OA 
HETATM   15  O   UNL     1     -10.150  10.570  70.176  1.00  0.00    -0.063 OA 
HETATM   16  H   UNL     1     -13.455   6.664  71.431  1.00  0.00     0.000 HD 
BRANCH   9  17
HETATM   17  C   UNL     1      -7.746   9.129  69.667  1.00  0.00    -0.082 C  
BRANCH  17  18
HETATM   18  C   UNL     1      -8.187   9.696  68.345  1.00  0.00    -0.106 A  
HETATM   19  C   UNL     1      -7.914  11.026  68.014  1.00  0.00    -0.115 A  
HETATM   20  C   UNL     1      -8.562  11.626  66.926  1.00  0.00    -0.174 A  
HETATM   21  C   UNL     1      -9.541  10.942  66.170  1.00  0.00    -0.239 A  
HETATM   22  C   UNL     1      -9.627   9.558  66.389  1.00  0.00    -0.273 A  
HETATM   23  C   UNL     1      -8.942   8.936  67.446  1.00  0.00    -0.143 A  
BRANCH  21  24
HETATM   24  C   UNL     1     -10.563  11.716  65.381  1.00  0.00    -0.331 A  
HETATM   25  C   UNL     1     -11.229  12.909  65.772  1.00  0.00    -0.324 A  
HETATM   26  C   UNL     1     -12.033  13.598  64.823  1.00  0.00    -0.426 A  
HETATM   27  C   UNL     1     -10.791  11.278  64.044  1.00  0.00    -0.414 A  
HETATM   28  C   UNL     1     -11.611  11.952  63.139  1.00  0.00    -0.234 A  
HETATM   29  C   UNL     1     -12.221  13.127  63.524  1.00  0.00    -0.552 A  
BRANCH  25  30
HETATM   30  C   UNL     1     -11.177  13.474  67.123  1.00  0.00    -0.305 A  
HETATM   31  N   UNL     1     -10.740  14.615  68.908  1.00  0.00    -0.241 NA 
HETATM   32  H   UNL     1      -9.838  15.080  67.018  1.00  0.00     0.000 HD 
HETATM   33  N   UNL     1     -11.595  13.685  69.304  1.00  0.00    -0.291 NA 
HETATM   34  N   UNL     1     -10.468  14.494  67.566  1.00  0.00    -0.252 NA 
HETATM   35  N   UNL     1     -11.866  12.977  68.201  1.00  0.00    -0.348 NA 
ENDBRANCH  25  30
ENDBRANCH  21  24
ENDBRANCH  17  18
ENDBRANCH   9  17
ENDBRANCH   3   4
ENDBRANCH   2   3
TORSDOF 6
ENDMDL
MODEL      237
REMARK 921   NORMALIZED FREE ENERGY PREDICTED BY IDOCK:   -4.23 KCAL/MOL
REMARK 922        TOTAL FREE ENERGY PREDICTED BY IDOCK:   -6.86 KCAL/MOL
REMARK 923 INTER-LIGAND FREE ENERGY PREDICTED BY IDOCK:   -5.36 KCAL/MOL
REMARK 924 INTRA-LIGAND FREE ENERGY PREDICTED BY IDOCK:   -1.51 KCAL/MOL
REMARK 927      BINDING AFFINITY PREDICTED BY RF-SCORE:    0.00 PKD
ROOT
HETATM    1  C   UNL     1      -8.014   7.174  63.529  1.00  0.00    -0.067 C  
HETATM    2  C   UNL     1      -6.865   7.723  64.367  1.00  0.00    -0.059 C  
ENDROOT
BRANCH   2   3
HETATM    3  C   UNL     1      -6.587   9.215  64.144  1.00  0.00    -0.088 C  
BRANCH   3   4
HETATM    4  C   UNL     1      -7.494  10.100  64.942  1.00  0.00    -0.137 A  
HETATM    5  N   UNL     1      -8.540  10.669  64.372  1.00  0.00    -0.148 NA 
HETATM    6  C   UNL     1      -9.093  11.524  65.283  1.00  0.00    -0.017 A  
HETATM    7  C   UNL     1     -10.281  12.380  64.898  1.00  0.00    -0.278 C  
HETATM    8  C   UNL     1      -8.350  11.502  66.461  1.00  0.00    -0.147 A  
HETATM    9  N   UNL     1      -7.407  10.475  66.273  1.00  0.00    -0.127 NA 
HETATM   10  O   UNL     1      -9.897  13.763  65.052  1.00  0.00    -0.586 OA 
HETATM   11  C   UNL     1     -11.487  12.138  65.815  1.00  0.00    -0.414 C  
HETATM   12  C   UNL     1     -10.734  12.173  63.443  1.00  0.00    -0.461 C  
HETATM   13  C   UNL     1      -8.474  12.292  67.664  1.00  0.00    -0.166 C  
HETATM   14  O   UNL     1      -8.961  13.537  67.462  1.00  0.00    -0.189 OA 
HETATM   15  O   UNL     1      -8.126  11.929  68.785  1.00  0.00    -0.117 OA 
HETATM   16  H   UNL     1     -10.643  14.300  64.811  1.00  0.00     0.000 HD 
BRANCH   9  17
HETATM   17  C   UNL     1      -6.531  10.030  67.385  1.00  0.00    -0.068 C  
BRANCH  17  18
HETATM   18  C   UNL     1      -7.040   8.956  68.308  1.00  0.00    -0.078 A  
HETATM   19  C   UNL     1      -8.151   8.184  67.957  1.00  0.00    -0.128 A  
HETATM   20  C   UNL     1      -8.789   7.393  68.923  1.00  0.00    -0.131 A  
HETATM   21  C   UNL     1      -8.378   7.389  70.275  1.00  0.00    -0.134 A  
HETATM   22  C   UNL     1      -7.140   7.997  70.541  1.00  0.00    -0.045 A  
HETATM   23  C   UNL     1      -6.466   8.750  69.566  1.00  0.00    -0.044 A  
BRANCH  21  24
HETATM   24  C   UNL     1      -9.341   6.974  71.355  1.00  0.00    -0.155 A  
HETATM   25  C   UNL     1      -9.558   5.662  71.857  1.00  0.00    -0.176 A  
HETATM   26  C   UNL     1     -10.382   5.485  73.002  1.00  0.00    -0.231 A  
HETATM   27  C   UNL     1     -10.015   8.028  72.038  1.00  0.00    -0.275 A  
HETATM   28  C   UNL     1     -10.845   7.828  73.141  1.00  0.00    -0.401 A  
HETATM   29  C   UNL     1     -11.016   6.553  73.636  1.00  0.00    -0.021 A  
BRANCH  25  30
HETATM   30  C   UNL     1      -9.014   4.448  71.245  1.00  0.00    -0.122 A  
HETATM   31  N   UNL     1      -8.693   2.603  70.163  1.00  0.00    -0.062 NA 
HETATM   32  H   UNL     1     -10.567   3.644  70.093  1.00  0.00     0.000 HD 
HETATM   33  N   UNL     1      -7.548   2.831  70.786  1.00  0.00    -0.036 NA 
HETATM   34  N   UNL     1      -9.610   3.588  70.441  1.00  0.00    -0.186 NA 
HETATM   35  N   UNL     1      -7.744   3.972  71.457  1.00  0.00    -0.063 NA 
ENDBRANCH  25  30
ENDBRANCH  21  24
ENDBRANCH  17  18
ENDBRANCH   9  17
ENDBRANCH   3   4
ENDBRANCH   2   3
TORSDOF 6
ENDMDL
MODEL      238
REMARK 921   NORMALIZED FREE ENERGY PREDICTED BY IDOCK:   -4.20 KCAL/MOL
REMARK 922        TOTAL FREE ENERGY PREDICTED BY IDOCK:   -6.83 KCAL/MOL
REMARK 923 INTER-LIGAND FREE ENERGY PREDICTED BY IDOCK:   -5.20 KCAL/MOL
REMARK 924 INTRA-LIGAND FREE ENERGY PREDICTED BY IDOCK:   -1.63 KCAL/MOL
REMARK 927      BINDING AFFINITY PREDICTED BY RF-SCORE:    0.00 PKD
ROOT
HETATM    1  C   UNL     1     -11.325   9.863  70.964  1.00  0.00    -0.460 C  
HETATM    2  C   UNL     1     -10.600   8.640  70.414  1.00  0.00    -0.244 C  
ENDROOT
BRANCH   2   3
HETATM    3  C   UNL     1      -9.113   8.876  70.119  1.00  0.00    -0.189 C  
BRANCH   3   4
HETATM    4  C   UNL     1      -8.881  10.034  69.198  1.00  0.00    -0.168 A  
HETATM    5  N   UNL     1      -7.994  10.962  69.506  1.00  0.00    -0.018 NA 
HETATM    6  C   UNL     1      -8.096  11.957  68.576  1.00  0.00    -0.130 A  
HETATM    7  C   UNL     1      -7.245  13.204  68.699  1.00  0.00    -0.106 C  
HETATM    8  C   UNL     1      -9.101  11.647  67.663  1.00  0.00    -0.174 A  
HETATM    9  N   UNL     1      -9.499  10.339  67.997  1.00  0.00    -0.145 NA 
HETATM   10  O   UNL     1      -8.134  14.335  68.814  1.00  0.00    -0.141 OA 
HETATM   11  C   UNL     1      -6.375  13.433  67.457  1.00  0.00    -0.112 C  
HETATM   12  C   UNL     1      -6.328  13.194  69.933  1.00  0.00    -0.038 C  
HETATM   13  C   UNL     1      -9.646  12.416  66.569  1.00  0.00    -0.240 C  
HETATM   14  O   UNL     1      -9.610  13.754  66.760  1.00  0.00    -0.261 OA 
HETATM   15  O   UNL     1     -10.162  11.941  65.561  1.00  0.00    -0.237 OA 
HETATM   16  H   UNL     1      -7.600  15.118  68.892  1.00  0.00     0.000 HD 
BRANCH   9  17
HETATM   17  C   UNL     1     -10.447   9.587  67.137  1.00  0.00    -0.253 C  
BRANCH  17  18
HETATM   18  C   UNL     1     -10.058   8.205  66.686  1.00  0.00    -0.344 A  
HETATM   19  C   UNL     1     -10.851   7.101  67.009  1.00  0.00    -0.382 A  
HETATM   20  C   UNL     1     -10.351   5.803  66.839  1.00  0.00    -0.306 A  
HETATM   21  C   UNL     1      -9.030   5.564  66.397  1.00  0.00    -0.131 A  
HETATM   22  C   UNL     1      -8.347   6.677  65.879  1.00  0.00    -0.137 A  
HETATM   23  C   UNL     1      -8.862   7.978  65.998  1.00  0.00    -0.196 A  
BRANCH  21  24
HETATM   24  C   UNL     1      -8.355   4.254  66.706  1.00  0.00    -0.101 A  
HETATM   25  C   UNL     1      -8.258   3.116  65.861  1.00  0.00    -0.094 A  
HETATM   26  C   UNL     1      -7.429   2.029  66.254  1.00  0.00    -0.062 A  
HETATM   27  C   UNL     1      -7.624   4.195  67.928  1.00  0.00    -0.068 A  
HETATM   28  C   UNL     1      -6.843   3.104  68.310  1.00  0.00    -0.049 A  
HETATM   29  C   UNL     1      -6.731   2.022  67.461  1.00  0.00    -0.039 A  
BRANCH  25  30
HETATM   30  C   UNL     1      -8.993   2.961  64.603  1.00  0.00    -0.121 A  
HETATM   31  N   UNL     1     -10.482   2.660  63.063  1.00  0.00    -0.152 NA 
HETATM   32  H   UNL     1     -11.003   2.732  65.142  1.00  0.00     0.000 HD 
HETATM   33  N   UNL     1      -9.335   2.757  62.409  1.00  0.00    -0.083 NA 
HETATM   34  N   UNL     1     -10.286   2.778  64.418  1.00  0.00     0.062 NA 
HETATM   35  N   UNL     1      -8.412   2.942  63.359  1.00  0.00    -0.086 NA 
ENDBRANCH  25  30
ENDBRANCH  21  24
ENDBRANCH  17  18
ENDBRANCH   9  17
ENDBRANCH   3   4
ENDBRANCH   2   3
TORSDOF 6
ENDMDL
MODEL      239
REMARK 921   NORMALIZED FREE ENERGY PREDICTED BY IDOCK:   -4.13 KCAL/MOL
REMARK 922        TOTAL FREE ENERGY PREDICTED BY IDOCK:   -6.73 KCAL/MOL
REMARK 923 INTER-LIGAND FREE ENERGY PREDICTED BY IDOCK:   -5.56 KCAL/MOL
REMARK 924 INTRA-LIGAND FREE ENERGY PREDICTED BY IDOCK:   -1.17 KCAL/MOL
REMARK 927      BINDING AFFINITY PREDICTED BY RF-SCORE:    0.00 PKD
ROOT
HETATM    1  C   UNL     1     -10.491   4.515  65.580  1.00  0.00    -0.261 C  
HETATM    2  C   UNL     1      -9.046   4.881  65.264  1.00  0.00    -0.154 C  
ENDROOT
BRANCH   2   3
HETATM    3  C   UNL     1      -8.017   4.230  66.198  1.00  0.00    -0.098 C  
BRANCH   3   4
HETATM    4  C   UNL     1      -7.678   5.089  67.377  1.00  0.00    -0.092 A  
HETATM    5  N   UNL     1      -7.752   4.599  68.601  1.00  0.00    -0.072 NA 
HETATM    6  C   UNL     1      -7.534   5.629  69.472  1.00  0.00    -0.071 A  
HETATM    7  C   UNL     1      -7.621   5.394  70.966  1.00  0.00    -0.090 C  
HETATM    8  C   UNL     1      -7.336   6.811  68.764  1.00  0.00    -0.094 A  
HETATM    9  N   UNL     1      -7.292   6.419  67.412  1.00  0.00    -0.085 NA 
HETATM   10  O   UNL     1      -8.660   6.250  71.488  1.00  0.00    -0.130 OA 
HETATM   11  C   UNL     1      -6.319   5.766  71.685  1.00  0.00    -0.048 C  
HETATM   12  C   UNL     1      -7.975   3.942  71.332  1.00  0.00    -0.068 C  
HETATM   13  C   UNL     1      -7.167   8.168  69.229  1.00  0.00    -0.072 C  
HETATM   14  O   UNL     1      -7.808   8.440  70.388  1.00  0.00    -0.083 OA 
HETATM   15  O   UNL     1      -6.554   9.049  68.630  1.00  0.00    -0.053 OA 
HETATM   16  H   UNL     1      -8.714   6.102  72.424  1.00  0.00     0.000 HD 
BRANCH   9  17
HETATM   17  C   UNL     1      -6.926   7.386  66.348  1.00  0.00    -0.069 C  
BRANCH  17  18
HETATM   18  C   UNL     1      -7.951   8.403  65.925  1.00  0.00    -0.099 A  
HETATM   19  C   UNL     1      -7.577   9.520  65.174  1.00  0.00    -0.112 A  
HETATM   20  C   UNL     1      -8.463  10.596  65.028  1.00  0.00    -0.135 A  
HETATM   21  C   UNL     1      -9.723  10.618  65.668  1.00  0.00    -0.283 A  
HETATM   22  C   UNL     1     -10.149   9.401  66.225  1.00  0.00    -0.328 A  
HETATM   23  C   UNL     1      -9.285   8.299  66.332  1.00  0.00    -0.247 A  
BRANCH  21  24
HETATM   24  C   UNL     1     -10.414  11.930  65.929  1.00  0.00    -0.296 A  
HETATM   25  C   UNL     1      -9.889  13.058  66.616  1.00  0.00    -0.252 A  
HETATM   26  C   UNL     1     -10.623  14.276  66.613  1.00  0.00    -0.278 A  
HETATM   27  C   UNL     1     -11.684  12.108  65.307  1.00  0.00    -0.364 A  
HETATM   28  C   UNL     1     -12.403  13.303  65.344  1.00  0.00    -0.528 A  
HETATM   29  C   UNL     1     -11.862  14.398  65.985  1.00  0.00    -0.379 A  
BRANCH  25  30
HETATM   30  C   UNL     1      -8.637  13.047  67.377  1.00  0.00    -0.199 A  
HETATM   31  N   UNL     1      -7.002  12.619  68.727  1.00  0.00    -0.095 NA 
HETATM   32  H   UNL     1      -8.721  11.343  68.590  1.00  0.00     0.000 HD 
HETATM   33  N   UNL     1      -6.654  13.745  68.123  1.00  0.00    -0.109 NA 
HETATM   34  N   UNL     1      -8.225  12.179  68.281  1.00  0.00    -0.164 NA 
HETATM   35  N   UNL     1      -7.664  14.013  67.288  1.00  0.00    -0.152 NA 
ENDBRANCH  25  30
ENDBRANCH  21  24
ENDBRANCH  17  18
ENDBRANCH   9  17
ENDBRANCH   3   4
ENDBRANCH   2   3
TORSDOF 6
ENDMDL
MODEL      240
REMARK 921   NORMALIZED FREE ENERGY PREDICTED BY IDOCK:   -4.07 KCAL/MOL
REMARK 922        TOTAL FREE ENERGY PREDICTED BY IDOCK:   -6.65 KCAL/MOL
REMARK 923 INTER-LIGAND FREE ENERGY PREDICTED BY IDOCK:   -5.06 KCAL/MOL
REMARK 924 INTRA-LIGAND FREE ENERGY PREDICTED BY IDOCK:   -1.60 KCAL/MOL
REMARK 927      BINDING AFFINITY PREDICTED BY RF-SCORE:    0.00 PKD
ROOT
HETATM    1  C   UNL     1     -11.325   9.863  70.964  1.00  0.00    -0.460 C  
HETATM    2  C   UNL     1     -10.600   8.640  70.414  1.00  0.00    -0.244 C  
ENDROOT
BRANCH   2   3
HETATM    3  C   UNL     1      -9.113   8.876  70.119  1.00  0.00    -0.189 C  
BRANCH   3   4
HETATM    4  C   UNL     1      -8.881  10.034  69.198  1.00  0.00    -0.168 A  
HETATM    5  N   UNL     1      -7.994  10.962  69.506  1.00  0.00    -0.018 NA 
HETATM    6  C   UNL     1      -8.096  11.957  68.576  1.00  0.00    -0.130 A  
HETATM    7  C   UNL     1      -7.245  13.204  68.699  1.00  0.00    -0.106 C  
HETATM    8  C   UNL     1      -9.101  11.647  67.663  1.00  0.00    -0.174 A  
HETATM    9  N   UNL     1      -9.499  10.339  67.997  1.00  0.00    -0.145 NA 
HETATM   10  O   UNL     1      -8.134  14.335  68.814  1.00  0.00    -0.141 OA 
HETATM   11  C   UNL     1      -6.375  13.433  67.457  1.00  0.00    -0.112 C  
HETATM   12  C   UNL     1      -6.328  13.194  69.933  1.00  0.00    -0.038 C  
HETATM   13  C   UNL     1      -9.646  12.416  66.569  1.00  0.00    -0.240 C  
HETATM   14  O   UNL     1      -9.610  13.754  66.760  1.00  0.00    -0.261 OA 
HETATM   15  O   UNL     1     -10.162  11.941  65.561  1.00  0.00    -0.237 OA 
HETATM   16  H   UNL     1      -7.600  15.118  68.892  1.00  0.00     0.000 HD 
BRANCH   9  17
HETATM   17  C   UNL     1     -10.447   9.587  67.137  1.00  0.00    -0.253 C  
BRANCH  17  18
HETATM   18  C   UNL     1     -10.058   8.205  66.686  1.00  0.00    -0.344 A  
HETATM   19  C   UNL     1     -10.851   7.101  67.009  1.00  0.00    -0.382 A  
HETATM   20  C   UNL     1     -10.351   5.803  66.839  1.00  0.00    -0.306 A  
HETATM   21  C   UNL     1      -9.030   5.564  66.397  1.00  0.00    -0.131 A  
HETATM   22  C   UNL     1      -8.347   6.677  65.879  1.00  0.00    -0.137 A  
HETATM   23  C   UNL     1      -8.862   7.978  65.998  1.00  0.00    -0.196 A  
BRANCH  21  24
HETATM   24  C   UNL     1      -8.355   4.254  66.706  1.00  0.00    -0.101 A  
HETATM   25  C   UNL     1      -7.285   4.031  67.614  1.00  0.00    -0.067 A  
HETATM   26  C   UNL     1      -6.892   2.696  67.909  1.00  0.00    -0.048 A  
HETATM   27  C   UNL     1      -8.939   3.092  66.123  1.00  0.00    -0.149 A  
HETATM   28  C   UNL     1      -8.516   1.792  66.401  1.00  0.00    -0.102 A  
HETATM   29  C   UNL     1      -7.500   1.592  67.312  1.00  0.00    -0.058 A  
BRANCH  25  30
HETATM   30  C   UNL     1      -6.514   5.099  68.255  1.00  0.00    -0.040 A  
HETATM   31  N   UNL     1      -5.173   6.729  68.728  1.00  0.00    -0.015 NA 
HETATM   32  H   UNL     1      -5.397   5.992  66.726  1.00  0.00     0.000 HD 
HETATM   33  N   UNL     1      -5.710   6.387  69.888  1.00  0.00    -0.014 NA 
HETATM   34  N   UNL     1      -5.654   5.939  67.711  1.00  0.00    -0.008 NA 
HETATM   35  N   UNL     1      -6.539   5.378  69.599  1.00  0.00    -0.045 NA 
ENDBRANCH  25  30
ENDBRANCH  21  24
ENDBRANCH  17  18
ENDBRANCH   9  17
ENDBRANCH   3   4
ENDBRANCH   2   3
TORSDOF 6
ENDMDL
MODEL      241
REMARK 921   NORMALIZED FREE ENERGY PREDICTED BY IDOCK:   -4.07 KCAL/MOL
REMARK 922        TOTAL FREE ENERGY PREDICTED BY IDOCK:   -6.65 KCAL/MOL
REMARK 923 INTER-LIGAND FREE ENERGY PREDICTED BY IDOCK:   -6.06 KCAL/MOL
REMARK 924 INTRA-LIGAND FREE ENERGY PREDICTED BY IDOCK:   -0.59 KCAL/MOL
REMARK 927      BINDING AFFINITY PREDICTED BY RF-SCORE:    0.00 PKD
ROOT
HETATM    1  C   UNL     1     -12.950  15.382  72.191  1.00  0.00    -0.480 C  
HETATM    2  C   UNL     1     -12.984  15.121  70.690  1.00  0.00    -0.420 C  
ENDROOT
BRANCH   2   3
HETATM    3  C   UNL     1     -11.770  14.344  70.164  1.00  0.00    -0.361 C  
BRANCH   3   4
HETATM    4  C   UNL     1     -11.503  14.598  68.712  1.00  0.00    -0.296 A  
HETATM    5  N   UNL     1     -10.937  15.727  68.328  1.00  0.00    -0.310 NA 
HETATM    6  C   UNL     1     -10.949  15.751  66.961  1.00  0.00    -0.221 A  
HETATM    7  C   UNL     1     -10.424  16.960  66.217  1.00  0.00    -0.262 C  
HETATM    8  C   UNL     1     -11.565  14.600  66.476  1.00  0.00    -0.344 A  
HETATM    9  N   UNL     1     -11.789  13.803  67.614  1.00  0.00    -0.365 NA 
HETATM   10  O   UNL     1     -11.506  17.494  65.424  1.00  0.00     0.446 OA 
HETATM   11  C   UNL     1      -9.289  16.596  65.252  1.00  0.00     0.982 C  
HETATM   12  C   UNL     1      -9.924  18.077  67.149  1.00  0.00    -0.326 C  
HETATM   13  C   UNL     1     -11.902  14.213  65.126  1.00  0.00    -0.372 C  
HETATM   14  O   UNL     1     -12.177  15.251  64.304  1.00  0.00    -0.539 OA 
HETATM   15  O   UNL     1     -12.000  13.055  64.727  1.00  0.00    -0.354 OA 
HETATM   16  H   UNL     1     -11.176  18.253  64.956  1.00  0.00     0.000 HD 
BRANCH   9  17
HETATM   17  C   UNL     1     -12.283  12.409  67.486  1.00  0.00     0.258 C  
BRANCH  17  18
HETATM   18  C   UNL     1     -11.334  11.285  67.800  1.00  0.00    -0.354 A  
HETATM   19  C   UNL     1     -11.310  10.132  67.010  1.00  0.00     0.379 A  
HETATM   20  C   UNL     1     -10.643   8.985  67.461  1.00  0.00    -0.306 A  
HETATM   21  C   UNL     1     -10.030   8.930  68.733  1.00  0.00    -0.195 A  
HETATM   22  C   UNL     1      -9.885  10.159  69.397  1.00  0.00    -0.247 A  
HETATM   23  C   UNL     1     -10.507  11.328  68.927  1.00  0.00    -0.232 A  
BRANCH  21  24
HETATM   24  C   UNL     1      -9.788   7.601  69.398  1.00  0.00    -0.171 A  
HETATM   25  C   UNL     1      -8.742   7.268  70.301  1.00  0.00    -0.147 A  
HETATM   26  C   UNL     1      -8.775   6.012  70.967  1.00  0.00    -0.132 A  
HETATM   27  C   UNL     1     -10.791   6.608  69.203  1.00  0.00    -0.329 A  
HETATM   28  C   UNL     1     -10.786   5.368  69.842  1.00  0.00    -0.292 A  
HETATM   29  C   UNL     1      -9.782   5.075  70.742  1.00  0.00    -0.263 A  
BRANCH  25  30
HETATM   30  C   UNL     1      -7.587   8.127  70.574  1.00  0.00    -0.079 A  
HETATM   31  N   UNL     1      -5.620   9.007  70.757  1.00  0.00    -0.032 NA 
HETATM   32  H   UNL     1      -5.936   7.144  69.743  1.00  0.00     0.000 HD 
HETATM   33  N   UNL     1      -6.425   9.851  71.383  1.00  0.00    -0.318 NA 
HETATM   34  N   UNL     1      -6.321   7.935  70.258  1.00  0.00    -0.036 NA 
HETATM   35  N   UNL     1      -7.643   9.308  71.272  1.00  0.00    -0.338 NA 
ENDBRANCH  25  30
ENDBRANCH  21  24
ENDBRANCH  17  18
ENDBRANCH   9  17
ENDBRANCH   3   4
ENDBRANCH   2   3
TORSDOF 6
ENDMDL
MODEL      242
REMARK 921   NORMALIZED FREE ENERGY PREDICTED BY IDOCK:   -3.97 KCAL/MOL
REMARK 922        TOTAL FREE ENERGY PREDICTED BY IDOCK:   -6.52 KCAL/MOL
REMARK 923 INTER-LIGAND FREE ENERGY PREDICTED BY IDOCK:   -4.76 KCAL/MOL
REMARK 924 INTRA-LIGAND FREE ENERGY PREDICTED BY IDOCK:   -1.76 KCAL/MOL
REMARK 927      BINDING AFFINITY PREDICTED BY RF-SCORE:    0.00 PKD
ROOT
HETATM    1  C   UNL     1     -10.781   5.280  67.053  1.00  0.00    -0.172 C  
HETATM    2  C   UNL     1      -9.367   4.731  67.206  1.00  0.00    -0.150 C  
ENDROOT
BRANCH   2   3
HETATM    3  C   UNL     1      -9.075   4.134  68.589  1.00  0.00    -0.185 C  
BRANCH   3   4
HETATM    4  C   UNL     1      -9.048   5.168  69.673  1.00  0.00    -0.115 A  
HETATM    5  N   UNL     1     -10.145   5.451  70.350  1.00  0.00    -0.224 NA 
HETATM    6  C   UNL     1      -9.868   6.516  71.160  1.00  0.00    -0.182 A  
HETATM    7  C   UNL     1     -10.957   7.122  72.020  1.00  0.00    -0.235 C  
HETATM    8  C   UNL     1      -8.551   6.925  70.966  1.00  0.00    -0.135 A  
HETATM    9  N   UNL     1      -7.996   5.956  70.108  1.00  0.00    -0.100 NA 
HETATM   10  O   UNL     1     -11.112   8.502  71.629  1.00  0.00    -0.253 OA 
HETATM   11  C   UNL     1     -10.590   7.109  73.509  1.00  0.00    -0.416 C  
HETATM   12  C   UNL     1     -12.319   6.426  71.855  1.00  0.00    -0.279 C  
HETATM   13  C   UNL     1      -7.827   8.050  71.509  1.00  0.00    -0.100 C  
HETATM   14  O   UNL     1      -8.598   9.128  71.776  1.00  0.00    -0.340 OA 
HETATM   15  O   UNL     1      -6.611   8.093  71.677  1.00  0.00    -0.049 OA 
HETATM   16  H   UNL     1     -11.796   8.882  72.168  1.00  0.00     0.000 HD 
BRANCH   9  17
HETATM   17  C   UNL     1      -6.544   5.953  69.798  1.00  0.00    -0.047 C  
BRANCH  17  18
HETATM   18  C   UNL     1      -6.092   6.557  68.496  1.00  0.00    -0.025 A  
HETATM   19  C   UNL     1      -5.735   7.906  68.423  1.00  0.00    -0.032 A  
HETATM   20  C   UNL     1      -5.592   8.529  67.176  1.00  0.00    -0.038 A  
HETATM   21  C   UNL     1      -5.854   7.845  65.967  1.00  0.00    -0.037 A  
HETATM   22  C   UNL     1      -5.993   6.452  66.068  1.00  0.00    -0.025 A  
HETATM   23  C   UNL     1      -6.087   5.810  67.314  1.00  0.00    -0.025 A  
BRANCH  21  24
HETATM   24  C   UNL     1      -6.197   8.619  64.722  1.00  0.00    -0.065 A  
HETATM   25  C   UNL     1      -7.370   9.384  64.480  1.00  0.00    -0.105 A  
HETATM   26  C   UNL     1      -7.443  10.192  63.312  1.00  0.00    -0.139 A  
HETATM   27  C   UNL     1      -5.178   8.700  63.729  1.00  0.00    -0.057 A  
HETATM   28  C   UNL     1      -5.284   9.474  62.573  1.00  0.00    -0.083 A  
HETATM   29  C   UNL     1      -6.415  10.238  62.372  1.00  0.00    -0.136 A  
BRANCH  25  30
HETATM   30  C   UNL     1      -8.552   9.372  65.346  1.00  0.00    -0.156 A  
HETATM   31  N   UNL     1     -10.171   8.856  66.684  1.00  0.00    -0.281 NA 
HETATM   32  H   UNL     1      -8.634   7.450  66.172  1.00  0.00     0.000 HD 
HETATM   33  N   UNL     1     -10.410  10.110  66.336  1.00  0.00    -0.215 NA 
HETATM   34  N   UNL     1      -9.032   8.384  66.077  1.00  0.00    -0.176 NA 
HETATM   35  N   UNL     1      -9.410  10.432  65.507  1.00  0.00    -0.183 NA 
ENDBRANCH  25  30
ENDBRANCH  21  24
ENDBRANCH  17  18
ENDBRANCH   9  17
ENDBRANCH   3   4
ENDBRANCH   2   3
TORSDOF 6
ENDMDL
MODEL      243
REMARK 921   NORMALIZED FREE ENERGY PREDICTED BY IDOCK:   -3.95 KCAL/MOL
REMARK 922        TOTAL FREE ENERGY PREDICTED BY IDOCK:   -6.49 KCAL/MOL
REMARK 923 INTER-LIGAND FREE ENERGY PREDICTED BY IDOCK:   -5.42 KCAL/MOL
REMARK 924 INTRA-LIGAND FREE ENERGY PREDICTED BY IDOCK:   -1.07 KCAL/MOL
REMARK 927      BINDING AFFINITY PREDICTED BY RF-SCORE:    0.00 PKD
ROOT
HETATM    1  C   UNL     1      -9.071   2.258  71.369  1.00  0.00    -0.161 C  
HETATM    2  C   UNL     1      -8.985   3.189  70.165  1.00  0.00    -0.172 C  
ENDROOT
BRANCH   2   3
HETATM    3  C   UNL     1      -7.797   2.901  69.238  1.00  0.00    -0.052 C  
BRANCH   3   4
HETATM    4  C   UNL     1      -7.827   3.720  67.984  1.00  0.00    -0.073 A  
HETATM    5  N   UNL     1      -8.242   3.186  66.851  1.00  0.00    -0.087 NA 
HETATM    6  C   UNL     1      -8.027   4.101  65.859  1.00  0.00    -0.094 A  
HETATM    7  C   UNL     1      -8.343   3.752  64.420  1.00  0.00    -0.094 C  
HETATM    8  C   UNL     1      -7.437   5.243  66.393  1.00  0.00    -0.087 A  
HETATM    9  N   UNL     1      -7.445   5.036  67.786  1.00  0.00    -0.078 NA 
HETATM   10  O   UNL     1      -7.120   3.856  63.662  1.00  0.00    -0.047 OA 
HETATM   11  C   UNL     1      -9.349   4.728  63.797  1.00  0.00     0.093 C  
HETATM   12  C   UNL     1      -8.889   2.325  64.247  1.00  0.00    -0.102 C  
HETATM   13  C   UNL     1      -6.935   6.432  65.745  1.00  0.00    -0.061 C  
HETATM   14  O   UNL     1      -6.464   6.224  64.495  1.00  0.00    -0.033 OA 
HETATM   15  O   UNL     1      -6.868   7.544  66.263  1.00  0.00    -0.058 OA 
HETATM   16  H   UNL     1      -7.318   3.637  62.759  1.00  0.00     0.000 HD 
BRANCH   9  17
HETATM   17  C   UNL     1      -7.045   6.117  68.721  1.00  0.00    -0.082 C  
BRANCH  17  18
HETATM   18  C   UNL     1      -8.106   7.062  69.214  1.00  0.00    -0.120 A  
HETATM   19  C   UNL     1      -9.369   7.088  68.616  1.00  0.00    -0.136 A  
HETATM   20  C   UNL     1     -10.249   8.147  68.880  1.00  0.00    -0.221 A  
HETATM   21  C   UNL     1      -9.879   9.238  69.698  1.00  0.00    -0.196 A  
HETATM   22  C   UNL     1      -8.703   9.072  70.447  1.00  0.00    -0.224 A  
HETATM   23  C   UNL     1      -7.838   7.987  70.228  1.00  0.00    -0.088 A  
BRANCH  21  24
HETATM   24  C   UNL     1     -10.588  10.560  69.559  1.00  0.00    -0.278 A  
HETATM   25  C   UNL     1     -11.733  11.002  70.276  1.00  0.00    -0.445 A  
HETATM   26  C   UNL     1     -12.159  12.351  70.138  1.00  0.00    -0.366 A  
HETATM   27  C   UNL     1      -9.966  11.522  68.712  1.00  0.00    -0.169 A  
HETATM   28  C   UNL     1     -10.421  12.833  68.567  1.00  0.00    -0.252 A  
HETATM   29  C   UNL     1     -11.512  13.255  69.296  1.00  0.00    -0.345 A  
BRANCH  25  30
HETATM   30  C   UNL     1     -12.547  10.140  71.136  1.00  0.00    -0.386 A  
HETATM   31  N   UNL     1     -13.713   9.266  72.735  1.00  0.00    -0.327 NA 
HETATM   32  H   UNL     1     -12.974  11.276  72.842  1.00  0.00     0.000 HD 
HETATM   33  N   UNL     1     -13.614   8.307  71.827  1.00  0.00    -0.352 NA 
HETATM   34  N   UNL     1     -13.055  10.400  72.326  1.00  0.00    -0.319 NA 
HETATM   35  N   UNL     1     -12.892   8.845  70.838  1.00  0.00    -0.010 NA 
ENDBRANCH  25  30
ENDBRANCH  21  24
ENDBRANCH  17  18
ENDBRANCH   9  17
ENDBRANCH   3   4
ENDBRANCH   2   3
TORSDOF 6
ENDMDL
MODEL      244
REMARK 921   NORMALIZED FREE ENERGY PREDICTED BY IDOCK:   -3.94 KCAL/MOL
REMARK 922        TOTAL FREE ENERGY PREDICTED BY IDOCK:   -6.47 KCAL/MOL
REMARK 923 INTER-LIGAND FREE ENERGY PREDICTED BY IDOCK:   -5.38 KCAL/MOL
REMARK 924 INTRA-LIGAND FREE ENERGY PREDICTED BY IDOCK:   -1.09 KCAL/MOL
REMARK 927      BINDING AFFINITY PREDICTED BY RF-SCORE:    0.00 PKD
ROOT
HETATM    1  C   UNL     1      -7.738  11.095  66.952  1.00  0.00    -0.148 C  
HETATM    2  C   UNL     1      -8.446  10.767  65.643  1.00  0.00    -0.163 C  
ENDROOT
BRANCH   2   3
HETATM    3  C   UNL     1      -9.941  11.113  65.637  1.00  0.00    -0.297 C  
BRANCH   3   4
HETATM    4  C   UNL     1     -10.279  12.241  66.564  1.00  0.00    -0.214 A  
HETATM    5  N   UNL     1      -9.801  13.451  66.341  1.00  0.00    -0.291 NA 
HETATM    6  C   UNL     1     -10.144  14.234  67.407  1.00  0.00    -0.247 A  
HETATM    7  C   UNL     1      -9.678  15.673  67.476  1.00  0.00    -0.222 C  
HETATM    8  C   UNL     1     -10.847  13.476  68.341  1.00  0.00    -0.267 A  
HETATM    9  N   UNL     1     -11.047  12.230  67.716  1.00  0.00    -0.240 NA 
HETATM   10  O   UNL     1      -8.875  15.820  68.666  1.00  0.00    -0.179 OA 
HETATM   11  C   UNL     1     -10.850  16.654  67.592  1.00  0.00    -0.258 C  
HETATM   12  C   UNL     1      -8.819  16.091  66.271  1.00  0.00    -0.379 C  
HETATM   13  C   UNL     1     -11.332  13.820  69.657  1.00  0.00    -0.178 C  
HETATM   14  O   UNL     1     -10.581  14.744  70.299  1.00  0.00    -0.066 OA 
HETATM   15  O   UNL     1     -12.300  13.306  70.209  1.00  0.00    -0.315 OA 
HETATM   16  H   UNL     1      -8.583  16.723  68.710  1.00  0.00     0.000 HD 
BRANCH   9  17
HETATM   17  C   UNL     1     -11.911  11.195  68.337  1.00  0.00    -0.141 C  
BRANCH  17  18
HETATM   18  C   UNL     1     -11.268   9.922  68.815  1.00  0.00    -0.122 A  
HETATM   19  C   UNL     1     -10.707   9.844  70.093  1.00  0.00    -0.361 A  
HETATM   20  C   UNL     1      -9.870   8.772  70.428  1.00  0.00    -0.212 A  
HETATM   21  C   UNL     1      -9.520   7.776  69.488  1.00  0.00    -0.160 A  
HETATM   22  C   UNL     1     -10.267   7.766  68.299  1.00  0.00    -0.236 A  
HETATM   23  C   UNL     1     -11.148   8.811  67.975  1.00  0.00     0.244 A  
BRANCH  21  24
HETATM   24  C   UNL     1      -8.267   6.963  69.681  1.00  0.00    -0.131 A  
HETATM   25  C   UNL     1      -7.315   6.601  68.690  1.00  0.00    -0.087 A  
HETATM   26  C   UNL     1      -6.100   5.979  69.089  1.00  0.00    -0.029 A  
HETATM   27  C   UNL     1      -7.933   6.631  71.026  1.00  0.00    -0.107 A  
HETATM   28  C   UNL     1      -6.749   5.990  71.392  1.00  0.00    -0.055 A  
HETATM   29  C   UNL     1      -5.820   5.678  70.421  1.00  0.00    -0.024 A  
BRANCH  25  30
HETATM   30  C   UNL     1      -7.513   6.793  67.251  1.00  0.00    -0.096 A  
HETATM   31  N   UNL     1      -7.660   7.560  65.234  1.00  0.00    -0.091 NA 
HETATM   32  H   UNL     1      -6.917   8.759  66.850  1.00  0.00     0.000 HD 
HETATM   33  N   UNL     1      -8.115   6.319  65.156  1.00  0.00    -0.126 NA 
HETATM   34  N   UNL     1      -7.291   7.869  66.521  1.00  0.00    -0.086 NA 
HETATM   35  N   UNL     1      -8.026   5.842  66.403  1.00  0.00    -0.101 NA 
ENDBRANCH  25  30
ENDBRANCH  21  24
ENDBRANCH  17  18
ENDBRANCH   9  17
ENDBRANCH   3   4
ENDBRANCH   2   3
TORSDOF 6
ENDMDL
MODEL      245
REMARK 921   NORMALIZED FREE ENERGY PREDICTED BY IDOCK:   -3.92 KCAL/MOL
REMARK 922        TOTAL FREE ENERGY PREDICTED BY IDOCK:   -6.44 KCAL/MOL
REMARK 923 INTER-LIGAND FREE ENERGY PREDICTED BY IDOCK:   -5.19 KCAL/MOL
REMARK 924 INTRA-LIGAND FREE ENERGY PREDICTED BY IDOCK:   -1.26 KCAL/MOL
REMARK 927      BINDING AFFINITY PREDICTED BY RF-SCORE:    0.00 PKD
ROOT
HETATM    1  C   UNL     1      -8.213   4.199  69.939  1.00  0.00    -0.068 C  
HETATM    2  C   UNL     1      -8.085   5.153  68.757  1.00  0.00    -0.085 C  
ENDROOT
BRANCH   2   3
HETATM    3  C   UNL     1      -6.834   4.919  67.899  1.00  0.00    -0.060 C  
BRANCH   3   4
HETATM    4  C   UNL     1      -6.825   5.745  66.650  1.00  0.00    -0.059 A  
HETATM    5  N   UNL     1      -7.092   5.190  65.483  1.00  0.00    -0.066 NA 
HETATM    6  C   UNL     1      -6.870   6.130  64.517  1.00  0.00    -0.046 A  
HETATM    7  C   UNL     1      -7.028   5.771  63.054  1.00  0.00    -0.047 C  
HETATM    8  C   UNL     1      -6.428   7.313  65.104  1.00  0.00    -0.040 A  
HETATM    9  N   UNL     1      -6.540   7.091  66.490  1.00  0.00    -0.050 NA 
HETATM   10  O   UNL     1      -5.755   5.986  62.407  1.00  0.00    -0.021 OA 
HETATM   11  C   UNL     1      -8.054   6.664  62.348  1.00  0.00    -0.088 C  
HETATM   12  C   UNL     1      -7.432   4.304  62.830  1.00  0.00    -0.049 C  
HETATM   13  C   UNL     1      -5.975   8.547  64.506  1.00  0.00    -0.065 C  
HETATM   14  O   UNL     1      -5.380   8.393  63.302  1.00  0.00    -0.061 OA 
HETATM   15  O   UNL     1      -6.049   9.655  65.031  1.00  0.00    -0.075 OA 
HETATM   16  H   UNL     1      -5.854   5.761  61.490  1.00  0.00     0.000 HD 
BRANCH   9  17
HETATM   17  C   UNL     1      -6.318   8.192  67.460  1.00  0.00    -0.056 C  
BRANCH  17  18
HETATM   18  C   UNL     1      -7.486   9.065  67.829  1.00  0.00    -0.085 A  
HETATM   19  C   UNL     1      -8.760   8.803  67.316  1.00  0.00    -0.133 A  
HETATM   20  C   UNL     1      -9.773   9.765  67.427  1.00  0.00    -0.202 A  
HETATM   21  C   UNL     1      -9.537  11.035  67.998  1.00  0.00    -0.175 A  
HETATM   22  C   UNL     1      -8.324  11.179  68.691  1.00  0.00    -0.154 A  
HETATM   23  C   UNL     1      -7.320  10.199  68.629  1.00  0.00    -0.082 A  
BRANCH  21  24
HETATM   24  C   UNL     1     -10.432  12.196  67.654  1.00  0.00    -0.225 A  
HETATM   25  C   UNL     1     -11.511  12.708  68.425  1.00  0.00    -0.350 A  
HETATM   26  C   UNL     1     -12.134  13.922  68.025  1.00  0.00    -0.318 A  
HETATM   27  C   UNL     1     -10.078  12.943  66.494  1.00  0.00    -0.263 A  
HETATM   28  C   UNL     1     -10.724  14.115  66.102  1.00  0.00    -0.297 A  
HETATM   29  C   UNL     1     -11.746  14.617  66.880  1.00  0.00    -0.366 A  
BRANCH  25  30
HETATM   30  C   UNL     1     -12.066  12.042  69.606  1.00  0.00    -0.230 A  
HETATM   31  N   UNL     1     -12.808  11.522  71.570  1.00  0.00    -0.409 NA 
HETATM   32  H   UNL     1     -12.200  13.520  71.083  1.00  0.00     0.000 HD 
HETATM   33  N   UNL     1     -12.838  10.388  70.887  1.00  0.00    -0.377 NA 
HETATM   34  N   UNL     1     -12.329  12.550  70.795  1.00  0.00    -0.357 NA 
HETATM   35  N   UNL     1     -12.378  10.707  69.672  1.00  0.00    -0.226 NA 
ENDBRANCH  25  30
ENDBRANCH  21  24
ENDBRANCH  17  18
ENDBRANCH   9  17
ENDBRANCH   3   4
ENDBRANCH   2   3
TORSDOF 6
ENDMDL
MODEL      246
REMARK 921   NORMALIZED FREE ENERGY PREDICTED BY IDOCK:   -3.92 KCAL/MOL
REMARK 922        TOTAL FREE ENERGY PREDICTED BY IDOCK:   -6.44 KCAL/MOL
REMARK 923 INTER-LIGAND FREE ENERGY PREDICTED BY IDOCK:   -5.99 KCAL/MOL
REMARK 924 INTRA-LIGAND FREE ENERGY PREDICTED BY IDOCK:   -0.46 KCAL/MOL
REMARK 927      BINDING AFFINITY PREDICTED BY RF-SCORE:    0.00 PKD
ROOT
HETATM    1  C   UNL     1      -9.939  17.701  68.141  1.00  0.00    -0.330 C  
HETATM    2  C   UNL     1      -8.547  17.104  67.975  1.00  0.00    -0.227 C  
ENDROOT
BRANCH   2   3
HETATM    3  C   UNL     1      -8.342  16.358  66.649  1.00  0.00    -0.305 C  
BRANCH   3   4
HETATM    4  C   UNL     1      -9.223  15.154  66.519  1.00  0.00    -0.287 A  
HETATM    5  N   UNL     1     -10.109  15.082  65.543  1.00  0.00    -0.354 NA 
HETATM    6  C   UNL     1     -10.862  13.961  65.751  1.00  0.00    -0.289 A  
HETATM    7  C   UNL     1     -12.016  13.637  64.826  1.00  0.00    -0.396 C  
HETATM    8  C   UNL     1     -10.442  13.320  66.914  1.00  0.00    -0.261 A  
HETATM    9  N   UNL     1      -9.293  14.026  67.319  1.00  0.00    -0.221 NA 
HETATM   10  O   UNL     1     -13.222  13.604  65.619  1.00  0.00    -0.506 OA 
HETATM   11  C   UNL     1     -11.863  12.257  64.174  1.00  0.00    -0.502 C  
HETATM   12  C   UNL     1     -12.211  14.677  63.711  1.00  0.00     0.104 C  
HETATM   13  C   UNL     1     -10.979  12.168  67.599  1.00  0.00    -0.243 C  
HETATM   14  O   UNL     1     -12.315  12.013  67.458  1.00  0.00    -0.347 OA 
HETATM   15  O   UNL     1     -10.331  11.402  68.307  1.00  0.00    -0.180 OA 
HETATM   16  H   UNL     1     -13.946  13.401  65.039  1.00  0.00     0.000 HD 
BRANCH   9  17
HETATM   17  C   UNL     1      -8.452  13.538  68.440  1.00  0.00    -0.143 C  
BRANCH  17  18
HETATM   18  C   UNL     1      -7.629  12.297  68.227  1.00  0.00    -0.133 A  
HETATM   19  C   UNL     1      -7.011  12.056  66.997  1.00  0.00    -0.095 A  
HETATM   20  C   UNL     1      -6.491  10.786  66.709  1.00  0.00    -0.096 A  
HETATM   21  C   UNL     1      -6.621   9.705  67.609  1.00  0.00    -0.066 A  
HETATM   22  C   UNL     1      -7.046  10.035  68.907  1.00  0.00    -0.068 A  
HETATM   23  C   UNL     1      -7.521  11.319  69.221  1.00  0.00    -0.040 A  
BRANCH  21  24
HETATM   24  C   UNL     1      -6.540   8.289  67.105  1.00  0.00    -0.058 A  
HETATM   25  C   UNL     1      -6.939   7.805  65.829  1.00  0.00    -0.057 A  
HETATM   26  C   UNL     1      -6.623   6.467  65.465  1.00  0.00    -0.043 A  
HETATM   27  C   UNL     1      -5.871   7.356  67.950  1.00  0.00    -0.031 A  
HETATM   28  C   UNL     1      -5.601   6.037  67.585  1.00  0.00    -0.009 A  
HETATM   29  C   UNL     1      -5.963   5.595  66.330  1.00  0.00    -0.022 A  
BRANCH  25  30
HETATM   30  C   UNL     1      -7.701   8.590  64.855  1.00  0.00    -0.105 A  
HETATM   31  N   UNL     1      -9.192   9.730  63.780  1.00  0.00    -0.242 NA 
HETATM   32  H   UNL     1      -9.506   9.073  65.798  1.00  0.00     0.000 HD 
HETATM   33  N   UNL     1      -8.195   9.586  62.921  1.00  0.00    -0.147 NA 
HETATM   34  N   UNL     1      -8.905   9.115  64.975  1.00  0.00    -0.197 NA 
HETATM   35  N   UNL     1      -7.271   8.880  63.583  1.00  0.00    -0.092 NA 
ENDBRANCH  25  30
ENDBRANCH  21  24
ENDBRANCH  17  18
ENDBRANCH   9  17
ENDBRANCH   3   4
ENDBRANCH   2   3
TORSDOF 6
ENDMDL
MODEL      247
REMARK 921   NORMALIZED FREE ENERGY PREDICTED BY IDOCK:   -3.82 KCAL/MOL
REMARK 922        TOTAL FREE ENERGY PREDICTED BY IDOCK:   -6.31 KCAL/MOL
REMARK 923 INTER-LIGAND FREE ENERGY PREDICTED BY IDOCK:   -4.96 KCAL/MOL
REMARK 924 INTRA-LIGAND FREE ENERGY PREDICTED BY IDOCK:   -1.35 KCAL/MOL
REMARK 927      BINDING AFFINITY PREDICTED BY RF-SCORE:    0.00 PKD
ROOT
HETATM    1  C   UNL     1     -12.808  14.331  65.612  1.00  0.00    -0.321 C  
HETATM    2  C   UNL     1     -11.975  13.129  65.182  1.00  0.00    -0.431 C  
ENDROOT
BRANCH   2   3
HETATM    3  C   UNL     1     -10.460  13.367  65.240  1.00  0.00    -0.334 C  
BRANCH   3   4
HETATM    4  C   UNL     1     -10.067  14.346  66.304  1.00  0.00    -0.297 A  
HETATM    5  N   UNL     1      -9.507  15.495  65.975  1.00  0.00    -0.335 NA 
HETATM    6  C   UNL     1      -9.126  16.115  67.132  1.00  0.00    -0.203 A  
HETATM    7  C   UNL     1      -8.387  17.436  67.080  1.00  0.00    -0.214 C  
HETATM    8  C   UNL     1      -9.442  15.310  68.224  1.00  0.00    -0.205 A  
HETATM    9  N   UNL     1     -10.176  14.238  67.680  1.00  0.00    -0.236 NA 
HETATM   10  O   UNL     1      -7.105  17.251  67.716  1.00  0.00    -0.157 OA 
HETATM   11  C   UNL     1      -9.123  18.538  67.852  1.00  0.00    -0.306 C  
HETATM   12  C   UNL     1      -8.139  17.937  65.648  1.00  0.00     0.393 C  
HETATM   13  C   UNL     1      -9.157  15.478  69.629  1.00  0.00    -0.187 C  
HETATM   14  O   UNL     1      -8.014  16.154  69.885  1.00  0.00     0.222 OA 
HETATM   15  O   UNL     1      -9.831  15.017  70.547  1.00  0.00     0.233 OA 
HETATM   16  H   UNL     1      -6.642  18.080  67.683  1.00  0.00     0.000 HD 
BRANCH   9  17
HETATM   17  C   UNL     1     -10.840  13.244  68.560  1.00  0.00    -0.265 C  
BRANCH  17  18
HETATM   18  C   UNL     1     -10.190  11.898  68.730  1.00  0.00    -0.158 A  
HETATM   19  C   UNL     1     -10.805  10.903  69.495  1.00  0.00    -0.286 A  
HETATM   20  C   UNL     1     -10.080   9.768  69.886  1.00  0.00    -0.288 A  
HETATM   21  C   UNL     1      -8.710   9.615  69.576  1.00  0.00    -0.191 A  
HETATM   22  C   UNL     1      -8.191  10.515  68.631  1.00  0.00    -0.130 A  
HETATM   23  C   UNL     1      -8.927  11.629  68.193  1.00  0.00    -0.182 A  
BRANCH  21  24
HETATM   24  C   UNL     1      -7.846   8.701  70.403  1.00  0.00    -0.091 A  
HETATM   25  C   UNL     1      -7.715   7.292  70.276  1.00  0.00    -0.094 A  
HETATM   26  C   UNL     1      -6.717   6.617  71.031  1.00  0.00    -0.054 A  
HETATM   27  C   UNL     1      -6.967   9.333  71.330  1.00  0.00    -0.026 A  
HETATM   28  C   UNL     1      -6.016   8.647  72.085  1.00  0.00    -0.070 A  
HETATM   29  C   UNL     1      -5.879   7.284  71.923  1.00  0.00    -0.037 A  
BRANCH  25  30
HETATM   30  C   UNL     1      -8.577   6.459  69.433  1.00  0.00    -0.130 A  
HETATM   31  N   UNL     1      -9.453   5.266  67.856  1.00  0.00    -0.120 NA 
HETATM   32  H   UNL     1      -7.449   6.020  67.724  1.00  0.00     0.000 HD 
HETATM   33  N   UNL     1     -10.405   5.368  68.769  1.00  0.00    -0.188 NA 
HETATM   34  N   UNL     1      -8.320   5.939  68.248  1.00  0.00    -0.111 NA 
HETATM   35  N   UNL     1      -9.866   6.107  69.746  1.00  0.00    -0.159 NA 
ENDBRANCH  25  30
ENDBRANCH  21  24
ENDBRANCH  17  18
ENDBRANCH   9  17
ENDBRANCH   3   4
ENDBRANCH   2   3
TORSDOF 6
ENDMDL
MODEL      248
REMARK 921   NORMALIZED FREE ENERGY PREDICTED BY IDOCK:   -3.81 KCAL/MOL
REMARK 922        TOTAL FREE ENERGY PREDICTED BY IDOCK:   -6.31 KCAL/MOL
REMARK 923 INTER-LIGAND FREE ENERGY PREDICTED BY IDOCK:   -5.90 KCAL/MOL
REMARK 924 INTRA-LIGAND FREE ENERGY PREDICTED BY IDOCK:   -0.40 KCAL/MOL
REMARK 927      BINDING AFFINITY PREDICTED BY RF-SCORE:    0.00 PKD
ROOT
HETATM    1  C   UNL     1      -8.563  15.824  69.149  1.00  0.00    -0.256 C  
HETATM    2  C   UNL     1      -7.158  15.416  68.722  1.00  0.00    -0.125 C  
ENDROOT
BRANCH   2   3
HETATM    3  C   UNL     1      -7.125  14.415  67.559  1.00  0.00    -0.197 C  
BRANCH   3   4
HETATM    4  C   UNL     1      -8.428  13.701  67.371  1.00  0.00    -0.201 A  
HETATM    5  N   UNL     1      -9.357  14.209  66.583  1.00  0.00    -0.283 NA 
HETATM    6  C   UNL     1     -10.477  13.436  66.713  1.00  0.00    -0.275 A  
HETATM    7  C   UNL     1     -11.747  13.808  65.977  1.00  0.00    -0.363 C  
HETATM    8  C   UNL     1     -10.242  12.418  67.634  1.00  0.00    -0.207 A  
HETATM    9  N   UNL     1      -8.872  12.520  67.942  1.00  0.00    -0.176 NA 
HETATM   10  O   UNL     1     -12.778  14.032  66.962  1.00  0.00    -0.448 OA 
HETATM   11  C   UNL     1     -12.232  12.680  65.058  1.00  0.00    -0.535 C  
HETATM   12  C   UNL     1     -11.609  15.087  65.135  1.00  0.00    -0.294 C  
HETATM   13  C   UNL     1     -11.132  11.419  68.177  1.00  0.00    -0.248 C  
HETATM   14  O   UNL     1     -12.422  11.815  68.262  1.00  0.00    -0.201 OA 
HETATM   15  O   UNL     1     -10.786  10.316  68.592  1.00  0.00    -0.210 OA 
HETATM   16  H   UNL     1     -13.575  14.265  66.500  1.00  0.00     0.000 HD 
BRANCH   9  17
HETATM   17  C   UNL     1      -8.198  11.491  68.772  1.00  0.00    -0.082 C  
BRANCH  17  18
HETATM   18  C   UNL     1      -7.874  10.165  68.141  1.00  0.00    -0.096 A  
HETATM   19  C   UNL     1      -7.811  10.034  66.751  1.00  0.00    -0.110 A  
HETATM   20  C   UNL     1      -7.793   8.761  66.164  1.00  0.00    -0.102 A  
HETATM   21  C   UNL     1      -7.895   7.583  66.937  1.00  0.00    -0.111 A  
HETATM   22  C   UNL     1      -7.736   7.743  68.323  1.00  0.00    -0.119 A  
HETATM   23  C   UNL     1      -7.701   9.015  68.918  1.00  0.00    -0.094 A  
BRANCH  21  24
HETATM   24  C   UNL     1      -8.385   6.307  66.306  1.00  0.00    -0.122 A  
HETATM   25  C   UNL     1      -7.998   5.763  65.051  1.00  0.00    -0.121 A  
HETATM   26  C   UNL     1      -8.434   4.457  64.696  1.00  0.00    -0.125 A  
HETATM   27  C   UNL     1      -9.231   5.489  67.111  1.00  0.00    -0.111 A  
HETATM   28  C   UNL     1      -9.674   4.223  66.729  1.00  0.00    -0.241 A  
HETATM   29  C   UNL     1      -9.259   3.697  65.524  1.00  0.00    -0.155 A  
BRANCH  25  30
HETATM   30  C   UNL     1      -7.196   6.481  64.057  1.00  0.00    -0.067 A  
HETATM   31  N   UNL     1      -6.475   7.672  62.401  1.00  0.00    -0.071 NA 
HETATM   32  H   UNL     1      -8.566   7.508  62.852  1.00  0.00     0.000 HD 
HETATM   33  N   UNL     1      -5.384   7.155  62.945  1.00  0.00    -0.033 NA 
HETATM   34  N   UNL     1      -7.601   7.260  63.073  1.00  0.00    -0.106 NA 
HETATM   35  N   UNL     1      -5.827   6.417  63.969  1.00  0.00    -0.022 NA 
ENDBRANCH  25  30
ENDBRANCH  21  24
ENDBRANCH  17  18
ENDBRANCH   9  17
ENDBRANCH   3   4
ENDBRANCH   2   3
TORSDOF 6
ENDMDL
MODEL      249
REMARK 921   NORMALIZED FREE ENERGY PREDICTED BY IDOCK:   -3.73 KCAL/MOL
REMARK 922        TOTAL FREE ENERGY PREDICTED BY IDOCK:   -6.19 KCAL/MOL
REMARK 923 INTER-LIGAND FREE ENERGY PREDICTED BY IDOCK:   -5.71 KCAL/MOL
REMARK 924 INTRA-LIGAND FREE ENERGY PREDICTED BY IDOCK:   -0.48 KCAL/MOL
REMARK 927      BINDING AFFINITY PREDICTED BY RF-SCORE:    0.00 PKD
ROOT
HETATM    1  C   UNL     1      -7.420   5.777  64.647  1.00  0.00    -0.077 C  
HETATM    2  C   UNL     1      -8.777   5.702  65.337  1.00  0.00    -0.139 C  
ENDROOT
BRANCH   2   3
HETATM    3  C   UNL     1      -8.889   4.573  66.370  1.00  0.00    -0.113 C  
BRANCH   3   4
HETATM    4  C   UNL     1      -8.126   4.858  67.627  1.00  0.00    -0.094 A  
HETATM    5  N   UNL     1      -7.783   3.872  68.435  1.00  0.00    -0.065 NA 
HETATM    6  C   UNL     1      -7.235   4.428  69.556  1.00  0.00    -0.051 A  
HETATM    7  C   UNL     1      -6.800   3.547  70.708  1.00  0.00    -0.033 C  
HETATM    8  C   UNL     1      -7.255   5.817  69.451  1.00  0.00    -0.066 A  
HETATM    9  N   UNL     1      -7.703   6.073  68.141  1.00  0.00    -0.100 NA 
HETATM   10  O   UNL     1      -7.556   3.938  71.873  1.00  0.00    -0.058 OA 
HETATM   11  C   UNL     1      -5.315   3.730  71.046  1.00  0.00    -0.004 C  
HETATM   12  C   UNL     1      -7.055   2.051  70.458  1.00  0.00    -0.033 C  
HETATM   13  C   UNL     1      -6.884   6.837  70.403  1.00  0.00    -0.062 C  
HETATM   14  O   UNL     1      -7.066   6.481  71.695  1.00  0.00    -0.077 OA 
HETATM   15  O   UNL     1      -6.489   7.963  70.114  1.00  0.00    -0.036 OA 
HETATM   16  H   UNL     1      -7.284   3.386  72.596  1.00  0.00     0.000 HD 
BRANCH   9  17
HETATM   17  C   UNL     1      -7.700   7.450  67.588  1.00  0.00    -0.112 C  
BRANCH  17  18
HETATM   18  C   UNL     1      -8.911   8.312  67.815  1.00  0.00    -0.139 A  
HETATM   19  C   UNL     1      -8.827   9.702  67.699  1.00  0.00    -0.127 A  
HETATM   20  C   UNL     1      -9.865  10.512  68.182  1.00  0.00    -0.169 A  
HETATM   21  C   UNL     1     -10.988   9.968  68.845  1.00  0.00    -0.244 A  
HETATM   22  C   UNL     1     -11.142   8.576  68.748  1.00  0.00     0.260 A  
HETATM   23  C   UNL     1     -10.130   7.758  68.219  1.00  0.00    -0.221 A  
BRANCH  21  24
HETATM   24  C   UNL     1     -11.798  10.824  69.782  1.00  0.00    -0.409 A  
HETATM   25  C   UNL     1     -12.484  10.404  70.954  1.00  0.00    -0.478 A  
HETATM   26  C   UNL     1     -13.052  11.385  71.814  1.00  0.00    -0.523 A  
HETATM   27  C   UNL     1     -11.767  12.228  69.540  1.00  0.00    -0.398 A  
HETATM   28  C   UNL     1     -12.360  13.170  70.379  1.00  0.00    -0.351 A  
HETATM   29  C   UNL     1     -12.991  12.749  71.531  1.00  0.00    -0.388 A  
BRANCH  25  30
HETATM   30  C   UNL     1     -12.685   9.003  71.332  1.00  0.00    -0.304 A  
HETATM   31  N   UNL     1     -12.471   6.947  71.967  1.00  0.00    -0.289 NA 
HETATM   32  H   UNL     1     -10.817   8.313  71.979  1.00  0.00     0.000 HD 
HETATM   33  N   UNL     1     -13.743   7.060  71.617  1.00  0.00    -0.313 NA 
HETATM   34  N   UNL     1     -11.804   8.135  71.791  1.00  0.00    -0.284 NA 
HETATM   35  N   UNL     1     -13.878   8.332  71.223  1.00  0.00    -0.216 NA 
ENDBRANCH  25  30
ENDBRANCH  21  24
ENDBRANCH  17  18
ENDBRANCH   9  17
ENDBRANCH   3   4
ENDBRANCH   2   3
TORSDOF 6
ENDMDL
MODEL      250
REMARK 921   NORMALIZED FREE ENERGY PREDICTED BY IDOCK:   -3.69 KCAL/MOL
REMARK 922        TOTAL FREE ENERGY PREDICTED BY IDOCK:   -6.14 KCAL/MOL
REMARK 923 INTER-LIGAND FREE ENERGY PREDICTED BY IDOCK:   -4.82 KCAL/MOL
REMARK 924 INTRA-LIGAND FREE ENERGY PREDICTED BY IDOCK:   -1.31 KCAL/MOL
REMARK 927      BINDING AFFINITY PREDICTED BY RF-SCORE:    0.00 PKD
ROOT
HETATM    1  C   UNL     1     -10.886  11.207  63.568  1.00  0.00    -0.275 C  
HETATM    2  C   UNL     1     -10.360  10.103  64.478  1.00  0.00     0.208 C  
ENDROOT
BRANCH   2   3
HETATM    3  C   UNL     1      -8.829  10.030  64.549  1.00  0.00    -0.231 C  
BRANCH   3   4
HETATM    4  C   UNL     1      -8.267  10.759  65.731  1.00  0.00    -0.146 A  
HETATM    5  N   UNL     1      -8.598  12.016  65.956  1.00  0.00     0.099 NA 
HETATM    6  C   UNL     1      -7.837  12.464  66.998  1.00  0.00    -0.085 A  
HETATM    7  C   UNL     1      -7.941  13.905  67.453  1.00  0.00    -0.170 C  
HETATM    8  C   UNL     1      -6.983  11.451  67.427  1.00  0.00    -0.106 A  
HETATM    9  N   UNL     1      -7.374  10.316  66.692  1.00  0.00    -0.105 NA 
HETATM   10  O   UNL     1      -6.638  14.510  67.306  1.00  0.00    -0.327 OA 
HETATM   11  C   UNL     1      -8.331  14.017  68.932  1.00  0.00     0.032 C  
HETATM   12  C   UNL     1      -8.942  14.731  66.628  1.00  0.00    -0.286 C  
HETATM   13  C   UNL     1      -5.934  11.464  68.420  1.00  0.00    -0.045 C  
HETATM   14  O   UNL     1      -5.319  12.660  68.560  1.00  0.00    -0.055 OA 
HETATM   15  O   UNL     1      -5.558  10.487  69.063  1.00  0.00    -0.041 OA 
HETATM   16  H   UNL     1      -6.703  15.414  67.591  1.00  0.00     0.000 HD 
BRANCH   9  17
HETATM   17  C   UNL     1      -6.802   8.979  66.992  1.00  0.00    -0.077 C  
BRANCH  17  18
HETATM   18  C   UNL     1      -7.569   8.065  67.908  1.00  0.00    -0.112 A  
HETATM   19  C   UNL     1      -8.904   8.330  68.225  1.00  0.00    -0.140 A  
HETATM   20  C   UNL     1      -9.523   7.653  69.285  1.00  0.00    -0.158 A  
HETATM   21  C   UNL     1      -8.818   6.735  70.096  1.00  0.00    -0.141 A  
HETATM   22  C   UNL     1      -7.560   6.335  69.618  1.00  0.00    -0.094 A  
HETATM   23  C   UNL     1      -6.951   6.972  68.524  1.00  0.00    -0.075 A  
BRANCH  21  24
HETATM   24  C   UNL     1      -9.309   6.425  71.485  1.00  0.00    -0.152 A  
HETATM   25  C   UNL     1      -8.905   7.046  72.699  1.00  0.00    -0.140 A  
HETATM   26  C   UNL     1      -9.606   6.744  73.899  1.00  0.00    -0.258 A  
HETATM   27  C   UNL     1     -10.388   5.500  71.581  1.00  0.00    -0.277 A  
HETATM   28  C   UNL     1     -11.041   5.194  72.775  1.00  0.00    -0.330 A  
HETATM   29  C   UNL     1     -10.660   5.832  73.937  1.00  0.00    -0.266 A  
BRANCH  25  30
HETATM   30  C   UNL     1      -7.771   7.966  72.814  1.00  0.00    -0.116 A  
HETATM   31  N   UNL     1      -6.241   9.464  72.507  1.00  0.00    -0.295 NA 
HETATM   32  H   UNL     1      -7.795   9.123  71.069  1.00  0.00     0.000 HD 
HETATM   33  N   UNL     1      -5.943   8.913  73.673  1.00  0.00    -0.223 NA 
HETATM   34  N   UNL     1      -7.362   8.886  71.961  1.00  0.00    -0.325 NA 
HETATM   35  N   UNL     1      -6.888   7.985  73.865  1.00  0.00    -0.111 NA 
ENDBRANCH  25  30
ENDBRANCH  21  24
ENDBRANCH  17  18
ENDBRANCH   9  17
ENDBRANCH   3   4
ENDBRANCH   2   3
TORSDOF 6
ENDMDL
MODEL      251
REMARK 921   NORMALIZED FREE ENERGY PREDICTED BY IDOCK:   -3.63 KCAL/MOL
REMARK 922        TOTAL FREE ENERGY PREDICTED BY IDOCK:   -6.06 KCAL/MOL
REMARK 923 INTER-LIGAND FREE ENERGY PREDICTED BY IDOCK:   -5.55 KCAL/MOL
REMARK 924 INTRA-LIGAND FREE ENERGY PREDICTED BY IDOCK:   -0.51 KCAL/MOL
REMARK 927      BINDING AFFINITY PREDICTED BY RF-SCORE:    0.00 PKD
ROOT
HETATM    1  C   UNL     1     -12.159  12.599  69.636  1.00  0.00    -0.277 C  
HETATM    2  C   UNL     1     -11.090  11.672  69.071  1.00  0.00    -0.297 C  
ENDROOT
BRANCH   2   3
HETATM    3  C   UNL     1      -9.952  12.401  68.343  1.00  0.00    -0.210 C  
BRANCH   3   4
HETATM    4  C   UNL     1      -9.430  11.635  67.167  1.00  0.00    -0.176 A  
HETATM    5  N   UNL     1      -9.781  11.978  65.941  1.00  0.00    -0.238 NA 
HETATM    6  C   UNL     1      -9.284  11.033  65.089  1.00  0.00    -0.205 A  
HETATM    7  C   UNL     1      -9.579  11.115  63.606  1.00  0.00    -0.288 C  
HETATM    8  C   UNL     1      -8.615  10.050  65.815  1.00  0.00    -0.145 A  
HETATM    9  N   UNL     1      -8.598  10.529  67.139  1.00  0.00    -0.126 NA 
HETATM   10  O   UNL     1     -10.283   9.912  63.229  1.00  0.00    -0.264 OA 
HETATM   11  C   UNL     1      -8.298  11.175  62.766  1.00  0.00    -0.048 C  
HETATM   12  C   UNL     1     -10.460  12.317  63.228  1.00  0.00    -0.296 C  
HETATM   13  C   UNL     1      -8.012   8.811  65.384  1.00  0.00    -0.112 C  
HETATM   14  O   UNL     1      -8.610   8.248  64.310  1.00  0.00    -0.044 OA 
HETATM   15  O   UNL     1      -7.075   8.249  65.945  1.00  0.00    -0.069 OA 
HETATM   16  H   UNL     1     -10.468   9.963  62.298  1.00  0.00     0.000 HD 
BRANCH   9  17
HETATM   17  C   UNL     1      -7.819   9.832  68.192  1.00  0.00    -0.085 C  
BRANCH  17  18
HETATM   18  C   UNL     1      -8.570   9.176  69.318  1.00  0.00    -0.137 A  
HETATM   19  C   UNL     1      -8.130   9.306  70.638  1.00  0.00    -0.207 A  
HETATM   20  C   UNL     1      -8.654   8.474  71.638  1.00  0.00    -0.247 A  
HETATM   21  C   UNL     1      -9.586   7.453  71.347  1.00  0.00    -0.167 A  
HETATM   22  C   UNL     1     -10.163   7.497  70.067  1.00  0.00    -0.215 A  
HETATM   23  C   UNL     1      -9.680   8.362  69.072  1.00  0.00    -0.171 A  
BRANCH  21  24
HETATM   24  C   UNL     1      -9.737   6.281  72.279  1.00  0.00    -0.165 A  
HETATM   25  C   UNL     1     -10.944   5.633  72.658  1.00  0.00    -0.316 A  
HETATM   26  C   UNL     1     -10.878   4.428  73.411  1.00  0.00    -0.347 A  
HETATM   27  C   UNL     1      -8.529   5.672  72.727  1.00  0.00    -0.120 A  
HETATM   28  C   UNL     1      -8.488   4.508  73.494  1.00  0.00    -0.101 A  
HETATM   29  C   UNL     1      -9.667   3.873  73.823  1.00  0.00    -0.140 A  
BRANCH  25  30
HETATM   30  C   UNL     1     -12.283   6.146  72.356  1.00  0.00    -0.074 A  
HETATM   31  N   UNL     1     -14.410   6.454  72.115  1.00  0.00    -0.061 NA 
HETATM   32  H   UNL     1     -13.622   4.730  73.119  1.00  0.00     0.000 HD 
HETATM   33  N   UNL     1     -13.850   7.499  71.527  1.00  0.00    -0.399 NA 
HETATM   34  N   UNL     1     -13.456   5.607  72.626  1.00  0.00     0.546 NA 
HETATM   35  N   UNL     1     -12.534   7.311  71.674  1.00  0.00    -0.343 NA 
ENDBRANCH  25  30
ENDBRANCH  21  24
ENDBRANCH  17  18
ENDBRANCH   9  17
ENDBRANCH   3   4
ENDBRANCH   2   3
TORSDOF 6
ENDMDL
MODEL      252
REMARK 921   NORMALIZED FREE ENERGY PREDICTED BY IDOCK:   -3.56 KCAL/MOL
REMARK 922        TOTAL FREE ENERGY PREDICTED BY IDOCK:   -5.96 KCAL/MOL
REMARK 923 INTER-LIGAND FREE ENERGY PREDICTED BY IDOCK:   -5.21 KCAL/MOL
REMARK 924 INTRA-LIGAND FREE ENERGY PREDICTED BY IDOCK:   -0.75 KCAL/MOL
REMARK 927      BINDING AFFINITY PREDICTED BY RF-SCORE:    0.00 PKD
ROOT
HETATM    1  C   UNL     1     -10.067   5.238  70.272  1.00  0.00    -0.329 C  
HETATM    2  C   UNL     1     -10.422   6.122  69.082  1.00  0.00    -0.310 C  
ENDROOT
BRANCH   2   3
HETATM    3  C   UNL     1     -10.658   5.348  67.778  1.00  0.00    -0.172 C  
BRANCH   3   4
HETATM    4  C   UNL     1      -9.636   5.656  66.727  1.00  0.00    -0.146 A  
HETATM    5  N   UNL     1      -9.762   5.159  65.512  1.00  0.00    -0.072 NA 
HETATM    6  C   UNL     1      -8.630   5.477  64.815  1.00  0.00    -0.091 A  
HETATM    7  C   UNL     1      -8.445   4.984  63.396  1.00  0.00    -0.123 C  
HETATM    8  C   UNL     1      -7.755   6.184  65.637  1.00  0.00    -0.092 A  
HETATM    9  N   UNL     1      -8.480   6.413  66.822  1.00  0.00    -0.110 NA 
HETATM   10  O   UNL     1      -7.255   4.167  63.363  1.00  0.00    -0.048 OA 
HETATM   11  C   UNL     1      -8.233   6.137  62.407  1.00  0.00    -0.085 C  
HETATM   12  C   UNL     1      -9.620   4.129  62.893  1.00  0.00    -0.137 C  
HETATM   13  C   UNL     1      -6.410   6.650  65.396  1.00  0.00    -0.042 C  
HETATM   14  O   UNL     1      -5.700   5.877  64.544  1.00  0.00    -0.023 OA 
HETATM   15  O   UNL     1      -5.892   7.623  65.939  1.00  0.00    -0.036 OA 
HETATM   16  H   UNL     1      -7.139   3.858  62.473  1.00  0.00     0.000 HD 
BRANCH   9  17
HETATM   17  C   UNL     1      -7.939   7.290  67.890  1.00  0.00    -0.119 C  
BRANCH  17  18
HETATM   18  C   UNL     1      -8.378   8.729  67.921  1.00  0.00    -0.118 A  
HETATM   19  C   UNL     1      -7.799   9.630  68.818  1.00  0.00    -0.081 A  
HETATM   20  C   UNL     1      -8.395  10.879  69.043  1.00  0.00    -0.118 A  
HETATM   21  C   UNL     1      -9.613  11.246  68.427  1.00  0.00    -0.195 A  
HETATM   22  C   UNL     1     -10.043  10.417  67.378  1.00  0.00    -0.237 A  
HETATM   23  C   UNL     1      -9.422   9.186  67.110  1.00  0.00    -0.197 A  
BRANCH  21  24
HETATM   24  C   UNL     1     -10.480  12.311  69.043  1.00  0.00    -0.049 A  
HETATM   25  C   UNL     1     -10.511  13.693  68.712  1.00  0.00    -0.214 A  
HETATM   26  C   UNL     1     -11.521  14.519  69.277  1.00  0.00    -0.322 A  
HETATM   27  C   UNL     1     -11.468  11.864  69.968  1.00  0.00    -0.213 A  
HETATM   28  C   UNL     1     -12.429  12.699  70.536  1.00  0.00    -0.273 A  
HETATM   29  C   UNL     1     -12.467  14.030  70.176  1.00  0.00    -0.380 A  
BRANCH  25  30
HETATM   30  C   UNL     1      -9.535  14.351  67.840  1.00  0.00    -0.214 A  
HETATM   31  N   UNL     1      -7.763  14.999  66.783  1.00  0.00     0.051 NA 
HETATM   32  H   UNL     1      -7.722  13.353  68.156  1.00  0.00     0.000 HD 
HETATM   33  N   UNL     1      -8.716  15.824  66.378  1.00  0.00    -0.317 NA 
HETATM   34  N   UNL     1      -8.251  14.089  67.689  1.00  0.00    -0.166 NA 
HETATM   35  N   UNL     1      -9.814  15.426  67.031  1.00  0.00    -0.229 NA 
ENDBRANCH  25  30
ENDBRANCH  21  24
ENDBRANCH  17  18
ENDBRANCH   9  17
ENDBRANCH   3   4
ENDBRANCH   2   3
TORSDOF 6
ENDMDL
MODEL      253
REMARK 921   NORMALIZED FREE ENERGY PREDICTED BY IDOCK:   -3.51 KCAL/MOL
REMARK 922        TOTAL FREE ENERGY PREDICTED BY IDOCK:   -5.90 KCAL/MOL
REMARK 923 INTER-LIGAND FREE ENERGY PREDICTED BY IDOCK:   -4.70 KCAL/MOL
REMARK 924 INTRA-LIGAND FREE ENERGY PREDICTED BY IDOCK:   -1.20 KCAL/MOL
REMARK 927      BINDING AFFINITY PREDICTED BY RF-SCORE:    0.00 PKD
ROOT
HETATM    1  C   UNL     1     -10.237  10.639  63.080  1.00  0.00    -0.072 C  
HETATM    2  C   UNL     1      -8.813  10.096  63.107  1.00  0.00    -0.232 C  
ENDROOT
BRANCH   2   3
HETATM    3  C   UNL     1      -7.936  10.699  64.213  1.00  0.00     0.091 C  
BRANCH   3   4
HETATM    4  C   UNL     1      -7.633   9.724  65.309  1.00  0.00    -0.119 A  
HETATM    5  N   UNL     1      -7.947   8.450  65.171  1.00  0.00    -0.127 NA 
HETATM    6  C   UNL     1      -7.696   7.831  66.363  1.00  0.00    -0.093 A  
HETATM    7  C   UNL     1      -8.021   6.363  66.542  1.00  0.00    -0.109 C  
HETATM    8  C   UNL     1      -7.225   8.761  67.286  1.00  0.00    -0.080 A  
HETATM    9  N   UNL     1      -7.057   9.948  66.548  1.00  0.00    -0.092 NA 
HETATM   10  O   UNL     1      -8.978   6.250  67.616  1.00  0.00    -0.118 OA 
HETATM   11  C   UNL     1      -6.788   5.543  66.942  1.00  0.00    -0.063 C  
HETATM   12  C   UNL     1      -8.638   5.721  65.288  1.00  0.00    -0.129 C  
HETATM   13  C   UNL     1      -6.916   8.618  68.690  1.00  0.00    -0.064 C  
HETATM   14  O   UNL     1      -7.659   7.687  69.329  1.00  0.00    -0.091 OA 
HETATM   15  O   UNL     1      -6.100   9.299  69.306  1.00  0.00    -0.040 OA 
HETATM   16  H   UNL     1      -9.182   5.329  67.729  1.00  0.00     0.000 HD 
BRANCH   9  17
HETATM   17  C   UNL     1      -6.406  11.137  67.152  1.00  0.00    -0.083 C  
BRANCH  17  18
HETATM   18  C   UNL     1      -7.276  12.290  67.571  1.00  0.00    -0.139 A  
HETATM   19  C   UNL     1      -7.070  12.929  68.797  1.00  0.00    -0.096 A  
HETATM   20  C   UNL     1      -8.043  13.800  69.308  1.00  0.00     0.418 A  
HETATM   21  C   UNL     1      -9.271  14.018  68.644  1.00  0.00    -0.119 A  
HETATM   22  C   UNL     1      -9.349  13.540  67.326  1.00  0.00    -0.233 A  
HETATM   23  C   UNL     1      -8.355  12.707  66.785  1.00  0.00    -0.011 A  
BRANCH  21  24
HETATM   24  C   UNL     1     -10.467  14.512  69.413  1.00  0.00    -0.139 A  
HETATM   25  C   UNL     1     -11.548  13.736  69.915  1.00  0.00    -0.298 A  
HETATM   26  C   UNL     1     -12.503  14.350  70.772  1.00  0.00    -0.423 A  
HETATM   27  C   UNL     1     -10.451  15.886  69.791  1.00  0.00    -0.311 A  
HETATM   28  C   UNL     1     -11.416  16.475  70.607  1.00  0.00    -0.027 A  
HETATM   29  C   UNL     1     -12.438  15.699  71.114  1.00  0.00    -0.505 A  
BRANCH  25  30
HETATM   30  C   UNL     1     -11.776  12.329  69.576  1.00  0.00    -0.332 A  
HETATM   31  N   UNL     1     -12.036  10.182  69.584  1.00  0.00    -0.060 NA 
HETATM   32  H   UNL     1     -11.738  11.292  71.394  1.00  0.00     0.000 HD 
HETATM   33  N   UNL     1     -12.099  10.524  68.306  1.00  0.00    -0.163 NA 
HETATM   34  N   UNL     1     -11.830  11.284  70.379  1.00  0.00    -0.348 NA 
HETATM   35  N   UNL     1     -11.938  11.852  68.299  1.00  0.00    -0.493 NA 
ENDBRANCH  25  30
ENDBRANCH  21  24
ENDBRANCH  17  18
ENDBRANCH   9  17
ENDBRANCH   3   4
ENDBRANCH   2   3
TORSDOF 6
ENDMDL
MODEL      254
REMARK 921   NORMALIZED FREE ENERGY PREDICTED BY IDOCK:   -3.51 KCAL/MOL
REMARK 922        TOTAL FREE ENERGY PREDICTED BY IDOCK:   -5.90 KCAL/MOL
REMARK 923 INTER-LIGAND FREE ENERGY PREDICTED BY IDOCK:   -6.67 KCAL/MOL
REMARK 924 INTRA-LIGAND FREE ENERGY PREDICTED BY IDOCK:    0.77 KCAL/MOL
REMARK 927      BINDING AFFINITY PREDICTED BY RF-SCORE:    0.00 PKD
ROOT
HETATM    1  C   UNL     1     -11.461  15.580  64.863  1.00  0.00    -0.279 C  
HETATM    2  C   UNL     1     -11.726  14.244  65.547  1.00  0.00    -0.353 C  
ENDROOT
BRANCH   2   3
HETATM    3  C   UNL     1     -10.615  13.806  66.511  1.00  0.00    -0.279 C  
BRANCH   3   4
HETATM    4  C   UNL     1      -9.731  14.940  66.931  1.00  0.00    -0.240 A  
HETATM    5  N   UNL     1     -10.241  16.137  67.145  1.00  0.00    -0.275 NA 
HETATM    6  C   UNL     1      -9.202  16.996  67.368  1.00  0.00    -0.234 A  
HETATM    7  C   UNL     1      -9.466  18.472  67.582  1.00  0.00    -0.279 C  
HETATM    8  C   UNL     1      -7.994  16.309  67.268  1.00  0.00    -0.167 A  
HETATM    9  N   UNL     1      -8.360  14.957  67.126  1.00  0.00    -0.209 NA 
HETATM   10  O   UNL     1      -8.777  19.199  66.543  1.00  0.00    -0.313 OA 
HETATM   11  C   UNL     1      -8.917  18.967  68.925  1.00  0.00    -0.301 C  
HETATM   12  C   UNL     1     -10.958  18.838  67.507  1.00  0.00    -0.273 C  
HETATM   13  C   UNL     1      -6.633  16.789  67.324  1.00  0.00    -0.172 C  
HETATM   14  O   UNL     1      -6.472  18.052  66.868  1.00  0.00    -0.169 OA 
HETATM   15  O   UNL     1      -5.666  16.127  67.690  1.00  0.00    -0.127 OA 
HETATM   16  H   UNL     1      -8.942  20.125  66.677  1.00  0.00     0.000 HD 
BRANCH   9  17
HETATM   17  C   UNL     1      -7.336  13.883  67.156  1.00  0.00     0.180 C  
BRANCH  17  18
HETATM   18  C   UNL     1      -7.720  12.549  67.736  1.00  0.00    -0.142 A  
HETATM   19  C   UNL     1      -6.894  11.435  67.567  1.00  0.00    -0.086 A  
HETATM   20  C   UNL     1      -7.378  10.151  67.854  1.00  0.00    -0.087 A  
HETATM   21  C   UNL     1      -8.713   9.931  68.263  1.00  0.00    -0.119 A  
HETATM   22  C   UNL     1      -9.438  11.077  68.630  1.00  0.00    -0.197 A  
HETATM   23  C   UNL     1      -8.941  12.369  68.394  1.00  0.00    -0.133 A  
BRANCH  21  24
HETATM   24  C   UNL     1      -9.349   8.581  68.068  1.00  0.00    -0.147 A  
HETATM   25  C   UNL     1     -10.250   7.920  68.946  1.00  0.00    -0.215 A  
HETATM   26  C   UNL     1     -10.888   6.724  68.514  1.00  0.00    -0.280 A  
HETATM   27  C   UNL     1      -9.126   7.955  66.808  1.00  0.00    -0.189 A  
HETATM   28  C   UNL     1      -9.737   6.764  66.417  1.00  0.00    -0.125 A  
HETATM   29  C   UNL     1     -10.636   6.154  67.267  1.00  0.00    -0.362 A  
BRANCH  25  30
HETATM   30  C   UNL     1     -10.549   8.368  70.308  1.00  0.00    -0.227 A  
HETATM   31  N   UNL     1     -11.448   9.155  72.112  1.00  0.00    -0.276 NA 
HETATM   32  H   UNL     1     -12.554   8.971  70.283  1.00  0.00     0.000 HD 
HETATM   33  N   UNL     1     -10.198   8.881  72.450  1.00  0.00    -0.159 NA 
HETATM   34  N   UNL     1     -11.678   8.849  70.792  1.00  0.00    -0.264 NA 
HETATM   35  N   UNL     1      -9.639   8.396  71.336  1.00  0.00    -0.176 NA 
ENDBRANCH  25  30
ENDBRANCH  21  24
ENDBRANCH  17  18
ENDBRANCH   9  17
ENDBRANCH   3   4
ENDBRANCH   2   3
TORSDOF 6
ENDMDL
MODEL      255
REMARK 921   NORMALIZED FREE ENERGY PREDICTED BY IDOCK:   -3.51 KCAL/MOL
REMARK 922        TOTAL FREE ENERGY PREDICTED BY IDOCK:   -5.89 KCAL/MOL
REMARK 923 INTER-LIGAND FREE ENERGY PREDICTED BY IDOCK:   -5.07 KCAL/MOL
REMARK 924 INTRA-LIGAND FREE ENERGY PREDICTED BY IDOCK:   -0.82 KCAL/MOL
REMARK 927      BINDING AFFINITY PREDICTED BY RF-SCORE:    0.00 PKD
ROOT
HETATM    1  C   UNL     1      -8.053   8.854  71.609  1.00  0.00    -0.088 C  
HETATM    2  C   UNL     1      -9.352   8.939  70.816  1.00  0.00    -0.280 C  
ENDROOT
BRANCH   2   3
HETATM    3  C   UNL     1      -9.790   7.607  70.192  1.00  0.00    -0.184 C  
BRANCH   3   4
HETATM    4  C   UNL     1      -8.973   7.231  68.994  1.00  0.00    -0.134 A  
HETATM    5  N   UNL     1      -8.251   6.126  69.002  1.00  0.00    -0.112 NA 
HETATM    6  C   UNL     1      -7.506   6.111  67.857  1.00  0.00    -0.085 A  
HETATM    7  C   UNL     1      -6.518   4.991  67.607  1.00  0.00    -0.045 C  
HETATM    8  C   UNL     1      -7.758   7.263  67.116  1.00  0.00    -0.112 A  
HETATM    9  N   UNL     1      -8.810   7.905  67.795  1.00  0.00    -0.123 NA 
HETATM   10  O   UNL     1      -5.205   5.578  67.485  1.00  0.00    -0.004 OA 
HETATM   11  C   UNL     1      -6.808   4.248  66.297  1.00  0.00    -0.054 C  
HETATM   12  C   UNL     1      -6.471   3.957  68.745  1.00  0.00    -0.037 C  
HETATM   13  C   UNL     1      -7.152   7.748  65.898  1.00  0.00    -0.064 C  
HETATM   14  O   UNL     1      -5.859   7.385  65.740  1.00  0.00    -0.035 OA 
HETATM   15  O   UNL     1      -7.703   8.476  65.077  1.00  0.00    -0.091 OA 
HETATM   16  H   UNL     1      -4.586   4.875  67.328  1.00  0.00     0.000 HD 
BRANCH   9  17
HETATM   17  C   UNL     1      -9.479   9.096  67.215  1.00  0.00    -0.148 C  
BRANCH  17  18
HETATM   18  C   UNL     1      -8.882  10.450  67.482  1.00  0.00    -0.134 A  
HETATM   19  C   UNL     1      -9.642  11.458  68.082  1.00  0.00    -0.190 A  
HETATM   20  C   UNL     1      -9.186  12.783  68.070  1.00  0.00    -0.208 A  
HETATM   21  C   UNL     1      -7.991  13.156  67.414  1.00  0.00    -0.174 A  
HETATM   22  C   UNL     1      -7.154  12.099  67.019  1.00  0.00    -0.064 A  
HETATM   23  C   UNL     1      -7.581  10.762  67.074  1.00  0.00    -0.114 A  
BRANCH  21  24
HETATM   24  C   UNL     1      -7.786  14.579  66.969  1.00  0.00    -0.015 A  
HETATM   25  C   UNL     1      -8.692  15.390  66.234  1.00  0.00    -0.240 A  
HETATM   26  C   UNL     1      -8.400  16.771  66.055  1.00  0.00    -0.187 A  
HETATM   27  C   UNL     1      -6.611  15.227  67.450  1.00  0.00    -0.120 A  
HETATM   28  C   UNL     1      -6.329  16.575  67.236  1.00  0.00    -0.213 A  
HETATM   29  C   UNL     1      -7.236  17.356  66.550  1.00  0.00    -0.305 A  
BRANCH  25  30
HETATM   30  C   UNL     1      -9.914  14.889  65.598  1.00  0.00    -0.358 A  
HETATM   31  N   UNL     1     -11.383  13.944  64.323  1.00  0.00    -0.338 NA 
HETATM   32  H   UNL     1      -9.277  13.689  64.005  1.00  0.00     0.000 HD 
HETATM   33  N   UNL     1     -12.094  14.626  65.208  1.00  0.00    -0.318 NA 
HETATM   34  N   UNL     1     -10.036  14.101  64.547  1.00  0.00    -0.174 NA 
HETATM   35  N   UNL     1     -11.187  15.212  65.997  1.00  0.00    -0.316 NA 
ENDBRANCH  25  30
ENDBRANCH  21  24
ENDBRANCH  17  18
ENDBRANCH   9  17
ENDBRANCH   3   4
ENDBRANCH   2   3
TORSDOF 6
ENDMDL
MODEL      256
REMARK 921   NORMALIZED FREE ENERGY PREDICTED BY IDOCK:   -3.46 KCAL/MOL
REMARK 922        TOTAL FREE ENERGY PREDICTED BY IDOCK:   -5.83 KCAL/MOL
REMARK 923 INTER-LIGAND FREE ENERGY PREDICTED BY IDOCK:   -5.00 KCAL/MOL
REMARK 924 INTRA-LIGAND FREE ENERGY PREDICTED BY IDOCK:   -0.83 KCAL/MOL
REMARK 927      BINDING AFFINITY PREDICTED BY RF-SCORE:    0.00 PKD
ROOT
HETATM    1  C   UNL     1     -10.118   4.283  64.606  1.00  0.00    -0.134 C  
HETATM    2  C   UNL     1      -8.620   4.279  64.322  1.00  0.00    -0.121 C  
ENDROOT
BRANCH   2   3
HETATM    3  C   UNL     1      -7.813   5.228  65.218  1.00  0.00    -0.095 C  
BRANCH   3   4
HETATM    4  C   UNL     1      -8.228   6.659  65.071  1.00  0.00    -0.105 A  
HETATM    5  N   UNL     1      -7.704   7.410  64.121  1.00  0.00    -0.116 NA 
HETATM    6  C   UNL     1      -8.147   8.688  64.311  1.00  0.00    -0.158 A  
HETATM    7  C   UNL     1      -7.661   9.804  63.411  1.00  0.00    -0.130 C  
HETATM    8  C   UNL     1      -8.964   8.740  65.438  1.00  0.00    -0.160 A  
HETATM    9  N   UNL     1      -9.119   7.398  65.833  1.00  0.00    -0.088 NA 
HETATM   10  O   UNL     1      -6.993  10.780  64.238  1.00  0.00    -0.343 OA 
HETATM   11  C   UNL     1      -8.819  10.521  62.705  1.00  0.00    -0.258 C  
HETATM   12  C   UNL     1      -6.665   9.330  62.339  1.00  0.00    -0.091 C  
HETATM   13  C   UNL     1      -9.585   9.865  66.097  1.00  0.00    -0.218 C  
HETATM   14  O   UNL     1      -8.892  11.021  65.991  1.00  0.00    -0.182 OA 
HETATM   15  O   UNL     1     -10.620   9.813  66.757  1.00  0.00    -0.206 OA 
HETATM   16  H   UNL     1      -6.688  11.481  63.673  1.00  0.00     0.000 HD 
BRANCH   9  17
HETATM   17  C   UNL     1     -10.069   7.023  66.910  1.00  0.00    -0.226 C  
BRANCH  17  18
HETATM   18  C   UNL     1      -9.563   6.171  68.041  1.00  0.00    -0.115 A  
HETATM   19  C   UNL     1      -9.794   4.792  68.052  1.00  0.00    -0.185 A  
HETATM   20  C   UNL     1      -9.578   4.053  69.223  1.00  0.00    -0.247 A  
HETATM   21  C   UNL     1      -9.182   4.668  70.432  1.00  0.00    -0.187 A  
HETATM   22  C   UNL     1      -8.752   6.001  70.329  1.00  0.00    -0.143 A  
HETATM   23  C   UNL     1      -8.916   6.738  69.144  1.00  0.00    -0.132 A  
BRANCH  21  24
HETATM   24  C   UNL     1      -9.452   3.989  71.748  1.00  0.00    -0.210 A  
HETATM   25  C   UNL     1      -9.156   4.483  73.048  1.00  0.00    -0.129 A  
HETATM   26  C   UNL     1      -9.643   3.781  74.184  1.00  0.00    -0.124 A  
HETATM   27  C   UNL     1     -10.201   2.778  71.691  1.00  0.00     0.086 A  
HETATM   28  C   UNL     1     -10.641   2.088  72.820  1.00  0.00    -0.231 A  
HETATM   29  C   UNL     1     -10.376   2.600  74.073  1.00  0.00    -0.205 A  
BRANCH  25  30
HETATM   30  C   UNL     1      -8.337   5.669  73.310  1.00  0.00    -0.117 A  
HETATM   31  N   UNL     1      -6.741   7.075  73.704  1.00  0.00    -0.070 NA 
HETATM   32  H   UNL     1      -6.354   4.996  73.345  1.00  0.00     0.000 HD 
HETATM   33  N   UNL     1      -7.848   7.798  73.759  1.00  0.00    -0.146 NA 
HETATM   34  N   UNL     1      -7.026   5.758  73.433  1.00  0.00    -0.083 NA 
HETATM   35  N   UNL     1      -8.837   6.931  73.517  1.00  0.00    -0.131 NA 
ENDBRANCH  25  30
ENDBRANCH  21  24
ENDBRANCH  17  18
ENDBRANCH   9  17
ENDBRANCH   3   4
ENDBRANCH   2   3
TORSDOF 6
ENDMDL
MODEL      257
REMARK 921   NORMALIZED FREE ENERGY PREDICTED BY IDOCK:   -3.41 KCAL/MOL
REMARK 922        TOTAL FREE ENERGY PREDICTED BY IDOCK:   -5.76 KCAL/MOL
REMARK 923 INTER-LIGAND FREE ENERGY PREDICTED BY IDOCK:   -5.79 KCAL/MOL
REMARK 924 INTRA-LIGAND FREE ENERGY PREDICTED BY IDOCK:    0.03 KCAL/MOL
REMARK 927      BINDING AFFINITY PREDICTED BY RF-SCORE:    0.00 PKD
ROOT
HETATM    1  C   UNL     1      -6.507  18.829  67.934  1.00  0.00    -0.217 C  
HETATM    2  C   UNL     1      -5.438  17.799  68.276  1.00  0.00    -0.154 C  
ENDROOT
BRANCH   2   3
HETATM    3  C   UNL     1      -5.538  16.501  67.463  1.00  0.00    -0.172 C  
BRANCH   3   4
HETATM    4  C   UNL     1      -6.919  15.922  67.462  1.00  0.00    -0.180 A  
HETATM    5  N   UNL     1      -7.884  16.504  66.775  1.00  0.00    -0.231 NA 
HETATM    6  C   UNL     1      -9.050  15.856  67.070  1.00  0.00    -0.217 A  
HETATM    7  C   UNL     1     -10.359  16.339  66.481  1.00  0.00    -0.307 C  
HETATM    8  C   UNL     1      -8.806  14.843  67.993  1.00  0.00    -0.167 A  
HETATM    9  N   UNL     1      -7.405  14.808  68.127  1.00  0.00    -0.109 NA 
HETATM   10  O   UNL     1     -11.232  16.695  67.575  1.00  0.00    -0.133 OA 
HETATM   11  C   UNL     1     -11.066  15.245  65.672  1.00  0.00    -0.308 C  
HETATM   12  C   UNL     1     -10.200  17.576  65.581  1.00  0.00    -0.093 C  
HETATM   13  C   UNL     1      -9.717  13.956  68.678  1.00  0.00    -0.160 C  
HETATM   14  O   UNL     1     -10.940  14.486  68.905  1.00  0.00    -0.238 OA 
HETATM   15  O   UNL     1      -9.434  12.834  69.090  1.00  0.00     0.333 OA 
HETATM   16  H   UNL     1     -12.053  16.998  67.205  1.00  0.00     0.000 HD 
BRANCH   9  17
HETATM   17  C   UNL     1      -6.739  13.736  68.908  1.00  0.00    -0.108 C  
BRANCH  17  18
HETATM   18  C   UNL     1      -6.853  12.320  68.415  1.00  0.00    -0.075 A  
HETATM   19  C   UNL     1      -7.189  12.054  67.085  1.00  0.00    -0.131 A  
HETATM   20  C   UNL     1      -7.570  10.760  66.702  1.00  0.00    -0.134 A  
HETATM   21  C   UNL     1      -7.684   9.708  67.638  1.00  0.00    -0.095 A  
HETATM   22  C   UNL     1      -7.133   9.954  68.906  1.00  0.00    -0.071 A  
HETATM   23  C   UNL     1      -6.700  11.235  69.285  1.00  0.00    -0.110 A  
BRANCH  21  24
HETATM   24  C   UNL     1      -8.557   8.520  67.335  1.00  0.00    -0.127 A  
HETATM   25  C   UNL     1      -9.958   8.405  67.548  1.00  0.00    -0.259 A  
HETATM   26  C   UNL     1     -10.646   7.270  67.037  1.00  0.00    -0.415 A  
HETATM   27  C   UNL     1      -7.936   7.441  66.641  1.00  0.00    -0.121 A  
HETATM   28  C   UNL     1      -8.625   6.321  66.177  1.00  0.00    -0.143 A  
HETATM   29  C   UNL     1      -9.990   6.242  66.360  1.00  0.00    -0.112 A  
BRANCH  25  30
HETATM   30  C   UNL     1     -10.756   9.373  68.303  1.00  0.00    -0.171 A  
HETATM   31  N   UNL     1     -12.034  10.994  68.949  1.00  0.00    -0.472 NA 
HETATM   32  H   UNL     1     -11.696  10.577  66.872  1.00  0.00     0.000 HD 
HETATM   33  N   UNL     1     -11.595  10.445  70.070  1.00  0.00    -0.280 NA 
HETATM   34  N   UNL     1     -11.521  10.348  67.850  1.00  0.00    -0.383 NA 
HETATM   35  N   UNL     1     -10.803   9.442  69.674  1.00  0.00    -0.238 NA 
ENDBRANCH  25  30
ENDBRANCH  21  24
ENDBRANCH  17  18
ENDBRANCH   9  17
ENDBRANCH   3   4
ENDBRANCH   2   3
TORSDOF 6
ENDMDL
MODEL      258
REMARK 921   NORMALIZED FREE ENERGY PREDICTED BY IDOCK:   -3.38 KCAL/MOL
REMARK 922        TOTAL FREE ENERGY PREDICTED BY IDOCK:   -5.71 KCAL/MOL
REMARK 923 INTER-LIGAND FREE ENERGY PREDICTED BY IDOCK:   -5.39 KCAL/MOL
REMARK 924 INTRA-LIGAND FREE ENERGY PREDICTED BY IDOCK:   -0.33 KCAL/MOL
REMARK 927      BINDING AFFINITY PREDICTED BY RF-SCORE:    0.00 PKD
ROOT
HETATM    1  C   UNL     1      -8.465  16.497  68.538  1.00  0.00    -0.226 C  
HETATM    2  C   UNL     1      -7.009  16.094  68.338  1.00  0.00    -0.129 C  
ENDROOT
BRANCH   2   3
HETATM    3  C   UNL     1      -6.822  14.835  67.482  1.00  0.00    -0.181 C  
BRANCH   3   4
HETATM    4  C   UNL     1      -8.110  14.121  67.209  1.00  0.00    -0.168 A  
HETATM    5  N   UNL     1      -8.991  14.635  66.372  1.00  0.00    -0.212 NA 
HETATM    6  C   UNL     1     -10.115  13.861  66.427  1.00  0.00    -0.295 A  
HETATM    7  C   UNL     1     -11.339  14.237  65.619  1.00  0.00    -0.317 C  
HETATM    8  C   UNL     1      -9.935  12.835  67.352  1.00  0.00    -0.212 A  
HETATM    9  N   UNL     1      -8.586  12.935  67.743  1.00  0.00    -0.172 NA 
HETATM   10  O   UNL     1     -12.428  14.452  66.542  1.00  0.00    -0.509 OA 
HETATM   11  C   UNL     1     -11.767  13.117  64.664  1.00  0.00    -0.404 C  
HETATM   12  C   UNL     1     -11.153  15.524  64.798  1.00  0.00    -0.421 C  
HETATM   13  C   UNL     1     -10.855  11.831  67.832  1.00  0.00    -0.211 C  
HETATM   14  O   UNL     1     -12.149  12.224  67.843  1.00  0.00    -0.466 OA 
HETATM   15  O   UNL     1     -10.533  10.725  68.258  1.00  0.00    -0.165 OA 
HETATM   16  H   UNL     1     -13.196  14.689  66.035  1.00  0.00     0.000 HD 
BRANCH   9  17
HETATM   17  C   UNL     1      -7.962  11.900  68.604  1.00  0.00    -0.101 C  
BRANCH  17  18
HETATM   18  C   UNL     1      -7.385  10.677  67.944  1.00  0.00    -0.089 A  
HETATM   19  C   UNL     1      -7.212  10.630  66.558  1.00  0.00    -0.134 A  
HETATM   20  C   UNL     1      -6.948   9.408  65.924  1.00  0.00    -0.090 A  
HETATM   21  C   UNL     1      -6.903   8.191  66.640  1.00  0.00    -0.068 A  
HETATM   22  C   UNL     1      -6.861   8.303  68.039  1.00  0.00    -0.066 A  
HETATM   23  C   UNL     1      -7.074   9.532  68.685  1.00  0.00    -0.069 A  
BRANCH  21  24
HETATM   24  C   UNL     1      -7.134   6.886  65.925  1.00  0.00    -0.072 A  
HETATM   25  C   UNL     1      -7.031   5.577  66.468  1.00  0.00    -0.064 A  
HETATM   26  C   UNL     1      -7.459   4.467  65.689  1.00  0.00    -0.081 A  
HETATM   27  C   UNL     1      -7.639   6.977  64.595  1.00  0.00    -0.106 A  
HETATM   28  C   UNL     1      -8.022   5.871  63.836  1.00  0.00    -0.119 A  
HETATM   29  C   UNL     1      -7.948   4.611  64.392  1.00  0.00    -0.098 A  
BRANCH  25  30
HETATM   30  C   UNL     1      -6.468   5.277  67.787  1.00  0.00    -0.048 A  
HETATM   31  N   UNL     1      -5.190   4.825  69.473  1.00  0.00     0.000 NA 
HETATM   32  H   UNL     1      -4.392   5.216  67.521  1.00  0.00     0.000 HD 
HETATM   33  N   UNL     1      -6.420   4.777  69.960  1.00  0.00    -0.034 NA 
HETATM   34  N   UNL     1      -5.204   5.126  68.132  1.00  0.00    -0.003 NA 
HETATM   35  N   UNL     1      -7.213   5.055  68.919  1.00  0.00    -0.057 NA 
ENDBRANCH  25  30
ENDBRANCH  21  24
ENDBRANCH  17  18
ENDBRANCH   9  17
ENDBRANCH   3   4
ENDBRANCH   2   3
TORSDOF 6
ENDMDL
MODEL      259
REMARK 921   NORMALIZED FREE ENERGY PREDICTED BY IDOCK:   -3.37 KCAL/MOL
REMARK 922        TOTAL FREE ENERGY PREDICTED BY IDOCK:   -5.70 KCAL/MOL
REMARK 923 INTER-LIGAND FREE ENERGY PREDICTED BY IDOCK:   -4.33 KCAL/MOL
REMARK 924 INTRA-LIGAND FREE ENERGY PREDICTED BY IDOCK:   -1.37 KCAL/MOL
REMARK 927      BINDING AFFINITY PREDICTED BY RF-SCORE:    0.00 PKD
ROOT
HETATM    1  C   UNL     1      -9.762   4.371  64.342  1.00  0.00    -0.069 C  
HETATM    2  C   UNL     1      -8.286   4.480  63.980  1.00  0.00    -0.106 C  
ENDROOT
BRANCH   2   3
HETATM    3  C   UNL     1      -7.504   5.481  64.841  1.00  0.00    -0.074 C  
BRANCH   3   4
HETATM    4  C   UNL     1      -8.271   6.741  65.106  1.00  0.00    -0.114 A  
HETATM    5  N   UNL     1      -8.146   7.777  64.299  1.00  0.00    -0.116 NA 
HETATM    6  C   UNL     1      -8.833   8.819  64.855  1.00  0.00    -0.074 A  
HETATM    7  C   UNL     1      -8.823  10.179  64.189  1.00  0.00    -0.222 C  
HETATM    8  C   UNL     1      -9.392   8.421  66.067  1.00  0.00    -0.177 A  
HETATM    9  N   UNL     1      -9.137   7.039  66.144  1.00  0.00    -0.147 NA 
HETATM   10  O   UNL     1      -8.253  11.123  65.121  1.00  0.00    -0.372 OA 
HETATM   11  C   UNL     1     -10.237  10.669  63.854  1.00  0.00    -0.306 C  
HETATM   12  C   UNL     1      -7.983  10.219  62.902  1.00  0.00    -0.152 C  
HETATM   13  C   UNL     1     -10.115   9.178  67.061  1.00  0.00    -0.249 C  
HETATM   14  O   UNL     1      -9.755  10.479  67.137  1.00  0.00    -0.165 OA 
HETATM   15  O   UNL     1     -10.950   8.713  67.833  1.00  0.00    -0.057 OA 
HETATM   16  H   UNL     1      -8.246  11.976  64.704  1.00  0.00     0.000 HD 
BRANCH   9  17
HETATM   17  C   UNL     1      -9.729   6.213  67.226  1.00  0.00    -0.128 C  
BRANCH  17  18
HETATM   18  C   UNL     1      -8.806   5.610  68.249  1.00  0.00    -0.108 A  
HETATM   19  C   UNL     1      -8.534   4.239  68.242  1.00  0.00    -0.103 A  
HETATM   20  C   UNL     1      -7.914   3.641  69.348  1.00  0.00    -0.060 A  
HETATM   21  C   UNL     1      -7.597   4.374  70.513  1.00  0.00    -0.052 A  
HETATM   22  C   UNL     1      -7.681   5.771  70.400  1.00  0.00    -0.095 A  
HETATM   23  C   UNL     1      -8.254   6.385  69.274  1.00  0.00    -0.115 A  
BRANCH  21  24
HETATM   24  C   UNL     1      -7.427   3.663  71.829  1.00  0.00    -0.056 A  
HETATM   25  C   UNL     1      -8.276   3.741  72.966  1.00  0.00    -0.090 A  
HETATM   26  C   UNL     1      -8.053   2.861  74.061  1.00  0.00    -0.068 A  
HETATM   27  C   UNL     1      -6.371   2.708  71.898  1.00  0.00    -0.015 A  
HETATM   28  C   UNL     1      -6.150   1.878  72.996  1.00  0.00    -0.008 A  
HETATM   29  C   UNL     1      -7.006   1.942  74.076  1.00  0.00    -0.023 A  
BRANCH  25  30
HETATM   30  C   UNL     1      -9.367   4.709  73.111  1.00  0.00    -0.121 A  
HETATM   31  N   UNL     1     -11.244   5.782  73.060  1.00  0.00    -0.268 NA 
HETATM   32  H   UNL     1     -11.054   3.797  72.272  1.00  0.00     0.000 HD 
HETATM   33  N   UNL     1     -10.393   6.620  73.632  1.00  0.00    -0.289 NA 
HETATM   34  N   UNL     1     -10.625   4.601  72.728  1.00  0.00    -0.203 NA 
HETATM   35  N   UNL     1      -9.230   5.958  73.664  1.00  0.00    -0.131 NA 
ENDBRANCH  25  30
ENDBRANCH  21  24
ENDBRANCH  17  18
ENDBRANCH   9  17
ENDBRANCH   3   4
ENDBRANCH   2   3
TORSDOF 6
ENDMDL
MODEL      260
REMARK 921   NORMALIZED FREE ENERGY PREDICTED BY IDOCK:   -3.35 KCAL/MOL
REMARK 922        TOTAL FREE ENERGY PREDICTED BY IDOCK:   -5.68 KCAL/MOL
REMARK 923 INTER-LIGAND FREE ENERGY PREDICTED BY IDOCK:   -4.71 KCAL/MOL
REMARK 924 INTRA-LIGAND FREE ENERGY PREDICTED BY IDOCK:   -0.97 KCAL/MOL
REMARK 927      BINDING AFFINITY PREDICTED BY RF-SCORE:    0.00 PKD
ROOT
HETATM    1  C   UNL     1     -10.008   5.278  70.354  1.00  0.00    -0.303 C  
HETATM    2  C   UNL     1     -10.225   6.282  69.228  1.00  0.00    -0.236 C  
ENDROOT
BRANCH   2   3
HETATM    3  C   UNL     1     -10.648   5.646  67.897  1.00  0.00    -0.266 C  
BRANCH   3   4
HETATM    4  C   UNL     1      -9.598   5.768  66.836  1.00  0.00    -0.141 A  
HETATM    5  N   UNL     1      -9.782   5.215  65.652  1.00  0.00    -0.108 NA 
HETATM    6  C   UNL     1      -8.621   5.355  64.945  1.00  0.00    -0.131 A  
HETATM    7  C   UNL     1      -8.497   4.757  63.559  1.00  0.00    -0.127 C  
HETATM    8  C   UNL     1      -7.669   6.004  65.727  1.00  0.00    -0.097 A  
HETATM    9  N   UNL     1      -8.361   6.388  66.892  1.00  0.00    -0.109 NA 
HETATM   10  O   UNL     1      -7.411   3.807  63.584  1.00  0.00    -0.057 OA 
HETATM   11  C   UNL     1      -8.152   5.815  62.503  1.00  0.00    -0.105 C  
HETATM   12  C   UNL     1      -9.765   4.017  63.102  1.00  0.00    -0.147 C  
HETATM   13  C   UNL     1      -6.279   6.294  65.467  1.00  0.00    -0.037 C  
HETATM   14  O   UNL     1      -5.665   5.392  64.668  1.00  0.00    -0.016 OA 
HETATM   15  O   UNL     1      -5.650   7.230  65.952  1.00  0.00    -0.030 OA 
HETATM   16  H   UNL     1      -7.333   3.432  62.715  1.00  0.00     0.000 HD 
BRANCH   9  17
HETATM   17  C   UNL     1      -7.721   7.260  67.907  1.00  0.00    -0.113 C  
BRANCH  17  18
HETATM   18  C   UNL     1      -8.134   8.705  67.969  1.00  0.00    -0.111 A  
HETATM   19  C   UNL     1      -8.399   9.421  66.798  1.00  0.00    -0.123 A  
HETATM   20  C   UNL     1      -8.503  10.818  66.837  1.00  0.00    -0.131 A  
HETATM   21  C   UNL     1      -8.290  11.549  68.027  1.00  0.00    -0.146 A  
HETATM   22  C   UNL     1      -8.245  10.794  69.211  1.00  0.00    -0.087 A  
HETATM   23  C   UNL     1      -8.192   9.391  69.187  1.00  0.00    -0.112 A  
BRANCH  21  24
HETATM   24  C   UNL     1      -7.898  13.001  67.961  1.00  0.00    -0.146 A  
HETATM   25  C   UNL     1      -8.689  14.124  68.328  1.00  0.00    -0.181 A  
HETATM   26  C   UNL     1      -8.089  15.413  68.365  1.00  0.00    -0.140 A  
HETATM   27  C   UNL     1      -6.542  13.273  67.616  1.00  0.00    -0.172 A  
HETATM   28  C   UNL     1      -5.983  14.550  67.627  1.00  0.00    -0.044 A  
HETATM   29  C   UNL     1      -6.754  15.624  68.020  1.00  0.00    -0.148 A  
BRANCH  25  30
HETATM   30  C   UNL     1     -10.118  14.055  68.642  1.00  0.00    -0.217 A  
HETATM   31  N   UNL     1     -12.266  13.802  68.613  1.00  0.00    -0.283 NA 
HETATM   32  H   UNL     1     -11.043  13.290  66.927  1.00  0.00     0.000 HD 
HETATM   33  N   UNL     1     -12.003  14.303  69.809  1.00  0.00    -0.319 NA 
HETATM   34  N   UNL     1     -11.114  13.648  67.879  1.00  0.00    -0.253 NA 
HETATM   35  N   UNL     1     -10.674  14.462  69.830  1.00  0.00    -0.069 NA 
ENDBRANCH  25  30
ENDBRANCH  21  24
ENDBRANCH  17  18
ENDBRANCH   9  17
ENDBRANCH   3   4
ENDBRANCH   2   3
TORSDOF 6
ENDMDL
MODEL      261
REMARK 921   NORMALIZED FREE ENERGY PREDICTED BY IDOCK:   -3.25 KCAL/MOL
REMARK 922        TOTAL FREE ENERGY PREDICTED BY IDOCK:   -5.54 KCAL/MOL
REMARK 923 INTER-LIGAND FREE ENERGY PREDICTED BY IDOCK:   -5.35 KCAL/MOL
REMARK 924 INTRA-LIGAND FREE ENERGY PREDICTED BY IDOCK:   -0.19 KCAL/MOL
REMARK 927      BINDING AFFINITY PREDICTED BY RF-SCORE:    0.00 PKD
ROOT
HETATM    1  C   UNL     1     -11.468  15.555  64.834  1.00  0.00    -0.279 C  
HETATM    2  C   UNL     1     -11.806  14.237  65.520  1.00  0.00    -0.363 C  
ENDROOT
BRANCH   2   3
HETATM    3  C   UNL     1     -10.717  13.734  66.478  1.00  0.00    -0.284 C  
BRANCH   3   4
HETATM    4  C   UNL     1      -9.727  14.798  66.840  1.00  0.00    -0.240 A  
HETATM    5  N   UNL     1     -10.126  16.042  67.030  1.00  0.00    -0.265 NA 
HETATM    6  C   UNL     1      -9.011  16.812  67.200  1.00  0.00    -0.204 A  
HETATM    7  C   UNL     1      -9.141  18.311  67.375  1.00  0.00    -0.253 C  
HETATM    8  C   UNL     1      -7.870  16.020  67.092  1.00  0.00    -0.209 A  
HETATM    9  N   UNL     1      -8.355  14.702  67.001  1.00  0.00    -0.207 NA 
HETATM   10  O   UNL     1      -8.419  18.945  66.298  1.00  0.00    -0.327 OA 
HETATM   11  C   UNL     1      -8.515  18.795  68.689  1.00  0.00    -0.364 C  
HETATM   12  C   UNL     1     -10.596  18.804  67.326  1.00  0.00    -0.504 C  
HETATM   13  C   UNL     1      -6.472  16.381  67.100  1.00  0.00    -0.192 C  
HETATM   14  O   UNL     1      -6.214  17.611  66.602  1.00  0.00    -0.149 OA 
HETATM   15  O   UNL     1      -5.556  15.648  67.463  1.00  0.00    -0.253 OA 
HETATM   16  H   UNL     1      -8.501  19.885  66.407  1.00  0.00     0.000 HD 
BRANCH   9  17
HETATM   17  C   UNL     1      -7.428  13.543  67.040  1.00  0.00     0.282 C  
BRANCH  17  18
HETATM   18  C   UNL     1      -7.929  12.248  67.616  1.00  0.00    -0.161 A  
HETATM   19  C   UNL     1      -8.340  12.173  68.949  1.00  0.00     0.180 A  
HETATM   20  C   UNL     1      -8.533  10.924  69.556  1.00  0.00     0.191 A  
HETATM   21  C   UNL     1      -8.269   9.714  68.874  1.00  0.00    -0.110 A  
HETATM   22  C   UNL     1      -8.074   9.822  67.488  1.00  0.00    -0.114 A  
HETATM   23  C   UNL     1      -7.930  11.071  66.860  1.00  0.00    -0.143 A  
BRANCH  21  24
HETATM   24  C   UNL     1      -7.982   8.458  69.651  1.00  0.00    -0.106 A  
HETATM   25  C   UNL     1      -8.380   7.133  69.324  1.00  0.00    -0.133 A  
HETATM   26  C   UNL     1      -7.866   6.046  70.084  1.00  0.00    -0.101 A  
HETATM   27  C   UNL     1      -7.106   8.593  70.767  1.00  0.00    -0.061 A  
HETATM   28  C   UNL     1      -6.640   7.515  71.520  1.00  0.00    -0.045 A  
HETATM   29  C   UNL     1      -7.008   6.233  71.166  1.00  0.00    -0.068 A  
BRANCH  25  30
HETATM   30  C   UNL     1      -9.331   6.800  68.260  1.00  0.00    -0.124 A  
HETATM   31  N   UNL     1     -10.311   6.130  66.452  1.00  0.00    -0.094 NA 
HETATM   32  H   UNL     1      -8.223   5.788  66.800  1.00  0.00     0.000 HD 
HETATM   33  N   UNL     1     -11.264   6.729  67.149  1.00  0.00    -0.334 NA 
HETATM   34  N   UNL     1      -9.112   6.171  67.122  1.00  0.00    -0.114 NA 
HETATM   35  N   UNL     1     -10.660   7.146  68.268  1.00  0.00    -0.202 NA 
ENDBRANCH  25  30
ENDBRANCH  21  24
ENDBRANCH  17  18
ENDBRANCH   9  17
ENDBRANCH   3   4
ENDBRANCH   2   3
TORSDOF 6
ENDMDL
MODEL      262
REMARK 921   NORMALIZED FREE ENERGY PREDICTED BY IDOCK:   -3.16 KCAL/MOL
REMARK 922        TOTAL FREE ENERGY PREDICTED BY IDOCK:   -5.42 KCAL/MOL
REMARK 923 INTER-LIGAND FREE ENERGY PREDICTED BY IDOCK:   -4.91 KCAL/MOL
REMARK 924 INTRA-LIGAND FREE ENERGY PREDICTED BY IDOCK:   -0.51 KCAL/MOL
REMARK 927      BINDING AFFINITY PREDICTED BY RF-SCORE:    0.00 PKD
ROOT
HETATM    1  C   UNL     1     -11.596  11.418  68.026  1.00  0.00    -0.357 C  
HETATM    2  C   UNL     1     -10.965  10.032  68.090  1.00  0.00    -0.289 C  
ENDROOT
BRANCH   2   3
HETATM    3  C   UNL     1     -11.271   9.150  66.872  1.00  0.00     0.845 C  
BRANCH   3   4
HETATM    4  C   UNL     1     -10.145   9.114  65.884  1.00  0.00    -0.048 A  
HETATM    5  N   UNL     1      -9.288   8.111  65.889  1.00  0.00    -0.114 NA 
HETATM    6  C   UNL     1      -8.299   8.408  64.995  1.00  0.00    -0.158 A  
HETATM    7  C   UNL     1      -7.122   7.471  64.822  1.00  0.00    -0.064 C  
HETATM    8  C   UNL     1      -8.539   9.656  64.425  1.00  0.00    -0.191 A  
HETATM    9  N   UNL     1      -9.807  10.034  64.905  1.00  0.00    -0.318 NA 
HETATM   10  O   UNL     1      -5.922   8.202  65.152  1.00  0.00    -0.044 OA 
HETATM   11  C   UNL     1      -6.977   6.989  63.373  1.00  0.00    -0.057 C  
HETATM   12  C   UNL     1      -7.191   6.236  65.735  1.00  0.00    -0.074 C  
HETATM   13  C   UNL     1      -7.741  10.441  63.512  1.00  0.00    -0.061 C  
HETATM   14  O   UNL     1      -6.408  10.253  63.638  1.00  0.00    -0.136 OA 
HETATM   15  O   UNL     1      -8.185  11.263  62.714  1.00  0.00    -0.021 OA 
HETATM   16  H   UNL     1      -5.184   7.614  65.043  1.00  0.00     0.000 HD 
BRANCH   9  17
HETATM   17  C   UNL     1     -10.491  11.244  64.385  1.00  0.00    -0.345 C  
BRANCH  17  18
HETATM   18  C   UNL     1     -10.495  12.483  65.239  1.00  0.00    -0.313 A  
HETATM   19  C   UNL     1     -11.631  13.294  65.310  1.00  0.00    -0.335 A  
HETATM   20  C   UNL     1     -11.544  14.577  65.867  1.00  0.00    -0.349 A  
HETATM   21  C   UNL     1     -10.316  15.114  66.316  1.00  0.00    -0.303 A  
HETATM   22  C   UNL     1      -9.254  14.202  66.431  1.00  0.00    -0.209 A  
HETATM   23  C   UNL     1      -9.347  12.896  65.922  1.00  0.00     0.028 A  
BRANCH  21  24
HETATM   24  C   UNL     1     -10.136  16.605  66.416  1.00  0.00    -0.325 A  
HETATM   25  C   UNL     1      -9.211  17.307  67.237  1.00  0.00    -0.233 A  
HETATM   26  C   UNL     1      -9.062  18.711  67.069  1.00  0.00    -0.295 A  
HETATM   27  C   UNL     1     -10.882  17.394  65.493  1.00  0.00     0.001 A  
HETATM   28  C   UNL     1     -10.743  18.776  65.368  1.00  0.00     0.195 A  
HETATM   29  C   UNL     1      -9.816  19.436  66.147  1.00  0.00    -0.461 A  
BRANCH  25  30
HETATM   30  C   UNL     1      -8.410  16.682  68.292  1.00  0.00    -0.198 A  
HETATM   31  N   UNL     1      -7.637  15.447  69.890  1.00  0.00    -0.094 NA 
HETATM   32  H   UNL     1      -9.512  15.023  68.939  1.00  0.00     0.000 HD 
HETATM   33  N   UNL     1      -6.729  16.396  69.730  1.00  0.00    -0.141 NA 
HETATM   34  N   UNL     1      -8.683  15.613  69.015  1.00  0.00    -0.221 NA 
HETATM   35  N   UNL     1      -7.205  17.163  68.742  1.00  0.00    -0.222 NA 
ENDBRANCH  25  30
ENDBRANCH  21  24
ENDBRANCH  17  18
ENDBRANCH   9  17
ENDBRANCH   3   4
ENDBRANCH   2   3
TORSDOF 6
ENDMDL
MODEL      263
REMARK 921   NORMALIZED FREE ENERGY PREDICTED BY IDOCK:   -3.13 KCAL/MOL
REMARK 922        TOTAL FREE ENERGY PREDICTED BY IDOCK:   -5.38 KCAL/MOL
REMARK 923 INTER-LIGAND FREE ENERGY PREDICTED BY IDOCK:   -5.44 KCAL/MOL
REMARK 924 INTRA-LIGAND FREE ENERGY PREDICTED BY IDOCK:    0.07 KCAL/MOL
REMARK 927      BINDING AFFINITY PREDICTED BY RF-SCORE:    0.00 PKD
ROOT
HETATM    1  C   UNL     1     -12.077  10.468  71.003  1.00  0.00    -0.492 C  
HETATM    2  C   UNL     1     -11.378   9.317  70.289  1.00  0.00    -0.238 C  
ENDROOT
BRANCH   2   3
HETATM    3  C   UNL     1     -10.036   9.701  69.652  1.00  0.00    -0.242 C  
BRANCH   3   4
HETATM    4  C   UNL     1     -10.176  10.742  68.585  1.00  0.00    -0.185 A  
HETATM    5  N   UNL     1      -9.839  11.995  68.829  1.00  0.00    -0.109 NA 
HETATM    6  C   UNL     1     -10.204  12.741  67.744  1.00  0.00    -0.223 A  
HETATM    7  C   UNL     1     -10.006  14.242  67.751  1.00  0.00    -0.227 C  
HETATM    8  C   UNL     1     -10.812  11.924  66.794  1.00  0.00    -0.266 A  
HETATM    9  N   UNL     1     -10.658  10.616  67.292  1.00  0.00    -0.246 NA 
HETATM   10  O   UNL     1     -11.300  14.859  67.589  1.00  0.00    -0.315 OA 
HETATM   11  C   UNL     1      -9.127  14.713  66.586  1.00  0.00    -0.285 C  
HETATM   12  C   UNL     1      -9.391  14.767  69.060  1.00  0.00    -0.160 C  
HETATM   13  C   UNL     1     -11.446  12.253  65.539  1.00  0.00    -0.361 C  
HETATM   14  O   UNL     1     -12.021  13.477  65.514  1.00  0.00    -0.350 OA 
HETATM   15  O   UNL     1     -11.533  11.500  64.573  1.00  0.00    -0.248 OA 
HETATM   16  H   UNL     1     -11.176  15.801  67.593  1.00  0.00     0.000 HD 
BRANCH   9  17
HETATM   17  C   UNL     1     -11.034   9.438  66.472  1.00  0.00     0.425 C  
BRANCH  17  18
HETATM   18  C   UNL     1     -10.393   8.114  66.789  1.00  0.00    -0.361 A  
HETATM   19  C   UNL     1     -11.094   6.920  66.603  1.00  0.00     0.158 A  
HETATM   20  C   UNL     1     -10.611   5.727  67.158  1.00  0.00    -0.365 A  
HETATM   21  C   UNL     1      -9.449   5.695  67.962  1.00  0.00    -0.121 A  
HETATM   22  C   UNL     1      -8.660   6.857  67.944  1.00  0.00    -0.122 A  
HETATM   23  C   UNL     1      -9.112   8.045  67.346  1.00  0.00    -0.147 A  
BRANCH  21  24
HETATM   24  C   UNL     1      -9.240   4.571  68.941  1.00  0.00    -0.190 A  
HETATM   25  C   UNL     1      -9.835   4.426  70.224  1.00  0.00    -0.284 A  
HETATM   26  C   UNL     1      -9.656   3.209  70.937  1.00  0.00    -0.225 A  
HETATM   27  C   UNL     1      -8.462   3.470  68.480  1.00  0.00    -0.104 A  
HETATM   28  C   UNL     1      -8.272   2.298  69.212  1.00  0.00    -0.068 A  
HETATM   29  C   UNL     1      -8.886   2.159  70.439  1.00  0.00    -0.130 A  
BRANCH  25  30
HETATM   30  C   UNL     1     -10.606   5.474  70.896  1.00  0.00    -0.239 A  
HETATM   31  N   UNL     1     -11.282   7.156  72.077  1.00  0.00    -0.244 NA 
HETATM   32  H   UNL     1      -9.202   6.662  71.896  1.00  0.00     0.000 HD 
HETATM   33  N   UNL     1     -12.390   6.617  71.594  1.00  0.00    -0.355 NA 
HETATM   34  N   UNL     1     -10.173   6.459  71.660  1.00  0.00    -0.194 NA 
HETATM   35  N   UNL     1     -11.975   5.576  70.864  1.00  0.00     1.068 NA 
ENDBRANCH  25  30
ENDBRANCH  21  24
ENDBRANCH  17  18
ENDBRANCH   9  17
ENDBRANCH   3   4
ENDBRANCH   2   3
TORSDOF 6
ENDMDL
MODEL      264
REMARK 921   NORMALIZED FREE ENERGY PREDICTED BY IDOCK:   -3.12 KCAL/MOL
REMARK 922        TOTAL FREE ENERGY PREDICTED BY IDOCK:   -5.37 KCAL/MOL
REMARK 923 INTER-LIGAND FREE ENERGY PREDICTED BY IDOCK:   -5.37 KCAL/MOL
REMARK 924 INTRA-LIGAND FREE ENERGY PREDICTED BY IDOCK:    0.00 KCAL/MOL
REMARK 927      BINDING AFFINITY PREDICTED BY RF-SCORE:    0.00 PKD
ROOT
HETATM    1  C   UNL     1      -7.701  19.098  66.789  1.00  0.00    -0.259 C  
HETATM    2  C   UNL     1      -7.570  17.699  67.380  1.00  0.00    -0.213 C  
ENDROOT
BRANCH   2   3
HETATM    3  C   UNL     1      -7.532  16.580  66.331  1.00  0.00    -0.205 C  
BRANCH   3   4
HETATM    4  C   UNL     1      -8.608  15.558  66.534  1.00  0.00    -0.285 A  
HETATM    5  N   UNL     1      -9.614  15.472  65.684  1.00  0.00    -0.325 NA 
HETATM    6  C   UNL     1     -10.506  14.569  66.188  1.00  0.00    -0.298 A  
HETATM    7  C   UNL     1     -11.809  14.301  65.464  1.00  0.00    -0.363 C  
HETATM    8  C   UNL     1     -10.048  14.087  67.411  1.00  0.00    -0.244 A  
HETATM    9  N   UNL     1      -8.756  14.629  67.551  1.00  0.00    -0.175 NA 
HETATM   10  O   UNL     1     -12.890  14.640  66.359  1.00  0.00    -0.269 OA 
HETATM   11  C   UNL     1     -11.970  12.821  65.095  1.00  0.00    -0.466 C  
HETATM   12  C   UNL     1     -11.975  15.136  64.183  1.00  0.00    -0.187 C  
HETATM   13  C   UNL     1     -10.672  13.201  68.366  1.00  0.00    -0.253 C  
HETATM   14  O   UNL     1     -12.022  13.274  68.388  1.00  0.00    -0.340 OA 
HETATM   15  O   UNL     1     -10.071  12.471  69.149  1.00  0.00     0.091 OA 
HETATM   16  H   UNL     1     -13.707  14.471  65.905  1.00  0.00     0.000 HD 
BRANCH   9  17
HETATM   17  C   UNL     1      -7.868  14.208  68.663  1.00  0.00    -0.137 C  
BRANCH  17  18
HETATM   18  C   UNL     1      -7.119  12.910  68.525  1.00  0.00    -0.102 A  
HETATM   19  C   UNL     1      -6.961  12.309  67.273  1.00  0.00    -0.142 A  
HETATM   20  C   UNL     1      -6.521  10.982  67.182  1.00  0.00    -0.084 A  
HETATM   21  C   UNL     1      -6.281  10.194  68.330  1.00  0.00    -0.048 A  
HETATM   22  C   UNL     1      -6.237  10.888  69.551  1.00  0.00    -0.073 A  
HETATM   23  C   UNL     1      -6.627  12.234  69.646  1.00  0.00    -0.020 A  
BRANCH  21  24
HETATM   24  C   UNL     1      -6.320   8.692  68.238  1.00  0.00    -0.055 A  
HETATM   25  C   UNL     1      -6.485   7.769  69.305  1.00  0.00    -0.036 A  
HETATM   26  C   UNL     1      -6.675   6.391  69.007  1.00  0.00    -0.053 A  
HETATM   27  C   UNL     1      -6.322   8.142  66.923  1.00  0.00    -0.056 A  
HETATM   28  C   UNL     1      -6.477   6.782  66.655  1.00  0.00    -0.043 A  
HETATM   29  C   UNL     1      -6.672   5.904  67.701  1.00  0.00    -0.058 A  
BRANCH  25  30
HETATM   30  C   UNL     1      -6.436   8.134  70.723  1.00  0.00    -0.037 A  
HETATM   31  N   UNL     1      -6.743   8.998  72.682  1.00  0.00    -0.313 NA 
HETATM   32  H   UNL     1      -7.989   9.508  71.013  1.00  0.00     0.000 HD 
HETATM   33  N   UNL     1      -5.701   8.194  72.828  1.00  0.00    -0.047 NA 
HETATM   34  N   UNL     1      -7.204   8.976  71.388  1.00  0.00    -0.240 NA 
HETATM   35  N   UNL     1      -5.508   7.659  71.617  1.00  0.00    -0.035 NA 
ENDBRANCH  25  30
ENDBRANCH  21  24
ENDBRANCH  17  18
ENDBRANCH   9  17
ENDBRANCH   3   4
ENDBRANCH   2   3
TORSDOF 6
ENDMDL
MODEL      265
REMARK 921   NORMALIZED FREE ENERGY PREDICTED BY IDOCK:   -3.07 KCAL/MOL
REMARK 922        TOTAL FREE ENERGY PREDICTED BY IDOCK:   -5.30 KCAL/MOL
REMARK 923 INTER-LIGAND FREE ENERGY PREDICTED BY IDOCK:   -4.24 KCAL/MOL
REMARK 924 INTRA-LIGAND FREE ENERGY PREDICTED BY IDOCK:   -1.06 KCAL/MOL
REMARK 927      BINDING AFFINITY PREDICTED BY RF-SCORE:    0.00 PKD
ROOT
HETATM    1  C   UNL     1      -7.922   6.684  63.271  1.00  0.00    -0.076 C  
HETATM    2  C   UNL     1      -6.706   6.785  64.184  1.00  0.00    -0.045 C  
ENDROOT
BRANCH   2   3
HETATM    3  C   UNL     1      -6.152   8.208  64.330  1.00  0.00    -0.065 C  
BRANCH   3   4
HETATM    4  C   UNL     1      -7.168   9.177  64.851  1.00  0.00    -0.097 A  
HETATM    5  N   UNL     1      -8.110   9.646  64.054  1.00  0.00    -0.141 NA 
HETATM    6  C   UNL     1      -8.795  10.606  64.744  1.00  0.00    -0.182 A  
HETATM    7  C   UNL     1      -9.905  11.383  64.068  1.00  0.00    -0.278 C  
HETATM    8  C   UNL     1      -8.246  10.755  66.015  1.00  0.00    -0.164 A  
HETATM    9  N   UNL     1      -7.289   9.727  66.117  1.00  0.00    -0.098 NA 
HETATM   10  O   UNL     1      -9.544  12.780  64.092  1.00  0.00    -0.561 OA 
HETATM   11  C   UNL     1     -11.240  11.246  64.810  1.00  0.00    -0.128 C  
HETATM   12  C   UNL     1     -10.125  10.975  62.602  1.00  0.00    -0.009 C  
HETATM   13  C   UNL     1      -8.552  11.696  67.067  1.00  0.00    -0.169 C  
HETATM   14  O   UNL     1      -8.997  12.894  66.626  1.00  0.00    -0.209 OA 
HETATM   15  O   UNL     1      -8.386  11.492  68.267  1.00  0.00    -0.140 OA 
HETATM   16  H   UNL     1     -10.240  13.268  63.667  1.00  0.00     0.000 HD 
BRANCH   9  17
HETATM   17  C   UNL     1      -6.599   9.450  67.401  1.00  0.00    -0.064 C  
BRANCH  17  18
HETATM   18  C   UNL     1      -7.201   8.428  68.327  1.00  0.00    -0.086 A  
HETATM   19  C   UNL     1      -6.503   7.993  69.457  1.00  0.00    -0.034 A  
HETATM   20  C   UNL     1      -6.930   6.852  70.150  1.00  0.00    -0.066 A  
HETATM   21  C   UNL     1      -8.028   6.079  69.710  1.00  0.00    -0.106 A  
HETATM   22  C   UNL     1      -8.828   6.662  68.714  1.00  0.00    -0.126 A  
HETATM   23  C   UNL     1      -8.435   7.834  68.047  1.00  0.00    -0.123 A  
BRANCH  21  24
HETATM   24  C   UNL     1      -8.150   4.637  70.126  1.00  0.00    -0.068 A  
HETATM   25  C   UNL     1      -8.649   4.137  71.360  1.00  0.00    -0.124 A  
HETATM   26  C   UNL     1      -8.855   2.738  71.509  1.00  0.00    -0.127 A  
HETATM   27  C   UNL     1      -7.857   3.665  69.126  1.00  0.00    -0.052 A  
HETATM   28  C   UNL     1      -8.036   2.294  69.305  1.00  0.00    -0.061 A  
HETATM   29  C   UNL     1      -8.554   1.828  70.496  1.00  0.00    -0.093 A  
BRANCH  25  30
HETATM   30  C   UNL     1      -8.936   4.972  72.529  1.00  0.00    -0.129 A  
HETATM   31  N   UNL     1      -8.965   5.944  74.461  1.00  0.00    -0.127 NA 
HETATM   32  H   UNL     1      -7.456   4.513  73.936  1.00  0.00     0.000 HD 
HETATM   33  N   UNL     1     -10.016   6.434  73.823  1.00  0.00    -0.209 NA 
HETATM   34  N   UNL     1      -8.292   5.036  73.678  1.00  0.00    -0.106 NA 
HETATM   35  N   UNL     1     -10.001   5.833  72.627  1.00  0.00    -0.175 NA 
ENDBRANCH  25  30
ENDBRANCH  21  24
ENDBRANCH  17  18
ENDBRANCH   9  17
ENDBRANCH   3   4
ENDBRANCH   2   3
TORSDOF 6
ENDMDL
MODEL      266
REMARK 921   NORMALIZED FREE ENERGY PREDICTED BY IDOCK:   -2.72 KCAL/MOL
REMARK 922        TOTAL FREE ENERGY PREDICTED BY IDOCK:   -4.82 KCAL/MOL
REMARK 923 INTER-LIGAND FREE ENERGY PREDICTED BY IDOCK:   -4.68 KCAL/MOL
REMARK 924 INTRA-LIGAND FREE ENERGY PREDICTED BY IDOCK:   -0.14 KCAL/MOL
REMARK 927      BINDING AFFINITY PREDICTED BY RF-SCORE:    0.00 PKD
ROOT
HETATM    1  C   UNL     1     -10.205  17.763  65.746  1.00  0.00    -0.144 C  
HETATM    2  C   UNL     1     -10.857  16.467  65.277  1.00  0.00    -0.233 C  
ENDROOT
BRANCH   2   3
HETATM    3  C   UNL     1     -10.807  15.335  66.311  1.00  0.00    -0.312 C  
BRANCH   3   4
HETATM    4  C   UNL     1      -9.509  15.287  67.058  1.00  0.00    -0.223 A  
HETATM    5  N   UNL     1      -8.536  16.124  66.754  1.00  0.00    -0.225 NA 
HETATM    6  C   UNL     1      -7.437  15.763  67.481  1.00  0.00    -0.172 A  
HETATM    7  C   UNL     1      -6.127  16.501  67.300  1.00  0.00    -0.169 C  
HETATM    8  C   UNL     1      -7.732  14.644  68.255  1.00  0.00    -0.123 A  
HETATM    9  N   UNL     1      -9.113  14.436  68.076  1.00  0.00    -0.181 NA 
HETATM   10  O   UNL     1      -5.139  15.546  66.859  1.00  0.00    -0.071 OA 
HETATM   11  C   UNL     1      -5.620  17.107  68.614  1.00  0.00    -0.135 C  
HETATM   12  C   UNL     1      -6.203  17.623  66.251  1.00  0.00    -0.272 C  
HETATM   13  C   UNL     1      -6.886  13.840  69.106  1.00  0.00    -0.102 C  
HETATM   14  O   UNL     1      -5.595  13.785  68.710  1.00  0.00    -0.079 OA 
HETATM   15  O   UNL     1      -7.271  13.197  70.080  1.00  0.00     0.587 OA 
HETATM   16  H   UNL     1      -4.318  16.009  66.745  1.00  0.00     0.000 HD 
BRANCH   9  17
HETATM   17  C   UNL     1      -9.843  13.423  68.879  1.00  0.00     0.087 C  
BRANCH  17  18
HETATM   18  C   UNL     1     -10.118  12.082  68.255  1.00  0.00    -0.201 A  
HETATM   19  C   UNL     1     -10.923  11.145  68.908  1.00  0.00    -0.276 A  
HETATM   20  C   UNL     1     -10.946   9.813  68.472  1.00  0.00    -0.195 A  
HETATM   21  C   UNL     1     -10.129   9.361  67.411  1.00  0.00    -0.271 A  
HETATM   22  C   UNL     1      -9.508  10.363  66.647  1.00  0.00    -0.199 A  
HETATM   23  C   UNL     1      -9.521  11.709  67.047  1.00  0.00    -0.191 A  
BRANCH  21  24
HETATM   24  C   UNL     1      -9.779   7.902  67.297  1.00  0.00    -0.230 A  
HETATM   25  C   UNL     1      -8.557   7.278  67.670  1.00  0.00    -0.126 A  
HETATM   26  C   UNL     1      -8.470   5.859  67.654  1.00  0.00    -0.103 A  
HETATM   27  C   UNL     1     -10.832   7.030  66.893  1.00  0.00    -0.350 A  
HETATM   28  C   UNL     1     -10.714   5.641  66.854  1.00  0.00    -0.350 A  
HETATM   29  C   UNL     1      -9.533   5.051  67.253  1.00  0.00    -0.149 A  
BRANCH  25  30
HETATM   30  C   UNL     1      -7.342   8.007  68.042  1.00  0.00    -0.096 A  
HETATM   31  N   UNL     1      -5.618   9.311  68.131  1.00  0.00    -0.038 NA 
HETATM   32  H   UNL     1      -7.021   9.399  66.511  1.00  0.00     0.000 HD 
HETATM   33  N   UNL     1      -5.529   8.560  69.217  1.00  0.00    -0.034 NA 
HETATM   34  N   UNL     1      -6.728   8.978  67.392  1.00  0.00    -0.069 NA 
HETATM   35  N   UNL     1      -6.594   7.752  69.164  1.00  0.00    -0.040 NA 
ENDBRANCH  25  30
ENDBRANCH  21  24
ENDBRANCH  17  18
ENDBRANCH   9  17
ENDBRANCH   3   4
ENDBRANCH   2   3
TORSDOF 6
ENDMDL
MODEL      267
REMARK 921   NORMALIZED FREE ENERGY PREDICTED BY IDOCK:   -2.50 KCAL/MOL
REMARK 922        TOTAL FREE ENERGY PREDICTED BY IDOCK:   -4.53 KCAL/MOL
REMARK 923 INTER-LIGAND FREE ENERGY PREDICTED BY IDOCK:   -4.00 KCAL/MOL
REMARK 924 INTRA-LIGAND FREE ENERGY PREDICTED BY IDOCK:   -0.53 KCAL/MOL
REMARK 927      BINDING AFFINITY PREDICTED BY RF-SCORE:    0.00 PKD
ROOT
HETATM    1  C   UNL     1      -6.896   6.338  65.360  1.00  0.00    -0.048 C  
HETATM    2  C   UNL     1      -8.373   6.617  65.609  1.00  0.00    -0.144 C  
ENDROOT
BRANCH   2   3
HETATM    3  C   UNL     1      -9.005   5.724  66.684  1.00  0.00    -0.123 C  
BRANCH   3   4
HETATM    4  C   UNL     1      -8.653   6.153  68.076  1.00  0.00    -0.115 A  
HETATM    5  N   UNL     1      -8.968   5.390  69.106  1.00  0.00    -0.103 NA 
HETATM    6  C   UNL     1      -8.663   6.085  70.242  1.00  0.00    -0.143 A  
HETATM    7  C   UNL     1      -8.975   5.495  71.602  1.00  0.00    -0.136 C  
HETATM    8  C   UNL     1      -8.158   7.339  69.907  1.00  0.00    -0.127 A  
HETATM    9  N   UNL     1      -8.026   7.310  68.505  1.00  0.00    -0.122 NA 
HETATM   10  O   UNL     1      -9.885   6.391  72.274  1.00  0.00    -0.159 OA 
HETATM   11  C   UNL     1      -7.723   5.376  72.480  1.00  0.00    -0.102 C  
HETATM   12  C   UNL     1      -9.642   4.112  71.525  1.00  0.00    -0.238 C  
HETATM   13  C   UNL     1      -7.789   8.458  70.742  1.00  0.00    -0.089 C  
HETATM   14  O   UNL     1      -8.502   8.553  71.887  1.00  0.00    -0.158 OA 
HETATM   15  O   UNL     1      -6.951   9.308  70.453  1.00  0.00    -0.062 OA 
HETATM   16  H   UNL     1     -10.081   6.021  73.127  1.00  0.00     0.000 HD 
BRANCH   9  17
HETATM   17  C   UNL     1      -7.355   8.417  67.779  1.00  0.00    -0.093 C  
BRANCH  17  18
HETATM   18  C   UNL     1      -8.193   9.575  67.311  1.00  0.00    -0.114 A  
HETATM   19  C   UNL     1      -7.596  10.782  66.938  1.00  0.00    -0.123 A  
HETATM   20  C   UNL     1      -8.379  11.934  66.780  1.00  0.00    -0.153 A  
HETATM   21  C   UNL     1      -9.767  11.934  67.042  1.00  0.00    -0.204 A  
HETATM   22  C   UNL     1     -10.362  10.672  67.198  1.00  0.00    -0.275 A  
HETATM   23  C   UNL     1      -9.590   9.503  67.307  1.00  0.00    -0.192 A  
BRANCH  21  24
HETATM   24  C   UNL     1     -10.473  13.223  67.368  1.00  0.00    -0.243 A  
HETATM   25  C   UNL     1     -11.286  13.496  68.502  1.00  0.00    -0.310 A  
HETATM   26  C   UNL     1     -11.728  14.828  68.734  1.00  0.00    -0.354 A  
HETATM   27  C   UNL     1     -10.191  14.330  66.516  1.00  0.00    -0.277 A  
HETATM   28  C   UNL     1     -10.663  15.622  66.745  1.00  0.00    -0.300 A  
HETATM   29  C   UNL     1     -11.421  15.877  67.869  1.00  0.00    -0.187 A  
BRANCH  25  30
HETATM   30  C   UNL     1     -11.743  12.477  69.450  1.00  0.00    -0.322 A  
HETATM   31  N   UNL     1     -11.916  10.951  70.973  1.00  0.00    -0.309 NA 
HETATM   32  H   UNL     1     -10.052  11.927  70.555  1.00  0.00     0.000 HD 
HETATM   33  N   UNL     1     -13.133  11.056  70.463  1.00  0.00    -0.079 NA 
HETATM   34  N   UNL     1     -11.046  11.816  70.354  1.00  0.00     0.564 NA 
HETATM   35  N   UNL     1     -13.029  11.999  69.519  1.00  0.00     0.837 NA 
ENDBRANCH  25  30
ENDBRANCH  21  24
ENDBRANCH  17  18
ENDBRANCH   9  17
ENDBRANCH   3   4
ENDBRANCH   2   3
TORSDOF 6
ENDMDL
MODEL      268
REMARK 921   NORMALIZED FREE ENERGY PREDICTED BY IDOCK:   -2.26 KCAL/MOL
REMARK 922        TOTAL FREE ENERGY PREDICTED BY IDOCK:   -4.20 KCAL/MOL
REMARK 923 INTER-LIGAND FREE ENERGY PREDICTED BY IDOCK:   -4.71 KCAL/MOL
REMARK 924 INTRA-LIGAND FREE ENERGY PREDICTED BY IDOCK:    0.50 KCAL/MOL
REMARK 927      BINDING AFFINITY PREDICTED BY RF-SCORE:    0.00 PKD
ROOT
HETATM    1  C   UNL     1      -7.693   7.284  66.124  1.00  0.00    -0.101 C  
HETATM    2  C   UNL     1      -9.163   7.542  65.812  1.00  0.00     0.043 C  
ENDROOT
BRANCH   2   3
HETATM    3  C   UNL     1     -10.137   6.818  66.750  1.00  0.00    -0.250 C  
BRANCH   3   4
HETATM    4  C   UNL     1     -10.339   7.540  68.046  1.00  0.00    -0.204 A  
HETATM    5  N   UNL     1     -11.075   7.001  69.000  1.00  0.00    -0.128 NA 
HETATM    6  C   UNL     1     -11.207   7.928  69.995  1.00  0.00    -0.100 A  
HETATM    7  C   UNL     1     -12.060   7.626  71.209  1.00  0.00    -0.314 C  
HETATM    8  C   UNL     1     -10.545   9.100  69.637  1.00  0.00    -0.228 A  
HETATM    9  N   UNL     1      -9.873   8.783  68.441  1.00  0.00    -0.166 NA 
HETATM   10  O   UNL     1     -13.114   8.611  71.265  1.00  0.00    -0.470 OA 
HETATM   11  C   UNL     1     -11.264   7.736  72.515  1.00  0.00    -0.419 C  
HETATM   12  C   UNL     1     -12.715   6.235  71.160  1.00  0.00     0.489 C  
HETATM   13  C   UNL     1     -10.477  10.381  70.300  1.00  0.00    -0.048 C  
HETATM   14  O   UNL     1     -11.578  10.689  71.023  1.00  0.00    -0.299 OA 
HETATM   15  O   UNL     1      -9.550  11.180  70.200  1.00  0.00     1.042 OA 
HETATM   16  H   UNL     1     -13.649   8.422  72.027  1.00  0.00     0.000 HD 
BRANCH   9  17
HETATM   17  C   UNL     1      -8.912   9.735  67.830  1.00  0.00    -0.128 C  
BRANCH  17  18
HETATM   18  C   UNL     1      -9.452  11.003  67.227  1.00  0.00    -0.179 A  
HETATM   19  C   UNL     1      -8.599  11.905  66.585  1.00  0.00    -0.163 A  
HETATM   20  C   UNL     1      -9.044  13.199  66.281  1.00  0.00     0.009 A  
HETATM   21  C   UNL     1     -10.329  13.653  66.656  1.00  0.00    -0.275 A  
HETATM   22  C   UNL     1     -11.224  12.665  67.097  1.00  0.00    -0.348 A  
HETATM   23  C   UNL     1     -10.800  11.351  67.356  1.00  0.00    -0.301 A  
BRANCH  21  24
HETATM   24  C   UNL     1     -10.597  15.128  66.795  1.00  0.00    -0.298 A  
HETATM   25  C   UNL     1     -11.040  15.817  67.956  1.00  0.00    -0.337 A  
HETATM   26  C   UNL     1     -11.070  17.239  67.950  1.00  0.00    -0.053 A  
HETATM   27  C   UNL     1     -10.243  15.940  65.678  1.00  0.00    -0.406 A  
HETATM   28  C   UNL     1     -10.312  17.333  65.683  1.00  0.00    -0.185 A  
HETATM   29  C   UNL     1     -10.710  17.987  66.830  1.00  0.00    -0.214 A  
BRANCH  25  30
HETATM   30  C   UNL     1     -11.515  15.154  69.173  1.00  0.00    -0.306 A  
HETATM   31  N   UNL     1     -11.712  14.085  71.043  1.00  0.00    -0.125 NA 
HETATM   32  H   UNL     1      -9.795  14.551  70.202  1.00  0.00     0.000 HD 
HETATM   33  N   UNL     1     -12.956  14.308  70.651  1.00  0.00    -0.313 NA 
HETATM   34  N   UNL     1     -10.811  14.595  70.139  1.00  0.00    -0.083 NA 
HETATM   35  N   UNL     1     -12.837  14.969  69.493  1.00  0.00     0.148 NA 
ENDBRANCH  25  30
ENDBRANCH  21  24
ENDBRANCH  17  18
ENDBRANCH   9  17
ENDBRANCH   3   4
ENDBRANCH   2   3
TORSDOF 6
ENDMDL
MODEL      269
REMARK 921   NORMALIZED FREE ENERGY PREDICTED BY IDOCK:   -2.23 KCAL/MOL
REMARK 922        TOTAL FREE ENERGY PREDICTED BY IDOCK:   -4.16 KCAL/MOL
REMARK 923 INTER-LIGAND FREE ENERGY PREDICTED BY IDOCK:   -3.09 KCAL/MOL
REMARK 924 INTRA-LIGAND FREE ENERGY PREDICTED BY IDOCK:   -1.07 KCAL/MOL
REMARK 927      BINDING AFFINITY PREDICTED BY RF-SCORE:    0.00 PKD
ROOT
HETATM    1  C   UNL     1     -11.207  12.412  64.407  1.00  0.00    -0.384 C  
HETATM    2  C   UNL     1     -11.348  12.454  65.924  1.00  0.00    -0.399 C  
ENDROOT
BRANCH   2   3
HETATM    3  C   UNL     1     -10.012  12.394  66.677  1.00  0.00    -0.236 C  
BRANCH   3   4
HETATM    4  C   UNL     1      -9.615  13.715  67.261  1.00  0.00    -0.238 A  
HETATM    5  N   UNL     1     -10.525  14.647  67.477  1.00  0.00    -0.246 NA 
HETATM    6  C   UNL     1      -9.871  15.780  67.870  1.00  0.00    -0.217 A  
HETATM    7  C   UNL     1     -10.646  17.055  68.130  1.00  0.00    -0.369 C  
HETATM    8  C   UNL     1      -8.497  15.551  67.880  1.00  0.00    -0.143 A  
HETATM    9  N   UNL     1      -8.360  14.174  67.622  1.00  0.00    -0.169 NA 
HETATM   10  O   UNL     1     -10.154  18.064  67.223  1.00  0.00    -0.313 OA 
HETATM   11  C   UNL     1     -10.432  17.580  69.555  1.00  0.00     0.105 C  
HETATM   12  C   UNL     1     -12.158  16.904  67.895  1.00  0.00     1.512 C  
HETATM   13  C   UNL     1      -7.396  16.453  68.126  1.00  0.00    -0.148 C  
HETATM   14  O   UNL     1      -7.637  17.733  67.762  1.00  0.00    -0.205 OA 
HETATM   15  O   UNL     1      -6.300  16.123  68.571  1.00  0.00    -0.112 OA 
HETATM   16  H   UNL     1     -10.640  18.864  67.386  1.00  0.00     0.000 HD 
BRANCH   9  17
HETATM   17  C   UNL     1      -7.037  13.508  67.718  1.00  0.00    -0.159 C  
BRANCH  17  18
HETATM   18  C   UNL     1      -7.002  12.027  67.975  1.00  0.00    -0.084 A  
HETATM   19  C   UNL     1      -6.230  11.182  67.172  1.00  0.00    -0.083 A  
HETATM   20  C   UNL     1      -6.418   9.794  67.229  1.00  0.00    -0.069 A  
HETATM   21  C   UNL     1      -7.414   9.208  68.042  1.00  0.00    -0.084 A  
HETATM   22  C   UNL     1      -8.012  10.058  68.987  1.00  0.00    -0.108 A  
HETATM   23  C   UNL     1      -7.792  11.445  68.972  1.00  0.00    -0.043 A  
BRANCH  21  24
HETATM   24  C   UNL     1      -7.941   7.836  67.719  1.00  0.00    -0.124 A  
HETATM   25  C   UNL     1      -7.829   6.662  68.514  1.00  0.00    -0.110 A  
HETATM   26  C   UNL     1      -8.543   5.494  68.129  1.00  0.00    -0.100 A  
HETATM   27  C   UNL     1      -8.751   7.730  66.552  1.00  0.00    -0.162 A  
HETATM   28  C   UNL     1      -9.416   6.563  66.175  1.00  0.00    -0.067 A  
HETATM   29  C   UNL     1      -9.326   5.444  66.977  1.00  0.00    -0.121 A  
BRANCH  25  30
HETATM   30  C   UNL     1      -6.985   6.554  69.706  1.00  0.00    -0.067 A  
HETATM   31  N   UNL     1      -5.405   6.179  71.135  1.00  0.00    -0.017 NA 
HETATM   32  H   UNL     1      -5.156   5.781  69.042  1.00  0.00     0.000 HD 
HETATM   33  N   UNL     1      -6.409   6.646  71.859  1.00  0.00    -0.045 NA 
HETATM   34  N   UNL     1      -5.746   6.111  69.805  1.00  0.00    -0.013 NA 
HETATM   35  N   UNL     1      -7.389   6.878  70.978  1.00  0.00    -0.076 NA 
ENDBRANCH  25  30
ENDBRANCH  21  24
ENDBRANCH  17  18
ENDBRANCH   9  17
ENDBRANCH   3   4
ENDBRANCH   2   3
TORSDOF 6
ENDMDL
MODEL      270
REMARK 921   NORMALIZED FREE ENERGY PREDICTED BY IDOCK:   -2.10 KCAL/MOL
REMARK 922        TOTAL FREE ENERGY PREDICTED BY IDOCK:   -3.99 KCAL/MOL
REMARK 923 INTER-LIGAND FREE ENERGY PREDICTED BY IDOCK:   -3.75 KCAL/MOL
REMARK 924 INTRA-LIGAND FREE ENERGY PREDICTED BY IDOCK:   -0.24 KCAL/MOL
REMARK 927      BINDING AFFINITY PREDICTED BY RF-SCORE:    0.00 PKD
ROOT
HETATM    1  C   UNL     1      -6.690  14.586  68.208  1.00  0.00    -0.116 C  
HETATM    2  C   UNL     1      -7.018  13.838  66.921  1.00  0.00     0.979 C  
ENDROOT
BRANCH   2   3
HETATM    3  C   UNL     1      -8.517  13.585  66.711  1.00  0.00     0.013 C  
BRANCH   3   4
HETATM    4  C   UNL     1      -9.379  14.585  67.418  1.00  0.00    -0.197 A  
HETATM    5  N   UNL     1      -9.095  15.872  67.352  1.00  0.00    -0.194 NA 
HETATM    6  C   UNL     1      -9.947  16.527  68.196  1.00  0.00    -0.248 A  
HETATM    7  C   UNL     1      -9.824  18.023  68.392  1.00  0.00    -0.366 C  
HETATM    8  C   UNL     1     -10.782  15.608  68.829  1.00  0.00    -0.250 A  
HETATM    9  N   UNL     1     -10.497  14.377  68.209  1.00  0.00    -0.239 NA 
HETATM   10  O   UNL     1      -9.556  18.266  69.789  1.00  0.00     0.467 OA 
HETATM   11  C   UNL     1     -11.124  18.759  68.044  1.00  0.00     0.202 C  
HETATM   12  C   UNL     1      -8.683  18.650  67.574  1.00  0.00    -0.284 C  
HETATM   13  C   UNL     1     -11.770  15.795  69.865  1.00  0.00    -0.357 C  
HETATM   14  O   UNL     1     -11.498  16.813  70.712  1.00  0.00    -0.043 OA 
HETATM   15  O   UNL     1     -12.755  15.082  70.039  1.00  0.00    -0.261 OA 
HETATM   16  H   UNL     1      -9.478  19.205  69.912  1.00  0.00     0.000 HD 
BRANCH   9  17
HETATM   17  C   UNL     1     -11.312  13.170  68.498  1.00  0.00    -0.286 C  
BRANCH  17  18
HETATM   18  C   UNL     1     -10.639  11.996  69.154  1.00  0.00    -0.067 A  
HETATM   19  C   UNL     1      -9.272  11.766  68.974  1.00  0.00     0.220 A  
HETATM   20  C   UNL     1      -8.712  10.535  69.342  1.00  0.00    -0.093 A  
HETATM   21  C   UNL     1      -9.501   9.477  69.846  1.00  0.00    -0.247 A  
HETATM   22  C   UNL     1     -10.813   9.814  70.215  1.00  0.00    -0.356 A  
HETATM   23  C   UNL     1     -11.370  11.063  69.897  1.00  0.00    -0.364 A  
BRANCH  21  24
HETATM   24  C   UNL     1      -9.012   8.057  69.746  1.00  0.00    -0.145 A  
HETATM   25  C   UNL     1      -8.644   7.196  70.815  1.00  0.00    -0.146 A  
HETATM   26  C   UNL     1      -8.373   5.827  70.542  1.00  0.00    -0.119 A  
HETATM   27  C   UNL     1      -9.044   7.469  68.448  1.00  0.00    -0.133 A  
HETATM   28  C   UNL     1      -8.743   6.130  68.198  1.00  0.00    -0.114 A  
HETATM   29  C   UNL     1      -8.422   5.300  69.252  1.00  0.00    -0.101 A  
BRANCH  25  30
HETATM   30  C   UNL     1      -8.483   7.633  72.204  1.00  0.00    -0.114 A  
HETATM   31  N   UNL     1      -8.751   8.168  74.283  1.00  0.00    -0.096 NA 
HETATM   32  H   UNL     1     -10.338   7.311  73.122  1.00  0.00     0.000 HD 
HETATM   33  N   UNL     1      -7.499   8.500  74.009  1.00  0.00    -0.371 NA 
HETATM   34  N   UNL     1      -9.373   7.638  73.178  1.00  0.00    -0.207 NA 
HETATM   35  N   UNL     1      -7.331   8.171  72.723  1.00  0.00    -0.114 NA 
ENDBRANCH  25  30
ENDBRANCH  21  24
ENDBRANCH  17  18
ENDBRANCH   9  17
ENDBRANCH   3   4
ENDBRANCH   2   3
TORSDOF 6
ENDMDL
MODEL      271
REMARK 921   NORMALIZED FREE ENERGY PREDICTED BY IDOCK:   -1.62 KCAL/MOL
REMARK 922        TOTAL FREE ENERGY PREDICTED BY IDOCK:   -3.35 KCAL/MOL
REMARK 923 INTER-LIGAND FREE ENERGY PREDICTED BY IDOCK:   -3.04 KCAL/MOL
REMARK 924 INTRA-LIGAND FREE ENERGY PREDICTED BY IDOCK:   -0.31 KCAL/MOL
REMARK 927      BINDING AFFINITY PREDICTED BY RF-SCORE:    0.00 PKD
ROOT
HETATM    1  C   UNL     1      -7.923   6.561  63.306  1.00  0.00    -0.081 C  
HETATM    2  C   UNL     1      -6.715   6.526  64.235  1.00  0.00    -0.038 C  
ENDROOT
BRANCH   2   3
HETATM    3  C   UNL     1      -6.092   7.903  64.501  1.00  0.00    -0.048 C  
BRANCH   3   4
HETATM    4  C   UNL     1      -7.114   8.947  64.835  1.00  0.00    -0.083 A  
HETATM    5  N   UNL     1      -8.079   9.230  63.981  1.00  0.00    -0.141 NA 
HETATM    6  C   UNL     1      -8.765  10.304  64.474  1.00  0.00    -0.192 A  
HETATM    7  C   UNL     1      -9.901  10.912  63.678  1.00  0.00    -0.351 C  
HETATM    8  C   UNL     1      -8.192  10.719  65.673  1.00  0.00    -0.127 A  
HETATM    9  N   UNL     1      -7.216   9.746  65.962  1.00  0.00    -0.098 NA 
HETATM   10  O   UNL     1      -9.562  12.288  63.404  1.00  0.00    -0.663 OA 
HETATM   11  C   UNL     1     -11.218  10.915  64.464  1.00  0.00     0.302 C  
HETATM   12  C   UNL     1     -10.146  10.207  62.333  1.00  0.00     0.654 C  
HETATM   13  C   UNL     1      -8.492  11.853  66.515  1.00  0.00    -0.097 C  
HETATM   14  O   UNL     1      -8.965  12.929  65.846  1.00  0.00     0.147 OA 
HETATM   15  O   UNL     1      -8.297  11.905  67.727  1.00  0.00    -0.134 OA 
HETATM   16  H   UNL     1     -10.275  12.669  62.905  1.00  0.00     0.000 HD 
BRANCH   9  17
HETATM   17  C   UNL     1      -6.496   9.748  67.259  1.00  0.00    -0.069 C  
BRANCH  17  18
HETATM   18  C   UNL     1      -7.116   9.019  68.420  1.00  0.00    -0.076 A  
HETATM   19  C   UNL     1      -7.418   9.695  69.606  1.00  0.00    -0.102 A  
HETATM   20  C   UNL     1      -7.723   8.973  70.767  1.00  0.00    -0.144 A  
HETATM   21  C   UNL     1      -7.683   7.561  70.801  1.00  0.00    -0.083 A  
HETATM   22  C   UNL     1      -7.594   6.921  69.554  1.00  0.00    -0.099 A  
HETATM   23  C   UNL     1      -7.338   7.639  68.374  1.00  0.00    -0.095 A  
BRANCH  21  24
HETATM   24  C   UNL     1      -7.501   6.841  72.110  1.00  0.00    -0.093 A  
HETATM   25  C   UNL     1      -8.517   6.425  73.012  1.00  0.00    -0.120 A  
HETATM   26  C   UNL     1      -8.169   5.601  74.118  1.00  0.00    -0.108 A  
HETATM   27  C   UNL     1      -6.175   6.417  72.418  1.00  0.00    -0.049 A  
HETATM   28  C   UNL     1      -5.851   5.636  73.527  1.00  0.00    -0.036 A  
HETATM   29  C   UNL     1      -6.855   5.211  74.372  1.00  0.00    -0.077 A  
BRANCH  25  30
HETATM   30  C   UNL     1      -9.924   6.821  72.905  1.00  0.00    -0.174 A  
HETATM   31  N   UNL     1     -11.902   7.647  73.195  1.00  0.00    -0.022 NA 
HETATM   32  H   UNL     1     -10.282   8.095  74.528  1.00  0.00     0.000 HD 
HETATM   33  N   UNL     1     -12.008   6.892  72.113  1.00  0.00    -0.288 NA 
HETATM   34  N   UNL     1     -10.624   7.609  73.699  1.00  0.00    -0.236 NA 
HETATM   35  N   UNL     1     -10.785   6.379  71.932  1.00  0.00    -0.218 NA 
ENDBRANCH  25  30
ENDBRANCH  21  24
ENDBRANCH  17  18
ENDBRANCH   9  17
ENDBRANCH   3   4
ENDBRANCH   2   3
TORSDOF 6
ENDMDL
MODEL      272
REMARK 921   NORMALIZED FREE ENERGY PREDICTED BY IDOCK:    0.05 KCAL/MOL
REMARK 922        TOTAL FREE ENERGY PREDICTED BY IDOCK:   -1.09 KCAL/MOL
REMARK 923 INTER-LIGAND FREE ENERGY PREDICTED BY IDOCK:   -1.93 KCAL/MOL
REMARK 924 INTRA-LIGAND FREE ENERGY PREDICTED BY IDOCK:    0.84 KCAL/MOL
REMARK 927      BINDING AFFINITY PREDICTED BY RF-SCORE:    0.00 PKD
ROOT
HETATM    1  C   UNL     1     -11.263   9.224  66.751  1.00  0.00     0.878 C  
HETATM    2  C   UNL     1     -10.615   8.300  67.775  1.00  0.00    -0.236 C  
ENDROOT
BRANCH   2   3
HETATM    3  C   UNL     1      -9.842   7.127  67.156  1.00  0.00    -0.235 C  
BRANCH   3   4
HETATM    4  C   UNL     1      -9.040   6.364  68.166  1.00  0.00    -0.113 A  
HETATM    5  N   UNL     1      -8.201   5.424  67.774  1.00  0.00    -0.100 NA 
HETATM    6  C   UNL     1      -7.723   4.804  68.894  1.00  0.00    -0.072 A  
HETATM    7  C   UNL     1      -6.781   3.625  68.769  1.00  0.00    -0.045 C  
HETATM    8  C   UNL     1      -8.304   5.367  70.028  1.00  0.00    -0.107 A  
HETATM    9  N   UNL     1      -9.042   6.465  69.547  1.00  0.00    -0.138 NA 
HETATM   10  O   UNL     1      -7.409   2.488  69.398  1.00  0.00    -0.044 OA 
HETATM   11  C   UNL     1      -5.452   3.870  69.494  1.00  0.00    -0.016 C  
HETATM   12  C   UNL     1      -6.470   3.249  67.311  1.00  0.00    -0.037 C  
HETATM   13  C   UNL     1      -8.198   4.998  71.420  1.00  0.00    -0.113 C  
HETATM   14  O   UNL     1      -7.992   3.678  71.629  1.00  0.00    -0.060 OA 
HETATM   15  O   UNL     1      -8.334   5.768  72.367  1.00  0.00    -0.117 OA 
HETATM   16  H   UNL     1      -6.818   1.749  69.319  1.00  0.00     0.000 HD 
BRANCH   9  17
HETATM   17  C   UNL     1      -9.676   7.427  70.482  1.00  0.00    -0.175 C  
BRANCH  17  18
HETATM   18  C   UNL     1      -9.434   8.896  70.266  1.00  0.00    -0.212 A  
HETATM   19  C   UNL     1     -10.506   9.780  70.116  1.00  0.00    -0.338 A  
HETATM   20  C   UNL     1     -10.284  11.079  69.638  1.00  0.00     0.070 A  
HETATM   21  C   UNL     1      -9.001  11.519  69.241  1.00  0.00     0.422 A  
HETATM   22  C   UNL     1      -7.928  10.690  69.608  1.00  0.00    -0.017 A  
HETATM   23  C   UNL     1      -8.138   9.406  70.137  1.00  0.00    -0.167 A  
BRANCH  21  24
HETATM   24  C   UNL     1      -8.861  12.670  68.281  1.00  0.00    -0.172 A  
HETATM   25  C   UNL     1      -8.748  12.602  66.866  1.00  0.00    -0.175 A  
HETATM   26  C   UNL     1      -8.802  13.804  66.107  1.00  0.00     0.372 A  
HETATM   27  C   UNL     1      -8.987  13.975  68.840  1.00  0.00     0.059 A  
HETATM   28  C   UNL     1      -9.005  15.144  68.079  1.00  0.00    -0.172 A  
HETATM   29  C   UNL     1      -8.929  15.057  66.704  1.00  0.00    -0.313 A  
BRANCH  25  30
HETATM   30  C   UNL     1      -8.537  11.361  66.117  1.00  0.00    -0.128 A  
HETATM   31  N   UNL     1      -8.021   9.366  65.459  1.00  0.00    -0.108 NA 
HETATM   32  H   UNL     1      -7.749   9.992  67.492  1.00  0.00     0.000 HD 
HETATM   33  N   UNL     1      -8.473   9.973  64.372  1.00  0.00    -0.161 NA 
HETATM   34  N   UNL     1      -8.049  10.211  66.542  1.00  0.00    -0.119 NA 
HETATM   35  N   UNL     1      -8.791  11.208  64.777  1.00  0.00    -0.034 NA 
ENDBRANCH  25  30
ENDBRANCH  21  24
ENDBRANCH  17  18
ENDBRANCH   9  17
ENDBRANCH   3   4
ENDBRANCH   2   3
TORSDOF 6
ENDMDL
MODEL      273
REMARK 921   NORMALIZED FREE ENERGY PREDICTED BY IDOCK:    0.66 KCAL/MOL
REMARK 922        TOTAL FREE ENERGY PREDICTED BY IDOCK:   -0.26 KCAL/MOL
REMARK 923 INTER-LIGAND FREE ENERGY PREDICTED BY IDOCK:    0.49 KCAL/MOL
REMARK 924 INTRA-LIGAND FREE ENERGY PREDICTED BY IDOCK:   -0.75 KCAL/MOL
REMARK 927      BINDING AFFINITY PREDICTED BY RF-SCORE:    0.00 PKD
ROOT
HETATM    1  C   UNL     1     -12.749  18.529  67.677  1.00  0.00     6.085 C  
HETATM    2  C   UNL     1     -11.282  18.304  67.332  1.00  0.00     0.308 C  
ENDROOT
BRANCH   2   3
HETATM    3  C   UNL     1     -10.322  19.285  68.018  1.00  0.00    -0.506 C  
BRANCH   3   4
HETATM    4  C   UNL     1      -8.911  19.150  67.534  1.00  0.00    -0.295 A  
HETATM    5  N   UNL     1      -8.478  19.893  66.532  1.00  0.00    -0.330 NA 
HETATM    6  C   UNL     1      -7.222  19.462  66.211  1.00  0.00    -0.254 A  
HETATM    7  C   UNL     1      -6.480  20.082  65.045  1.00  0.00    -0.289 C  
HETATM    8  C   UNL     1      -6.865  18.396  67.032  1.00  0.00    -0.190 A  
HETATM    9  N   UNL     1      -7.909  18.300  67.972  1.00  0.00    -0.258 NA 
HETATM   10  O   UNL     1      -6.199  19.033  64.093  1.00  0.00    -0.446 OA 
HETATM   11  C   UNL     1      -5.134  20.682  65.471  1.00  0.00    -0.213 C  
HETATM   12  C   UNL     1      -7.287  21.173  64.323  1.00  0.00     0.841 C  
HETATM   13  C   UNL     1      -5.695  17.550  67.019  1.00  0.00    -0.147 C  
HETATM   14  O   UNL     1      -5.153  17.374  65.793  1.00  0.00    -0.308 OA 
HETATM   15  O   UNL     1      -5.230  16.972  67.998  1.00  0.00    -0.114 OA 
HETATM   16  H   UNL     1      -5.733  19.421  63.362  1.00  0.00     0.000 HD 
BRANCH   9  17
HETATM   17  C   UNL     1      -7.811  17.378  69.131  1.00  0.00    -0.024 C  
BRANCH  17  18
HETATM   18  C   UNL     1      -8.165  15.931  68.921  1.00  0.00    -0.213 A  
HETATM   19  C   UNL     1      -7.204  15.021  68.472  1.00  0.00    -0.115 A  
HETATM   20  C   UNL     1      -7.595  13.756  68.010  1.00  0.00    -0.145 A  
HETATM   21  C   UNL     1      -8.955  13.380  67.928  1.00  0.00    -0.201 A  
HETATM   22  C   UNL     1      -9.865  14.223  68.586  1.00  0.00    -0.228 A  
HETATM   23  C   UNL     1      -9.474  15.471  69.098  1.00  0.00    -0.246 A  
BRANCH  21  24
HETATM   24  C   UNL     1      -9.379  12.285  66.986  1.00  0.00    -0.205 A  
HETATM   25  C   UNL     1      -9.449  10.892  67.262  1.00  0.00    -0.176 A  
HETATM   26  C   UNL     1     -10.041  10.024  66.304  1.00  0.00    -0.310 A  
HETATM   27  C   UNL     1      -9.890  12.702  65.723  1.00  0.00    -0.236 A  
HETATM   28  C   UNL     1     -10.437  11.828  64.784  1.00  0.00    -0.341 A  
HETATM   29  C   UNL     1     -10.530  10.485  65.082  1.00  0.00    -0.225 A  
BRANCH  25  30
HETATM   30  C   UNL     1      -8.909  10.266  68.471  1.00  0.00    -0.127 A  
HETATM   31  N   UNL     1      -7.662   9.394  70.009  1.00  0.00    -0.105 NA 
HETATM   32  H   UNL     1      -6.830  10.255  68.229  1.00  0.00     0.000 HD 
HETATM   33  N   UNL     1      -8.900   9.236  70.450  1.00  0.00    -0.216 NA 
HETATM   34  N   UNL     1      -7.652  10.022  68.787  1.00  0.00    -0.080 NA 
HETATM   35  N   UNL     1      -9.674   9.774  69.500  1.00  0.00    -0.199 NA 
ENDBRANCH  25  30
ENDBRANCH  21  24
ENDBRANCH  17  18
ENDBRANCH   9  17
ENDBRANCH   3   4
ENDBRANCH   2   3
TORSDOF 6
ENDMDL
MODEL      274
REMARK 921   NORMALIZED FREE ENERGY PREDICTED BY IDOCK:    0.90 KCAL/MOL
REMARK 922        TOTAL FREE ENERGY PREDICTED BY IDOCK:    0.06 KCAL/MOL
REMARK 923 INTER-LIGAND FREE ENERGY PREDICTED BY IDOCK:    0.76 KCAL/MOL
REMARK 924 INTRA-LIGAND FREE ENERGY PREDICTED BY IDOCK:   -0.69 KCAL/MOL
REMARK 927      BINDING AFFINITY PREDICTED BY RF-SCORE:    0.00 PKD
ROOT
HETATM    1  C   UNL     1      -5.755  15.700  67.590  1.00  0.00    -0.133 C  
HETATM    2  C   UNL     1      -6.493  15.864  66.267  1.00  0.00     1.845 C  
ENDROOT
BRANCH   2   3
HETATM    3  C   UNL     1      -7.961  15.421  66.313  1.00  0.00     0.533 C  
BRANCH   3   4
HETATM    4  C   UNL     1      -8.786  16.242  67.256  1.00  0.00    -0.188 A  
HETATM    5  N   UNL     1      -8.548  17.533  67.397  1.00  0.00    -0.218 NA 
HETATM    6  C   UNL     1      -9.339  17.990  68.413  1.00  0.00    -0.300 A  
HETATM    7  C   UNL     1      -9.244  19.434  68.860  1.00  0.00    -0.339 C  
HETATM    8  C   UNL     1     -10.085  16.938  68.940  1.00  0.00    -0.297 A  
HETATM    9  N   UNL     1      -9.820  15.848  68.089  1.00  0.00    -0.213 NA 
HETATM   10  O   UNL     1      -8.857  19.441  70.251  1.00  0.00     1.008 OA 
HETATM   11  C   UNL     1     -10.592  20.159  68.760  1.00  0.00     0.045 C  
HETATM   12  C   UNL     1      -8.202  20.246  68.074  1.00  0.00    -0.132 C  
HETATM   13  C   UNL     1     -10.979  16.895  70.072  1.00  0.00     0.156 C  
HETATM   14  O   UNL     1     -10.663  17.762  71.061  1.00  0.00     1.306 OA 
HETATM   15  O   UNL     1     -11.922  16.119  70.198  1.00  0.00    -0.254 OA 
HETATM   16  H   UNL     1      -8.798  20.346  70.532  1.00  0.00     0.000 HD 
BRANCH   9  17
HETATM   17  C   UNL     1     -10.568  14.574  68.226  1.00  0.00    -0.241 C  
BRANCH  17  18
HETATM   18  C   UNL     1      -9.817  13.350  68.675  1.00  0.00    -0.116 A  
HETATM   19  C   UNL     1      -8.426  13.380  68.815  1.00  0.00     0.103 A  
HETATM   20  C   UNL     1      -7.708  12.184  68.953  1.00  0.00     0.036 A  
HETATM   21  C   UNL     1      -8.343  10.923  68.899  1.00  0.00    -0.139 A  
HETATM   22  C   UNL     1      -9.745  10.938  68.979  1.00  0.00    -0.181 A  
HETATM   23  C   UNL     1     -10.474  12.135  68.893  1.00  0.00    -0.142 A  
BRANCH  21  24
HETATM   24  C   UNL     1      -7.551   9.695  68.534  1.00  0.00    -0.080 A  
HETATM   25  C   UNL     1      -7.634   8.408  69.132  1.00  0.00    -0.087 A  
HETATM   26  C   UNL     1      -6.935   7.321  68.538  1.00  0.00    -0.079 A  
HETATM   27  C   UNL     1      -6.723   9.800  67.379  1.00  0.00    -0.074 A  
HETATM   28  C   UNL     1      -6.020   8.726  66.832  1.00  0.00    -0.057 A  
HETATM   29  C   UNL     1      -6.140   7.477  67.404  1.00  0.00    -0.048 A  
BRANCH  25  30
HETATM   30  C   UNL     1      -8.373   8.121  70.364  1.00  0.00    -0.120 A  
HETATM   31  N   UNL     1      -9.628   7.284  71.915  1.00  0.00    -0.149 NA 
HETATM   32  H   UNL     1      -9.313   6.277  70.047  1.00  0.00     0.000 HD 
HETATM   33  N   UNL     1      -9.200   8.434  72.411  1.00  0.00    -0.257 NA 
HETATM   34  N   UNL     1      -9.131   7.079  70.650  1.00  0.00    -0.158 NA 
HETATM   35  N   UNL     1      -8.425   8.955  71.453  1.00  0.00    -0.272 NA 
ENDBRANCH  25  30
ENDBRANCH  21  24
ENDBRANCH  17  18
ENDBRANCH   9  17
ENDBRANCH   3   4
ENDBRANCH   2   3
TORSDOF 6
ENDMDL
MODEL      275
REMARK 921   NORMALIZED FREE ENERGY PREDICTED BY IDOCK:    0.97 KCAL/MOL
REMARK 922        TOTAL FREE ENERGY PREDICTED BY IDOCK:    0.16 KCAL/MOL
REMARK 923 INTER-LIGAND FREE ENERGY PREDICTED BY IDOCK:    0.04 KCAL/MOL
REMARK 924 INTRA-LIGAND FREE ENERGY PREDICTED BY IDOCK:    0.12 KCAL/MOL
REMARK 927      BINDING AFFINITY PREDICTED BY RF-SCORE:    0.00 PKD
ROOT
HETATM    1  C   UNL     1      -8.936   7.513  64.117  1.00  0.00     1.081 C  
HETATM    2  C   UNL     1      -7.926   7.748  65.234  1.00  0.00    -0.127 C  
ENDROOT
BRANCH   2   3
HETATM    3  C   UNL     1      -7.569   9.224  65.453  1.00  0.00    -0.098 C  
BRANCH   3   4
HETATM    4  C   UNL     1      -8.776  10.107  65.538  1.00  0.00    -0.158 A  
HETATM    5  N   UNL     1      -9.585  10.229  64.502  1.00  0.00    -0.294 NA 
HETATM    6  C   UNL     1     -10.503  11.194  64.806  1.00  0.00    -0.323 A  
HETATM    7  C   UNL     1     -11.536  11.612  63.780  1.00  0.00    -0.332 C  
HETATM    8  C   UNL     1     -10.243  11.708  66.074  1.00  0.00    -0.232 A  
HETATM    9  N   UNL     1      -9.213  10.898  66.587  1.00  0.00    -0.165 NA 
HETATM   10  O   UNL     1     -11.353  13.019  63.516  1.00  0.00    -0.586 OA 
HETATM   11  C   UNL     1     -12.968  11.429  64.297  1.00  0.00     1.156 C  
HETATM   12  C   UNL     1     -11.406  10.858  62.446  1.00  0.00     2.126 C  
HETATM   13  C   UNL     1     -10.864  12.797  66.791  1.00  0.00    -0.264 C  
HETATM   14  O   UNL     1     -11.347  13.779  65.998  1.00  0.00    -0.307 OA 
HETATM   15  O   UNL     1     -10.920  12.895  68.014  1.00  0.00    -0.230 OA 
HETATM   16  H   UNL     1     -12.001  13.281  62.873  1.00  0.00     0.000 HD 
BRANCH   9  17
HETATM   17  C   UNL     1      -8.770  11.028  67.998  1.00  0.00    -0.138 C  
BRANCH  17  18
HETATM   18  C   UNL     1      -8.039  12.279  68.403  1.00  0.00    -0.151 A  
HETATM   19  C   UNL     1      -8.483  13.045  69.484  1.00  0.00     1.437 A  
HETATM   20  C   UNL     1      -7.983  14.339  69.681  1.00  0.00     0.433 A  
HETATM   21  C   UNL     1      -7.071  14.932  68.779  1.00  0.00    -0.115 A  
HETATM   22  C   UNL     1      -6.486  14.065  67.841  1.00  0.00    -0.170 A  
HETATM   23  C   UNL     1      -6.945  12.748  67.669  1.00  0.00    -0.146 A  
BRANCH  21  24
HETATM   24  C   UNL     1      -6.950  16.430  68.703  1.00  0.00    -0.159 A  
HETATM   25  C   UNL     1      -8.007  17.380  68.701  1.00  0.00    -0.271 A  
HETATM   26  C   UNL     1      -7.697  18.764  68.802  1.00  0.00    -0.351 A  
HETATM   27  C   UNL     1      -5.629  16.960  68.771  1.00  0.00    -0.133 A  
HETATM   28  C   UNL     1      -5.345  18.324  68.837  1.00  0.00    -0.191 A  
HETATM   29  C   UNL     1      -6.385  19.230  68.870  1.00  0.00    -0.290 A  
BRANCH  25  30
HETATM   30  C   UNL     1      -9.424  17.032  68.562  1.00  0.00    -0.269 A  
HETATM   31  N   UNL     1     -11.416  16.580  67.852  1.00  0.00    -0.056 NA 
HETATM   32  H   UNL     1      -9.788  16.938  66.502  1.00  0.00     0.000 HD 
HETATM   33  N   UNL     1     -11.520  16.574  69.172  1.00  0.00    -0.177 NA 
HETATM   34  N   UNL     1     -10.131  16.867  67.460  1.00  0.00    -0.274 NA 
HETATM   35  N   UNL     1     -10.289  16.855  69.613  1.00  0.00    -0.182 NA 
ENDBRANCH  25  30
ENDBRANCH  21  24
ENDBRANCH  17  18
ENDBRANCH   9  17
ENDBRANCH   3   4
ENDBRANCH   2   3
TORSDOF 6
ENDMDL
MODEL      276
REMARK 921   NORMALIZED FREE ENERGY PREDICTED BY IDOCK:    1.13 KCAL/MOL
REMARK 922        TOTAL FREE ENERGY PREDICTED BY IDOCK:    0.38 KCAL/MOL
REMARK 923 INTER-LIGAND FREE ENERGY PREDICTED BY IDOCK:    1.16 KCAL/MOL
REMARK 924 INTRA-LIGAND FREE ENERGY PREDICTED BY IDOCK:   -0.79 KCAL/MOL
REMARK 927      BINDING AFFINITY PREDICTED BY RF-SCORE:    0.00 PKD
ROOT
HETATM    1  C   UNL     1     -12.709  17.950  68.109  1.00  0.00     5.974 C  
HETATM    2  C   UNL     1     -11.248  17.748  67.724  1.00  0.00     0.267 C  
ENDROOT
BRANCH   2   3
HETATM    3  C   UNL     1     -10.274  18.676  68.462  1.00  0.00    -0.398 C  
BRANCH   3   4
HETATM    4  C   UNL     1      -8.883  18.614  67.911  1.00  0.00    -0.288 A  
HETATM    5  N   UNL     1      -8.463  19.531  67.059  1.00  0.00    -0.285 NA 
HETATM    6  C   UNL     1      -7.229  19.149  66.616  1.00  0.00    -0.214 A  
HETATM    7  C   UNL     1      -6.508  19.972  65.568  1.00  0.00    -0.251 C  
HETATM    8  C   UNL     1      -6.873  17.935  67.199  1.00  0.00    -0.178 A  
HETATM    9  N   UNL     1      -7.890  17.676  68.138  1.00  0.00    -0.248 NA 
HETATM   10  O   UNL     1      -6.283  19.126  64.420  1.00  0.00    -0.458 OA 
HETATM   11  C   UNL     1      -5.136  20.452  66.056  1.00  0.00    -0.192 C  
HETATM   12  C   UNL     1      -7.310  21.199  65.103  1.00  0.00     0.777 C  
HETATM   13  C   UNL     1      -5.726  17.087  66.978  1.00  0.00    -0.177 C  
HETATM   14  O   UNL     1      -5.227  17.146  65.723  1.00  0.00    -0.262 OA 
HETATM   15  O   UNL     1      -5.245  16.320  67.808  1.00  0.00    -0.111 OA 
HETATM   16  H   UNL     1      -5.831  19.642  63.763  1.00  0.00     0.000 HD 
BRANCH   9  17
HETATM   17  C   UNL     1      -7.779  16.542  69.089  1.00  0.00    -0.205 C  
BRANCH  17  18
HETATM   18  C   UNL     1      -8.127  15.163  68.598  1.00  0.00    -0.154 A  
HETATM   19  C   UNL     1      -9.445  14.836  68.270  1.00  0.00    -0.207 A  
HETATM   20  C   UNL     1      -9.812  13.495  68.090  1.00  0.00    -0.237 A  
HETATM   21  C   UNL     1      -8.895  12.438  68.287  1.00  0.00    -0.174 A  
HETATM   22  C   UNL     1      -7.546  12.810  68.397  1.00  0.00    -0.133 A  
HETATM   23  C   UNL     1      -7.161  14.154  68.527  1.00  0.00    -0.110 A  
BRANCH  21  24
HETATM   24  C   UNL     1      -9.396  11.052  68.596  1.00  0.00    -0.196 A  
HETATM   25  C   UNL     1      -8.835   9.819  68.169  1.00  0.00    -0.119 A  
HETATM   26  C   UNL     1      -9.342   8.603  68.706  1.00  0.00    -0.142 A  
HETATM   27  C   UNL     1     -10.474  10.965  69.525  1.00  0.00    -0.176 A  
HETATM   28  C   UNL     1     -10.977   9.760  70.014  1.00  0.00    -0.319 A  
HETATM   29  C   UNL     1     -10.397   8.573  69.616  1.00  0.00    -0.218 A  
BRANCH  25  30
HETATM   30  C   UNL     1      -7.774   9.702  67.166  1.00  0.00    -0.091 A  
HETATM   31  N   UNL     1      -6.573   9.712  65.367  1.00  0.00    -0.077 NA 
HETATM   32  H   UNL     1      -8.576  10.479  65.395  1.00  0.00     0.000 HD 
HETATM   33  N   UNL     1      -5.798   9.158  66.286  1.00  0.00    -0.057 NA 
HETATM   34  N   UNL     1      -7.798  10.047  65.893  1.00  0.00    -0.117 NA 
HETATM   35  N   UNL     1      -6.539   9.150  67.400  1.00  0.00    -0.064 NA 
ENDBRANCH  25  30
ENDBRANCH  21  24
ENDBRANCH  17  18
ENDBRANCH   9  17
ENDBRANCH   3   4
ENDBRANCH   2   3
TORSDOF 6
ENDMDL
MODEL      277
REMARK 921   NORMALIZED FREE ENERGY PREDICTED BY IDOCK:    1.19 KCAL/MOL
REMARK 922        TOTAL FREE ENERGY PREDICTED BY IDOCK:    0.46 KCAL/MOL
REMARK 923 INTER-LIGAND FREE ENERGY PREDICTED BY IDOCK:    0.50 KCAL/MOL
REMARK 924 INTRA-LIGAND FREE ENERGY PREDICTED BY IDOCK:   -0.04 KCAL/MOL
REMARK 927      BINDING AFFINITY PREDICTED BY RF-SCORE:    0.00 PKD
ROOT
HETATM    1  C   UNL     1      -6.648  15.504  67.104  1.00  0.00     0.035 C  
HETATM    2  C   UNL     1      -7.541  15.903  65.935  1.00  0.00     1.692 C  
ENDROOT
BRANCH   2   3
HETATM    3  C   UNL     1      -8.997  15.438  66.075  1.00  0.00    -0.201 C  
BRANCH   3   4
HETATM    4  C   UNL     1      -9.733  16.154  67.166  1.00  0.00    -0.233 A  
HETATM    5  N   UNL     1      -9.357  17.363  67.539  1.00  0.00    -0.232 NA 
HETATM    6  C   UNL     1     -10.099  17.707  68.634  1.00  0.00    -0.377 A  
HETATM    7  C   UNL     1      -9.850  19.024  69.338  1.00  0.00    -0.035 C  
HETATM    8  C   UNL     1     -10.957  16.663  68.968  1.00  0.00    -0.279 A  
HETATM    9  N   UNL     1     -10.808  15.726  67.927  1.00  0.00    -0.305 NA 
HETATM   10  O   UNL     1      -9.472  18.732  70.700  1.00  0.00     2.168 OA 
HETATM   11  C   UNL     1     -11.110  19.896  69.393  1.00  0.00     1.815 C  
HETATM   12  C   UNL     1      -8.721  19.850  68.700  1.00  0.00    -0.137 C  
HETATM   13  C   UNL     1     -11.857  16.508  70.087  1.00  0.00     0.464 C  
HETATM   14  O   UNL     1     -11.454  17.137  71.214  1.00  0.00     0.443 OA 
HETATM   15  O   UNL     1     -12.880  15.827  70.081  1.00  0.00    -0.293 OA 
HETATM   16  H   UNL     1      -9.316  19.558  71.143  1.00  0.00     0.000 HD 
BRANCH   9  17
HETATM   17  C   UNL     1     -11.691  14.537  67.838  1.00  0.00    -0.351 C  
BRANCH  17  18
HETATM   18  C   UNL     1     -11.056  13.174  67.867  1.00  0.00    -0.288 A  
HETATM   19  C   UNL     1      -9.666  13.035  67.828  1.00  0.00    -0.218 A  
HETATM   20  C   UNL     1      -9.092  11.782  67.570  1.00  0.00    -0.175 A  
HETATM   21  C   UNL     1      -9.880  10.644  67.287  1.00  0.00    -0.206 A  
HETATM   22  C   UNL     1     -11.254  10.770  67.549  1.00  0.00    -0.346 A  
HETATM   23  C   UNL     1     -11.834  12.011  67.859  1.00  0.00    -0.320 A  
BRANCH  21  24
HETATM   24  C   UNL     1      -9.289   9.486  66.528  1.00  0.00    -0.220 A  
HETATM   25  C   UNL     1      -9.546   8.103  66.732  1.00  0.00    -0.281 A  
HETATM   26  C   UNL     1      -9.031   7.158  65.802  1.00  0.00    -0.043 A  
HETATM   27  C   UNL     1      -8.485   9.817  65.399  1.00  0.00    -0.154 A  
HETATM   28  C   UNL     1      -7.962   8.870  64.518  1.00  0.00    -0.135 A  
HETATM   29  C   UNL     1      -8.251   7.535  64.710  1.00  0.00    -0.068 A  
BRANCH  25  30
HETATM   30  C   UNL     1     -10.287   7.564  67.875  1.00  0.00    -0.210 A  
HETATM   31  N   UNL     1     -11.562   6.436  69.209  1.00  0.00    -0.267 NA 
HETATM   32  H   UNL     1     -11.298   5.878  67.155  1.00  0.00     0.000 HD 
HETATM   33  N   UNL     1     -11.088   7.425  69.952  1.00  0.00    -0.229 NA 
HETATM   34  N   UNL     1     -11.082   6.512  67.924  1.00  0.00    -0.296 NA 
HETATM   35  N   UNL     1     -10.300   8.125  69.128  1.00  0.00    -0.219 NA 
ENDBRANCH  25  30
ENDBRANCH  21  24
ENDBRANCH  17  18
ENDBRANCH   9  17
ENDBRANCH   3   4
ENDBRANCH   2   3
TORSDOF 6
ENDMDL
MODEL      278
REMARK 921   NORMALIZED FREE ENERGY PREDICTED BY IDOCK:    1.29 KCAL/MOL
REMARK 922        TOTAL FREE ENERGY PREDICTED BY IDOCK:    0.59 KCAL/MOL
REMARK 923 INTER-LIGAND FREE ENERGY PREDICTED BY IDOCK:   -0.06 KCAL/MOL
REMARK 924 INTRA-LIGAND FREE ENERGY PREDICTED BY IDOCK:    0.64 KCAL/MOL
REMARK 927      BINDING AFFINITY PREDICTED BY RF-SCORE:    0.00 PKD
ROOT
HETATM    1  C   UNL     1      -7.257  14.834  70.832  1.00  0.00     1.108 C  
HETATM    2  C   UNL     1      -8.479  14.411  70.025  1.00  0.00     1.058 C  
ENDROOT
BRANCH   2   3
HETATM    3  C   UNL     1      -8.265  13.144  69.187  1.00  0.00     0.520 C  
BRANCH   3   4
HETATM    4  C   UNL     1      -9.015  13.172  67.890  1.00  0.00    -0.200 A  
HETATM    5  N   UNL     1     -10.094  13.920  67.763  1.00  0.00    -0.237 NA 
HETATM    6  C   UNL     1     -10.648  13.642  66.545  1.00  0.00    -0.282 A  
HETATM    7  C   UNL     1     -11.948  14.300  66.131  1.00  0.00    -0.407 C  
HETATM    8  C   UNL     1      -9.895  12.666  65.897  1.00  0.00    -0.244 A  
HETATM    9  N   UNL     1      -8.767  12.478  66.718  1.00  0.00    -0.183 NA 
HETATM   10  O   UNL     1     -12.918  13.257  65.900  1.00  0.00    -0.288 OA 
HETATM   11  C   UNL     1     -11.805  15.087  64.823  1.00  0.00    -0.341 C  
HETATM   12  C   UNL     1     -12.516  15.247  67.202  1.00  0.00     1.046 C  
HETATM   13  C   UNL     1     -10.123  11.979  64.647  1.00  0.00    -0.264 C  
HETATM   14  O   UNL     1     -11.428  11.821  64.332  1.00  0.00    -0.324 OA 
HETATM   15  O   UNL     1      -9.244  11.508  63.930  1.00  0.00    -0.080 OA 
HETATM   16  H   UNL     1     -13.733  13.670  65.640  1.00  0.00     0.000 HD 
BRANCH   9  17
HETATM   17  C   UNL     1      -7.634  11.627  66.276  1.00  0.00     0.174 C  
BRANCH  17  18
HETATM   18  C   UNL     1      -7.725  10.143  66.506  1.00  0.00    -0.108 A  
HETATM   19  C   UNL     1      -7.742   9.623  67.803  1.00  0.00    -0.094 A  
HETATM   20  C   UNL     1      -7.541   8.252  68.014  1.00  0.00    -0.102 A  
HETATM   21  C   UNL     1      -7.261   7.367  66.949  1.00  0.00    -0.088 A  
HETATM   22  C   UNL     1      -7.467   7.878  65.657  1.00  0.00    -0.081 A  
HETATM   23  C   UNL     1      -7.721   9.242  65.437  1.00  0.00    -0.099 A  
BRANCH  21  24
HETATM   24  C   UNL     1      -6.557   6.063  67.216  1.00  0.00    -0.052 A  
HETATM   25  C   UNL     1      -6.494   5.356  68.447  1.00  0.00    -0.040 A  
HETATM   26  C   UNL     1      -5.932   4.050  68.469  1.00  0.00    -0.027 A  
HETATM   27  C   UNL     1      -6.005   5.401  66.082  1.00  0.00    -0.022 A  
HETATM   28  C   UNL     1      -5.428   4.132  66.132  1.00  0.00    -0.013 A  
HETATM   29  C   UNL     1      -5.407   3.445  67.328  1.00  0.00    -0.016 A  
BRANCH  25  30
HETATM   30  C   UNL     1      -6.941   5.901  69.732  1.00  0.00    -0.066 A  
HETATM   31  N   UNL     1      -7.352   7.129  71.464  1.00  0.00    -0.077 NA 
HETATM   32  H   UNL     1      -6.334   7.905  69.744  1.00  0.00     0.000 HD 
HETATM   33  N   UNL     1      -7.844   5.939  71.771  1.00  0.00    -0.101 NA 
HETATM   34  N   UNL     1      -6.787   7.120  70.212  1.00  0.00    -0.055 NA 
HETATM   35  N   UNL     1      -7.590   5.177  70.701  1.00  0.00    -0.069 NA 
ENDBRANCH  25  30
ENDBRANCH  21  24
ENDBRANCH  17  18
ENDBRANCH   9  17
ENDBRANCH   3   4
ENDBRANCH   2   3
TORSDOF 6
ENDMDL
MODEL      279
REMARK 921   NORMALIZED FREE ENERGY PREDICTED BY IDOCK:    1.31 KCAL/MOL
REMARK 922        TOTAL FREE ENERGY PREDICTED BY IDOCK:    0.62 KCAL/MOL
REMARK 923 INTER-LIGAND FREE ENERGY PREDICTED BY IDOCK:    1.22 KCAL/MOL
REMARK 924 INTRA-LIGAND FREE ENERGY PREDICTED BY IDOCK:   -0.60 KCAL/MOL
REMARK 927      BINDING AFFINITY PREDICTED BY RF-SCORE:    0.00 PKD
ROOT
HETATM    1  C   UNL     1      -6.688  15.547  67.172  1.00  0.00    -0.022 C  
HETATM    2  C   UNL     1      -7.770  15.896  66.157  1.00  0.00     0.609 C  
ENDROOT
BRANCH   2   3
HETATM    3  C   UNL     1      -9.160  15.352  66.515  1.00  0.00    -0.334 C  
BRANCH   3   4
HETATM    4  C   UNL     1      -9.808  16.106  67.635  1.00  0.00    -0.236 A  
HETATM    5  N   UNL     1      -9.531  17.383  67.824  1.00  0.00    -0.257 NA 
HETATM    6  C   UNL     1     -10.139  17.770  68.985  1.00  0.00    -0.294 A  
HETATM    7  C   UNL     1      -9.951  19.178  69.510  1.00  0.00     0.096 C  
HETATM    8  C   UNL     1     -10.805  16.686  69.552  1.00  0.00    -0.285 A  
HETATM    9  N   UNL     1     -10.698  15.658  68.596  1.00  0.00    -0.246 NA 
HETATM   10  O   UNL     1      -9.343  19.084  70.816  1.00  0.00     2.253 OA 
HETATM   11  C   UNL     1     -11.286  19.913  69.681  1.00  0.00     2.584 C  
HETATM   12  C   UNL     1      -9.038  20.040  68.623  1.00  0.00    -0.074 C  
HETATM   13  C   UNL     1     -11.504  16.566  70.810  1.00  0.00    -0.015 C  
HETATM   14  O   UNL     1     -11.018  17.359  71.791  1.00  0.00     1.085 OA 
HETATM   15  O   UNL     1     -12.426  15.786  71.033  1.00  0.00    -0.428 OA 
HETATM   16  H   UNL     1      -9.225  19.967  71.146  1.00  0.00     0.000 HD 
BRANCH   9  17
HETATM   17  C   UNL     1     -11.434  14.380  68.764  1.00  0.00    -0.289 C  
BRANCH  17  18
HETATM   18  C   UNL     1     -10.639  13.105  68.838  1.00  0.00    -0.159 A  
HETATM   19  C   UNL     1      -9.261  13.110  68.607  1.00  0.00     0.026 A  
HETATM   20  C   UNL     1      -8.579  11.904  68.395  1.00  0.00    -0.152 A  
HETATM   21  C   UNL     1      -9.254  10.663  68.351  1.00  0.00    -0.159 A  
HETATM   22  C   UNL     1     -10.585  10.673  68.801  1.00  0.00    -0.234 A  
HETATM   23  C   UNL     1     -11.263  11.874  69.065  1.00  0.00    -0.316 A  
BRANCH  21  24
HETATM   24  C   UNL     1      -8.635   9.492  67.635  1.00  0.00    -0.122 A  
HETATM   25  C   UNL     1      -8.560   9.284  66.231  1.00  0.00    -0.139 A  
HETATM   26  C   UNL     1      -7.781   8.204  65.730  1.00  0.00    -0.092 A  
HETATM   27  C   UNL     1      -7.934   8.555  68.448  1.00  0.00    -0.118 A  
HETATM   28  C   UNL     1      -7.202   7.483  67.937  1.00  0.00    -0.090 A  
HETATM   29  C   UNL     1      -7.111   7.317  66.571  1.00  0.00    -0.078 A  
BRANCH  25  30
HETATM   30  C   UNL     1      -9.273  10.095  65.240  1.00  0.00    -0.209 A  
HETATM   31  N   UNL     1      -9.898  11.211  63.496  1.00  0.00    -0.316 NA 
HETATM   32  H   UNL     1      -8.057  10.111  63.536  1.00  0.00     0.000 HD 
HETATM   33  N   UNL     1     -10.859  11.409  64.385  1.00  0.00    -0.342 NA 
HETATM   34  N   UNL     1      -8.909  10.408  64.011  1.00  0.00    -0.199 NA 
HETATM   35  N   UNL     1     -10.474  10.720  65.465  1.00  0.00    -0.230 NA 
ENDBRANCH  25  30
ENDBRANCH  21  24
ENDBRANCH  17  18
ENDBRANCH   9  17
ENDBRANCH   3   4
ENDBRANCH   2   3
TORSDOF 6
ENDMDL
MODEL      280
REMARK 921   NORMALIZED FREE ENERGY PREDICTED BY IDOCK:    1.72 KCAL/MOL
REMARK 922        TOTAL FREE ENERGY PREDICTED BY IDOCK:    1.17 KCAL/MOL
REMARK 923 INTER-LIGAND FREE ENERGY PREDICTED BY IDOCK:    1.89 KCAL/MOL
REMARK 924 INTRA-LIGAND FREE ENERGY PREDICTED BY IDOCK:   -0.73 KCAL/MOL
REMARK 927      BINDING AFFINITY PREDICTED BY RF-SCORE:    0.00 PKD
ROOT
HETATM    1  C   UNL     1     -12.843  18.520  67.705  1.00  0.00     6.775 C  
HETATM    2  C   UNL     1     -11.376  18.299  67.359  1.00  0.00     0.603 C  
ENDROOT
BRANCH   2   3
HETATM    3  C   UNL     1     -10.448  19.429  67.826  1.00  0.00    -0.556 C  
BRANCH   3   4
HETATM    4  C   UNL     1      -9.029  19.233  67.386  1.00  0.00    -0.296 A  
HETATM    5  N   UNL     1      -8.534  19.954  66.398  1.00  0.00    -0.344 NA 
HETATM    6  C   UNL     1      -7.287  19.470  66.117  1.00  0.00    -0.281 A  
HETATM    7  C   UNL     1      -6.483  20.055  64.975  1.00  0.00    -0.289 C  
HETATM    8  C   UNL     1      -7.003  18.391  66.950  1.00  0.00    -0.194 A  
HETATM    9  N   UNL     1      -8.079  18.342  67.856  1.00  0.00    -0.247 NA 
HETATM   10  O   UNL     1      -6.217  18.993  64.033  1.00  0.00    -0.392 OA 
HETATM   11  C   UNL     1      -5.127  20.598  65.443  1.00  0.00    -0.211 C  
HETATM   12  C   UNL     1      -7.219  21.179  64.227  1.00  0.00     0.654 C  
HETATM   13  C   UNL     1      -5.870  17.495  66.974  1.00  0.00    -0.146 C  
HETATM   14  O   UNL     1      -5.298  17.294  65.766  1.00  0.00    -0.274 OA 
HETATM   15  O   UNL     1      -5.462  16.900  67.968  1.00  0.00    -0.114 OA 
HETATM   16  H   UNL     1      -5.713  19.360  63.317  1.00  0.00     0.000 HD 
BRANCH   9  17
HETATM   17  C   UNL     1      -8.058  17.418  69.018  1.00  0.00    -0.093 C  
BRANCH  17  18
HETATM   18  C   UNL     1      -8.420  15.976  68.789  1.00  0.00    -0.228 A  
HETATM   19  C   UNL     1      -7.508  15.099  68.196  1.00  0.00    -0.118 A  
HETATM   20  C   UNL     1      -7.937  13.849  67.728  1.00  0.00    -0.174 A  
HETATM   21  C   UNL     1      -9.294  13.458  67.784  1.00  0.00    -0.211 A  
HETATM   22  C   UNL     1     -10.131  14.261  68.575  1.00  0.00    -0.246 A  
HETATM   23  C   UNL     1      -9.696  15.492  69.092  1.00  0.00    -0.252 A  
BRANCH  21  24
HETATM   24  C   UNL     1      -9.812  12.396  66.851  1.00  0.00    -0.219 A  
HETATM   25  C   UNL     1     -10.437  12.590  65.589  1.00  0.00    -0.299 A  
HETATM   26  C   UNL     1     -10.703  11.461  64.766  1.00  0.00    -0.362 A  
HETATM   27  C   UNL     1      -9.528  11.047  67.211  1.00  0.00    -0.179 A  
HETATM   28  C   UNL     1      -9.827   9.951  66.402  1.00  0.00    -0.288 A  
HETATM   29  C   UNL     1     -10.401  10.160  65.165  1.00  0.00    -0.109 A  
BRANCH  25  30
HETATM   30  C   UNL     1     -10.872  13.892  65.079  1.00  0.00    -0.382 A  
HETATM   31  N   UNL     1     -11.071  15.790  64.060  1.00  0.00    -0.086 NA 
HETATM   32  H   UNL     1      -9.447  14.451  63.651  1.00  0.00     0.000 HD 
HETATM   33  N   UNL     1     -12.104  15.743  64.888  1.00  0.00     0.241 NA 
HETATM   34  N   UNL     1     -10.299  14.659  64.171  1.00  0.00     0.549 NA 
HETATM   35  N   UNL     1     -11.982  14.570  65.520  1.00  0.00    -0.340 NA 
ENDBRANCH  25  30
ENDBRANCH  21  24
ENDBRANCH  17  18
ENDBRANCH   9  17
ENDBRANCH   3   4
ENDBRANCH   2   3
TORSDOF 6
ENDMDL
MODEL      281
REMARK 921   NORMALIZED FREE ENERGY PREDICTED BY IDOCK:    1.73 KCAL/MOL
REMARK 922        TOTAL FREE ENERGY PREDICTED BY IDOCK:    1.18 KCAL/MOL
REMARK 923 INTER-LIGAND FREE ENERGY PREDICTED BY IDOCK:    0.62 KCAL/MOL
REMARK 924 INTRA-LIGAND FREE ENERGY PREDICTED BY IDOCK:    0.56 KCAL/MOL
REMARK 927      BINDING AFFINITY PREDICTED BY RF-SCORE:    0.00 PKD
ROOT
HETATM    1  C   UNL     1      -7.796  10.541  70.725  1.00  0.00     1.720 C  
HETATM    2  C   UNL     1      -8.644   9.296  70.495  1.00  0.00    -0.271 C  
ENDROOT
BRANCH   2   3
HETATM    3  C   UNL     1      -8.108   8.038  71.190  1.00  0.00    -0.098 C  
BRANCH   3   4
HETATM    4  C   UNL     1      -8.062   6.848  70.281  1.00  0.00    -0.120 A  
HETATM    5  N   UNL     1      -7.140   5.919  70.447  1.00  0.00    -0.068 NA 
HETATM    6  C   UNL     1      -7.243   5.042  69.405  1.00  0.00    -0.056 A  
HETATM    7  C   UNL     1      -6.266   3.892  69.278  1.00  0.00    -0.028 C  
HETATM    8  C   UNL     1      -8.257   5.452  68.543  1.00  0.00    -0.094 A  
HETATM    9  N   UNL     1      -8.868   6.539  69.198  1.00  0.00    -0.128 NA 
HETATM   10  O   UNL     1      -5.571   4.038  68.022  1.00  0.00    -0.019 OA 
HETATM   11  C   UNL     1      -6.977   2.533  69.249  1.00  0.00    -0.036 C  
HETATM   12  C   UNL     1      -5.216   3.861  70.401  1.00  0.00    -0.004 C  
HETATM   13  C   UNL     1      -8.680   4.921  67.269  1.00  0.00    -0.103 C  
HETATM   14  O   UNL     1      -7.689   4.343  66.554  1.00  0.00    -0.092 OA 
HETATM   15  O   UNL     1      -9.815   5.012  66.807  1.00  0.00    -0.155 OA 
HETATM   16  H   UNL     1      -4.959   3.317  67.942  1.00  0.00     0.000 HD 
BRANCH   9  17
HETATM   17  C   UNL     1     -10.112   7.149  68.666  1.00  0.00    -0.173 C  
BRANCH  17  18
HETATM   18  C   UNL     1      -9.991   8.198  67.595  1.00  0.00    -0.240 A  
HETATM   19  C   UNL     1      -8.866   9.025  67.533  1.00  0.00    -0.128 A  
HETATM   20  C   UNL     1      -8.881  10.172  66.727  1.00  0.00    -0.143 A  
HETATM   21  C   UNL     1     -10.031  10.562  66.005  1.00  0.00    -0.295 A  
HETATM   22  C   UNL     1     -11.054   9.603  65.917  1.00  0.00     1.394 A  
HETATM   23  C   UNL     1     -11.025   8.425  66.682  1.00  0.00     0.632 A  
BRANCH  21  24
HETATM   24  C   UNL     1     -10.210  11.996  65.586  1.00  0.00    -0.284 A  
HETATM   25  C   UNL     1      -9.518  13.132  66.088  1.00  0.00    -0.156 A  
HETATM   26  C   UNL     1      -9.693  14.390  65.449  1.00  0.00    -0.156 A  
HETATM   27  C   UNL     1     -11.073  12.226  64.475  1.00  0.00    -0.368 A  
HETATM   28  C   UNL     1     -11.255  13.476  63.884  1.00  0.00    -0.152 A  
HETATM   29  C   UNL     1     -10.548  14.560  64.361  1.00  0.00     0.086 A  
BRANCH  25  30
HETATM   30  C   UNL     1      -8.647  13.109  67.266  1.00  0.00    -0.210 A  
HETATM   31  N   UNL     1      -6.993  12.979  68.654  1.00  0.00    -0.097 NA 
HETATM   32  H   UNL     1      -6.702  12.860  66.533  1.00  0.00     0.000 HD 
HETATM   33  N   UNL     1      -8.064  13.121  69.419  1.00  0.00     0.686 NA 
HETATM   34  N   UNL     1      -7.337  12.964  67.324  1.00  0.00    -0.115 NA 
HETATM   35  N   UNL     1      -9.089  13.200  68.563  1.00  0.00    -0.113 NA 
ENDBRANCH  25  30
ENDBRANCH  21  24
ENDBRANCH  17  18
ENDBRANCH   9  17
ENDBRANCH   3   4
ENDBRANCH   2   3
TORSDOF 6
ENDMDL
MODEL      282
REMARK 921   NORMALIZED FREE ENERGY PREDICTED BY IDOCK:    2.11 KCAL/MOL
REMARK 922        TOTAL FREE ENERGY PREDICTED BY IDOCK:    1.70 KCAL/MOL
REMARK 923 INTER-LIGAND FREE ENERGY PREDICTED BY IDOCK:    1.95 KCAL/MOL
REMARK 924 INTRA-LIGAND FREE ENERGY PREDICTED BY IDOCK:   -0.25 KCAL/MOL
REMARK 927      BINDING AFFINITY PREDICTED BY RF-SCORE:    0.00 PKD
ROOT
HETATM    1  C   UNL     1     -12.643  16.209  65.286  1.00  0.00     2.264 C  
HETATM    2  C   UNL     1     -12.182  15.054  66.166  1.00  0.00     0.241 C  
ENDROOT
BRANCH   2   3
HETATM    3  C   UNL     1     -10.660  14.971  66.341  1.00  0.00    -0.310 C  
BRANCH   3   4
HETATM    4  C   UNL     1     -10.098  13.649  65.914  1.00  0.00    -0.310 A  
HETATM    5  N   UNL     1     -10.749  12.900  65.044  1.00  0.00    -0.294 NA 
HETATM    6  C   UNL     1     -10.091  11.706  64.954  1.00  0.00    -0.260 A  
HETATM    7  C   UNL     1     -10.638  10.600  64.076  1.00  0.00     0.061 C  
HETATM    8  C   UNL     1      -8.998  11.704  65.817  1.00  0.00    -0.064 A  
HETATM    9  N   UNL     1      -8.936  13.017  66.323  1.00  0.00     0.002 NA 
HETATM   10  O   UNL     1     -10.906   9.459  64.918  1.00  0.00     1.296 OA 
HETATM   11  C   UNL     1      -9.626  10.154  63.013  1.00  0.00    -0.216 C  
HETATM   12  C   UNL     1     -11.947  10.981  63.364  1.00  0.00     1.062 C  
HETATM   13  C   UNL     1      -8.064  10.653  66.149  1.00  0.00    -0.154 C  
HETATM   14  O   UNL     1      -8.586   9.408  66.080  1.00  0.00    -0.130 OA 
HETATM   15  O   UNL     1      -6.907  10.829  66.522  1.00  0.00    -0.113 OA 
HETATM   16  H   UNL     1     -11.249   8.765  64.368  1.00  0.00     0.000 HD 
BRANCH   9  17
HETATM   17  C   UNL     1      -7.793  13.460  67.159  1.00  0.00    -0.019 C  
BRANCH  17  18
HETATM   18  C   UNL     1      -7.616  14.933  67.402  1.00  0.00    -0.232 A  
HETATM   19  C   UNL     1      -7.523  15.434  68.704  1.00  0.00    -0.130 A  
HETATM   20  C   UNL     1      -7.645  16.811  68.937  1.00  0.00    -0.239 A  
HETATM   21  C   UNL     1      -7.920  17.723  67.894  1.00  0.00    -0.233 A  
HETATM   22  C   UNL     1      -7.789  17.220  66.589  1.00  0.00    -0.295 A  
HETATM   23  C   UNL     1      -7.615  15.848  66.344  1.00  0.00     0.174 A  
BRANCH  21  24
HETATM   24  C   UNL     1      -8.544  19.058  68.203  1.00  0.00    -0.355 A  
HETATM   25  C   UNL     1      -8.422  20.259  67.455  1.00  0.00    -0.405 A  
HETATM   26  C   UNL     1      -9.227  21.379  67.803  1.00  0.00     0.401 A  
HETATM   27  C   UNL     1      -9.463  19.086  69.293  1.00  0.00    -0.118 A  
HETATM   28  C   UNL     1     -10.219  20.207  69.637  1.00  0.00     0.104 A  
HETATM   29  C   UNL     1     -10.114  21.353  68.878  1.00  0.00     1.483 A  
BRANCH  25  30
HETATM   30  C   UNL     1      -7.479  20.446  66.349  1.00  0.00    -0.200 A  
HETATM   31  N   UNL     1      -6.387  20.371  64.483  1.00  0.00    -0.293 NA 
HETATM   32  H   UNL     1      -8.211  19.280  64.772  1.00  0.00     0.000 HD 
HETATM   33  N   UNL     1      -5.671  21.169  65.260  1.00  0.00    -0.226 NA 
HETATM   34  N   UNL     1      -7.502  19.912  65.143  1.00  0.00    -0.273 NA 
HETATM   35  N   UNL     1      -6.344  21.217  66.416  1.00  0.00    -0.272 NA 
ENDBRANCH  25  30
ENDBRANCH  21  24
ENDBRANCH  17  18
ENDBRANCH   9  17
ENDBRANCH   3   4
ENDBRANCH   2   3
TORSDOF 6
ENDMDL
MODEL      283
REMARK 921   NORMALIZED FREE ENERGY PREDICTED BY IDOCK:    2.48 KCAL/MOL
REMARK 922        TOTAL FREE ENERGY PREDICTED BY IDOCK:    2.20 KCAL/MOL
REMARK 923 INTER-LIGAND FREE ENERGY PREDICTED BY IDOCK:    2.75 KCAL/MOL
REMARK 924 INTRA-LIGAND FREE ENERGY PREDICTED BY IDOCK:   -0.55 KCAL/MOL
REMARK 927      BINDING AFFINITY PREDICTED BY RF-SCORE:    0.00 PKD
ROOT
HETATM    1  C   UNL     1      -6.482  15.763  67.267  1.00  0.00    -0.139 C  
HETATM    2  C   UNL     1      -6.661  16.617  66.017  1.00  0.00     0.843 C  
ENDROOT
BRANCH   2   3
HETATM    3  C   UNL     1      -8.124  16.817  65.602  1.00  0.00     0.787 C  
BRANCH   3   4
HETATM    4  C   UNL     1      -9.005  17.209  66.749  1.00  0.00    -0.241 A  
HETATM    5  N   UNL     1      -8.790  18.340  67.395  1.00  0.00    -0.252 NA 
HETATM    6  C   UNL     1      -9.636  18.369  68.468  1.00  0.00    -0.345 A  
HETATM    7  C   UNL     1      -9.581  19.521  69.449  1.00  0.00    -0.102 C  
HETATM    8  C   UNL     1     -10.393  17.201  68.503  1.00  0.00    -0.364 A  
HETATM    9  N   UNL     1     -10.073  16.528  67.308  1.00  0.00    -0.267 NA 
HETATM   10  O   UNL     1      -9.263  18.980  70.749  1.00  0.00     2.406 OA 
HETATM   11  C   UNL     1     -10.931  20.238  69.572  1.00  0.00     1.268 C  
HETATM   12  C   UNL     1      -8.511  20.568  69.097  1.00  0.00     1.023 C  
HETATM   13  C   UNL     1     -11.342  16.725  69.482  1.00  0.00     0.208 C  
HETATM   14  O   UNL     1     -11.086  17.132  70.745  1.00  0.00     0.319 OA 
HETATM   15  O   UNL     1     -12.281  15.968  69.246  1.00  0.00    -0.226 OA 
HETATM   16  H   UNL     1      -9.229  19.703  71.364  1.00  0.00     0.000 HD 
BRANCH   9  17
HETATM   17  C   UNL     1     -10.811  15.308  66.897  1.00  0.00    -0.317 C  
BRANCH  17  18
HETATM   18  C   UNL     1     -10.165  13.971  67.133  1.00  0.00    -0.258 A  
HETATM   19  C   UNL     1     -10.185  13.383  68.401  1.00  0.00    -0.251 A  
HETATM   20  C   UNL     1      -9.351  12.293  68.684  1.00  0.00    -0.016 A  
HETATM   21  C   UNL     1      -8.432  11.791  67.735  1.00  0.00    -0.147 A  
HETATM   22  C   UNL     1      -8.593  12.256  66.420  1.00  0.00     0.037 A  
HETATM   23  C   UNL     1      -9.465  13.314  66.115  1.00  0.00    -0.153 A  
BRANCH  21  24
HETATM   24  C   UNL     1      -7.229  11.008  68.190  1.00  0.00    -0.083 A  
HETATM   25  C   UNL     1      -6.329  11.345  69.237  1.00  0.00    -0.084 A  
HETATM   26  C   UNL     1      -5.351  10.396  69.643  1.00  0.00    -0.038 A  
HETATM   27  C   UNL     1      -7.048   9.727  67.593  1.00  0.00    -0.088 A  
HETATM   28  C   UNL     1      -6.060   8.824  67.984  1.00  0.00    -0.051 A  
HETATM   29  C   UNL     1      -5.218   9.152  69.026  1.00  0.00    -0.037 A  
BRANCH  25  30
HETATM   30  C   UNL     1      -6.311  12.641  69.920  1.00  0.00    -0.031 A  
HETATM   31  N   UNL     1      -6.086  14.276  71.318  1.00  0.00    -0.136 NA 
HETATM   32  H   UNL     1      -5.401  12.295  71.774  1.00  0.00     0.000 HD 
HETATM   33  N   UNL     1      -6.695  14.810  70.271  1.00  0.00    -0.131 NA 
HETATM   34  N   UNL     1      -5.848  12.937  71.120  1.00  0.00    -0.298 NA 
HETATM   35  N   UNL     1      -6.835  13.800  69.404  1.00  0.00    -0.083 NA 
ENDBRANCH  25  30
ENDBRANCH  21  24
ENDBRANCH  17  18
ENDBRANCH   9  17
ENDBRANCH   3   4
ENDBRANCH   2   3
TORSDOF 6
ENDMDL
MODEL      284
REMARK 921   NORMALIZED FREE ENERGY PREDICTED BY IDOCK:    2.51 KCAL/MOL
REMARK 922        TOTAL FREE ENERGY PREDICTED BY IDOCK:    2.24 KCAL/MOL
REMARK 923 INTER-LIGAND FREE ENERGY PREDICTED BY IDOCK:   -0.38 KCAL/MOL
REMARK 924 INTRA-LIGAND FREE ENERGY PREDICTED BY IDOCK:    2.62 KCAL/MOL
REMARK 927      BINDING AFFINITY PREDICTED BY RF-SCORE:    0.00 PKD
ROOT
HETATM    1  C   UNL     1      -8.014   7.482  62.918  1.00  0.00    -0.120 C  
HETATM    2  C   UNL     1      -6.787   6.889  63.600  1.00  0.00    -0.054 C  
ENDROOT
BRANCH   2   3
HETATM    3  C   UNL     1      -5.871   7.932  64.255  1.00  0.00    -0.052 C  
BRANCH   3   4
HETATM    4  C   UNL     1      -6.611   8.861  65.169  1.00  0.00    -0.065 A  
HETATM    5  N   UNL     1      -7.475   9.729  64.677  1.00  0.00    -0.128 NA 
HETATM    6  C   UNL     1      -7.882  10.533  65.704  1.00  0.00    -0.150 A  
HETATM    7  C   UNL     1      -8.834  11.681  65.440  1.00  0.00     0.175 C  
HETATM    8  C   UNL     1      -7.231  10.164  66.878  1.00  0.00    -0.092 A  
HETATM    9  N   UNL     1      -6.522   8.994  66.544  1.00  0.00    -0.066 NA 
HETATM   10  O   UNL     1      -8.170  12.903  65.828  1.00  0.00     0.685 OA 
HETATM   11  C   UNL     1     -10.114  11.573  66.277  1.00  0.00    -0.261 C  
HETATM   12  C   UNL     1      -9.236  11.809  63.961  1.00  0.00     0.216 C  
HETATM   13  C   UNL     1      -7.250  10.763  68.192  1.00  0.00    -0.083 C  
HETATM   14  O   UNL     1      -7.445  12.101  68.187  1.00  0.00    -0.097 OA 
HETATM   15  O   UNL     1      -7.054  10.163  69.245  1.00  0.00    -0.061 OA 
HETATM   16  H   UNL     1      -8.767  13.623  65.662  1.00  0.00     0.000 HD 
BRANCH   9  17
HETATM   17  C   UNL     1      -5.828   8.198  67.587  1.00  0.00    -0.042 C  
BRANCH  17  18
HETATM   18  C   UNL     1      -6.663   7.506  68.629  1.00  0.00    -0.054 A  
HETATM   19  C   UNL     1      -7.108   6.196  68.430  1.00  0.00    -0.082 A  
HETATM   20  C   UNL     1      -8.107   5.660  69.254  1.00  0.00    -0.096 A  
HETATM   21  C   UNL     1      -8.733   6.427  70.263  1.00  0.00    -0.143 A  
HETATM   22  C   UNL     1      -8.115   7.649  70.575  1.00  0.00    -0.105 A  
HETATM   23  C   UNL     1      -7.078   8.173  69.786  1.00  0.00    -0.060 A  
BRANCH  21  24
HETATM   24  C   UNL     1     -10.098   6.041  70.766  1.00  0.00    -0.248 A  
HETATM   25  C   UNL     1     -10.405   5.295  71.936  1.00  0.00    -0.275 A  
HETATM   26  C   UNL     1     -11.761   5.178  72.348  1.00  0.00     0.066 A  
HETATM   27  C   UNL     1     -11.208   6.594  70.064  1.00  0.00    -0.425 A  
HETATM   28  C   UNL     1     -12.534   6.439  70.468  1.00  0.00     0.406 A  
HETATM   29  C   UNL     1     -12.811   5.742  71.626  1.00  0.00     1.311 A  
BRANCH  25  30
HETATM   30  C   UNL     1      -9.408   4.591  72.747  1.00  0.00    -0.128 A  
HETATM   31  N   UNL     1      -8.175   3.131  73.760  1.00  0.00    -0.073 NA 
HETATM   32  H   UNL     1      -9.700   2.553  72.367  1.00  0.00     0.000 HD 
HETATM   33  N   UNL     1      -7.755   4.301  74.216  1.00  0.00    -0.080 NA 
HETATM   34  N   UNL     1      -9.198   3.294  72.857  1.00  0.00    -0.090 NA 
HETATM   35  N   UNL     1      -8.517   5.206  73.592  1.00  0.00    -0.112 NA 
ENDBRANCH  25  30
ENDBRANCH  21  24
ENDBRANCH  17  18
ENDBRANCH   9  17
ENDBRANCH   3   4
ENDBRANCH   2   3
TORSDOF 6
ENDMDL
MODEL      285
REMARK 921   NORMALIZED FREE ENERGY PREDICTED BY IDOCK:    3.37 KCAL/MOL
REMARK 922        TOTAL FREE ENERGY PREDICTED BY IDOCK:    3.40 KCAL/MOL
REMARK 923 INTER-LIGAND FREE ENERGY PREDICTED BY IDOCK:    4.15 KCAL/MOL
REMARK 924 INTRA-LIGAND FREE ENERGY PREDICTED BY IDOCK:   -0.75 KCAL/MOL
REMARK 927      BINDING AFFINITY PREDICTED BY RF-SCORE:    0.00 PKD
ROOT
HETATM    1  C   UNL     1     -12.137   4.713  63.243  1.00  0.00     3.365 C  
HETATM    2  C   UNL     1     -11.904   3.303  63.772  1.00  0.00     2.354 C  
ENDROOT
BRANCH   2   3
HETATM    3  C   UNL     1     -10.662   2.615  63.190  1.00  0.00    -0.225 C  
BRANCH   3   4
HETATM    4  C   UNL     1      -9.419   2.899  63.975  1.00  0.00    -0.129 A  
HETATM    5  N   UNL     1      -8.255   3.007  63.362  1.00  0.00    -0.084 NA 
HETATM    6  C   UNL     1      -7.290   3.119  64.323  1.00  0.00    -0.063 A  
HETATM    7  C   UNL     1      -5.830   3.193  63.931  1.00  0.00    -0.010 C  
HETATM    8  C   UNL     1      -7.875   3.057  65.586  1.00  0.00    -0.085 A  
HETATM    9  N   UNL     1      -9.261   3.057  65.342  1.00  0.00    -0.150 NA 
HETATM   10  O   UNL     1      -5.152   2.071  64.535  1.00  0.00    -0.004 OA 
HETATM   11  C   UNL     1      -5.156   4.468  64.454  1.00  0.00    -0.012 C  
HETATM   12  C   UNL     1      -5.605   3.120  62.411  1.00  0.00    -0.008 C  
HETATM   13  C   UNL     1      -7.274   3.032  66.899  1.00  0.00    -0.058 C  
HETATM   14  O   UNL     1      -6.054   2.451  66.939  1.00  0.00    -0.022 OA 
HETATM   15  O   UNL     1      -7.808   3.438  67.928  1.00  0.00    -0.071 OA 
HETATM   16  H   UNL     1      -4.236   2.118  64.289  1.00  0.00     0.000 HD 
BRANCH   9  17
HETATM   17  C   UNL     1     -10.233   3.168  66.458  1.00  0.00     1.319 C  
BRANCH  17  18
HETATM   18  C   UNL     1     -10.498   4.529  67.040  1.00  0.00     0.117 A  
HETATM   19  C   UNL     1     -10.679   5.637  66.208  1.00  0.00    -0.142 A  
HETATM   20  C   UNL     1     -10.641   6.932  66.743  1.00  0.00    -0.304 A  
HETATM   21  C   UNL     1     -10.366   7.167  68.109  1.00  0.00    -0.234 A  
HETATM   22  C   UNL     1     -10.408   6.040  68.945  1.00  0.00    -0.273 A  
HETATM   23  C   UNL     1     -10.498   4.739  68.423  1.00  0.00     0.160 A  
BRANCH  21  24
HETATM   24  C   UNL     1      -9.828   8.502  68.551  1.00  0.00    -0.186 A  
HETATM   25  C   UNL     1      -8.556   8.769  69.126  1.00  0.00    -0.128 A  
HETATM   26  C   UNL     1      -8.152  10.119  69.319  1.00  0.00    -0.149 A  
HETATM   27  C   UNL     1     -10.630   9.639  68.241  1.00  0.00    -0.268 A  
HETATM   28  C   UNL     1     -10.227  10.954  68.470  1.00  0.00    -0.197 A  
HETATM   29  C   UNL     1      -8.975  11.197  68.995  1.00  0.00    -0.027 A  
BRANCH  25  30
HETATM   30  C   UNL     1      -7.624   7.733  69.578  1.00  0.00    -0.100 A  
HETATM   31  N   UNL     1      -6.291   6.039  69.757  1.00  0.00    -0.036 NA 
HETATM   32  H   UNL     1      -7.166   6.597  67.880  1.00  0.00     0.000 HD 
HETATM   33  N   UNL     1      -6.382   6.527  70.985  1.00  0.00    -0.047 NA 
HETATM   34  N   UNL     1      -7.057   6.769  68.880  1.00  0.00    -0.086 NA 
HETATM   35  N   UNL     1      -7.207   7.575  70.877  1.00  0.00    -0.066 NA 
ENDBRANCH  25  30
ENDBRANCH  21  24
ENDBRANCH  17  18
ENDBRANCH   9  17
ENDBRANCH   3   4
ENDBRANCH   2   3
TORSDOF 6
ENDMDL
MODEL      286
REMARK 921   NORMALIZED FREE ENERGY PREDICTED BY IDOCK:    3.47 KCAL/MOL
REMARK 922        TOTAL FREE ENERGY PREDICTED BY IDOCK:    3.54 KCAL/MOL
REMARK 923 INTER-LIGAND FREE ENERGY PREDICTED BY IDOCK:    3.75 KCAL/MOL
REMARK 924 INTRA-LIGAND FREE ENERGY PREDICTED BY IDOCK:   -0.21 KCAL/MOL
REMARK 927      BINDING AFFINITY PREDICTED BY RF-SCORE:    0.00 PKD
ROOT
HETATM    1  C   UNL     1     -12.135   4.713  63.243  1.00  0.00     3.365 C  
HETATM    2  C   UNL     1     -11.893   3.312  63.792  1.00  0.00     2.354 C  
ENDROOT
BRANCH   2   3
HETATM    3  C   UNL     1     -10.643   2.627  63.225  1.00  0.00    -0.215 C  
BRANCH   3   4
HETATM    4  C   UNL     1      -9.406   2.933  64.013  1.00  0.00    -0.118 A  
HETATM    5  N   UNL     1      -8.240   3.043  63.403  1.00  0.00    -0.084 NA 
HETATM    6  C   UNL     1      -7.281   3.176  64.367  1.00  0.00    -0.058 A  
HETATM    7  C   UNL     1      -5.819   3.258  63.980  1.00  0.00    -0.014 C  
HETATM    8  C   UNL     1      -7.870   3.127  65.628  1.00  0.00    -0.085 A  
HETATM    9  N   UNL     1      -9.256   3.112  65.378  1.00  0.00    -0.150 NA 
HETATM   10  O   UNL     1      -5.135   2.150  64.603  1.00  0.00    -0.004 OA 
HETATM   11  C   UNL     1      -5.159   4.545  64.488  1.00  0.00    -0.008 C  
HETATM   12  C   UNL     1      -5.587   3.165  62.463  1.00  0.00    -0.008 C  
HETATM   13  C   UNL     1      -7.275   3.126  66.944  1.00  0.00    -0.058 C  
HETATM   14  O   UNL     1      -6.051   2.555  66.997  1.00  0.00    -0.023 OA 
HETATM   15  O   UNL     1      -7.818   3.541  67.965  1.00  0.00    -0.068 OA 
HETATM   16  H   UNL     1      -4.218   2.201  64.361  1.00  0.00     0.000 HD 
BRANCH   9  17
HETATM   17  C   UNL     1     -10.233   3.230  66.488  1.00  0.00     1.164 C  
BRANCH  17  18
HETATM   18  C   UNL     1     -10.512   4.597  67.051  1.00  0.00    -0.009 A  
HETATM   19  C   UNL     1     -11.137   5.574  66.271  1.00  0.00     0.114 A  
HETATM   20  C   UNL     1     -11.138   6.911  66.689  1.00  0.00     0.158 A  
HETATM   21  C   UNL     1     -10.471   7.327  67.864  1.00  0.00    -0.267 A  
HETATM   22  C   UNL     1     -10.049   6.300  68.724  1.00  0.00    -0.191 A  
HETATM   23  C   UNL     1     -10.091   4.951  68.336  1.00  0.00    -0.148 A  
BRANCH  21  24
HETATM   24  C   UNL     1     -10.045   8.762  68.022  1.00  0.00    -0.241 A  
HETATM   25  C   UNL     1      -9.322   9.553  67.088  1.00  0.00    -0.174 A  
HETATM   26  C   UNL     1      -9.161  10.944  67.336  1.00  0.00    -0.155 A  
HETATM   27  C   UNL     1     -10.529   9.439  69.178  1.00  0.00    -0.230 A  
HETATM   28  C   UNL     1     -10.332  10.799  69.417  1.00  0.00    -0.207 A  
HETATM   29  C   UNL     1      -9.660  11.560  68.483  1.00  0.00    -0.180 A  
BRANCH  25  30
HETATM   30  C   UNL     1      -8.685   9.022  65.880  1.00  0.00    -0.166 A  
HETATM   31  N   UNL     1      -8.038   8.594  63.861  1.00  0.00    -0.160 NA 
HETATM   32  H   UNL     1      -9.377  10.210  64.301  1.00  0.00     0.000 HD 
HETATM   33  N   UNL     1      -7.444   7.676  64.607  1.00  0.00    -0.088 NA 
HETATM   34  N   UNL     1      -8.812   9.428  64.631  1.00  0.00    -0.204 NA 
HETATM   35  N   UNL     1      -7.843   7.938  65.857  1.00  0.00    -0.096 NA 
ENDBRANCH  25  30
ENDBRANCH  21  24
ENDBRANCH  17  18
ENDBRANCH   9  17
ENDBRANCH   3   4
ENDBRANCH   2   3
TORSDOF 6
ENDMDL
MODEL      287
REMARK 921   NORMALIZED FREE ENERGY PREDICTED BY IDOCK:    3.57 KCAL/MOL
REMARK 922        TOTAL FREE ENERGY PREDICTED BY IDOCK:    3.67 KCAL/MOL
REMARK 923 INTER-LIGAND FREE ENERGY PREDICTED BY IDOCK:    3.28 KCAL/MOL
REMARK 924 INTRA-LIGAND FREE ENERGY PREDICTED BY IDOCK:    0.39 KCAL/MOL
REMARK 927      BINDING AFFINITY PREDICTED BY RF-SCORE:    0.00 PKD
ROOT
HETATM    1  C   UNL     1     -12.135   4.713  63.243  1.00  0.00     3.365 C  
HETATM    2  C   UNL     1     -11.900   3.312  63.795  1.00  0.00     2.354 C  
ENDROOT
BRANCH   2   3
HETATM    3  C   UNL     1     -10.650   2.622  63.233  1.00  0.00    -0.215 C  
BRANCH   3   4
HETATM    4  C   UNL     1      -9.415   2.925  64.025  1.00  0.00    -0.129 A  
HETATM    5  N   UNL     1      -8.247   3.030  63.420  1.00  0.00    -0.084 NA 
HETATM    6  C   UNL     1      -7.291   3.161  64.388  1.00  0.00    -0.066 A  
HETATM    7  C   UNL     1      -5.827   3.237  64.006  1.00  0.00    -0.014 C  
HETATM    8  C   UNL     1      -7.885   3.115  65.646  1.00  0.00    -0.085 A  
HETATM    9  N   UNL     1      -9.269   3.104  65.391  1.00  0.00    -0.150 NA 
HETATM   10  O   UNL     1      -5.149   2.128  64.633  1.00  0.00    -0.004 OA 
HETATM   11  C   UNL     1      -5.164   4.523  64.516  1.00  0.00    -0.012 C  
HETATM   12  C   UNL     1      -5.589   3.142  62.490  1.00  0.00    -0.008 C  
HETATM   13  C   UNL     1      -7.295   3.113  66.965  1.00  0.00    -0.062 C  
HETATM   14  O   UNL     1      -6.073   2.539  67.023  1.00  0.00    -0.023 OA 
HETATM   15  O   UNL     1      -7.841   3.531  67.983  1.00  0.00    -0.068 OA 
HETATM   16  H   UNL     1      -4.231   2.176  64.394  1.00  0.00     0.000 HD 
BRANCH   9  17
HETATM   17  C   UNL     1     -10.251   3.227  66.497  1.00  0.00     1.164 C  
BRANCH  17  18
HETATM   18  C   UNL     1     -10.527   4.595  67.057  1.00  0.00    -0.009 A  
HETATM   19  C   UNL     1     -11.146   5.573  66.274  1.00  0.00     0.114 A  
HETATM   20  C   UNL     1     -11.144   6.912  66.691  1.00  0.00     0.158 A  
HETATM   21  C   UNL     1     -10.480   7.326  67.867  1.00  0.00    -0.267 A  
HETATM   22  C   UNL     1     -10.066   6.299  68.731  1.00  0.00    -0.191 A  
HETATM   23  C   UNL     1     -10.110   4.949  68.344  1.00  0.00    -0.148 A  
BRANCH  21  24
HETATM   24  C   UNL     1     -10.050   8.760  68.026  1.00  0.00    -0.241 A  
HETATM   25  C   UNL     1     -10.386   9.647  69.084  1.00  0.00    -0.219 A  
HETATM   26  C   UNL     1      -9.743  10.913  69.158  1.00  0.00    -0.141 A  
HETATM   27  C   UNL     1      -9.097   9.240  67.081  1.00  0.00    -0.149 A  
HETATM   28  C   UNL     1      -8.503  10.500  67.154  1.00  0.00    -0.127 A  
HETATM   29  C   UNL     1      -8.814  11.334  68.208  1.00  0.00    -0.158 A  
BRANCH  25  30
HETATM   30  C   UNL     1     -11.395   9.362  70.107  1.00  0.00    -0.185 A  
HETATM   31  N   UNL     1     -12.779   8.449  71.496  1.00  0.00    -0.315 NA 
HETATM   32  H   UNL     1     -11.434   7.278  70.304  1.00  0.00     0.000 HD 
HETATM   33  N   UNL     1     -13.007   9.749  71.600  1.00  0.00    -0.386 NA 
HETATM   34  N   UNL     1     -11.792   8.194  70.575  1.00  0.00    -0.093 NA 
HETATM   35  N   UNL     1     -12.153  10.316  70.740  1.00  0.00    -0.324 NA 
ENDBRANCH  25  30
ENDBRANCH  21  24
ENDBRANCH  17  18
ENDBRANCH   9  17
ENDBRANCH   3   4
ENDBRANCH   2   3
TORSDOF 6
ENDMDL
MODEL      288
REMARK 921   NORMALIZED FREE ENERGY PREDICTED BY IDOCK:    4.11 KCAL/MOL
REMARK 922        TOTAL FREE ENERGY PREDICTED BY IDOCK:    4.40 KCAL/MOL
REMARK 923 INTER-LIGAND FREE ENERGY PREDICTED BY IDOCK:    3.37 KCAL/MOL
REMARK 924 INTRA-LIGAND FREE ENERGY PREDICTED BY IDOCK:    1.03 KCAL/MOL
REMARK 927      BINDING AFFINITY PREDICTED BY RF-SCORE:    0.00 PKD
ROOT
HETATM    1  C   UNL     1     -11.137  10.795  63.346  1.00  0.00     0.698 C  
HETATM    2  C   UNL     1     -10.814   9.423  63.925  1.00  0.00     5.780 C  
ENDROOT
BRANCH   2   3
HETATM    3  C   UNL     1      -9.313   9.125  64.025  1.00  0.00     0.423 C  
BRANCH   3   4
HETATM    4  C   UNL     1      -8.697   9.657  65.283  1.00  0.00    -0.160 A  
HETATM    5  N   UNL     1      -8.929  10.899  65.662  1.00  0.00    -0.191 NA 
HETATM    6  C   UNL     1      -8.136  11.155  66.746  1.00  0.00    -0.155 A  
HETATM    7  C   UNL     1      -8.128  12.533  67.374  1.00  0.00    -0.180 C  
HETATM    8  C   UNL     1      -7.365  10.033  67.040  1.00  0.00    -0.091 A  
HETATM    9  N   UNL     1      -7.843   9.031  66.175  1.00  0.00    -0.101 NA 
HETATM   10  O   UNL     1      -6.782  13.047  67.292  1.00  0.00    -0.280 OA 
HETATM   11  C   UNL     1      -8.510  12.492  68.859  1.00  0.00     0.285 C  
HETATM   12  C   UNL     1      -9.060  13.529  66.665  1.00  0.00    -0.182 C  
HETATM   13  C   UNL     1      -6.320   9.842  68.018  1.00  0.00    -0.055 C  
HETATM   14  O   UNL     1      -5.613  10.960  68.299  1.00  0.00    -0.043 OA 
HETATM   15  O   UNL     1      -6.023   8.767  68.533  1.00  0.00    -0.044 OA 
HETATM   16  H   UNL     1      -6.776  13.911  67.686  1.00  0.00     0.000 HD 
BRANCH   9  17
HETATM   17  C   UNL     1      -7.379   7.627  66.303  1.00  0.00    -0.079 C  
BRANCH  17  18
HETATM   18  C   UNL     1      -8.026   6.754  67.343  1.00  0.00    -0.114 A  
HETATM   19  C   UNL     1      -9.368   6.936  67.690  1.00  0.00    -0.124 A  
HETATM   20  C   UNL     1      -9.884   6.326  68.841  1.00  0.00    -0.155 A  
HETATM   21  C   UNL     1      -9.072   5.565  69.711  1.00  0.00    -0.157 A  
HETATM   22  C   UNL     1      -7.800   5.225  69.221  1.00  0.00    -0.088 A  
HETATM   23  C   UNL     1      -7.291   5.791  68.041  1.00  0.00    -0.073 A  
BRANCH  21  24
HETATM   24  C   UNL     1      -9.482   5.365  71.146  1.00  0.00    -0.200 A  
HETATM   25  C   UNL     1      -8.633   5.107  72.256  1.00  0.00    -0.125 A  
HETATM   26  C   UNL     1      -9.182   5.121  73.568  1.00  0.00    -0.130 A  
HETATM   27  C   UNL     1     -10.858   5.587  71.445  1.00  0.00    -0.256 A  
HETATM   28  C   UNL     1     -11.382   5.564  72.737  1.00  0.00    -0.359 A  
HETATM   29  C   UNL     1     -10.537   5.348  73.806  1.00  0.00    -0.325 A  
BRANCH  25  30
HETATM   30  C   UNL     1      -7.209   4.783  72.143  1.00  0.00    -0.079 A  
HETATM   31  N   UNL     1      -5.138   4.593  71.549  1.00  0.00    -0.004 NA 
HETATM   32  H   UNL     1      -6.512   5.846  70.480  1.00  0.00     0.000 HD 
HETATM   33  N   UNL     1      -5.258   3.804  72.605  1.00  0.00     0.000 NA 
HETATM   34  N   UNL     1      -6.334   5.199  71.248  1.00  0.00    -0.029 NA 
HETATM   35  N   UNL     1      -6.539   3.919  72.974  1.00  0.00    -0.035 NA 
ENDBRANCH  25  30
ENDBRANCH  21  24
ENDBRANCH  17  18
ENDBRANCH   9  17
ENDBRANCH   3   4
ENDBRANCH   2   3
TORSDOF 6
ENDMDL
MODEL      289
REMARK 921   NORMALIZED FREE ENERGY PREDICTED BY IDOCK:    4.15 KCAL/MOL
REMARK 922        TOTAL FREE ENERGY PREDICTED BY IDOCK:    4.46 KCAL/MOL
REMARK 923 INTER-LIGAND FREE ENERGY PREDICTED BY IDOCK:    1.50 KCAL/MOL
REMARK 924 INTRA-LIGAND FREE ENERGY PREDICTED BY IDOCK:    2.96 KCAL/MOL
REMARK 927      BINDING AFFINITY PREDICTED BY RF-SCORE:    0.00 PKD
ROOT
HETATM    1  C   UNL     1     -12.108   4.875  63.289  1.00  0.00     3.836 C  
HETATM    2  C   UNL     1     -11.878   3.499  63.902  1.00  0.00     2.302 C  
ENDROOT
BRANCH   2   3
HETATM    3  C   UNL     1     -10.579   2.822  63.444  1.00  0.00    -0.224 C  
BRANCH   3   4
HETATM    4  C   UNL     1      -9.380   3.288  64.210  1.00  0.00    -0.136 A  
HETATM    5  N   UNL     1      -8.191   3.308  63.637  1.00  0.00    -0.085 NA 
HETATM    6  C   UNL     1      -7.274   3.630  64.598  1.00  0.00    -0.066 A  
HETATM    7  C   UNL     1      -5.799   3.668  64.260  1.00  0.00    -0.014 C  
HETATM    8  C   UNL     1      -7.915   3.798  65.822  1.00  0.00    -0.093 A  
HETATM    9  N   UNL     1      -9.289   3.713  65.525  1.00  0.00    -0.155 NA 
HETATM   10  O   UNL     1      -5.128   2.704  65.099  1.00  0.00    -0.007 OA 
HETATM   11  C   UNL     1      -5.175   5.038  64.552  1.00  0.00    -0.009 C  
HETATM   12  C   UNL     1      -5.502   3.308  62.794  1.00  0.00    -0.008 C  
HETATM   13  C   UNL     1      -7.376   4.046  67.139  1.00  0.00    -0.068 C  
HETATM   14  O   UNL     1      -6.148   3.517  67.343  1.00  0.00    -0.027 OA 
HETATM   15  O   UNL     1      -7.966   4.628  68.046  1.00  0.00    -0.084 OA 
HETATM   16  H   UNL     1      -4.203   2.728  64.887  1.00  0.00     0.000 HD 
BRANCH   9  17
HETATM   17  C   UNL     1     -10.313   4.010  66.557  1.00  0.00     0.430 C  
BRANCH  17  18
HETATM   18  C   UNL     1     -10.169   5.273  67.361  1.00  0.00    -0.240 A  
HETATM   19  C   UNL     1      -9.889   5.218  68.729  1.00  0.00    -0.224 A  
HETATM   20  C   UNL     1     -10.036   6.364  69.523  1.00  0.00    -0.190 A  
HETATM   21  C   UNL     1     -10.519   7.582  68.993  1.00  0.00    -0.216 A  
HETATM   22  C   UNL     1     -10.579   7.660  67.592  1.00  0.00    -0.294 A  
HETATM   23  C   UNL     1     -10.383   6.529  66.783  1.00  0.00    -0.279 A  
BRANCH  21  24
HETATM   24  C   UNL     1     -11.147   8.604  69.903  1.00  0.00    -0.119 A  
HETATM   25  C   UNL     1     -10.906  10.005  69.920  1.00  0.00    -0.328 A  
HETATM   26  C   UNL     1     -11.722  10.840  70.732  1.00  0.00    -0.400 A  
HETATM   27  C   UNL     1     -12.192   8.136  70.751  1.00  0.00    -0.011 A  
HETATM   28  C   UNL     1     -12.959   8.969  71.565  1.00  0.00    -0.391 A  
HETATM   29  C   UNL     1     -12.735  10.330  71.542  1.00  0.00    -0.557 A  
BRANCH  25  30
HETATM   30  C   UNL     1      -9.830  10.662  69.174  1.00  0.00    -0.200 A  
HETATM   31  N   UNL     1      -7.937  11.354  68.387  1.00  0.00    -0.135 NA 
HETATM   32  H   UNL     1      -8.047   9.831  69.893  1.00  0.00     0.000 HD 
HETATM   33  N   UNL     1      -8.850  12.070  67.748  1.00  0.00    -0.158 NA 
HETATM   34  N   UNL     1      -8.526  10.486  69.275  1.00  0.00    -0.153 NA 
HETATM   35  N   UNL     1     -10.021  11.644  68.234  1.00  0.00    -0.195 NA 
ENDBRANCH  25  30
ENDBRANCH  21  24
ENDBRANCH  17  18
ENDBRANCH   9  17
ENDBRANCH   3   4
ENDBRANCH   2   3
TORSDOF 6
ENDMDL
MODEL      290
REMARK 921   NORMALIZED FREE ENERGY PREDICTED BY IDOCK:    4.95 KCAL/MOL
REMARK 922        TOTAL FREE ENERGY PREDICTED BY IDOCK:    5.53 KCAL/MOL
REMARK 923 INTER-LIGAND FREE ENERGY PREDICTED BY IDOCK:    0.82 KCAL/MOL
REMARK 924 INTRA-LIGAND FREE ENERGY PREDICTED BY IDOCK:    4.71 KCAL/MOL
REMARK 927      BINDING AFFINITY PREDICTED BY RF-SCORE:    0.00 PKD
ROOT
HETATM    1  C   UNL     1     -12.084   5.200  63.754  1.00  0.00     4.637 C  
HETATM    2  C   UNL     1     -11.890   3.906  64.535  1.00  0.00     2.357 C  
ENDROOT
BRANCH   2   3
HETATM    3  C   UNL     1     -10.541   3.220  64.279  1.00  0.00    -0.040 C  
BRANCH   3   4
HETATM    4  C   UNL     1      -9.417   3.846  65.046  1.00  0.00    -0.170 A  
HETATM    5  N   UNL     1      -8.165   3.597  64.712  1.00  0.00    -0.090 NA 
HETATM    6  C   UNL     1      -7.362   4.172  65.657  1.00  0.00    -0.076 A  
HETATM    7  C   UNL     1      -5.859   4.003  65.584  1.00  0.00    -0.022 C  
HETATM    8  C   UNL     1      -8.147   4.786  66.630  1.00  0.00    -0.107 A  
HETATM    9  N   UNL     1      -9.465   4.687  66.145  1.00  0.00    -0.154 NA 
HETATM   10  O   UNL     1      -5.430   3.344  66.795  1.00  0.00    -0.015 OA 
HETATM   11  C   UNL     1      -5.130   5.350  65.516  1.00  0.00    -0.009 C  
HETATM   12  C   UNL     1      -5.401   3.147  64.391  1.00  0.00    -0.009 C  
HETATM   13  C   UNL     1      -7.775   5.434  67.865  1.00  0.00    -0.092 C  
HETATM   14  O   UNL     1      -6.658   4.934  68.439  1.00  0.00    -0.046 OA 
HETATM   15  O   UNL     1      -8.417   6.325  68.416  1.00  0.00    -0.115 OA 
HETATM   16  H   UNL     1      -4.487   3.238  66.750  1.00  0.00     0.000 HD 
BRANCH   9  17
HETATM   17  C   UNL     1     -10.585   5.380  66.830  1.00  0.00    -0.271 C  
BRANCH  17  18
HETATM   18  C   UNL     1     -10.381   6.806  67.264  1.00  0.00    -0.311 A  
HETATM   19  C   UNL     1     -10.293   7.131  68.620  1.00  0.00    -0.200 A  
HETATM   20  C   UNL     1     -10.390   8.468  69.030  1.00  0.00    -0.229 A  
HETATM   21  C   UNL     1     -10.633   9.514  68.112  1.00  0.00    -0.265 A  
HETATM   22  C   UNL     1     -10.497   9.182  66.754  1.00  0.00    -0.266 A  
HETATM   23  C   UNL     1     -10.348   7.850  66.334  1.00  0.00     0.054 A  
BRANCH  21  24
HETATM   24  C   UNL     1     -11.234  10.811  68.586  1.00  0.00    -0.333 A  
HETATM   25  C   UNL     1     -11.749  11.098  69.879  1.00  0.00    -0.433 A  
HETATM   26  C   UNL     1     -12.116  12.435  70.198  1.00  0.00    -0.366 A  
HETATM   27  C   UNL     1     -11.160  11.908  67.680  1.00  0.00    -0.314 A  
HETATM   28  C   UNL     1     -11.556  13.206  68.003  1.00  0.00    -0.371 A  
HETATM   29  C   UNL     1     -12.020  13.475  69.274  1.00  0.00    -0.378 A  
BRANCH  25  30
HETATM   30  C   UNL     1     -11.969  10.090  70.919  1.00  0.00    -0.361 A  
HETATM   31  N   UNL     1     -12.793   8.675  72.332  1.00  0.00    -0.381 NA 
HETATM   32  H   UNL     1     -14.030   9.717  70.923  1.00  0.00     0.000 HD 
HETATM   33  N   UNL     1     -11.495   8.691  72.590  1.00  0.00    -0.216 NA 
HETATM   34  N   UNL     1     -13.103   9.538  71.308  1.00  0.00    -0.344 NA 
HETATM   35  N   UNL     1     -10.983   9.566  71.717  1.00  0.00    -0.245 NA 
ENDBRANCH  25  30
ENDBRANCH  21  24
ENDBRANCH  17  18
ENDBRANCH   9  17
ENDBRANCH   3   4
ENDBRANCH   2   3
TORSDOF 6
ENDMDL
MODEL      291
REMARK 921   NORMALIZED FREE ENERGY PREDICTED BY IDOCK:    5.98 KCAL/MOL
REMARK 922        TOTAL FREE ENERGY PREDICTED BY IDOCK:    6.92 KCAL/MOL
REMARK 923 INTER-LIGAND FREE ENERGY PREDICTED BY IDOCK:    1.27 KCAL/MOL
REMARK 924 INTRA-LIGAND FREE ENERGY PREDICTED BY IDOCK:    5.65 KCAL/MOL
REMARK 927      BINDING AFFINITY PREDICTED BY RF-SCORE:    0.00 PKD
ROOT
HETATM    1  C   UNL     1     -13.571  14.689  66.010  1.00  0.00     2.352 C  
HETATM    2  C   UNL     1     -13.006  14.744  64.596  1.00  0.00     0.496 C  
ENDROOT
BRANCH   2   3
HETATM    3  C   UNL     1     -11.521  15.126  64.531  1.00  0.00    -0.319 C  
BRANCH   3   4
HETATM    4  C   UNL     1     -10.735  14.599  65.692  1.00  0.00    -0.332 A  
HETATM    5  N   UNL     1     -10.956  15.060  66.909  1.00  0.00    -0.320 NA 
HETATM    6  C   UNL     1     -10.011  14.518  67.734  1.00  0.00    -0.225 A  
HETATM    7  C   UNL     1      -9.962  14.911  69.196  1.00  0.00    -0.211 C  
HETATM    8  C   UNL     1      -9.155  13.704  66.998  1.00  0.00    -0.248 A  
HETATM    9  N   UNL     1      -9.721  13.656  65.710  1.00  0.00    -0.197 NA 
HETATM   10  O   UNL     1      -8.670  15.504  69.450  1.00  0.00    -0.246 OA 
HETATM   11  C   UNL     1     -10.097  13.699  70.124  1.00  0.00     1.945 C  
HETATM   12  C   UNL     1     -11.039  15.938  69.585  1.00  0.00    -0.320 C  
HETATM   13  C   UNL     1      -7.958  12.999  67.393  1.00  0.00    -0.172 C  
HETATM   14  O   UNL     1      -7.265  13.598  68.387  1.00  0.00    -0.091 OA 
HETATM   15  O   UNL     1      -7.535  11.974  66.865  1.00  0.00    -0.131 OA 
HETATM   16  H   UNL     1      -8.639  15.750  70.367  1.00  0.00     0.000 HD 
BRANCH   9  17
HETATM   17  C   UNL     1      -9.182  12.743  64.672  1.00  0.00     0.941 C  
BRANCH  17  18
HETATM   18  C   UNL     1      -8.986  11.295  65.028  1.00  0.00    -0.015 A  
HETATM   19  C   UNL     1      -9.482  10.784  66.231  1.00  0.00    -0.213 A  
HETATM   20  C   UNL     1      -9.060   9.528  66.688  1.00  0.00    -0.179 A  
HETATM   21  C   UNL     1      -8.091   8.769  65.995  1.00  0.00    -0.112 A  
HETATM   22  C   UNL     1      -7.783   9.206  64.697  1.00  0.00    -0.113 A  
HETATM   23  C   UNL     1      -8.242  10.440  64.208  1.00  0.00    -0.121 A  
BRANCH  21  24
HETATM   24  C   UNL     1      -7.290   7.722  66.723  1.00  0.00    -0.089 A  
HETATM   25  C   UNL     1      -7.721   6.906  67.804  1.00  0.00    -0.112 A  
HETATM   26  C   UNL     1      -6.884   5.847  68.251  1.00  0.00    -0.067 A  
HETATM   27  C   UNL     1      -6.003   7.426  66.186  1.00  0.00    -0.037 A  
HETATM   28  C   UNL     1      -5.184   6.403  66.662  1.00  0.00    -0.012 A  
HETATM   29  C   UNL     1      -5.633   5.598  67.688  1.00  0.00    -0.012 A  
BRANCH  25  30
HETATM   30  C   UNL     1      -8.977   7.103  68.532  1.00  0.00    -0.127 A  
HETATM   31  N   UNL     1     -10.581   7.140  69.983  1.00  0.00    -0.225 NA 
HETATM   32  H   UNL     1      -8.647   6.341  70.455  1.00  0.00     0.000 HD 
HETATM   33  N   UNL     1     -11.104   7.673  68.890  1.00  0.00     0.109 NA 
HETATM   34  N   UNL     1      -9.271   6.778  69.777  1.00  0.00    -0.147 NA 
HETATM   35  N   UNL     1     -10.114   7.650  67.990  1.00  0.00    -0.179 NA 
ENDBRANCH  25  30
ENDBRANCH  21  24
ENDBRANCH  17  18
ENDBRANCH   9  17
ENDBRANCH   3   4
ENDBRANCH   2   3
TORSDOF 6
ENDMDL
MODEL      292
REMARK 921   NORMALIZED FREE ENERGY PREDICTED BY IDOCK:    7.05 KCAL/MOL
REMARK 922        TOTAL FREE ENERGY PREDICTED BY IDOCK:    8.37 KCAL/MOL
REMARK 923 INTER-LIGAND FREE ENERGY PREDICTED BY IDOCK:    4.48 KCAL/MOL
REMARK 924 INTRA-LIGAND FREE ENERGY PREDICTED BY IDOCK:    3.88 KCAL/MOL
REMARK 927      BINDING AFFINITY PREDICTED BY RF-SCORE:    0.00 PKD
ROOT
HETATM    1  C   UNL     1      -6.971   7.892  66.571  1.00  0.00    -0.071 C  
HETATM    2  C   UNL     1      -8.231   8.260  65.797  1.00  0.00    -0.123 C  
ENDROOT
BRANCH   2   3
HETATM    3  C   UNL     1      -9.535   7.955  66.546  1.00  0.00    -0.277 C  
BRANCH   3   4
HETATM    4  C   UNL     1      -9.887   9.008  67.551  1.00  0.00    -0.179 A  
HETATM    5  N   UNL     1     -11.108   9.071  68.048  1.00  0.00     0.088 NA 
HETATM    6  C   UNL     1     -11.184  10.199  68.816  1.00  0.00    -0.164 A  
HETATM    7  C   UNL     1     -12.493  10.585  69.473  1.00  0.00     0.105 C  
HETATM    8  C   UNL     1      -9.968  10.876  68.780  1.00  0.00    -0.195 A  
HETATM    9  N   UNL     1      -9.100  10.021  68.074  1.00  0.00    -0.131 NA 
HETATM   10  O   UNL     1     -12.872  11.885  68.973  1.00  0.00     0.458 OA 
HETATM   11  C   UNL     1     -12.359  10.705  70.996  1.00  0.00    -0.507 C  
HETATM   12  C   UNL     1     -13.638   9.606  69.167  1.00  0.00     5.162 C  
HETATM   13  C   UNL     1      -9.585  12.150  69.342  1.00  0.00     0.941 C  
HETATM   14  O   UNL     1     -10.595  13.044  69.426  1.00  0.00     0.056 OA 
HETATM   15  O   UNL     1      -8.444  12.461  69.674  1.00  0.00     1.239 OA 
HETATM   16  H   UNL     1     -13.693  12.127  69.385  1.00  0.00     0.000 HD 
BRANCH   9  17
HETATM   17  C   UNL     1      -7.651  10.321  67.970  1.00  0.00    -0.088 C  
BRANCH  17  18
HETATM   18  C   UNL     1      -7.236  11.726  67.631  1.00  0.00    -0.111 A  
HETATM   19  C   UNL     1      -6.192  12.348  68.322  1.00  0.00    -0.056 A  
HETATM   20  C   UNL     1      -5.998  13.731  68.206  1.00  0.00    -0.108 A  
HETATM   21  C   UNL     1      -6.867  14.545  67.445  1.00  0.00    -0.067 A  
HETATM   22  C   UNL     1      -7.759  13.867  66.599  1.00  0.00     0.897 A  
HETATM   23  C   UNL     1      -7.926  12.474  66.671  1.00  0.00     0.186 A  
BRANCH  21  24
HETATM   24  C   UNL     1      -6.967  16.019  67.735  1.00  0.00    -0.163 A  
HETATM   25  C   UNL     1      -8.133  16.750  68.089  1.00  0.00    -0.197 A  
HETATM   26  C   UNL     1      -8.005  18.106  68.499  1.00  0.00    -0.312 A  
HETATM   27  C   UNL     1      -5.736  16.736  67.788  1.00  0.00    -0.150 A  
HETATM   28  C   UNL     1      -5.637  18.076  68.161  1.00  0.00    -0.160 A  
HETATM   29  C   UNL     1      -6.774  18.760  68.536  1.00  0.00    -0.278 A  
BRANCH  25  30
HETATM   30  C   UNL     1      -9.493  16.208  68.026  1.00  0.00    -0.211 A  
HETATM   31  N   UNL     1     -11.427  15.451  67.421  1.00  0.00    -0.258 NA 
HETATM   32  H   UNL     1      -9.906  15.943  65.990  1.00  0.00     0.000 HD 
HETATM   33  N   UNL     1     -11.487  15.511  68.742  1.00  0.00    -0.335 NA 
HETATM   34  N   UNL     1     -10.205  15.884  66.964  1.00  0.00    -0.276 NA 
HETATM   35  N   UNL     1     -10.292  15.980  69.119  1.00  0.00    -0.230 NA 
ENDBRANCH  25  30
ENDBRANCH  21  24
ENDBRANCH  17  18
ENDBRANCH   9  17
ENDBRANCH   3   4
ENDBRANCH   2   3
TORSDOF 6
ENDMDL
MODEL      293
REMARK 921   NORMALIZED FREE ENERGY PREDICTED BY IDOCK:    8.16 KCAL/MOL
REMARK 922        TOTAL FREE ENERGY PREDICTED BY IDOCK:    9.87 KCAL/MOL
REMARK 923 INTER-LIGAND FREE ENERGY PREDICTED BY IDOCK:   -4.19 KCAL/MOL
REMARK 924 INTRA-LIGAND FREE ENERGY PREDICTED BY IDOCK:   14.06 KCAL/MOL
REMARK 927      BINDING AFFINITY PREDICTED BY RF-SCORE:    0.00 PKD
ROOT
HETATM    1  C   UNL     1      -7.669  15.380  68.951  1.00  0.00    -0.165 C  
HETATM    2  C   UNL     1      -6.220  14.938  69.120  1.00  0.00    -0.105 C  
ENDROOT
BRANCH   2   3
HETATM    3  C   UNL     1      -6.052  13.436  69.383  1.00  0.00    -0.104 C  
BRANCH   3   4
HETATM    4  C   UNL     1      -7.211  12.627  68.887  1.00  0.00    -0.045 A  
HETATM    5  N   UNL     1      -8.223  13.217  68.280  1.00  0.00    -0.154 NA 
HETATM    6  C   UNL     1      -9.188  12.273  68.071  1.00  0.00    -0.195 A  
HETATM    7  C   UNL     1     -10.511  12.662  67.446  1.00  0.00    -0.224 C  
HETATM    8  C   UNL     1      -8.769  11.049  68.587  1.00  0.00    -0.161 A  
HETATM    9  N   UNL     1      -7.435  11.263  68.983  1.00  0.00    -0.127 NA 
HETATM   10  O   UNL     1     -11.556  12.346  68.390  1.00  0.00    -0.280 OA 
HETATM   11  C   UNL     1     -10.800  11.868  66.165  1.00  0.00    -0.334 C  
HETATM   12  C   UNL     1     -10.609  14.160  67.115  1.00  0.00    -0.278 C  
HETATM   13  C   UNL     1      -9.464   9.788  68.697  1.00  0.00    -0.151 C  
HETATM   14  O   UNL     1     -10.802   9.905  68.847  1.00  0.00    -0.218 OA 
HETATM   15  O   UNL     1      -8.925   8.684  68.717  1.00  0.00    -0.138 OA 
HETATM   16  H   UNL     1     -12.386  12.590  67.998  1.00  0.00     0.000 HD 
BRANCH   9  17
HETATM   17  C   UNL     1      -6.582  10.136  69.435  1.00  0.00    -0.054 C  
BRANCH  17  18
HETATM   18  C   UNL     1      -6.774   8.792  68.785  1.00  0.00    -0.054 A  
HETATM   19  C   UNL     1      -7.907   8.531  68.010  1.00  0.00    -0.103 A  
HETATM   20  C   UNL     1      -8.222   7.215  67.648  1.00  0.00    -0.114 A  
HETATM   21  C   UNL     1      -7.455   6.114  68.092  1.00  0.00    -0.090 A  
HETATM   22  C   UNL     1      -6.216   6.427  68.676  1.00  0.00    -0.033 A  
HETATM   23  C   UNL     1      -5.867   7.749  68.997  1.00  0.00    -0.031 A  
BRANCH  21  24
HETATM   24  C   UNL     1      -8.065   4.739  68.141  1.00  0.00    -0.085 A  
HETATM   25  C   UNL     1      -7.888   3.685  67.205  1.00  0.00    -0.080 A  
HETATM   26  C   UNL     1      -8.404   2.394  67.507  1.00  0.00    -0.084 A  
HETATM   27  C   UNL     1      -8.795   4.416  69.322  1.00  0.00    -0.133 A  
HETATM   28  C   UNL     1      -9.320   3.150  69.584  1.00  0.00    -0.222 A  
HETATM   29  C   UNL     1      -9.109   2.130  68.681  1.00  0.00    -0.204 A  
BRANCH  25  30
HETATM   30  C   UNL     1      -7.232   3.842  65.904  1.00  0.00    -0.071 A  
HETATM   31  N   UNL     1      -6.614   3.724  63.835  1.00  0.00    -0.040 NA 
HETATM   32  H   UNL     1      -8.330   2.664  64.566  1.00  0.00     0.000 HD 
HETATM   33  N   UNL     1      -5.727   4.523  64.406  1.00  0.00    -0.014 NA 
HETATM   34  N   UNL     1      -7.546   3.291  64.747  1.00  0.00    -0.076 NA 
HETATM   35  N   UNL     1      -6.106   4.597  65.687  1.00  0.00    -0.026 NA 
ENDBRANCH  25  30
ENDBRANCH  21  24
ENDBRANCH  17  18
ENDBRANCH   9  17
ENDBRANCH   3   4
ENDBRANCH   2   3
TORSDOF 6
ENDMDL
MODEL      294
REMARK 921   NORMALIZED FREE ENERGY PREDICTED BY IDOCK:    9.80 KCAL/MOL
REMARK 922        TOTAL FREE ENERGY PREDICTED BY IDOCK:   12.09 KCAL/MOL
REMARK 923 INTER-LIGAND FREE ENERGY PREDICTED BY IDOCK:   12.07 KCAL/MOL
REMARK 924 INTRA-LIGAND FREE ENERGY PREDICTED BY IDOCK:    0.01 KCAL/MOL
REMARK 927      BINDING AFFINITY PREDICTED BY RF-SCORE:    0.00 PKD
ROOT
HETATM    1  C   UNL     1      -9.412  16.840  66.418  1.00  0.00    -0.307 C  
HETATM    2  C   UNL     1      -8.579  15.672  66.931  1.00  0.00    -0.281 C  
ENDROOT
BRANCH   2   3
HETATM    3  C   UNL     1      -8.140  15.813  68.395  1.00  0.00    -0.143 C  
BRANCH   3   4
HETATM    4  C   UNL     1      -9.146  16.539  69.234  1.00  0.00    -0.102 A  
HETATM    5  N   UNL     1      -9.251  17.853  69.158  1.00  0.00    -0.021 NA 
HETATM    6  C   UNL     1     -10.129  18.254  70.125  1.00  0.00     1.290 A  
HETATM    7  C   UNL     1     -10.410  19.727  70.333  1.00  0.00     1.184 C  
HETATM    8  C   UNL     1     -10.573  17.148  70.846  1.00  0.00     1.482 A  
HETATM    9  N   UNL     1     -10.038  16.037  70.167  1.00  0.00    -0.055 NA 
HETATM   10  O   UNL     1     -10.032  20.062  71.686  1.00  0.00     1.032 OA 
HETATM   11  C   UNL     1     -11.901  20.057  70.183  1.00  0.00     7.308 C  
HETATM   12  C   UNL     1      -9.618  20.637  69.380  1.00  0.00     0.944 C  
HETATM   13  C   UNL     1     -11.421  17.065  72.012  1.00  0.00     0.746 C  
HETATM   14  O   UNL     1     -11.336  18.135  72.835  1.00  0.00     1.214 OA 
HETATM   15  O   UNL     1     -12.129  16.105  72.303  1.00  0.00    -0.479 OA 
HETATM   16  H   UNL     1     -10.209  20.986  71.817  1.00  0.00     0.000 HD 
BRANCH   9  17
HETATM   17  C   UNL     1     -10.428  14.654  70.539  1.00  0.00     0.487 C  
BRANCH  17  18
HETATM   18  C   UNL     1     -10.331  13.580  69.491  1.00  0.00     0.459 A  
HETATM   19  C   UNL     1     -11.484  13.001  68.955  1.00  0.00    -0.345 A  
HETATM   20  C   UNL     1     -11.394  11.821  68.203  1.00  0.00    -0.348 A  
HETATM   21  C   UNL     1     -10.165  11.152  68.009  1.00  0.00    -0.201 A  
HETATM   22  C   UNL     1      -9.013  11.870  68.369  1.00  0.00    -0.163 A  
HETATM   23  C   UNL     1      -9.091  13.079  69.079  1.00  0.00     0.488 A  
BRANCH  21  24
HETATM   24  C   UNL     1     -10.149   9.685  67.672  1.00  0.00    -0.241 A  
HETATM   25  C   UNL     1     -10.635   8.613  68.469  1.00  0.00    -0.162 A  
HETATM   26  C   UNL     1     -10.697   7.306  67.911  1.00  0.00    -0.239 A  
HETATM   27  C   UNL     1      -9.721   9.345  66.355  1.00  0.00    -0.315 A  
HETATM   28  C   UNL     1      -9.760   8.050  65.839  1.00  0.00     0.133 A  
HETATM   29  C   UNL     1     -10.267   7.028  66.614  1.00  0.00    -0.218 A  
BRANCH  25  30
HETATM   30  C   UNL     1     -11.049   8.751  69.867  1.00  0.00    -0.123 A  
HETATM   31  N   UNL     1     -12.020   9.268  71.729  1.00  0.00    -0.371 NA 
HETATM   32  H   UNL     1     -12.771   9.942  69.837  1.00  0.00     0.000 HD 
HETATM   33  N   UNL     1     -10.979   8.532  72.086  1.00  0.00    -0.336 NA 
HETATM   34  N   UNL     1     -12.074   9.417  70.364  1.00  0.00    -0.052 NA 
HETATM   35  N   UNL     1     -10.376   8.212  70.936  1.00  0.00    -0.190 NA 
ENDBRANCH  25  30
ENDBRANCH  21  24
ENDBRANCH  17  18
ENDBRANCH   9  17
ENDBRANCH   3   4
ENDBRANCH   2   3
TORSDOF 6
ENDMDL
MODEL      295
REMARK 921   NORMALIZED FREE ENERGY PREDICTED BY IDOCK:   13.59 KCAL/MOL
REMARK 922        TOTAL FREE ENERGY PREDICTED BY IDOCK:   17.21 KCAL/MOL
REMARK 923 INTER-LIGAND FREE ENERGY PREDICTED BY IDOCK:    4.44 KCAL/MOL
REMARK 924 INTRA-LIGAND FREE ENERGY PREDICTED BY IDOCK:   12.77 KCAL/MOL
REMARK 927      BINDING AFFINITY PREDICTED BY RF-SCORE:    0.00 PKD
ROOT
HETATM    1  C   UNL     1      -9.851   9.595  71.583  1.00  0.00     0.706 C  
HETATM    2  C   UNL     1      -8.879  10.511  70.850  1.00  0.00     2.708 C  
ENDROOT
BRANCH   2   3
HETATM    3  C   UNL     1      -7.578   9.821  70.417  1.00  0.00    -0.165 C  
BRANCH   3   4
HETATM    4  C   UNL     1      -7.416   9.770  68.929  1.00  0.00    -0.075 A  
HETATM    5  N   UNL     1      -7.931  10.719  68.170  1.00  0.00    -0.110 NA 
HETATM    6  C   UNL     1      -7.761  10.345  66.867  1.00  0.00    -0.111 A  
HETATM    7  C   UNL     1      -8.313  11.205  65.750  1.00  0.00    -0.041 C  
HETATM    8  C   UNL     1      -7.132   9.103  66.812  1.00  0.00    -0.082 A  
HETATM    9  N   UNL     1      -6.790   8.813  68.147  1.00  0.00    -0.068 NA 
HETATM   10  O   UNL     1      -9.257  10.408  65.004  1.00  0.00    -0.181 OA 
HETATM   11  C   UNL     1      -7.219  11.650  64.771  1.00  0.00     2.321 C  
HETATM   12  C   UNL     1      -9.046  12.459  66.255  1.00  0.00    -0.099 C  
HETATM   13  C   UNL     1      -6.826   8.254  65.685  1.00  0.00    -0.066 C  
HETATM   14  O   UNL     1      -7.698   8.363  64.657  1.00  0.00    -0.098 OA 
HETATM   15  O   UNL     1      -5.902   7.446  65.640  1.00  0.00    -0.036 OA 
HETATM   16  H   UNL     1      -9.603  10.948  64.303  1.00  0.00     0.000 HD 
BRANCH   9  17
HETATM   17  C   UNL     1      -5.948   7.638  68.481  1.00  0.00    -0.031 C  
BRANCH  17  18
HETATM   18  C   UNL     1      -6.118   6.385  67.666  1.00  0.00    -0.021 A  
HETATM   19  C   UNL     1      -6.362   6.456  66.292  1.00  0.00    -0.042 A  
HETATM   20  C   UNL     1      -6.797   5.321  65.595  1.00  0.00    -0.061 A  
HETATM   21  C   UNL     1      -7.057   4.097  66.252  1.00  0.00    -0.067 A  
HETATM   22  C   UNL     1      -6.596   4.001  67.575  1.00  0.00    -0.046 A  
HETATM   23  C   UNL     1      -6.110   5.122  68.267  1.00  0.00    -0.027 A  
BRANCH  21  24
HETATM   24  C   UNL     1      -7.982   3.086  65.627  1.00  0.00    -0.086 A  
HETATM   25  C   UNL     1      -8.906   2.237  66.294  1.00  0.00    -0.126 A  
HETATM   26  C   UNL     1      -9.824   1.470  65.524  1.00  0.00     0.574 A  
HETATM   27  C   UNL     1      -8.029   3.071  64.202  1.00  0.00    -0.082 A  
HETATM   28  C   UNL     1      -8.916   2.286  63.466  1.00  0.00    -0.089 A  
HETATM   29  C   UNL     1      -9.830   1.495  64.130  1.00  0.00    -0.085 A  
BRANCH  25  30
HETATM   30  C   UNL     1      -8.959   2.061  67.747  1.00  0.00    -0.149 A  
HETATM   31  N   UNL     1      -9.525   1.963  69.832  1.00  0.00    -0.092 NA 
HETATM   32  H   UNL     1     -10.938   2.466  68.299  1.00  0.00     0.000 HD 
HETATM   33  N   UNL     1      -8.234   1.671  69.820  1.00  0.00    -0.044 NA 
HETATM   34  N   UNL     1      -9.986   2.212  68.562  1.00  0.00     0.357 NA 
HETATM   35  N   UNL     1      -7.881   1.731  68.531  1.00  0.00    -0.049 NA 
ENDBRANCH  25  30
ENDBRANCH  21  24
ENDBRANCH  17  18
ENDBRANCH   9  17
ENDBRANCH   3   4
ENDBRANCH   2   3
TORSDOF 6
ENDMDL
MODEL      296
REMARK 921   NORMALIZED FREE ENERGY PREDICTED BY IDOCK:   16.20 KCAL/MOL
REMARK 922        TOTAL FREE ENERGY PREDICTED BY IDOCK:   20.73 KCAL/MOL
REMARK 923 INTER-LIGAND FREE ENERGY PREDICTED BY IDOCK:    5.52 KCAL/MOL
REMARK 924 INTRA-LIGAND FREE ENERGY PREDICTED BY IDOCK:   15.21 KCAL/MOL
REMARK 927      BINDING AFFINITY PREDICTED BY RF-SCORE:    0.00 PKD
ROOT
HETATM    1  C   UNL     1     -13.673  14.731  66.128  1.00  0.00     3.359 C  
HETATM    2  C   UNL     1     -13.057  14.498  64.754  1.00  0.00     0.522 C  
ENDROOT
BRANCH   2   3
HETATM    3  C   UNL     1     -11.525  14.593  64.732  1.00  0.00    -0.410 C  
BRANCH   3   4
HETATM    4  C   UNL     1     -10.905  14.269  66.057  1.00  0.00    -0.303 A  
HETATM    5  N   UNL     1     -10.883  15.172  67.019  1.00  0.00    -0.309 NA 
HETATM    6  C   UNL     1     -10.138  14.663  68.046  1.00  0.00    -0.227 A  
HETATM    7  C   UNL     1      -9.871  15.500  69.280  1.00  0.00    -0.270 C  
HETATM    8  C   UNL     1      -9.661  13.401  67.702  1.00  0.00    -0.222 A  
HETATM    9  N   UNL     1     -10.282  13.104  66.473  1.00  0.00    -0.271 NA 
HETATM   10  O   UNL     1      -8.442  15.660  69.404  1.00  0.00    -0.248 OA 
HETATM   11  C   UNL     1     -10.365  14.815  70.559  1.00  0.00     0.402 C  
HETATM   12  C   UNL     1     -10.501  16.901  69.211  1.00  0.00    -0.319 C  
HETATM   13  C   UNL     1      -8.763  12.513  68.401  1.00  0.00    -0.122 C  
HETATM   14  O   UNL     1      -7.848  13.145  69.172  1.00  0.00     0.150 OA 
HETATM   15  O   UNL     1      -8.753  11.290  68.293  1.00  0.00    -0.144 OA 
HETATM   16  H   UNL     1      -8.275  16.185  70.178  1.00  0.00     0.000 HD 
BRANCH   9  17
HETATM   17  C   UNL     1     -10.153  11.760  65.858  1.00  0.00    -0.234 C  
BRANCH  17  18
HETATM   18  C   UNL     1     -10.007  10.571  66.768  1.00  0.00    -0.252 A  
HETATM   19  C   UNL     1     -10.045  10.727  68.156  1.00  0.00    -0.183 A  
HETATM   20  C   UNL     1      -9.629   9.682  68.992  1.00  0.00    -0.168 A  
HETATM   21  C   UNL     1      -9.110   8.474  68.475  1.00  0.00    -0.135 A  
HETATM   22  C   UNL     1      -9.291   8.269  67.098  1.00  0.00    -0.189 A  
HETATM   23  C   UNL     1      -9.755   9.293  66.256  1.00  0.00    -0.340 A  
BRANCH  21  24
HETATM   24  C   UNL     1      -8.218   7.610  69.327  1.00  0.00    -0.133 A  
HETATM   25  C   UNL     1      -8.182   7.546  70.746  1.00  0.00    -0.110 A  
HETATM   26  C   UNL     1      -7.396   6.542  71.375  1.00  0.00    -0.084 A  
HETATM   27  C   UNL     1      -7.414   6.659  68.634  1.00  0.00    -0.088 A  
HETATM   28  C   UNL     1      -6.625   5.702  69.272  1.00  0.00    -0.054 A  
HETATM   29  C   UNL     1      -6.629   5.632  70.649  1.00  0.00    -0.040 A  
BRANCH  25  30
HETATM   30  C   UNL     1      -8.880   8.484  71.629  1.00  0.00    -0.207 A  
HETATM   31  N   UNL     1      -9.760   9.537  73.300  1.00  0.00     3.264 NA 
HETATM   32  H   UNL     1      -8.557   7.783  73.575  1.00  0.00     0.000 HD 
HETATM   33  N   UNL     1     -10.154  10.213  72.232  1.00  0.00     3.360 NA 
HETATM   34  N   UNL     1      -8.979   8.464  72.944  1.00  0.00    -0.293 NA 
HETATM   35  N   UNL     1      -9.612   9.563  71.196  1.00  0.00    -0.182 NA 
ENDBRANCH  25  30
ENDBRANCH  21  24
ENDBRANCH  17  18
ENDBRANCH   9  17
ENDBRANCH   3   4
ENDBRANCH   2   3
TORSDOF 6
ENDMDL
MODEL      297
REMARK 921   NORMALIZED FREE ENERGY PREDICTED BY IDOCK:   16.24 KCAL/MOL
REMARK 922        TOTAL FREE ENERGY PREDICTED BY IDOCK:   20.78 KCAL/MOL
REMARK 923 INTER-LIGAND FREE ENERGY PREDICTED BY IDOCK:   20.99 KCAL/MOL
REMARK 924 INTRA-LIGAND FREE ENERGY PREDICTED BY IDOCK:   -0.20 KCAL/MOL
REMARK 927      BINDING AFFINITY PREDICTED BY RF-SCORE:    0.00 PKD
ROOT
HETATM    1  C   UNL     1     -13.043  16.162  65.145  1.00  0.00     3.286 C  
HETATM    2  C   UNL     1     -12.617  14.854  65.800  1.00  0.00     0.277 C  
ENDROOT
BRANCH   2   3
HETATM    3  C   UNL     1     -11.118  14.776  66.121  1.00  0.00    -0.339 C  
BRANCH   3   4
HETATM    4  C   UNL     1     -10.450  13.595  65.486  1.00  0.00    -0.306 A  
HETATM    5  N   UNL     1     -11.152  12.743  64.763  1.00  0.00    -0.290 NA 
HETATM    6  C   UNL     1     -10.329  11.702  64.437  1.00  0.00    -0.313 A  
HETATM    7  C   UNL     1     -10.868  10.521  63.658  1.00  0.00     0.888 C  
HETATM    8  C   UNL     1      -9.069  11.904  64.996  1.00  0.00     0.310 A  
HETATM    9  N   UNL     1      -9.125  13.197  65.550  1.00  0.00     0.518 NA 
HETATM   10  O   UNL     1     -10.692   9.340  64.469  1.00  0.00     1.790 OA 
HETATM   11  C   UNL     1     -10.101  10.293  62.350  1.00  0.00     0.533 C  
HETATM   12  C   UNL     1     -12.364  10.646  63.323  1.00  0.00     3.295 C  
HETATM   13  C   UNL     1      -7.903  11.053  65.017  1.00  0.00     0.352 C  
HETATM   14  O   UNL     1      -8.183   9.730  65.005  1.00  0.00    -0.129 OA 
HETATM   15  O   UNL     1      -6.743  11.447  65.098  1.00  0.00     0.713 OA 
HETATM   16  H   UNL     1     -11.030   8.598  63.980  1.00  0.00     0.000 HD 
BRANCH   9  17
HETATM   17  C   UNL     1      -7.907  13.846  66.098  1.00  0.00     2.286 C  
BRANCH  17  18
HETATM   18  C   UNL     1      -8.036  15.227  66.681  1.00  0.00    -0.071 A  
HETATM   19  C   UNL     1      -7.720  15.466  68.021  1.00  0.00    -0.132 A  
HETATM   20  C   UNL     1      -8.105  16.668  68.630  1.00  0.00    -0.237 A  
HETATM   21  C   UNL     1      -8.865  17.642  67.944  1.00  0.00    -0.246 A  
HETATM   22  C   UNL     1      -8.973  17.468  66.554  1.00  0.00    -0.284 A  
HETATM   23  C   UNL     1      -8.543  16.288  65.925  1.00  0.00    -0.064 A  
BRANCH  21  24
HETATM   24  C   UNL     1      -9.688  18.639  68.716  1.00  0.00    -0.407 A  
HETATM   25  C   UNL     1     -10.650  18.363  69.725  1.00  0.00     1.156 A  
HETATM   26  C   UNL     1     -11.203  19.441  70.470  1.00  0.00     4.476 A  
HETATM   27  C   UNL     1      -9.376  20.013  68.504  1.00  0.00    -0.211 A  
HETATM   28  C   UNL     1      -9.955  21.057  69.224  1.00  0.00     1.150 A  
HETATM   29  C   UNL     1     -10.860  20.769  70.224  1.00  0.00     2.073 A  
BRANCH  25  30
HETATM   30  C   UNL     1     -11.154  17.023  70.036  1.00  0.00     0.427 A  
HETATM   31  N   UNL     1     -11.399  14.948  70.597  1.00  0.00    -0.256 NA 
HETATM   32  H   UNL     1      -9.504  15.943  70.741  1.00  0.00     0.000 HD 
HETATM   33  N   UNL     1     -12.600  15.331  70.192  1.00  0.00    -0.329 NA 
HETATM   34  N   UNL     1     -10.495  15.978  70.500  1.00  0.00    -0.028 NA 
HETATM   35  N   UNL     1     -12.451  16.614  69.843  1.00  0.00     1.097 NA 
ENDBRANCH  25  30
ENDBRANCH  21  24
ENDBRANCH  17  18
ENDBRANCH   9  17
ENDBRANCH   3   4
ENDBRANCH   2   3
TORSDOF 6
ENDMDL
MODEL      298
REMARK 921   NORMALIZED FREE ENERGY PREDICTED BY IDOCK:   19.20 KCAL/MOL
REMARK 922        TOTAL FREE ENERGY PREDICTED BY IDOCK:   24.78 KCAL/MOL
REMARK 923 INTER-LIGAND FREE ENERGY PREDICTED BY IDOCK:   24.58 KCAL/MOL
REMARK 924 INTRA-LIGAND FREE ENERGY PREDICTED BY IDOCK:    0.20 KCAL/MOL
REMARK 927      BINDING AFFINITY PREDICTED BY RF-SCORE:    0.00 PKD
ROOT
HETATM    1  C   UNL     1     -11.382  10.559  63.244  1.00  0.00     2.054 C  
HETATM    2  C   UNL     1     -11.533   9.101  63.660  1.00  0.00    11.996 C  
ENDROOT
BRANCH   2   3
HETATM    3  C   UNL     1     -10.258   8.266  63.482  1.00  0.00     6.762 C  
BRANCH   3   4
HETATM    4  C   UNL     1      -9.202   8.596  64.491  1.00  0.00     0.579 A  
HETATM    5  N   UNL     1      -8.821   9.847  64.670  1.00  0.00    -0.187 NA 
HETATM    6  C   UNL     1      -7.759   9.837  65.530  1.00  0.00    -0.121 A  
HETATM    7  C   UNL     1      -7.052  11.129  65.882  1.00  0.00     0.123 C  
HETATM    8  C   UNL     1      -7.454   8.526  65.885  1.00  0.00    -0.077 A  
HETATM    9  N   UNL     1      -8.482   7.749  65.318  1.00  0.00    -0.120 NA 
HETATM   10  O   UNL     1      -5.675  11.005  65.469  1.00  0.00    -0.289 OA 
HETATM   11  C   UNL     1      -7.053  11.395  67.392  1.00  0.00    -0.114 C  
HETATM   12  C   UNL     1      -7.649  12.359  65.177  1.00  0.00     3.943 C  
HETATM   13  C   UNL     1      -6.371   7.996  66.681  1.00  0.00    -0.054 C  
HETATM   14  O   UNL     1      -5.233   8.722  66.622  1.00  0.00    -0.033 OA 
HETATM   15  O   UNL     1      -6.414   6.950  67.325  1.00  0.00    -0.045 OA 
HETATM   16  H   UNL     1      -5.231  11.816  65.690  1.00  0.00     0.000 HD 
BRANCH   9  17
HETATM   17  C   UNL     1      -8.601   6.301  65.619  1.00  0.00    -0.139 C  
BRANCH  17  18
HETATM   18  C   UNL     1      -9.303   5.891  66.885  1.00  0.00    -0.136 A  
HETATM   19  C   UNL     1     -10.642   6.230  67.098  1.00  0.00    -0.380 A  
HETATM   20  C   UNL     1     -11.205   6.101  68.375  1.00  0.00    -0.215 A  
HETATM   21  C   UNL     1     -10.440   5.686  69.489  1.00  0.00    -0.372 A  
HETATM   22  C   UNL     1      -9.175   5.150  69.198  1.00  0.00    -0.150 A  
HETATM   23  C   UNL     1      -8.621   5.228  67.910  1.00  0.00    -0.103 A  
BRANCH  21  24
HETATM   24  C   UNL     1     -10.885   6.039  70.883  1.00  0.00    -0.349 A  
HETATM   25  C   UNL     1     -10.198   6.850  71.826  1.00  0.00    -0.206 A  
HETATM   26  C   UNL     1     -10.854   7.219  73.033  1.00  0.00    -0.399 A  
HETATM   27  C   UNL     1     -12.197   5.622  71.251  1.00  0.00     1.170 A  
HETATM   28  C   UNL     1     -12.810   5.968  72.454  1.00  0.00     0.355 A  
HETATM   29  C   UNL     1     -12.143   6.785  73.343  1.00  0.00     1.519 A  
BRANCH  25  30
HETATM   30  C   UNL     1      -8.818   7.314  71.660  1.00  0.00    -0.117 A  
HETATM   31  N   UNL     1      -6.892   7.952  70.912  1.00  0.00    -0.041 NA 
HETATM   32  H   UNL     1      -8.531   7.525  69.597  1.00  0.00     0.000 HD 
HETATM   33  N   UNL     1      -6.745   7.909  72.227  1.00  0.00    -0.060 NA 
HETATM   34  N   UNL     1      -8.164   7.582  70.547  1.00  0.00    -0.117 NA 
HETATM   35  N   UNL     1      -7.935   7.513  72.693  1.00  0.00    -0.096 NA 
ENDBRANCH  25  30
ENDBRANCH  21  24
ENDBRANCH  17  18
ENDBRANCH   9  17
ENDBRANCH   3   4
ENDBRANCH   2   3
TORSDOF 6
ENDMDL
MODEL      299
REMARK 921   NORMALIZED FREE ENERGY PREDICTED BY IDOCK:   19.35 KCAL/MOL
REMARK 922        TOTAL FREE ENERGY PREDICTED BY IDOCK:   24.99 KCAL/MOL
REMARK 923 INTER-LIGAND FREE ENERGY PREDICTED BY IDOCK:   18.87 KCAL/MOL
REMARK 924 INTRA-LIGAND FREE ENERGY PREDICTED BY IDOCK:    6.12 KCAL/MOL
REMARK 927      BINDING AFFINITY PREDICTED BY RF-SCORE:    0.00 PKD
ROOT
HETATM    1  C   UNL     1     -13.863  18.551  68.257  1.00  0.00    11.532 C  
HETATM    2  C   UNL     1     -12.415  18.121  68.056  1.00  0.00     5.064 C  
ENDROOT
BRANCH   2   3
HETATM    3  C   UNL     1     -11.391  19.035  68.742  1.00  0.00     2.047 C  
BRANCH   3   4
HETATM    4  C   UNL     1      -9.985  18.767  68.299  1.00  0.00    -0.385 A  
HETATM    5  N   UNL     1      -9.380  19.597  67.471  1.00  0.00    -0.317 NA 
HETATM    6  C   UNL     1      -8.182  19.037  67.128  1.00  0.00    -0.269 A  
HETATM    7  C   UNL     1      -7.278  19.728  66.128  1.00  0.00    -0.279 C  
HETATM    8  C   UNL     1      -8.044  17.800  67.751  1.00  0.00    -0.226 A  
HETATM    9  N   UNL     1      -9.153  17.706  68.613  1.00  0.00    -0.281 NA 
HETATM   10  O   UNL     1      -7.090  18.833  65.011  1.00  0.00    -0.409 OA 
HETATM   11  C   UNL     1      -5.891  20.024  66.712  1.00  0.00    -0.184 C  
HETATM   12  C   UNL     1      -7.863  21.043  65.588  1.00  0.00     0.960 C  
HETATM   13  C   UNL     1      -7.014  16.795  67.629  1.00  0.00    -0.135 C  
HETATM   14  O   UNL     1      -6.420  16.756  66.415  1.00  0.00    -0.241 OA 
HETATM   15  O   UNL     1      -6.708  15.987  68.502  1.00  0.00    -0.119 OA 
HETATM   16  H   UNL     1      -6.523  19.266  64.384  1.00  0.00     0.000 HD 
BRANCH   9  17
HETATM   17  C   UNL     1      -9.273  16.589  69.584  1.00  0.00     0.329 C  
BRANCH  17  18
HETATM   18  C   UNL     1      -9.154  15.181  69.069  1.00  0.00    -0.218 A  
HETATM   19  C   UNL     1     -10.087  14.208  69.435  1.00  0.00     0.176 A  
HETATM   20  C   UNL     1      -9.821  12.853  69.193  1.00  0.00     0.445 A  
HETATM   21  C   UNL     1      -8.598  12.421  68.632  1.00  0.00     0.032 A  
HETATM   22  C   UNL     1      -7.788  13.427  68.081  1.00  0.00    -0.145 A  
HETATM   23  C   UNL     1      -8.072  14.789  68.274  1.00  0.00    -0.139 A  
BRANCH  21  24
HETATM   24  C   UNL     1      -8.124  11.009  68.851  1.00  0.00    -0.135 A  
HETATM   25  C   UNL     1      -8.571   9.838  68.182  1.00  0.00    -0.118 A  
HETATM   26  C   UNL     1      -7.883   8.612  68.396  1.00  0.00    -0.105 A  
HETATM   27  C   UNL     1      -7.015  10.846  69.732  1.00  0.00    -0.121 A  
HETATM   28  C   UNL     1      -6.375   9.627  69.951  1.00  0.00    -0.054 A  
HETATM   29  C   UNL     1      -6.800   8.507  69.267  1.00  0.00    -0.050 A  
BRANCH  25  30
HETATM   30  C   UNL     1      -9.738   9.791  67.298  1.00  0.00    -0.169 A  
HETATM   31  N   UNL     1     -11.404   9.210  66.046  1.00  0.00     2.454 NA 
HETATM   32  H   UNL     1     -10.245   7.767  67.129  1.00  0.00     0.000 HD 
HETATM   33  N   UNL     1     -11.340  10.528  65.932  1.00  0.00     0.436 NA 
HETATM   34  N   UNL     1     -10.418   8.740  66.881  1.00  0.00    -0.278 NA 
HETATM   35  N   UNL     1     -10.310  10.890  66.705  1.00  0.00    -0.232 NA 
ENDBRANCH  25  30
ENDBRANCH  21  24
ENDBRANCH  17  18
ENDBRANCH   9  17
ENDBRANCH   3   4
ENDBRANCH   2   3
TORSDOF 6
ENDMDL
MODEL      300
REMARK 921   NORMALIZED FREE ENERGY PREDICTED BY IDOCK:   20.61 KCAL/MOL
REMARK 922        TOTAL FREE ENERGY PREDICTED BY IDOCK:   26.69 KCAL/MOL
REMARK 923 INTER-LIGAND FREE ENERGY PREDICTED BY IDOCK:   26.05 KCAL/MOL
REMARK 924 INTRA-LIGAND FREE ENERGY PREDICTED BY IDOCK:    0.64 KCAL/MOL
REMARK 927      BINDING AFFINITY PREDICTED BY RF-SCORE:    0.00 PKD
ROOT
HETATM    1  C   UNL     1      -7.800  16.019  65.567  1.00  0.00     2.622 C  
HETATM    2  C   UNL     1      -7.789  16.969  64.375  1.00  0.00     8.690 C  
ENDROOT
BRANCH   2   3
HETATM    3  C   UNL     1      -9.090  17.762  64.197  1.00  0.00    10.148 C  
BRANCH   3   4
HETATM    4  C   UNL     1      -9.878  17.877  65.466  1.00  0.00     0.545 A  
HETATM    5  N   UNL     1      -9.618  18.845  66.325  1.00  0.00    -0.405 NA 
HETATM    6  C   UNL     1     -10.375  18.622  67.440  1.00  0.00    -0.406 A  
HETATM    7  C   UNL     1     -10.248  19.535  68.642  1.00  0.00    -0.384 C  
HETATM    8  C   UNL     1     -11.123  17.458  67.277  1.00  0.00     0.141 A  
HETATM    9  N   UNL     1     -10.896  17.068  65.943  1.00  0.00    -0.113 NA 
HETATM   10  O   UNL     1      -9.825  18.731  69.764  1.00  0.00     0.099 OA 
HETATM   11  C   UNL     1     -11.586  20.179  69.022  1.00  0.00     3.173 C  
HETATM   12  C   UNL     1      -9.213  20.656  68.445  1.00  0.00     0.359 C  
HETATM   13  C   UNL     1     -11.988  16.761  68.199  1.00  0.00     0.944 C  
HETATM   14  O   UNL     1     -11.634  16.890  69.497  1.00  0.00     0.333 OA 
HETATM   15  O   UNL     1     -12.939  16.053  67.876  1.00  0.00     2.131 OA 
HETATM   16  H   UNL     1      -9.745  19.304  70.517  1.00  0.00     0.000 HD 
BRANCH   9  17
HETATM   17  C   UNL     1     -11.659  15.951  65.334  1.00  0.00     0.288 C  
BRANCH  17  18
HETATM   18  C   UNL     1     -11.088  14.562  65.429  1.00  0.00    -0.345 A  
HETATM   19  C   UNL     1     -10.911  13.949  66.673  1.00  0.00    -0.302 A  
HETATM   20  C   UNL     1     -10.128  12.792  66.780  1.00  0.00    -0.239 A  
HETATM   21  C   UNL     1      -9.452  12.242  65.667  1.00  0.00    -0.078 A  
HETATM   22  C   UNL     1      -9.826  12.749  64.412  1.00  0.00    -0.052 A  
HETATM   23  C   UNL     1     -10.652  13.878  64.290  1.00  0.00    -0.083 A  
BRANCH  21  24
HETATM   24  C   UNL     1      -8.251  11.359  65.874  1.00  0.00     0.086 A  
HETATM   25  C   UNL     1      -7.225  11.515  66.845  1.00  0.00    -0.137 A  
HETATM   26  C   UNL     1      -6.260  10.483  67.008  1.00  0.00    -0.066 A  
HETATM   27  C   UNL     1      -8.205  10.164  65.098  1.00  0.00    -0.151 A  
HETATM   28  C   UNL     1      -7.230   9.179  65.252  1.00  0.00    -0.089 A  
HETATM   29  C   UNL     1      -6.263   9.330  66.223  1.00  0.00    -0.064 A  
BRANCH  25  30
HETATM   30  C   UNL     1      -7.061  12.705  67.684  1.00  0.00    -0.139 A  
HETATM   31  N   UNL     1      -6.479  14.163  69.172  1.00  0.00    -0.105 NA 
HETATM   32  H   UNL     1      -5.534  12.243  69.039  1.00  0.00     0.000 HD 
HETATM   33  N   UNL     1      -7.455  14.746  68.493  1.00  0.00    -0.111 NA 
HETATM   34  N   UNL     1      -6.229  12.901  68.688  1.00  0.00    -0.067 NA 
HETATM   35  N   UNL     1      -7.818  13.846  67.573  1.00  0.00    -0.173 NA 
ENDBRANCH  25  30
ENDBRANCH  21  24
ENDBRANCH  17  18
ENDBRANCH   9  17
ENDBRANCH   3   4
ENDBRANCH   2   3
TORSDOF 6
ENDMDL
MODEL      301
REMARK 921   NORMALIZED FREE ENERGY PREDICTED BY IDOCK:   21.76 KCAL/MOL
REMARK 922        TOTAL FREE ENERGY PREDICTED BY IDOCK:   28.25 KCAL/MOL
REMARK 923 INTER-LIGAND FREE ENERGY PREDICTED BY IDOCK:   11.36 KCAL/MOL
REMARK 924 INTRA-LIGAND FREE ENERGY PREDICTED BY IDOCK:   16.89 KCAL/MOL
REMARK 927      BINDING AFFINITY PREDICTED BY RF-SCORE:    0.00 PKD
ROOT
HETATM    1  C   UNL     1      -9.091  14.536  67.049  1.00  0.00    -0.254 C  
HETATM    2  C   UNL     1      -7.572  14.633  66.961  1.00  0.00     0.070 C  
ENDROOT
BRANCH   2   3
HETATM    3  C   UNL     1      -6.902  13.401  66.338  1.00  0.00     2.788 C  
BRANCH   3   4
HETATM    4  C   UNL     1      -7.725  12.158  66.484  1.00  0.00     0.236 A  
HETATM    5  N   UNL     1      -7.299  11.165  67.242  1.00  0.00    -0.111 NA 
HETATM    6  C   UNL     1      -8.163  10.119  67.076  1.00  0.00    -0.118 A  
HETATM    7  C   UNL     1      -7.902   8.799  67.771  1.00  0.00    -0.102 C  
HETATM    8  C   UNL     1      -9.154  10.467  66.162  1.00  0.00    -0.162 A  
HETATM    9  N   UNL     1      -8.937  11.833  65.898  1.00  0.00    -0.121 NA 
HETATM   10  O   UNL     1      -7.762   7.784  66.754  1.00  0.00    -0.095 OA 
HETATM   11  C   UNL     1      -9.070   8.381  68.673  1.00  0.00    -0.140 C  
HETATM   12  C   UNL     1      -6.619   8.802  68.618  1.00  0.00    -0.055 C  
HETATM   13  C   UNL     1     -10.223   9.682  65.590  1.00  0.00    -0.034 C  
HETATM   14  O   UNL     1      -9.937   8.366  65.464  1.00  0.00     0.372 OA 
HETATM   15  O   UNL     1     -11.291  10.133  65.185  1.00  0.00     1.295 OA 
HETATM   16  H   UNL     1      -7.599   6.956  67.190  1.00  0.00     0.000 HD 
BRANCH   9  17
HETATM   17  C   UNL     1      -9.902  12.617  65.089  1.00  0.00    -0.092 C  
BRANCH  17  18
HETATM   18  C   UNL     1      -9.993  14.100  65.326  1.00  0.00    -0.295 A  
HETATM   19  C   UNL     1      -8.997  14.959  64.853  1.00  0.00     2.862 A  
HETATM   20  C   UNL     1      -8.934  16.281  65.312  1.00  0.00     1.290 A  
HETATM   21  C   UNL     1      -9.821  16.773  66.296  1.00  0.00    -0.327 A  
HETATM   22  C   UNL     1     -10.931  15.961  66.581  1.00  0.00    -0.136 A  
HETATM   23  C   UNL     1     -11.031  14.650  66.085  1.00  0.00    -0.329 A  
BRANCH  21  24
HETATM   24  C   UNL     1      -9.438  17.966  67.130  1.00  0.00    -0.263 A  
HETATM   25  C   UNL     1      -9.209  17.998  68.532  1.00  0.00    -0.296 A  
HETATM   26  C   UNL     1      -8.682  19.180  69.122  1.00  0.00    -0.136 A  
HETATM   27  C   UNL     1      -9.145  19.165  66.417  1.00  0.00    -0.362 A  
HETATM   28  C   UNL     1      -8.659  20.325  67.022  1.00  0.00    -0.398 A  
HETATM   29  C   UNL     1      -8.410  20.327  68.378  1.00  0.00     0.084 A  
BRANCH  25  30
HETATM   30  C   UNL     1      -9.519  16.892  69.441  1.00  0.00     0.068 A  
HETATM   31  N   UNL     1     -10.253  15.086  70.379  1.00  0.00     0.052 NA 
HETATM   32  H   UNL     1     -10.657  15.536  68.322  1.00  0.00     0.000 HD 
HETATM   33  N   UNL     1      -9.593  15.719  71.337  1.00  0.00     2.636 NA 
HETATM   34  N   UNL     1     -10.221  15.800  69.205  1.00  0.00    -0.230 NA 
HETATM   35  N   UNL     1      -9.139  16.837  70.759  1.00  0.00     3.659 NA 
ENDBRANCH  25  30
ENDBRANCH  21  24
ENDBRANCH  17  18
ENDBRANCH   9  17
ENDBRANCH   3   4
ENDBRANCH   2   3
TORSDOF 6
ENDMDL
MODEL      302
REMARK 921   NORMALIZED FREE ENERGY PREDICTED BY IDOCK:   22.20 KCAL/MOL
REMARK 922        TOTAL FREE ENERGY PREDICTED BY IDOCK:   28.83 KCAL/MOL
REMARK 923 INTER-LIGAND FREE ENERGY PREDICTED BY IDOCK:   19.55 KCAL/MOL
REMARK 924 INTRA-LIGAND FREE ENERGY PREDICTED BY IDOCK:    9.28 KCAL/MOL
REMARK 927      BINDING AFFINITY PREDICTED BY RF-SCORE:    0.00 PKD
ROOT
HETATM    1  C   UNL     1      -6.356   8.675  67.429  1.00  0.00    -0.057 C  
HETATM    2  C   UNL     1      -5.385   7.731  66.730  1.00  0.00    -0.028 C  
ENDROOT
BRANCH   2   3
HETATM    3  C   UNL     1      -5.517   6.265  67.164  1.00  0.00    -0.009 C  
BRANCH   3   4
HETATM    4  C   UNL     1      -6.933   5.779  67.143  1.00  0.00    -0.065 A  
HETATM    5  N   UNL     1      -7.316   4.812  67.956  1.00  0.00    -0.069 NA 
HETATM    6  C   UNL     1      -8.598   4.475  67.623  1.00  0.00    -0.103 A  
HETATM    7  C   UNL     1      -9.298   3.340  68.340  1.00  0.00    -0.180 C  
HETATM    8  C   UNL     1      -9.023   5.249  66.546  1.00  0.00    -0.120 A  
HETATM    9  N   UNL     1      -7.988   6.181  66.341  1.00  0.00    -0.104 NA 
HETATM   10  O   UNL     1      -9.646   2.343  67.356  1.00  0.00    -0.406 OA 
HETATM   11  C   UNL     1     -10.602   3.795  69.007  1.00  0.00     2.067 C  
HETATM   12  C   UNL     1      -8.422   2.665  69.408  1.00  0.00    -0.100 C  
HETATM   13  C   UNL     1     -10.246   5.201  65.779  1.00  0.00    -0.053 C  
HETATM   14  O   UNL     1     -10.798   3.970  65.693  1.00  0.00     0.164 OA 
HETATM   15  O   UNL     1     -10.747   6.155  65.189  1.00  0.00     2.177 OA 
HETATM   16  H   UNL     1     -10.085   1.631  67.805  1.00  0.00     0.000 HD 
BRANCH   9  17
HETATM   17  C   UNL     1      -8.146   7.298  65.376  1.00  0.00    -0.133 C  
BRANCH  17  18
HETATM   18  C   UNL     1      -7.951   8.704  65.874  1.00  0.00    -0.105 A  
HETATM   19  C   UNL     1      -8.916   9.313  66.681  1.00  0.00    -0.165 A  
HETATM   20  C   UNL     1      -8.873  10.696  66.906  1.00  0.00    -0.143 A  
HETATM   21  C   UNL     1      -7.905  11.522  66.290  1.00  0.00     0.046 A  
HETATM   22  C   UNL     1      -6.834  10.855  65.672  1.00  0.00     0.054 A  
HETATM   23  C   UNL     1      -6.843   9.463  65.487  1.00  0.00    -0.078 A  
BRANCH  21  24
HETATM   24  C   UNL     1      -8.169  12.994  66.117  1.00  0.00     1.097 A  
HETATM   25  C   UNL     1      -9.287  13.729  66.595  1.00  0.00    -0.277 A  
HETATM   26  C   UNL     1      -9.282  15.148  66.489  1.00  0.00    -0.318 A  
HETATM   27  C   UNL     1      -7.122  13.756  65.523  1.00  0.00     8.400 A  
HETATM   28  C   UNL     1      -7.152  15.145  65.400  1.00  0.00     8.508 A  
HETATM   29  C   UNL     1      -8.229  15.846  65.901  1.00  0.00     0.595 A  
BRANCH  25  30
HETATM   30  C   UNL     1     -10.489  13.118  67.168  1.00  0.00    -0.247 A  
HETATM   31  N   UNL     1     -12.506  12.526  67.678  1.00  0.00     0.102 NA 
HETATM   32  H   UNL     1     -12.099  13.890  66.074  1.00  0.00     0.000 HD 
HETATM   33  N   UNL     1     -11.738  11.884  68.544  1.00  0.00    -0.315 NA 
HETATM   34  N   UNL     1     -11.751  13.296  66.826  1.00  0.00    -0.364 NA 
HETATM   35  N   UNL     1     -10.490  12.250  68.232  1.00  0.00    -0.220 NA 
ENDBRANCH  25  30
ENDBRANCH  21  24
ENDBRANCH  17  18
ENDBRANCH   9  17
ENDBRANCH   3   4
ENDBRANCH   2   3
TORSDOF 6
ENDMDL
MODEL      303
REMARK 921   NORMALIZED FREE ENERGY PREDICTED BY IDOCK:   30.51 KCAL/MOL
REMARK 922        TOTAL FREE ENERGY PREDICTED BY IDOCK:   40.05 KCAL/MOL
REMARK 923 INTER-LIGAND FREE ENERGY PREDICTED BY IDOCK:   39.83 KCAL/MOL
REMARK 924 INTRA-LIGAND FREE ENERGY PREDICTED BY IDOCK:    0.22 KCAL/MOL
REMARK 927      BINDING AFFINITY PREDICTED BY RF-SCORE:    0.00 PKD
ROOT
HETATM    1  C   UNL     1     -12.191   8.349  66.967  1.00  0.00     7.181 C  
HETATM    2  C   UNL     1     -11.491   8.145  68.305  1.00  0.00     1.156 C  
ENDROOT
BRANCH   2   3
HETATM    3  C   UNL     1     -10.330   7.142  68.256  1.00  0.00    -0.227 C  
BRANCH   3   4
HETATM    4  C   UNL     1      -9.411   7.259  69.433  1.00  0.00    -0.154 A  
HETATM    5  N   UNL     1      -8.195   6.749  69.380  1.00  0.00    -0.126 NA 
HETATM    6  C   UNL     1      -7.642   6.870  70.624  1.00  0.00    -0.094 A  
HETATM    7  C   UNL     1      -6.262   6.311  70.900  1.00  0.00    -0.039 C  
HETATM    8  C   UNL     1      -8.558   7.460  71.491  1.00  0.00    -0.117 A  
HETATM    9  N   UNL     1      -9.641   7.833  70.672  1.00  0.00    -0.167 NA 
HETATM   10  O   UNL     1      -6.387   5.323  71.944  1.00  0.00    -0.035 OA 
HETATM   11  C   UNL     1      -5.294   7.388  71.407  1.00  0.00    -0.031 C  
HETATM   12  C   UNL     1      -5.626   5.631  69.677  1.00  0.00    -0.008 C  
HETATM   13  C   UNL     1      -8.481   7.708  72.912  1.00  0.00    -0.140 C  
HETATM   14  O   UNL     1      -7.732   6.810  73.591  1.00  0.00    -0.088 OA 
HETATM   15  O   UNL     1      -9.073   8.606  73.505  1.00  0.00    -0.162 OA 
HETATM   16  H   UNL     1      -5.521   4.972  72.118  1.00  0.00     0.000 HD 
BRANCH   9  17
HETATM   17  C   UNL     1     -10.758   8.649  71.209  1.00  0.00    -0.254 C  
BRANCH  17  18
HETATM   18  C   UNL     1     -10.657  10.147  71.111  1.00  0.00     0.362 A  
HETATM   19  C   UNL     1     -11.208  10.828  70.022  1.00  0.00    -0.366 A  
HETATM   20  C   UNL     1     -10.872  12.169  69.789  1.00  0.00     0.325 A  
HETATM   21  C   UNL     1      -9.936  12.854  70.595  1.00  0.00     5.526 A  
HETATM   22  C   UNL     1      -9.576  12.217  71.793  1.00  0.00    16.068 A  
HETATM   23  C   UNL     1      -9.950  10.890  72.062  1.00  0.00     8.934 A  
BRANCH  21  24
HETATM   24  C   UNL     1      -9.215  14.061  70.055  1.00  0.00     1.836 A  
HETATM   25  C   UNL     1      -7.902  14.107  69.514  1.00  0.00     0.343 A  
HETATM   26  C   UNL     1      -7.451  15.303  68.889  1.00  0.00    -0.147 A  
HETATM   27  C   UNL     1      -9.979  15.260  69.957  1.00  0.00    -0.125 A  
HETATM   28  C   UNL     1      -9.505  16.432  69.368  1.00  0.00    -0.117 A  
HETATM   29  C   UNL     1      -8.241  16.449  68.816  1.00  0.00    -0.234 A  
BRANCH  25  30
HETATM   30  C   UNL     1      -6.943  13.002  69.586  1.00  0.00     0.272 A  
HETATM   31  N   UNL     1      -5.807  11.237  70.108  1.00  0.00    -0.117 NA 
HETATM   32  H   UNL     1      -7.589  11.789  71.165  1.00  0.00     0.000 HD 
HETATM   33  N   UNL     1      -5.144  11.778  69.098  1.00  0.00    -0.048 NA 
HETATM   34  N   UNL     1      -6.916  11.984  70.425  1.00  0.00     0.687 NA 
HETATM   35  N   UNL     1      -5.844  12.871  68.774  1.00  0.00    -0.067 NA 
ENDBRANCH  25  30
ENDBRANCH  21  24
ENDBRANCH  17  18
ENDBRANCH   9  17
ENDBRANCH   3   4
ENDBRANCH   2   3
TORSDOF 6
ENDMDL
MODEL      304
REMARK 921   NORMALIZED FREE ENERGY PREDICTED BY IDOCK:   30.71 KCAL/MOL
REMARK 922        TOTAL FREE ENERGY PREDICTED BY IDOCK:   40.33 KCAL/MOL
REMARK 923 INTER-LIGAND FREE ENERGY PREDICTED BY IDOCK:   21.23 KCAL/MOL
REMARK 924 INTRA-LIGAND FREE ENERGY PREDICTED BY IDOCK:   19.11 KCAL/MOL
REMARK 927      BINDING AFFINITY PREDICTED BY RF-SCORE:    0.00 PKD
ROOT
HETATM    1  C   UNL     1      -9.814   8.170  66.008  1.00  0.00     0.038 C  
HETATM    2  C   UNL     1     -11.196   8.340  65.388  1.00  0.00     6.789 C  
ENDROOT
BRANCH   2   3
HETATM    3  C   UNL     1     -12.292   8.708  66.397  1.00  0.00    10.443 C  
BRANCH   3   4
HETATM    4  C   UNL     1     -11.826   9.690  67.428  1.00  0.00     2.784 A  
HETATM    5  N   UNL     1     -12.400   9.729  68.616  1.00  0.00     1.396 NA 
HETATM    6  C   UNL     1     -11.882  10.800  69.289  1.00  0.00    -0.288 A  
HETATM    7  C   UNL     1     -12.396  11.151  70.670  1.00  0.00    -0.388 C  
HETATM    8  C   UNL     1     -10.963  11.465  68.482  1.00  0.00    -0.221 A  
HETATM    9  N   UNL     1     -10.835  10.654  67.338  1.00  0.00    -0.283 NA 
HETATM   10  O   UNL     1     -12.939  12.487  70.612  1.00  0.00     0.005 OA 
HETATM   11  C   UNL     1     -11.276  11.160  71.717  1.00  0.00     3.315 C  
HETATM   12  C   UNL     1     -13.507  10.209  71.162  1.00  0.00    -0.272 C  
HETATM   13  C   UNL     1     -10.233  12.691  68.702  1.00  0.00    -0.154 C  
HETATM   14  O   UNL     1     -10.879  13.588  69.482  1.00  0.00    -0.065 OA 
HETATM   15  O   UNL     1      -9.146  12.965  68.201  1.00  0.00    -0.199 OA 
HETATM   16  H   UNL     1     -13.262  12.708  71.478  1.00  0.00     0.000 HD 
BRANCH   9  17
HETATM   17  C   UNL     1      -9.809  10.945  66.306  1.00  0.00    -0.216 C  
BRANCH  17  18
HETATM   18  C   UNL     1      -8.896   9.831  65.874  1.00  0.00    -0.175 A  
HETATM   19  C   UNL     1      -9.185   9.075  64.735  1.00  0.00     0.005 A  
HETATM   20  C   UNL     1      -8.503   7.874  64.497  1.00  0.00     0.064 A  
HETATM   21  C   UNL     1      -7.555   7.360  65.411  1.00  0.00    -0.096 A  
HETATM   22  C   UNL     1      -7.135   8.243  66.419  1.00  0.00    -0.071 A  
HETATM   23  C   UNL     1      -7.779   9.473  66.635  1.00  0.00    -0.098 A  
BRANCH  21  24
HETATM   24  C   UNL     1      -7.231   5.890  65.416  1.00  0.00    -0.074 A  
HETATM   25  C   UNL     1      -7.928   4.858  66.100  1.00  0.00    -0.107 A  
HETATM   26  C   UNL     1      -7.582   3.501  65.846  1.00  0.00    -0.081 A  
HETATM   27  C   UNL     1      -6.191   5.471  64.535  1.00  0.00    -0.022 A  
HETATM   28  C   UNL     1      -5.847   4.136  64.326  1.00  0.00    -0.014 A  
HETATM   29  C   UNL     1      -6.557   3.145  64.971  1.00  0.00    -0.039 A  
BRANCH  25  30
HETATM   30  C   UNL     1      -8.974   5.094  67.098  1.00  0.00    -0.112 A  
HETATM   31  N   UNL     1     -10.344   4.997  68.769  1.00  0.00    -0.097 NA 
HETATM   32  H   UNL     1      -8.779   3.555  68.504  1.00  0.00     0.000 HD 
HETATM   33  N   UNL     1     -10.734   6.055  68.075  1.00  0.00    -0.271 NA 
HETATM   34  N   UNL     1      -9.264   4.390  68.175  1.00  0.00    -0.128 NA 
HETATM   35  N   UNL     1      -9.888   6.117  67.040  1.00  0.00    -0.139 NA 
ENDBRANCH  25  30
ENDBRANCH  21  24
ENDBRANCH  17  18
ENDBRANCH   9  17
ENDBRANCH   3   4
ENDBRANCH   2   3
TORSDOF 6
ENDMDL
MODEL      305
REMARK 921   NORMALIZED FREE ENERGY PREDICTED BY IDOCK:   31.90 KCAL/MOL
REMARK 922        TOTAL FREE ENERGY PREDICTED BY IDOCK:   41.94 KCAL/MOL
REMARK 923 INTER-LIGAND FREE ENERGY PREDICTED BY IDOCK:   41.53 KCAL/MOL
REMARK 924 INTRA-LIGAND FREE ENERGY PREDICTED BY IDOCK:    0.40 KCAL/MOL
REMARK 927      BINDING AFFINITY PREDICTED BY RF-SCORE:    0.00 PKD
ROOT
HETATM    1  C   UNL     1     -10.126  11.942  67.679  1.00  0.00    -0.202 C  
HETATM    2  C   UNL     1      -8.986  10.932  67.661  1.00  0.00    -0.140 C  
ENDROOT
BRANCH   2   3
HETATM    3  C   UNL     1      -8.904  10.106  66.371  1.00  0.00    -0.158 C  
BRANCH   3   4
HETATM    4  C   UNL     1      -9.974  10.462  65.385  1.00  0.00    -0.295 A  
HETATM    5  N   UNL     1     -10.414  11.703  65.301  1.00  0.00    -0.263 NA 
HETATM    6  C   UNL     1     -11.474  11.708  64.438  1.00  0.00    -0.224 A  
HETATM    7  C   UNL     1     -12.241  12.988  64.183  1.00  0.00    -0.401 C  
HETATM    8  C   UNL     1     -11.716  10.415  63.982  1.00  0.00     3.611 A  
HETATM    9  N   UNL     1     -10.652   9.647  64.493  1.00  0.00     1.774 NA 
HETATM   10  O   UNL     1     -13.612  12.768  64.578  1.00  0.00    -0.128 OA 
HETATM   11  C   UNL     1     -12.252  13.368  62.697  1.00  0.00     1.423 C  
HETATM   12  C   UNL     1     -11.704  14.187  64.981  1.00  0.00    -0.376 C  
HETATM   13  C   UNL     1     -12.771   9.896  63.143  1.00  0.00     9.977 C  
HETATM   14  O   UNL     1     -13.943  10.561  63.253  1.00  0.00     4.287 OA 
HETATM   15  O   UNL     1     -12.678   8.906  62.422  1.00  0.00    13.197 OA 
HETATM   16  H   UNL     1     -14.093  13.571  64.418  1.00  0.00     0.000 HD 
BRANCH   9  17
HETATM   17  C   UNL     1     -10.464   8.233  64.083  1.00  0.00     7.780 C  
BRANCH  17  18
HETATM   18  C   UNL     1      -9.999   7.246  65.118  1.00  0.00     2.436 A  
HETATM   19  C   UNL     1     -10.877   6.778  66.100  1.00  0.00     1.012 A  
HETATM   20  C   UNL     1     -10.380   6.093  67.217  1.00  0.00    -0.272 A  
HETATM   21  C   UNL     1      -8.995   5.902  67.420  1.00  0.00    -0.108 A  
HETATM   22  C   UNL     1      -8.169   6.186  66.320  1.00  0.00    -0.116 A  
HETATM   23  C   UNL     1      -8.666   6.827  65.174  1.00  0.00     0.121 A  
BRANCH  21  24
HETATM   24  C   UNL     1      -8.463   5.648  68.806  1.00  0.00    -0.102 A  
HETATM   25  C   UNL     1      -8.887   6.260  70.016  1.00  0.00    -0.142 A  
HETATM   26  C   UNL     1      -8.391   5.767  71.254  1.00  0.00    -0.127 A  
HETATM   27  C   UNL     1      -7.521   4.586  68.935  1.00  0.00    -0.056 A  
HETATM   28  C   UNL     1      -7.022   4.140  70.158  1.00  0.00    -0.041 A  
HETATM   29  C   UNL     1      -7.472   4.721  71.325  1.00  0.00    -0.076 A  
BRANCH  25  30
HETATM   30  C   UNL     1      -9.790   7.412  70.082  1.00  0.00    -0.180 A  
HETATM   31  N   UNL     1     -11.474   8.768  70.016  1.00  0.00    -0.038 NA 
HETATM   32  H   UNL     1     -11.693   6.673  69.615  1.00  0.00     0.000 HD 
HETATM   33  N   UNL     1     -10.438   9.533  70.322  1.00  0.00    -0.246 NA 
HETATM   34  N   UNL     1     -11.090   7.459  69.858  1.00  0.00    -0.229 NA 
HETATM   35  N   UNL     1      -9.395   8.697  70.362  1.00  0.00    -0.163 NA 
ENDBRANCH  25  30
ENDBRANCH  21  24
ENDBRANCH  17  18
ENDBRANCH   9  17
ENDBRANCH   3   4
ENDBRANCH   2   3
TORSDOF 6
ENDMDL
MODEL      306
REMARK 921   NORMALIZED FREE ENERGY PREDICTED BY IDOCK:   33.65 KCAL/MOL
REMARK 922        TOTAL FREE ENERGY PREDICTED BY IDOCK:   44.30 KCAL/MOL
REMARK 923 INTER-LIGAND FREE ENERGY PREDICTED BY IDOCK:   44.37 KCAL/MOL
REMARK 924 INTRA-LIGAND FREE ENERGY PREDICTED BY IDOCK:   -0.08 KCAL/MOL
REMARK 927      BINDING AFFINITY PREDICTED BY RF-SCORE:    0.00 PKD
ROOT
HETATM    1  C   UNL     1     -10.126  11.942  67.679  1.00  0.00    -0.202 C  
HETATM    2  C   UNL     1      -8.988  10.930  67.650  1.00  0.00    -0.140 C  
ENDROOT
BRANCH   2   3
HETATM    3  C   UNL     1      -8.926  10.097  66.362  1.00  0.00    -0.163 C  
BRANCH   3   4
HETATM    4  C   UNL     1     -10.013  10.446  65.393  1.00  0.00    -0.295 A  
HETATM    5  N   UNL     1     -10.383  11.702  65.232  1.00  0.00    -0.258 NA 
HETATM    6  C   UNL     1     -11.475  11.710  64.411  1.00  0.00    -0.224 A  
HETATM    7  C   UNL     1     -12.176  13.014  64.089  1.00  0.00    -0.401 C  
HETATM    8  C   UNL     1     -11.812  10.405  64.063  1.00  0.00     3.969 A  
HETATM    9  N   UNL     1     -10.774   9.612  64.590  1.00  0.00     2.033 NA 
HETATM   10  O   UNL     1     -13.540  12.908  64.551  1.00  0.00     0.032 OA 
HETATM   11  C   UNL     1     -12.226  13.284  62.581  1.00  0.00     1.319 C  
HETATM   12  C   UNL     1     -11.537  14.232  64.775  1.00  0.00    -0.404 C  
HETATM   13  C   UNL     1     -12.930   9.893  63.305  1.00  0.00    10.541 C  
HETATM   14  O   UNL     1     -14.055  10.635  63.408  1.00  0.00     3.680 OA 
HETATM   15  O   UNL     1     -12.925   8.849  62.657  1.00  0.00    13.582 OA 
HETATM   16  H   UNL     1     -13.979  13.725  64.349  1.00  0.00     0.000 HD 
BRANCH   9  17
HETATM   17  C   UNL     1     -10.687   8.163  64.280  1.00  0.00     9.802 C  
BRANCH  17  18
HETATM   18  C   UNL     1      -9.953   7.272  65.243  1.00  0.00     2.089 A  
HETATM   19  C   UNL     1     -10.531   6.911  66.463  1.00  0.00    -0.088 A  
HETATM   20  C   UNL     1      -9.747   6.326  67.467  1.00  0.00    -0.129 A  
HETATM   21  C   UNL     1      -8.356   6.135  67.311  1.00  0.00    -0.105 A  
HETATM   22  C   UNL     1      -7.857   6.302  66.009  1.00  0.00    -0.106 A  
HETATM   23  C   UNL     1      -8.648   6.840  64.981  1.00  0.00     0.088 A  
BRANCH  21  24
HETATM   24  C   UNL     1      -7.471   6.005  68.522  1.00  0.00    -0.087 A  
HETATM   25  C   UNL     1      -7.378   4.895  69.405  1.00  0.00    -0.056 A  
HETATM   26  C   UNL     1      -6.357   4.880  70.395  1.00  0.00    -0.026 A  
HETATM   27  C   UNL     1      -6.530   7.055  68.731  1.00  0.00    -0.032 A  
HETATM   28  C   UNL     1      -5.557   7.035  69.730  1.00  0.00    -0.022 A  
HETATM   29  C   UNL     1      -5.459   5.934  70.555  1.00  0.00    -0.013 A  
BRANCH  25  30
HETATM   30  C   UNL     1      -8.300   3.757  69.394  1.00  0.00    -0.060 A  
HETATM   31  N   UNL     1      -9.989   2.419  69.590  1.00  0.00     0.379 NA 
HETATM   32  H   UNL     1     -10.132   4.501  70.085  1.00  0.00     0.000 HD 
HETATM   33  N   UNL     1      -9.002   1.654  69.149  1.00  0.00    -0.080 NA 
HETATM   34  N   UNL     1      -9.570   3.718  69.752  1.00  0.00    -0.198 NA 
HETATM   35  N   UNL     1      -7.956   2.480  69.028  1.00  0.00    -0.048 NA 
ENDBRANCH  25  30
ENDBRANCH  21  24
ENDBRANCH  17  18
ENDBRANCH   9  17
ENDBRANCH   3   4
ENDBRANCH   2   3
TORSDOF 6
ENDMDL
MODEL      307
REMARK 921   NORMALIZED FREE ENERGY PREDICTED BY IDOCK:   34.20 KCAL/MOL
REMARK 922        TOTAL FREE ENERGY PREDICTED BY IDOCK:   45.04 KCAL/MOL
REMARK 923 INTER-LIGAND FREE ENERGY PREDICTED BY IDOCK:   44.49 KCAL/MOL
REMARK 924 INTRA-LIGAND FREE ENERGY PREDICTED BY IDOCK:    0.55 KCAL/MOL
REMARK 927      BINDING AFFINITY PREDICTED BY RF-SCORE:    0.00 PKD
ROOT
HETATM    1  C   UNL     1     -10.126  11.942  67.679  1.00  0.00    -0.202 C  
HETATM    2  C   UNL     1      -8.988  10.930  67.650  1.00  0.00    -0.140 C  
ENDROOT
BRANCH   2   3
HETATM    3  C   UNL     1      -8.926  10.097  66.362  1.00  0.00    -0.163 C  
BRANCH   3   4
HETATM    4  C   UNL     1     -10.010  10.450  65.390  1.00  0.00    -0.295 A  
HETATM    5  N   UNL     1     -10.374  11.708  65.229  1.00  0.00    -0.258 NA 
HETATM    6  C   UNL     1     -11.464  11.721  64.405  1.00  0.00    -0.273 A  
HETATM    7  C   UNL     1     -12.159  13.027  64.081  1.00  0.00    -0.427 C  
HETATM    8  C   UNL     1     -11.805  10.417  64.056  1.00  0.00     3.969 A  
HETATM    9  N   UNL     1     -10.772   9.620  64.585  1.00  0.00     2.033 NA 
HETATM   10  O   UNL     1     -13.524  12.926  64.539  1.00  0.00    -0.234 OA 
HETATM   11  C   UNL     1     -12.204  13.298  62.573  1.00  0.00     1.961 C  
HETATM   12  C   UNL     1     -11.516  14.243  64.769  1.00  0.00    -0.394 C  
HETATM   13  C   UNL     1     -12.923   9.909  63.295  1.00  0.00    10.541 C  
HETATM   14  O   UNL     1     -14.045  10.656  63.395  1.00  0.00     3.680 OA 
HETATM   15  O   UNL     1     -12.920   8.866  62.647  1.00  0.00    13.582 OA 
HETATM   16  H   UNL     1     -13.960  13.746  64.336  1.00  0.00     0.000 HD 
BRANCH   9  17
HETATM   17  C   UNL     1     -10.690   8.171  64.276  1.00  0.00     9.802 C  
BRANCH  17  18
HETATM   18  C   UNL     1      -9.961   7.276  65.240  1.00  0.00     2.089 A  
HETATM   19  C   UNL     1     -10.544   6.917  66.458  1.00  0.00    -0.034 A  
HETATM   20  C   UNL     1      -9.765   6.330  67.464  1.00  0.00    -0.129 A  
HETATM   21  C   UNL     1      -8.374   6.132  67.311  1.00  0.00    -0.105 A  
HETATM   22  C   UNL     1      -7.871   6.298  66.011  1.00  0.00    -0.106 A  
HETATM   23  C   UNL     1      -8.658   6.839  64.981  1.00  0.00     0.088 A  
BRANCH  21  24
HETATM   24  C   UNL     1      -7.493   5.999  68.525  1.00  0.00    -0.087 A  
HETATM   25  C   UNL     1      -6.505   6.916  68.976  1.00  0.00    -0.036 A  
HETATM   26  C   UNL     1      -5.891   6.707  70.242  1.00  0.00    -0.023 A  
HETATM   27  C   UNL     1      -7.768   4.897  69.386  1.00  0.00    -0.067 A  
HETATM   28  C   UNL     1      -7.131   4.694  70.610  1.00  0.00    -0.041 A  
HETATM   29  C   UNL     1      -6.200   5.613  71.048  1.00  0.00    -0.034 A  
BRANCH  25  30
HETATM   30  C   UNL     1      -6.034   8.065  68.199  1.00  0.00    -0.041 A  
HETATM   31  N   UNL     1      -5.438   9.451  66.649  1.00  0.00    -0.045 NA 
HETATM   32  H   UNL     1      -6.294   7.539  66.189  1.00  0.00     0.000 HD 
HETATM   33  N   UNL     1      -5.139  10.065  67.783  1.00  0.00    -0.035 NA 
HETATM   34  N   UNL     1      -5.985   8.214  66.889  1.00  0.00    -0.051 NA 
HETATM   35  N   UNL     1      -5.506   9.209  68.744  1.00  0.00    -0.037 NA 
ENDBRANCH  25  30
ENDBRANCH  21  24
ENDBRANCH  17  18
ENDBRANCH   9  17
ENDBRANCH   3   4
ENDBRANCH   2   3
TORSDOF 6
ENDMDL
MODEL      308
REMARK 921   NORMALIZED FREE ENERGY PREDICTED BY IDOCK:   35.91 KCAL/MOL
REMARK 922        TOTAL FREE ENERGY PREDICTED BY IDOCK:   47.35 KCAL/MOL
REMARK 923 INTER-LIGAND FREE ENERGY PREDICTED BY IDOCK:   23.54 KCAL/MOL
REMARK 924 INTRA-LIGAND FREE ENERGY PREDICTED BY IDOCK:   23.82 KCAL/MOL
REMARK 927      BINDING AFFINITY PREDICTED BY RF-SCORE:    0.00 PKD
ROOT
HETATM    1  C   UNL     1     -13.731  14.731  66.152  1.00  0.00     3.359 C  
HETATM    2  C   UNL     1     -13.751  13.965  64.834  1.00  0.00     1.877 C  
ENDROOT
BRANCH   2   3
HETATM    3  C   UNL     1     -12.358  13.638  64.280  1.00  0.00    -0.388 C  
BRANCH   3   4
HETATM    4  C   UNL     1     -11.254  14.045  65.208  1.00  0.00    -0.319 A  
HETATM    5  N   UNL     1     -10.604  15.177  65.012  1.00  0.00    -0.416 NA 
HETATM    6  C   UNL     1      -9.571  15.221  65.905  1.00  0.00    -0.342 A  
HETATM    7  C   UNL     1      -8.595  16.378  65.883  1.00  0.00    -0.038 C  
HETATM    8  C   UNL     1      -9.566  14.060  66.675  1.00  0.00    -0.289 A  
HETATM    9  N   UNL     1     -10.742  13.378  66.308  1.00  0.00    -0.285 NA 
HETATM   10  O   UNL     1      -7.279  15.840  65.631  1.00  0.00     1.621 OA 
HETATM   11  C   UNL     1      -8.536  17.109  67.230  1.00  0.00    -0.214 C  
HETATM   12  C   UNL     1      -8.903  17.411  64.787  1.00  0.00     4.815 C  
HETATM   13  C   UNL     1      -8.629  13.599  67.673  1.00  0.00    -0.185 C  
HETATM   14  O   UNL     1      -7.357  14.011  67.470  1.00  0.00    -0.169 OA 
HETATM   15  O   UNL     1      -8.904  12.851  68.607  1.00  0.00    -0.078 OA 
HETATM   16  H   UNL     1      -6.666  16.566  65.617  1.00  0.00     0.000 HD 
BRANCH   9  17
HETATM   17  C   UNL     1     -11.179  12.164  67.040  1.00  0.00    -0.314 C  
BRANCH  17  18
HETATM   18  C   UNL     1     -10.517  11.844  68.352  1.00  0.00    -0.231 A  
HETATM   19  C   UNL     1      -9.513  12.671  68.863  1.00  0.00     0.254 A  
HETATM   20  C   UNL     1      -8.710  12.228  69.923  1.00  0.00     2.808 A  
HETATM   21  C   UNL     1      -8.843  10.931  70.468  1.00  0.00     2.648 A  
HETATM   22  C   UNL     1      -9.991  10.220  70.085  1.00  0.00    -0.050 A  
HETATM   23  C   UNL     1     -10.832  10.679  69.058  1.00  0.00    -0.277 A  
BRANCH  21  24
HETATM   24  C   UNL     1      -7.692  10.302  71.206  1.00  0.00     2.160 A  
HETATM   25  C   UNL     1      -6.605  10.968  71.835  1.00  0.00     3.086 A  
HETATM   26  C   UNL     1      -5.702  10.218  72.638  1.00  0.00     0.662 A  
HETATM   27  C   UNL     1      -7.767   8.893  71.409  1.00  0.00    -0.126 A  
HETATM   28  C   UNL     1      -6.851   8.172  72.174  1.00  0.00    -0.082 A  
HETATM   29  C   UNL     1      -5.823   8.839  72.806  1.00  0.00    -0.077 A  
BRANCH  25  30
HETATM   30  C   UNL     1      -6.318  12.397  71.684  1.00  0.00     2.682 A  
HETATM   31  N   UNL     1      -5.542  14.411  71.826  1.00  0.00    -0.161 NA 
HETATM   32  H   UNL     1      -4.684  12.786  72.933  1.00  0.00     0.000 HD 
HETATM   33  N   UNL     1      -6.558  14.501  70.982  1.00  0.00     0.214 NA 
HETATM   34  N   UNL     1      -5.386  13.120  72.273  1.00  0.00    -0.397 NA 
HETATM   35  N   UNL     1      -7.041  13.256  70.893  1.00  0.00     1.787 NA 
ENDBRANCH  25  30
ENDBRANCH  21  24
ENDBRANCH  17  18
ENDBRANCH   9  17
ENDBRANCH   3   4
ENDBRANCH   2   3
TORSDOF 6
ENDMDL
MODEL      309
REMARK 921   NORMALIZED FREE ENERGY PREDICTED BY IDOCK:   37.41 KCAL/MOL
REMARK 922        TOTAL FREE ENERGY PREDICTED BY IDOCK:   49.38 KCAL/MOL
REMARK 923 INTER-LIGAND FREE ENERGY PREDICTED BY IDOCK:   25.72 KCAL/MOL
REMARK 924 INTRA-LIGAND FREE ENERGY PREDICTED BY IDOCK:   23.65 KCAL/MOL
REMARK 927      BINDING AFFINITY PREDICTED BY RF-SCORE:    0.00 PKD
ROOT
HETATM    1  C   UNL     1     -13.756  14.721  66.143  1.00  0.00     3.359 C  
HETATM    2  C   UNL     1     -13.893  13.959  64.830  1.00  0.00     2.439 C  
ENDROOT
BRANCH   2   3
HETATM    3  C   UNL     1     -12.562  13.453  64.260  1.00  0.00    -0.225 C  
BRANCH   3   4
HETATM    4  C   UNL     1     -11.397  13.749  65.154  1.00  0.00    -0.311 A  
HETATM    5  N   UNL     1     -10.435  12.860  65.309  1.00  0.00    -0.290 NA 
HETATM    6  C   UNL     1      -9.592  13.327  66.278  1.00  0.00    -0.235 A  
HETATM    7  C   UNL     1      -8.414  12.489  66.731  1.00  0.00    -0.070 C  
HETATM    8  C   UNL     1     -10.059  14.547  66.760  1.00  0.00    -0.264 A  
HETATM    9  N   UNL     1     -11.146  14.872  65.925  1.00  0.00    -0.335 NA 
HETATM   10  O   UNL     1      -8.575  12.229  68.142  1.00  0.00    -0.169 OA 
HETATM   11  C   UNL     1      -7.081  13.225  66.553  1.00  0.00     1.812 C  
HETATM   12  C   UNL     1      -8.318  11.136  66.007  1.00  0.00    -0.115 C  
HETATM   13  C   UNL     1      -9.578  15.378  67.839  1.00  0.00    -0.206 C  
HETATM   14  O   UNL     1      -8.989  14.693  68.845  1.00  0.00    -0.181 OA 
HETATM   15  O   UNL     1      -9.719  16.596  67.909  1.00  0.00    -0.238 OA 
HETATM   16  H   UNL     1      -7.836  11.704  68.426  1.00  0.00     0.000 HD 
BRANCH   9  17
HETATM   17  C   UNL     1     -11.810  16.196  66.018  1.00  0.00     1.168 C  
BRANCH  17  18
HETATM   18  C   UNL     1     -11.106  17.297  66.762  1.00  0.00     0.352 A  
HETATM   19  C   UNL     1      -9.821  17.100  67.276  1.00  0.00    -0.265 A  
HETATM   20  C   UNL     1      -9.288  18.009  68.200  1.00  0.00    -0.287 A  
HETATM   21  C   UNL     1     -10.034  19.107  68.684  1.00  0.00    -0.486 A  
HETATM   22  C   UNL     1     -11.221  19.394  67.990  1.00  0.00     0.409 A  
HETATM   23  C   UNL     1     -11.740  18.515  67.024  1.00  0.00     1.877 A  
BRANCH  21  24
HETATM   24  C   UNL     1      -9.676  19.742  70.001  1.00  0.00     0.471 A  
HETATM   25  C   UNL     1      -8.399  19.770  70.624  1.00  0.00     1.804 A  
HETATM   26  C   UNL     1      -8.211  20.570  71.785  1.00  0.00     2.275 A  
HETATM   27  C   UNL     1     -10.699  20.510  70.629  1.00  0.00     2.388 A  
HETATM   28  C   UNL     1     -10.501  21.261  71.787  1.00  0.00     6.581 A  
HETATM   29  C   UNL     1      -9.246  21.306  72.358  1.00  0.00     3.838 A  
BRANCH  25  30
HETATM   30  C   UNL     1      -7.246  18.989  70.169  1.00  0.00     0.677 A  
HETATM   31  N   UNL     1      -5.796  17.841  69.047  1.00  0.00    -0.187 NA 
HETATM   32  H   UNL     1      -7.531  18.692  68.116  1.00  0.00     0.000 HD 
HETATM   33  N   UNL     1      -5.341  17.834  70.290  1.00  0.00    -0.233 NA 
HETATM   34  N   UNL     1      -6.974  18.544  68.957  1.00  0.00    -0.280 NA 
HETATM   35  N   UNL     1      -6.237  18.544  70.987  1.00  0.00     0.651 NA 
ENDBRANCH  25  30
ENDBRANCH  21  24
ENDBRANCH  17  18
ENDBRANCH   9  17
ENDBRANCH   3   4
ENDBRANCH   2   3
TORSDOF 6
ENDMDL
MODEL      310
REMARK 921   NORMALIZED FREE ENERGY PREDICTED BY IDOCK:   38.53 KCAL/MOL
REMARK 922        TOTAL FREE ENERGY PREDICTED BY IDOCK:   50.89 KCAL/MOL
REMARK 923 INTER-LIGAND FREE ENERGY PREDICTED BY IDOCK:   47.93 KCAL/MOL
REMARK 924 INTRA-LIGAND FREE ENERGY PREDICTED BY IDOCK:    2.96 KCAL/MOL
REMARK 927      BINDING AFFINITY PREDICTED BY RF-SCORE:    0.00 PKD
ROOT
HETATM    1  C   UNL     1     -10.126  11.942  67.679  1.00  0.00    -0.202 C  
HETATM    2  C   UNL     1      -8.981  10.937  67.659  1.00  0.00    -0.140 C  
ENDROOT
BRANCH   2   3
HETATM    3  C   UNL     1      -8.923  10.083  66.386  1.00  0.00    -0.164 C  
BRANCH   3   4
HETATM    4  C   UNL     1     -10.019  10.407  65.418  1.00  0.00    -0.295 A  
HETATM    5  N   UNL     1     -10.398  11.659  65.238  1.00  0.00    -0.258 NA 
HETATM    6  C   UNL     1     -11.495  11.645  64.425  1.00  0.00    -0.224 A  
HETATM    7  C   UNL     1     -12.207  12.938  64.085  1.00  0.00    -0.414 C  
HETATM    8  C   UNL     1     -11.826  10.332  64.101  1.00  0.00     4.725 A  
HETATM    9  N   UNL     1     -10.779   9.555  64.635  1.00  0.00     2.463 NA 
HETATM   10  O   UNL     1     -13.567  12.831  64.558  1.00  0.00    -0.128 OA 
HETATM   11  C   UNL     1     -12.269  13.182  62.572  1.00  0.00     1.872 C  
HETATM   12  C   UNL     1     -11.571  14.173  64.746  1.00  0.00    -0.400 C  
HETATM   13  C   UNL     1     -12.945   9.799  63.360  1.00  0.00    11.845 C  
HETATM   14  O   UNL     1     -14.075  10.536  63.458  1.00  0.00     4.165 OA 
HETATM   15  O   UNL     1     -12.937   8.745  62.730  1.00  0.00    14.647 OA 
HETATM   16  H   UNL     1     -14.013  13.642  64.345  1.00  0.00     0.000 HD 
BRANCH   9  17
HETATM   17  C   UNL     1     -10.685   8.102  64.350  1.00  0.00     9.256 C  
BRANCH  17  18
HETATM   18  C   UNL     1      -9.938   7.231  65.323  1.00  0.00     2.089 A  
HETATM   19  C   UNL     1      -9.939   5.841  65.181  1.00  0.00     0.935 A  
HETATM   20  C   UNL     1      -9.491   5.027  66.230  1.00  0.00    -0.162 A  
HETATM   21  C   UNL     1      -9.083   5.567  67.471  1.00  0.00    -0.107 A  
HETATM   22  C   UNL     1      -8.888   6.957  67.500  1.00  0.00    -0.118 A  
HETATM   23  C   UNL     1      -9.286   7.779  66.433  1.00  0.00    -0.237 A  
BRANCH  21  24
HETATM   24  C   UNL     1      -9.106   4.712  68.710  1.00  0.00    -0.158 A  
HETATM   25  C   UNL     1      -8.218   3.653  69.042  1.00  0.00    -0.074 A  
HETATM   26  C   UNL     1      -8.285   3.073  70.339  1.00  0.00    -0.070 A  
HETATM   27  C   UNL     1     -10.039   5.090  69.719  1.00  0.00    -0.337 A  
HETATM   28  C   UNL     1     -10.109   4.484  70.973  1.00  0.00    -0.222 A  
HETATM   29  C   UNL     1      -9.216   3.483  71.292  1.00  0.00    -0.195 A  
BRANCH  25  30
HETATM   30  C   UNL     1      -7.242   3.078  68.114  1.00  0.00    -0.050 A  
HETATM   31  N   UNL     1      -6.225   2.082  66.485  1.00  0.00    -0.023 NA 
HETATM   32  H   UNL     1      -8.357   2.310  66.517  1.00  0.00     0.000 HD 
HETATM   33  N   UNL     1      -5.260   2.434  67.319  1.00  0.00    -0.008 NA 
HETATM   34  N   UNL     1      -7.454   2.467  66.964  1.00  0.00    -0.061 NA 
HETATM   35  N   UNL     1      -5.886   3.049  68.329  1.00  0.00    -0.023 NA 
ENDBRANCH  25  30
ENDBRANCH  21  24
ENDBRANCH  17  18
ENDBRANCH   9  17
ENDBRANCH   3   4
ENDBRANCH   2   3
TORSDOF 6
ENDMDL
MODEL      311
REMARK 921   NORMALIZED FREE ENERGY PREDICTED BY IDOCK:   91.47 KCAL/MOL
REMARK 922        TOTAL FREE ENERGY PREDICTED BY IDOCK:  122.40 KCAL/MOL
REMARK 923 INTER-LIGAND FREE ENERGY PREDICTED BY IDOCK:  122.29 KCAL/MOL
REMARK 924 INTRA-LIGAND FREE ENERGY PREDICTED BY IDOCK:    0.11 KCAL/MOL
REMARK 927      BINDING AFFINITY PREDICTED BY RF-SCORE:    0.00 PKD
ROOT
HETATM    1  C   UNL     1     -13.989  16.039  65.113  1.00  0.00     4.753 C  
HETATM    2  C   UNL     1     -13.892  14.764  65.943  1.00  0.00     3.265 C  
ENDROOT
BRANCH   2   3
HETATM    3  C   UNL     1     -12.549  14.591  66.665  1.00  0.00     0.195 C  
BRANCH   3   4
HETATM    4  C   UNL     1     -11.872  13.298  66.328  1.00  0.00    -0.395 A  
HETATM    5  N   UNL     1     -12.441  12.446  65.497  1.00  0.00    -0.591 NA 
HETATM    6  C   UNL     1     -11.684  11.308  65.488  1.00  0.00     0.573 A  
HETATM    7  C   UNL     1     -12.121  10.110  64.671  1.00  0.00     6.356 C  
HETATM    8  C   UNL     1     -10.612  11.450  66.364  1.00  0.00    -0.263 A  
HETATM    9  N   UNL     1     -10.669  12.790  66.791  1.00  0.00    -0.258 NA 
HETATM   10  O   UNL     1     -12.309   9.003  65.578  1.00  0.00     8.950 OA 
HETATM   11  C   UNL     1     -11.056   9.688  63.652  1.00  0.00     5.962 C  
HETATM   12  C   UNL     1     -13.443  10.337  63.920  1.00  0.00     8.726 C  
HETATM   13  C   UNL     1      -9.600  10.503  66.773  1.00  0.00    -0.170 C  
HETATM   14  O   UNL     1     -10.015   9.216  66.773  1.00  0.00    -0.210 OA 
HETATM   15  O   UNL     1      -8.469  10.797  67.150  1.00  0.00    -0.124 OA 
HETATM   16  H   UNL     1     -12.583   8.251  65.066  1.00  0.00     0.000 HD 
BRANCH   9  17
HETATM   17  C   UNL     1      -9.582  13.377  67.613  1.00  0.00    -0.219 C  
BRANCH  17  18
HETATM   18  C   UNL     1      -9.835  14.695  68.293  1.00  0.00    -0.222 A  
HETATM   19  C   UNL     1      -9.709  14.816  69.680  1.00  0.00     0.107 A  
HETATM   20  C   UNL     1     -10.214  15.948  70.335  1.00  0.00     0.145 A  
HETATM   21  C   UNL     1     -10.907  16.965  69.640  1.00  0.00    -0.101 A  
HETATM   22  C   UNL     1     -10.822  16.918  68.239  1.00  0.00    -0.357 A  
HETATM   23  C   UNL     1     -10.272  15.811  67.572  1.00  0.00    -0.265 A  
BRANCH  21  24
HETATM   24  C   UNL     1     -11.860  17.868  70.378  1.00  0.00     5.713 A  
HETATM   25  C   UNL     1     -12.913  17.480  71.250  1.00  0.00    10.317 A  
HETATM   26  C   UNL     1     -13.598  18.477  71.996  1.00  0.00    21.395 A  
HETATM   27  C   UNL     1     -11.595  19.266  70.294  1.00  0.00     6.646 A  
HETATM   28  C   UNL     1     -12.302  20.230  71.011  1.00  0.00    14.992 A  
HETATM   29  C   UNL     1     -13.297  19.834  71.880  1.00  0.00    27.163 A  
BRANCH  25  30
HETATM   30  C   UNL     1     -13.379  16.101  71.412  1.00  0.00     0.875 A  
HETATM   31  N   UNL     1     -13.946  14.147  72.147  1.00  0.00    -0.491 NA 
HETATM   32  H   UNL     1     -13.289  15.706  73.466  1.00  0.00     0.000 HD 
HETATM   33  N   UNL     1     -14.101  14.071  70.835  1.00  0.00     0.268 NA 
HETATM   34  N   UNL     1     -13.495  15.391  72.518  1.00  0.00    -0.456 NA 
HETATM   35  N   UNL     1     -13.751  15.278  70.377  1.00  0.00     0.013 NA 
ENDBRANCH  25  30
ENDBRANCH  21  24
ENDBRANCH  17  18
ENDBRANCH   9  17
ENDBRANCH   3   4
ENDBRANCH   2   3
TORSDOF 6
ENDMDL
