MODEL        1
REMARK 921   NORMALIZED FREE ENERGY PREDICTED BY IDOCK:   -7.88 KCAL/MOL
REMARK 922        TOTAL FREE ENERGY PREDICTED BY IDOCK:  -10.42 KCAL/MOL
REMARK 923 INTER-LIGAND FREE ENERGY PREDICTED BY IDOCK:  -10.18 KCAL/MOL
REMARK 924 INTRA-LIGAND FREE ENERGY PREDICTED BY IDOCK:   -0.24 KCAL/MOL
REMARK 927      BINDING AFFINITY PREDICTED BY RF-SCORE:    0.00 PKD
ROOT
HETATM    1  C   UNL     1      -5.918  21.224  67.588  1.00  0.00    -0.357 C  
HETATM    2  O   UNL     1      -7.219  21.381  67.031  1.00  0.00    -0.451 OA 
ENDROOT
BRANCH   2   3
HETATM    3  C   UNL     1      -8.104  20.359  67.266  1.00  0.00    -0.338 A  
HETATM    4  C   UNL     1      -9.255  20.106  66.526  1.00  0.00    -0.440 A  
HETATM    5  C   UNL     1     -10.094  19.047  66.875  1.00  0.00    -0.437 A  
HETATM    6  C   UNL     1      -9.793  18.207  67.957  1.00  0.00    -0.331 A  
HETATM    7  C   UNL     1      -7.787  19.523  68.339  1.00  0.00    -0.374 A  
HETATM    8  C   UNL     1      -8.622  18.456  68.685  1.00  0.00    -0.315 A  
BRANCH   6   9
HETATM    9  C   UNL     1     -10.734  17.070  68.320  1.00  0.00    -0.372 C  
HETATM   10  C   UNL     1     -10.185  15.607  68.182  1.00  0.00    -0.228 C  
HETATM   11  C   UNL     1      -9.088  15.373  69.237  1.00  0.00    -0.260 C  
HETATM   12  C   UNL     1      -9.640  15.351  66.762  1.00  0.00    -0.257 C  
HETATM   13  N   UNL     1     -11.322  14.689  68.452  1.00  0.00    -0.278 NA 
HETATM   14  H   UNL     1     -12.099  14.904  67.827  1.00  0.00     0.000 HD 
BRANCH  13  15
HETATM   15  C   UNL     1     -11.009  13.244  68.389  1.00  0.00    -0.264 C  
BRANCH  15  16
HETATM   16  C   UNL     1     -12.035  12.423  67.573  1.00  0.00    -0.183 C  
HETATM   17  H   UNL     1     -12.817  10.612  67.647  1.00  0.00     0.000 HD 
HETATM   18  O   UNL     1     -12.187  11.116  68.148  1.00  0.00    -0.612 OA 
BRANCH  16  19
HETATM   19  C   UNL     1     -11.681  12.348  66.104  1.00  0.00    -0.460 A  
HETATM   20  C   UNL     1     -10.796  11.368  65.623  1.00  0.00    -0.218 A  
HETATM   21  O   UNL     1     -10.228  10.522  66.543  1.00  0.00    -0.217 OA 
HETATM   22  C   UNL     1      -9.674   9.342  65.974  1.00  0.00    -0.275 C  
HETATM   23  C   UNL     1      -8.944   9.493  64.645  1.00  0.00    -0.221 C  
HETATM   24  O   UNL     1      -7.999   8.789  64.301  1.00  0.00    -0.130 OA 
HETATM   25  N   UNL     1      -9.501  10.420  63.805  1.00  0.00    -0.285 N  
HETATM   26  H   UNL     1      -9.201  10.457  62.831  1.00  0.00     0.000 HD 
HETATM   27  C   UNL     1     -10.473  11.318  64.258  1.00  0.00    -0.357 A  
HETATM   28  C   UNL     1     -11.067  12.196  63.353  1.00  0.00    -0.495 A  
HETATM   29  C   UNL     1     -11.975  13.135  63.824  1.00  0.00    -0.508 A  
HETATM   30  O   UNL     1     -12.600  14.013  62.992  1.00  0.00    -1.027 OA 
HETATM   31  C   UNL     1     -12.278  13.220  65.181  1.00  0.00    -0.487 A  
HETATM   32  H   UNL     1     -13.222  14.655  63.313  1.00  0.00     0.000 HD 
ENDBRANCH  16  19
ENDBRANCH  15  16
ENDBRANCH  13  15
ENDBRANCH   6   9
ENDBRANCH   2   3
TORSDOF 5
ENDMDL
MODEL        2
REMARK 921   NORMALIZED FREE ENERGY PREDICTED BY IDOCK:   -7.63 KCAL/MOL
REMARK 922        TOTAL FREE ENERGY PREDICTED BY IDOCK:  -10.10 KCAL/MOL
REMARK 923 INTER-LIGAND FREE ENERGY PREDICTED BY IDOCK:   -9.80 KCAL/MOL
REMARK 924 INTRA-LIGAND FREE ENERGY PREDICTED BY IDOCK:   -0.29 KCAL/MOL
REMARK 927      BINDING AFFINITY PREDICTED BY RF-SCORE:    0.00 PKD
ROOT
HETATM    1  C   UNL     1      -5.258  20.817  62.915  1.00  0.00    -0.192 C  
HETATM    2  O   UNL     1      -5.394  21.273  64.258  1.00  0.00    -0.210 OA 
ENDROOT
BRANCH   2   3
HETATM    3  C   UNL     1      -5.976  20.396  65.137  1.00  0.00    -0.231 A  
HETATM    4  C   UNL     1      -5.995  19.012  64.997  1.00  0.00    -0.310 A  
HETATM    5  C   UNL     1      -6.640  18.220  65.948  1.00  0.00    -0.306 A  
HETATM    6  C   UNL     1      -7.262  18.791  67.068  1.00  0.00    -0.218 A  
HETATM    7  C   UNL     1      -6.582  20.976  66.254  1.00  0.00    -0.239 A  
HETATM    8  C   UNL     1      -7.221  20.183  67.212  1.00  0.00    -0.306 A  
BRANCH   6   9
HETATM    9  C   UNL     1      -7.968  17.902  68.079  1.00  0.00    -0.250 C  
HETATM   10  C   UNL     1      -9.446  17.483  67.764  1.00  0.00    -0.269 C  
HETATM   11  C   UNL     1      -9.459  16.540  66.545  1.00  0.00    -0.296 C  
HETATM   12  C   UNL     1     -10.330  18.720  67.507  1.00  0.00    -0.471 C  
HETATM   13  N   UNL     1      -9.952  16.747  68.953  1.00  0.00    -0.258 NA 
HETATM   14  H   UNL     1      -9.851  17.324  69.788  1.00  0.00     0.000 HD 
BRANCH  13  15
HETATM   15  C   UNL     1     -11.339  16.243  68.852  1.00  0.00    -0.317 C  
BRANCH  15  16
HETATM   16  C   UNL     1     -11.458  14.713  69.049  1.00  0.00    -0.291 C  
HETATM   17  H   UNL     1     -12.113  13.172  68.004  1.00  0.00     0.000 HD 
HETATM   18  O   UNL     1     -12.041  14.111  67.884  1.00  0.00    -0.358 OA 
BRANCH  16  19
HETATM   19  C   UNL     1     -12.219  14.347  70.305  1.00  0.00    -0.397 A  
HETATM   20  C   UNL     1     -12.401  13.004  70.674  1.00  0.00    -0.310 A  
HETATM   21  O   UNL     1     -11.911  12.042  69.825  1.00  0.00    -0.308 OA 
HETATM   22  C   UNL     1     -11.778  10.760  70.426  1.00  0.00    -0.351 C  
HETATM   23  C   UNL     1     -12.881  10.326  71.382  1.00  0.00    -0.441 C  
HETATM   24  O   UNL     1     -13.223   9.159  71.547  1.00  0.00    -0.341 OA 
HETATM   25  N   UNL     1     -13.398  11.346  72.136  1.00  0.00    -0.568 N  
HETATM   26  H   UNL     1     -14.001  11.126  72.929  1.00  0.00     0.000 HD 
HETATM   27  C   UNL     1     -13.117  12.683  71.838  1.00  0.00    -0.366 A  
HETATM   28  C   UNL     1     -13.603  13.686  72.675  1.00  0.00    -0.596 A  
HETATM   29  C   UNL     1     -13.382  15.014  72.331  1.00  0.00    -0.409 A  
HETATM   30  O   UNL     1     -13.820  16.041  73.110  1.00  0.00    -0.691 OA 
HETATM   31  C   UNL     1     -12.707  15.347  71.160  1.00  0.00    -0.503 A  
HETATM   32  H   UNL     1     -13.669  16.949  72.876  1.00  0.00     0.000 HD 
ENDBRANCH  16  19
ENDBRANCH  15  16
ENDBRANCH  13  15
ENDBRANCH   6   9
ENDBRANCH   2   3
TORSDOF 5
ENDMDL
MODEL        3
REMARK 921   NORMALIZED FREE ENERGY PREDICTED BY IDOCK:   -7.60 KCAL/MOL
REMARK 922        TOTAL FREE ENERGY PREDICTED BY IDOCK:  -10.07 KCAL/MOL
REMARK 923 INTER-LIGAND FREE ENERGY PREDICTED BY IDOCK:  -10.12 KCAL/MOL
REMARK 924 INTRA-LIGAND FREE ENERGY PREDICTED BY IDOCK:    0.05 KCAL/MOL
REMARK 927      BINDING AFFINITY PREDICTED BY RF-SCORE:    0.00 PKD
ROOT
HETATM    1  C   UNL     1      -6.165  20.913  67.234  1.00  0.00    -0.292 C  
HETATM    2  O   UNL     1      -7.536  21.277  67.098  1.00  0.00    -0.416 OA 
ENDROOT
BRANCH   2   3
HETATM    3  C   UNL     1      -8.450  20.276  67.305  1.00  0.00    -0.347 A  
HETATM    4  C   UNL     1      -9.688  20.177  66.680  1.00  0.00    -0.568 A  
HETATM    5  C   UNL     1     -10.548  19.121  66.989  1.00  0.00    -0.551 A  
HETATM    6  C   UNL     1     -10.180  18.132  67.913  1.00  0.00    -0.391 A  
HETATM    7  C   UNL     1      -8.067  19.291  68.219  1.00  0.00    -0.367 A  
HETATM    8  C   UNL     1      -8.924  18.228  68.523  1.00  0.00    -0.329 A  
BRANCH   6   9
HETATM    9  C   UNL     1     -11.144  17.002  68.238  1.00  0.00    -0.172 C  
HETATM   10  C   UNL     1     -10.788  15.573  67.697  1.00  0.00    -0.306 C  
HETATM   11  C   UNL     1      -9.533  15.052  68.423  1.00  0.00    -0.201 C  
HETATM   12  C   UNL     1     -10.567  15.597  66.171  1.00  0.00    -0.325 C  
HETATM   13  N   UNL     1     -11.939  14.688  68.019  1.00  0.00    -0.540 NA 
HETATM   14  H   UNL     1     -12.798  15.079  67.632  1.00  0.00     0.000 HD 
BRANCH  13  15
HETATM   15  C   UNL     1     -11.795  13.275  67.605  1.00  0.00    -0.357 C  
BRANCH  15  16
HETATM   16  C   UNL     1     -10.938  12.429  68.578  1.00  0.00    -0.245 C  
HETATM   17  H   UNL     1      -9.746  10.861  68.456  1.00  0.00     0.000 HD 
HETATM   18  O   UNL     1     -10.272  11.380  67.859  1.00  0.00    -0.176 OA 
BRANCH  16  19
HETATM   19  C   UNL     1     -11.744  11.886  69.737  1.00  0.00    -0.403 A  
HETATM   20  C   UNL     1     -12.278  12.745  70.712  1.00  0.00    -0.248 A  
HETATM   21  O   UNL     1     -11.994  14.084  70.599  1.00  0.00    -0.318 OA 
HETATM   22  C   UNL     1     -12.860  14.921  71.357  1.00  0.00    -0.341 C  
HETATM   23  C   UNL     1     -13.265  14.425  72.739  1.00  0.00    -0.520 C  
HETATM   24  O   UNL     1     -13.510  15.165  73.687  1.00  0.00    -0.332 OA 
HETATM   25  N   UNL     1     -13.442  13.069  72.815  1.00  0.00    -0.376 N  
HETATM   26  H   UNL     1     -13.891  12.668  73.638  1.00  0.00     0.000 HD 
HETATM   27  C   UNL     1     -13.016  12.223  71.786  1.00  0.00    -0.325 A  
HETATM   28  C   UNL     1     -13.282  10.857  71.869  1.00  0.00    -0.508 A  
HETATM   29  C   UNL     1     -12.791  10.015  70.881  1.00  0.00    -0.324 A  
HETATM   30  O   UNL     1     -13.025   8.673  70.897  1.00  0.00    -0.500 OA 
HETATM   31  C   UNL     1     -12.026  10.514  69.830  1.00  0.00    -0.339 A  
HETATM   32  H   UNL     1     -12.689   8.096  70.221  1.00  0.00     0.000 HD 
ENDBRANCH  16  19
ENDBRANCH  15  16
ENDBRANCH  13  15
ENDBRANCH   6   9
ENDBRANCH   2   3
TORSDOF 5
ENDMDL
MODEL        4
REMARK 921   NORMALIZED FREE ENERGY PREDICTED BY IDOCK:   -7.60 KCAL/MOL
REMARK 922        TOTAL FREE ENERGY PREDICTED BY IDOCK:  -10.07 KCAL/MOL
REMARK 923 INTER-LIGAND FREE ENERGY PREDICTED BY IDOCK:   -9.56 KCAL/MOL
REMARK 924 INTRA-LIGAND FREE ENERGY PREDICTED BY IDOCK:   -0.51 KCAL/MOL
REMARK 927      BINDING AFFINITY PREDICTED BY RF-SCORE:    0.00 PKD
ROOT
HETATM    1  C   UNL     1      -8.279   4.588  74.229  1.00  0.00    -0.099 C  
HETATM    2  O   UNL     1      -9.687   4.806  74.247  1.00  0.00    -0.127 OA 
ENDROOT
BRANCH   2   3
HETATM    3  C   UNL     1     -10.160   5.767  73.390  1.00  0.00    -0.195 A  
HETATM    4  C   UNL     1     -10.259   7.124  73.680  1.00  0.00    -0.402 A  
HETATM    5  C   UNL     1     -10.779   8.008  72.733  1.00  0.00    -0.431 A  
HETATM    6  C   UNL     1     -11.195   7.558  71.471  1.00  0.00    -0.271 A  
HETATM    7  C   UNL     1     -10.559   5.308  72.133  1.00  0.00    -0.281 A  
HETATM    8  C   UNL     1     -11.073   6.194  71.180  1.00  0.00    -0.360 A  
BRANCH   6   9
HETATM    9  C   UNL     1     -11.770   8.543  70.466  1.00  0.00    -0.082 C  
HETATM   10  C   UNL     1     -10.799   9.104  69.369  1.00  0.00    -0.151 C  
HETATM   11  C   UNL     1     -10.404   7.965  68.409  1.00  0.00    -0.235 C  
HETATM   12  C   UNL     1      -9.547   9.738  70.007  1.00  0.00    -0.282 C  
HETATM   13  N   UNL     1     -11.551  10.138  68.611  1.00  0.00    -0.532 NA 
HETATM   14  H   UNL     1     -11.909  10.847  69.252  1.00  0.00     0.000 HD 
BRANCH  13  15
HETATM   15  C   UNL     1     -10.812  10.786  67.505  1.00  0.00    -0.288 C  
BRANCH  15  16
HETATM   16  C   UNL     1     -10.992  12.322  67.456  1.00  0.00    -0.254 C  
HETATM   17  H   UNL     1     -12.053  13.680  68.420  1.00  0.00     0.000 HD 
HETATM   18  O   UNL     1     -11.942  12.737  68.449  1.00  0.00    -0.319 OA 
BRANCH  16  19
HETATM   19  C   UNL     1     -11.373  12.818  66.078  1.00  0.00    -0.363 A  
HETATM   20  C   UNL     1     -11.198  14.166  65.721  1.00  0.00    -0.312 A  
HETATM   21  O   UNL     1     -10.721  15.019  66.686  1.00  0.00    -0.300 OA 
HETATM   22  C   UNL     1     -10.206  16.240  66.168  1.00  0.00    -0.346 C  
HETATM   23  C   UNL     1     -10.965  16.876  65.011  1.00  0.00    -0.046 C  
HETATM   24  O   UNL     1     -11.023  18.086  64.814  1.00  0.00    -0.706 OA 
HETATM   25  N   UNL     1     -11.501  15.972  64.132  1.00  0.00    -0.844 N  
HETATM   26  H   UNL     1     -11.861  16.300  63.236  1.00  0.00     0.000 HD 
HETATM   27  C   UNL     1     -11.565  14.610  64.441  1.00  0.00    -0.305 A  
HETATM   28  C   UNL     1     -12.048  13.715  63.488  1.00  0.00    -0.341 A  
HETATM   29  C   UNL     1     -12.178  12.375  63.829  1.00  0.00    -0.533 A  
HETATM   30  O   UNL     1     -12.634  11.447  62.942  1.00  0.00    -0.970 OA 
HETATM   31  C   UNL     1     -11.854  11.927  65.107  1.00  0.00    -0.187 A  
HETATM   32  H   UNL     1     -12.723  10.531  63.175  1.00  0.00     0.000 HD 
ENDBRANCH  16  19
ENDBRANCH  15  16
ENDBRANCH  13  15
ENDBRANCH   6   9
ENDBRANCH   2   3
TORSDOF 5
ENDMDL
MODEL        5
REMARK 921   NORMALIZED FREE ENERGY PREDICTED BY IDOCK:   -7.56 KCAL/MOL
REMARK 922        TOTAL FREE ENERGY PREDICTED BY IDOCK:  -10.01 KCAL/MOL
REMARK 923 INTER-LIGAND FREE ENERGY PREDICTED BY IDOCK:   -9.57 KCAL/MOL
REMARK 924 INTRA-LIGAND FREE ENERGY PREDICTED BY IDOCK:   -0.45 KCAL/MOL
REMARK 927      BINDING AFFINITY PREDICTED BY RF-SCORE:    0.00 PKD
ROOT
HETATM    1  C   UNL     1     -10.847   2.682  73.561  1.00  0.00    -0.194 C  
HETATM    2  O   UNL     1     -10.218   3.958  73.495  1.00  0.00    -0.126 OA 
ENDROOT
BRANCH   2   3
HETATM    3  C   UNL     1     -10.396   4.660  72.330  1.00  0.00    -0.199 A  
HETATM    4  C   UNL     1      -9.810   4.349  71.108  1.00  0.00    -0.258 A  
HETATM    5  C   UNL     1     -10.048   5.152  69.991  1.00  0.00    -0.345 A  
HETATM    6  C   UNL     1     -10.890   6.271  70.068  1.00  0.00    -0.387 A  
HETATM    7  C   UNL     1     -11.246   5.765  72.417  1.00  0.00    -0.343 A  
HETATM    8  C   UNL     1     -11.492   6.566  71.297  1.00  0.00    -0.371 A  
BRANCH   6   9
HETATM    9  C   UNL     1     -11.118   7.134  68.837  1.00  0.00    -0.035 C  
HETATM   10  C   UNL     1     -10.302   8.469  68.730  1.00  0.00    -0.213 C  
HETATM   11  C   UNL     1      -8.810   8.138  68.534  1.00  0.00    -0.134 C  
HETATM   12  C   UNL     1     -10.507   9.346  69.981  1.00  0.00    -0.266 C  
HETATM   13  N   UNL     1     -10.802   9.188  67.529  1.00  0.00    -0.454 NA 
HETATM   14  H   UNL     1     -11.811   9.321  67.597  1.00  0.00     0.000 HD 
BRANCH  13  15
HETATM   15  C   UNL     1     -10.141  10.479  67.235  1.00  0.00    -0.201 C  
BRANCH  15  16
HETATM   16  C   UNL     1     -11.088  11.699  67.348  1.00  0.00    -0.281 C  
HETATM   17  H   UNL     1     -12.866  12.075  68.119  1.00  0.00     0.000 HD 
HETATM   18  O   UNL     1     -12.285  11.327  68.048  1.00  0.00    -0.621 OA 
BRANCH  16  19
HETATM   19  C   UNL     1     -11.399  12.319  66.004  1.00  0.00    -0.398 A  
HETATM   20  C   UNL     1     -11.150  13.681  65.761  1.00  0.00    -0.287 A  
HETATM   21  O   UNL     1     -10.668  14.431  66.804  1.00  0.00    -0.286 OA 
HETATM   22  C   UNL     1     -10.080  15.662  66.403  1.00  0.00    -0.287 C  
HETATM   23  C   UNL     1     -10.769  16.423  65.278  1.00  0.00    -0.295 C  
HETATM   24  O   UNL     1     -10.764  17.647  65.176  1.00  0.00    -0.658 OA 
HETATM   25  N   UNL     1     -11.315  15.619  64.313  1.00  0.00    -0.760 N  
HETATM   26  H   UNL     1     -11.628  16.033  63.435  1.00  0.00     0.000 HD 
HETATM   27  C   UNL     1     -11.452  14.241  64.510  1.00  0.00    -0.355 A  
HETATM   28  C   UNL     1     -11.943  13.448  63.474  1.00  0.00    -0.467 A  
HETATM   29  C   UNL     1     -12.146  12.093  63.703  1.00  0.00    -0.551 A  
HETATM   30  O   UNL     1     -12.613  11.261  62.731  1.00  0.00    -0.912 OA 
HETATM   31  C   UNL     1     -11.887  11.531  64.950  1.00  0.00     0.117 A  
HETATM   32  H   UNL     1     -12.752  10.335  62.887  1.00  0.00     0.000 HD 
ENDBRANCH  16  19
ENDBRANCH  15  16
ENDBRANCH  13  15
ENDBRANCH   6   9
ENDBRANCH   2   3
TORSDOF 5
ENDMDL
MODEL        6
REMARK 921   NORMALIZED FREE ENERGY PREDICTED BY IDOCK:   -7.47 KCAL/MOL
REMARK 922        TOTAL FREE ENERGY PREDICTED BY IDOCK:   -9.90 KCAL/MOL
REMARK 923 INTER-LIGAND FREE ENERGY PREDICTED BY IDOCK:   -9.47 KCAL/MOL
REMARK 924 INTRA-LIGAND FREE ENERGY PREDICTED BY IDOCK:   -0.44 KCAL/MOL
REMARK 927      BINDING AFFINITY PREDICTED BY RF-SCORE:    0.00 PKD
ROOT
HETATM    1  C   UNL     1      -6.587  20.433  68.019  1.00  0.00    -0.305 C  
HETATM    2  O   UNL     1      -7.382  19.979  66.928  1.00  0.00    -0.232 OA 
ENDROOT
BRANCH   2   3
HETATM    3  C   UNL     1      -8.384  19.094  67.238  1.00  0.00    -0.277 A  
HETATM    4  C   UNL     1      -9.342  19.280  68.229  1.00  0.00    -0.407 A  
HETATM    5  C   UNL     1     -10.302  18.297  68.470  1.00  0.00    -0.341 A  
HETATM    6  C   UNL     1     -10.338  17.116  67.715  1.00  0.00    -0.347 A  
HETATM    7  C   UNL     1      -8.416  17.928  66.470  1.00  0.00    -0.284 A  
HETATM    8  C   UNL     1      -9.383  16.945  66.705  1.00  0.00    -0.267 A  
BRANCH   6   9
HETATM    9  C   UNL     1     -11.388  16.057  68.011  1.00  0.00    -0.266 C  
HETATM   10  C   UNL     1     -11.082  15.039  69.164  1.00  0.00    -0.270 C  
HETATM   11  C   UNL     1     -11.085  15.783  70.513  1.00  0.00    -0.383 C  
HETATM   12  C   UNL     1      -9.732  14.331  68.934  1.00  0.00    -0.118 C  
HETATM   13  N   UNL     1     -12.179  14.036  69.160  1.00  0.00    -0.472 NA 
HETATM   14  H   UNL     1     -12.257  13.609  68.237  1.00  0.00     0.000 HD 
BRANCH  13  15
HETATM   15  C   UNL     1     -12.088  12.984  70.197  1.00  0.00    -0.307 C  
BRANCH  15  16
HETATM   16  C   UNL     1     -11.618  11.615  69.649  1.00  0.00    -0.330 C  
HETATM   17  H   UNL     1     -11.983  10.494  68.066  1.00  0.00     0.000 HD 
HETATM   18  O   UNL     1     -12.272  11.333  68.403  1.00  0.00    -0.604 OA 
BRANCH  16  19
HETATM   19  C   UNL     1     -11.813  10.494  70.647  1.00  0.00    -0.458 A  
HETATM   20  C   UNL     1     -10.768   9.604  70.947  1.00  0.00    -0.332 A  
HETATM   21  O   UNL     1      -9.588   9.759  70.262  1.00  0.00    -0.249 OA 
HETATM   22  C   UNL     1      -8.480   9.109  70.872  1.00  0.00    -0.201 C  
HETATM   23  C   UNL     1      -8.735   7.739  71.488  1.00  0.00    -0.121 C  
HETATM   24  O   UNL     1      -7.892   6.848  71.548  1.00  0.00    -0.098 OA 
HETATM   25  N   UNL     1      -9.967   7.611  72.073  1.00  0.00    -0.171 N  
HETATM   26  H   UNL     1     -10.156   6.805  72.670  1.00  0.00     0.000 HD 
HETATM   27  C   UNL     1     -10.970   8.564  71.869  1.00  0.00    -0.324 A  
HETATM   28  C   UNL     1     -12.183   8.435  72.543  1.00  0.00    -0.381 A  
HETATM   29  C   UNL     1     -13.199   9.343  72.277  1.00  0.00    -0.446 A  
HETATM   30  O   UNL     1     -14.404   9.281  72.910  1.00  0.00    -0.934 OA 
HETATM   31  C   UNL     1     -13.027  10.357  71.338  1.00  0.00    -0.545 A  
HETATM   32  H   UNL     1     -15.100   9.902  72.728  1.00  0.00     0.000 HD 
ENDBRANCH  16  19
ENDBRANCH  15  16
ENDBRANCH  13  15
ENDBRANCH   6   9
ENDBRANCH   2   3
TORSDOF 5
ENDMDL
MODEL        7
REMARK 921   NORMALIZED FREE ENERGY PREDICTED BY IDOCK:   -7.44 KCAL/MOL
REMARK 922        TOTAL FREE ENERGY PREDICTED BY IDOCK:   -9.86 KCAL/MOL
REMARK 923 INTER-LIGAND FREE ENERGY PREDICTED BY IDOCK:   -9.41 KCAL/MOL
REMARK 924 INTRA-LIGAND FREE ENERGY PREDICTED BY IDOCK:   -0.45 KCAL/MOL
REMARK 927      BINDING AFFINITY PREDICTED BY RF-SCORE:    0.00 PKD
ROOT
HETATM    1  C   UNL     1     -10.956   2.756  74.069  1.00  0.00    -0.153 C  
HETATM    2  O   UNL     1     -10.358   3.951  74.564  1.00  0.00    -0.189 OA 
ENDROOT
BRANCH   2   3
HETATM    3  C   UNL     1     -10.652   5.102  73.877  1.00  0.00    -0.293 A  
HETATM    4  C   UNL     1     -11.588   5.210  72.853  1.00  0.00    -0.282 A  
HETATM    5  C   UNL     1     -11.785   6.433  72.209  1.00  0.00    -0.333 A  
HETATM    6  C   UNL     1     -11.066   7.576  72.586  1.00  0.00    -0.398 A  
HETATM    7  C   UNL     1      -9.937   6.236  74.269  1.00  0.00    -0.324 A  
HETATM    8  C   UNL     1     -10.140   7.464  73.630  1.00  0.00    -0.376 A  
BRANCH   6   9
HETATM    9  C   UNL     1     -11.294   8.890  71.856  1.00  0.00    -0.446 C  
HETATM   10  C   UNL     1     -10.349   9.219  70.649  1.00  0.00    -0.263 C  
HETATM   11  C   UNL     1     -10.634   8.236  69.497  1.00  0.00    -0.216 C  
HETATM   12  C   UNL     1      -8.867   9.150  71.070  1.00  0.00    -0.267 C  
HETATM   13  N   UNL     1     -10.677  10.598  70.203  1.00  0.00    -0.463 NA 
HETATM   14  H   UNL     1     -10.593  11.246  70.987  1.00  0.00     0.000 HD 
BRANCH  13  15
HETATM   15  C   UNL     1      -9.900  11.100  69.048  1.00  0.00    -0.114 C  
BRANCH  15  16
HETATM   16  C   UNL     1     -10.498  12.376  68.408  1.00  0.00    -0.235 C  
HETATM   17  H   UNL     1     -12.175  13.407  68.546  1.00  0.00     0.000 HD 
HETATM   18  O   UNL     1     -11.808  12.624  68.938  1.00  0.00    -0.302 OA 
BRANCH  16  19
HETATM   19  C   UNL     1     -10.510  12.315  66.896  1.00  0.00    -0.240 A  
HETATM   20  C   UNL     1     -10.744  13.469  66.128  1.00  0.00    -0.289 A  
HETATM   21  O   UNL     1     -11.013  14.634  66.803  1.00  0.00    -0.309 OA 
HETATM   22  C   UNL     1     -10.852  15.806  66.012  1.00  0.00    -0.255 C  
HETATM   23  C   UNL     1     -11.319  15.733  64.565  1.00  0.00    -0.316 C  
HETATM   24  O   UNL     1     -11.757  16.694  63.938  1.00  0.00    -1.153 OA 
HETATM   25  N   UNL     1     -11.112  14.516  63.972  1.00  0.00    -0.356 N  
HETATM   26  H   UNL     1     -11.217  14.427  62.961  1.00  0.00     0.000 HD 
HETATM   27  C   UNL     1     -10.760  13.392  64.727  1.00  0.00    -0.390 A  
HETATM   28  C   UNL     1     -10.485  12.190  64.076  1.00  0.00    -0.418 A  
HETATM   29  C   UNL     1     -10.210  11.062  64.837  1.00  0.00    -0.311 A  
HETATM   30  O   UNL     1      -9.922   9.860  64.264  1.00  0.00    -0.433 OA 
HETATM   31  C   UNL     1     -10.228  11.114  66.228  1.00  0.00    -0.286 A  
HETATM   32  H   UNL     1      -9.734   9.088  64.783  1.00  0.00     0.000 HD 
ENDBRANCH  16  19
ENDBRANCH  15  16
ENDBRANCH  13  15
ENDBRANCH   6   9
ENDBRANCH   2   3
TORSDOF 5
ENDMDL
MODEL        8
REMARK 921   NORMALIZED FREE ENERGY PREDICTED BY IDOCK:   -7.43 KCAL/MOL
REMARK 922        TOTAL FREE ENERGY PREDICTED BY IDOCK:   -9.85 KCAL/MOL
REMARK 923 INTER-LIGAND FREE ENERGY PREDICTED BY IDOCK:   -8.92 KCAL/MOL
REMARK 924 INTRA-LIGAND FREE ENERGY PREDICTED BY IDOCK:   -0.93 KCAL/MOL
REMARK 927      BINDING AFFINITY PREDICTED BY RF-SCORE:    0.00 PKD
ROOT
HETATM    1  C   UNL     1      -8.493   6.189  73.936  1.00  0.00    -0.119 C  
HETATM    2  O   UNL     1      -8.467   6.097  72.515  1.00  0.00    -0.119 OA 
ENDROOT
BRANCH   2   3
HETATM    3  C   UNL     1      -9.201   7.036  71.836  1.00  0.00    -0.140 A  
HETATM    4  C   UNL     1      -9.344   8.368  72.210  1.00  0.00    -0.356 A  
HETATM    5  C   UNL     1     -10.137   9.229  71.450  1.00  0.00    -0.348 A  
HETATM    6  C   UNL     1     -10.789   8.783  70.291  1.00  0.00    -0.252 A  
HETATM    7  C   UNL     1      -9.835   6.582  70.677  1.00  0.00    -0.201 A  
HETATM    8  C   UNL     1     -10.623   7.446  69.910  1.00  0.00    -0.245 A  
BRANCH   6   9
HETATM    9  C   UNL     1     -11.657   9.742  69.492  1.00  0.00     0.017 C  
HETATM   10  C   UNL     1     -10.986  10.488  68.286  1.00  0.00    -0.263 C  
HETATM   11  C   UNL     1     -10.650   9.469  67.180  1.00  0.00    -0.295 C  
HETATM   12  C   UNL     1      -9.719  11.242  68.736  1.00  0.00    -0.184 C  
HETATM   13  N   UNL     1     -11.985  11.458  67.766  1.00  0.00    -0.646 NA 
HETATM   14  H   UNL     1     -12.295  12.075  68.517  1.00  0.00     0.000 HD 
BRANCH  13  15
HETATM   15  C   UNL     1     -11.552  12.261  66.600  1.00  0.00    -0.375 C  
BRANCH  15  16
HETATM   16  C   UNL     1     -12.352  13.573  66.421  1.00  0.00    -0.357 C  
HETATM   17  H   UNL     1     -13.215  14.543  64.935  1.00  0.00     0.000 HD 
HETATM   18  O   UNL     1     -12.724  13.738  65.045  1.00  0.00    -0.630 OA 
BRANCH  16  19
HETATM   19  C   UNL     1     -11.607  14.782  66.945  1.00  0.00    -0.337 A  
HETATM   20  C   UNL     1     -11.621  15.102  68.314  1.00  0.00    -0.339 A  
HETATM   21  O   UNL     1     -12.378  14.310  69.141  1.00  0.00    -0.277 OA 
HETATM   22  C   UNL     1     -12.047  14.437  70.518  1.00  0.00    -0.334 C  
HETATM   23  C   UNL     1     -11.721  15.835  71.026  1.00  0.00    -0.422 C  
HETATM   24  O   UNL     1     -11.946  16.218  72.170  1.00  0.00    -0.504 OA 
HETATM   25  N   UNL     1     -11.048  16.614  70.121  1.00  0.00    -0.437 N  
HETATM   26  H   UNL     1     -10.625  17.489  70.431  1.00  0.00     0.000 HD 
HETATM   27  C   UNL     1     -10.932  16.232  68.781  1.00  0.00    -0.343 A  
HETATM   28  C   UNL     1     -10.175  17.016  67.911  1.00  0.00    -0.317 A  
HETATM   29  C   UNL     1     -10.127  16.671  66.566  1.00  0.00    -0.305 A  
HETATM   30  O   UNL     1      -9.398  17.387  65.665  1.00  0.00    -0.496 OA 
HETATM   31  C   UNL     1     -10.836  15.575  66.082  1.00  0.00    -0.295 A  
HETATM   32  H   UNL     1      -9.364  17.151  64.746  1.00  0.00     0.000 HD 
ENDBRANCH  16  19
ENDBRANCH  15  16
ENDBRANCH  13  15
ENDBRANCH   6   9
ENDBRANCH   2   3
TORSDOF 5
ENDMDL
MODEL        9
REMARK 921   NORMALIZED FREE ENERGY PREDICTED BY IDOCK:   -7.38 KCAL/MOL
REMARK 922        TOTAL FREE ENERGY PREDICTED BY IDOCK:   -9.78 KCAL/MOL
REMARK 923 INTER-LIGAND FREE ENERGY PREDICTED BY IDOCK:   -9.17 KCAL/MOL
REMARK 924 INTRA-LIGAND FREE ENERGY PREDICTED BY IDOCK:   -0.61 KCAL/MOL
REMARK 927      BINDING AFFINITY PREDICTED BY RF-SCORE:    0.00 PKD
ROOT
HETATM    1  C   UNL     1      -9.920   2.240  72.702  1.00  0.00    -0.134 C  
HETATM    2  O   UNL     1      -9.774   3.618  73.033  1.00  0.00    -0.119 OA 
ENDROOT
BRANCH   2   3
HETATM    3  C   UNL     1     -10.144   4.514  72.062  1.00  0.00    -0.196 A  
HETATM    4  C   UNL     1     -11.061   5.547  72.229  1.00  0.00    -0.297 A  
HETATM    5  C   UNL     1     -11.376   6.385  71.159  1.00  0.00    -0.376 A  
HETATM    6  C   UNL     1     -10.770   6.222  69.905  1.00  0.00    -0.355 A  
HETATM    7  C   UNL     1      -9.524   4.348  70.822  1.00  0.00    -0.243 A  
HETATM    8  C   UNL     1      -9.833   5.193  69.750  1.00  0.00    -0.283 A  
BRANCH   6   9
HETATM    9  C   UNL     1     -11.145   7.143  68.756  1.00  0.00    -0.019 C  
HETATM   10  C   UNL     1     -10.223   8.386  68.497  1.00  0.00    -0.201 C  
HETATM   11  C   UNL     1      -8.848   7.905  67.998  1.00  0.00    -0.124 C  
HETATM   12  C   UNL     1     -10.073   9.240  69.773  1.00  0.00    -0.218 C  
HETATM   13  N   UNL     1     -10.872   9.194  67.431  1.00  0.00    -0.424 NA 
HETATM   14  H   UNL     1     -11.826   9.431  67.706  1.00  0.00     0.000 HD 
BRANCH  13  15
HETATM   15  C   UNL     1     -10.146  10.416  67.021  1.00  0.00    -0.215 C  
BRANCH  15  16
HETATM   16  C   UNL     1     -10.966  11.715  67.208  1.00  0.00    -0.267 C  
HETATM   17  H   UNL     1     -12.599  12.262  68.173  1.00  0.00     0.000 HD 
HETATM   18  O   UNL     1     -12.096  11.465  68.058  1.00  0.00    -0.629 OA 
BRANCH  16  19
HETATM   19  C   UNL     1     -11.386  12.330  65.890  1.00  0.00    -0.406 A  
HETATM   20  C   UNL     1     -11.210  13.702  65.645  1.00  0.00    -0.297 A  
HETATM   21  O   UNL     1     -10.697  14.466  66.663  1.00  0.00    -0.286 OA 
HETATM   22  C   UNL     1     -10.188  15.724  66.237  1.00  0.00    -0.303 C  
HETATM   23  C   UNL     1     -10.977  16.462  65.164  1.00  0.00    -0.232 C  
HETATM   24  O   UNL     1     -11.030  17.685  65.073  1.00  0.00    -0.780 OA 
HETATM   25  N   UNL     1     -11.547  15.641  64.227  1.00  0.00    -0.760 N  
HETATM   26  H   UNL     1     -11.931  16.046  63.374  1.00  0.00     0.000 HD 
HETATM   27  C   UNL     1     -11.613  14.257  64.420  1.00  0.00    -0.344 A  
HETATM   28  C   UNL     1     -12.133  13.450  63.409  1.00  0.00    -0.437 A  
HETATM   29  C   UNL     1     -12.264  12.087  63.638  1.00  0.00    -0.538 A  
HETATM   30  O   UNL     1     -12.755  11.242  62.689  1.00  0.00    -0.801 OA 
HETATM   31  C   UNL     1     -11.905  11.528  64.862  1.00  0.00     0.117 A  
HETATM   32  H   UNL     1     -12.844  10.309  62.845  1.00  0.00     0.000 HD 
ENDBRANCH  16  19
ENDBRANCH  15  16
ENDBRANCH  13  15
ENDBRANCH   6   9
ENDBRANCH   2   3
TORSDOF 5
ENDMDL
MODEL       10
REMARK 921   NORMALIZED FREE ENERGY PREDICTED BY IDOCK:   -7.31 KCAL/MOL
REMARK 922        TOTAL FREE ENERGY PREDICTED BY IDOCK:   -9.69 KCAL/MOL
REMARK 923 INTER-LIGAND FREE ENERGY PREDICTED BY IDOCK:   -9.20 KCAL/MOL
REMARK 924 INTRA-LIGAND FREE ENERGY PREDICTED BY IDOCK:   -0.49 KCAL/MOL
REMARK 927      BINDING AFFINITY PREDICTED BY RF-SCORE:    0.00 PKD
ROOT
HETATM    1  C   UNL     1      -8.388   2.784  73.870  1.00  0.00    -0.072 C  
HETATM    2  O   UNL     1      -9.770   2.792  73.522  1.00  0.00    -0.097 OA 
ENDROOT
BRANCH   2   3
HETATM    3  C   UNL     1     -10.178   3.806  72.695  1.00  0.00    -0.167 A  
HETATM    4  C   UNL     1      -9.706   4.032  71.406  1.00  0.00    -0.253 A  
HETATM    5  C   UNL     1     -10.181   5.114  70.664  1.00  0.00    -0.326 A  
HETATM    6  C   UNL     1     -11.150   5.983  71.186  1.00  0.00    -0.336 A  
HETATM    7  C   UNL     1     -11.152   4.658  73.222  1.00  0.00    -0.403 A  
HETATM    8  C   UNL     1     -11.635   5.738  72.476  1.00  0.00    -0.321 A  
BRANCH   6   9
HETATM    9  C   UNL     1     -11.638   7.161  70.358  1.00  0.00    -0.300 C  
HETATM   10  C   UNL     1     -10.928   8.542  70.581  1.00  0.00    -0.239 C  
HETATM   11  C   UNL     1      -9.477   8.457  70.071  1.00  0.00    -0.164 C  
HETATM   12  C   UNL     1     -10.962   8.949  72.067  1.00  0.00    -0.412 C  
HETATM   13  N   UNL     1     -11.669   9.546  69.773  1.00  0.00    -0.440 NA 
HETATM   14  H   UNL     1     -12.657   9.538  70.028  1.00  0.00     0.000 HD 
BRANCH  13  15
HETATM   15  C   UNL     1     -11.144  10.928  69.830  1.00  0.00    -0.262 C  
BRANCH  15  16
HETATM   16  C   UNL     1     -12.063  11.968  69.144  1.00  0.00    -0.183 C  
HETATM   17  H   UNL     1     -12.702  12.341  67.314  1.00  0.00     0.000 HD 
HETATM   18  O   UNL     1     -12.138  11.704  67.735  1.00  0.00    -0.613 OA 
BRANCH  16  19
HETATM   19  C   UNL     1     -11.634  13.393  69.422  1.00  0.00    -0.365 A  
HETATM   20  C   UNL     1     -12.154  14.103  70.517  1.00  0.00    -0.350 A  
HETATM   21  O   UNL     1     -13.101  13.475  71.287  1.00  0.00    -0.321 OA 
HETATM   22  C   UNL     1     -13.289  14.070  72.565  1.00  0.00    -0.539 C  
HETATM   23  C   UNL     1     -13.257  15.591  72.631  1.00  0.00    -0.486 C  
HETATM   24  O   UNL     1     -13.899  16.254  73.441  1.00  0.00    -0.562 OA 
HETATM   25  N   UNL     1     -12.361  16.168  71.772  1.00  0.00    -0.587 N  
HETATM   26  H   UNL     1     -12.134  17.157  71.875  1.00  0.00     0.000 HD 
HETATM   27  C   UNL     1     -11.752  15.427  70.754  1.00  0.00    -0.348 A  
HETATM   28  C   UNL     1     -10.789  16.034  69.949  1.00  0.00    -0.351 A  
HETATM   29  C   UNL     1     -10.244  15.314  68.894  1.00  0.00    -0.232 A  
HETATM   30  O   UNL     1      -9.292  15.844  68.077  1.00  0.00    -0.199 OA 
HETATM   31  C   UNL     1     -10.661  14.014  68.623  1.00  0.00    -0.269 A  
HETATM   32  H   UNL     1      -8.919  15.352  67.355  1.00  0.00     0.000 HD 
ENDBRANCH  16  19
ENDBRANCH  15  16
ENDBRANCH  13  15
ENDBRANCH   6   9
ENDBRANCH   2   3
TORSDOF 5
ENDMDL
MODEL       11
REMARK 921   NORMALIZED FREE ENERGY PREDICTED BY IDOCK:   -7.31 KCAL/MOL
REMARK 922        TOTAL FREE ENERGY PREDICTED BY IDOCK:   -9.69 KCAL/MOL
REMARK 923 INTER-LIGAND FREE ENERGY PREDICTED BY IDOCK:   -8.60 KCAL/MOL
REMARK 924 INTRA-LIGAND FREE ENERGY PREDICTED BY IDOCK:   -1.09 KCAL/MOL
REMARK 927      BINDING AFFINITY PREDICTED BY RF-SCORE:    0.00 PKD
ROOT
HETATM    1  C   UNL     1      -6.659  20.371  66.013  1.00  0.00    -0.223 C  
HETATM    2  O   UNL     1      -7.493  20.614  67.142  1.00  0.00    -0.321 OA 
ENDROOT
BRANCH   2   3
HETATM    3  C   UNL     1      -8.412  19.640  67.435  1.00  0.00    -0.305 A  
HETATM    4  C   UNL     1      -9.291  19.662  68.513  1.00  0.00    -0.412 A  
HETATM    5  C   UNL     1     -10.170  18.599  68.724  1.00  0.00    -0.316 A  
HETATM    6  C   UNL     1     -10.203  17.500  67.852  1.00  0.00    -0.350 A  
HETATM    7  C   UNL     1      -8.443  18.557  66.553  1.00  0.00    -0.291 A  
HETATM    8  C   UNL     1      -9.329  17.494  66.758  1.00  0.00    -0.275 A  
BRANCH   6   9
HETATM    9  C   UNL     1     -11.163  16.351  68.117  1.00  0.00    -0.273 C  
HETATM   10  C   UNL     1     -10.591  15.086  68.848  1.00  0.00    -0.242 C  
HETATM   11  C   UNL     1     -10.232  15.456  70.300  1.00  0.00    -0.134 C  
HETATM   12  C   UNL     1      -9.359  14.528  68.107  1.00  0.00    -0.197 C  
HETATM   13  N   UNL     1     -11.671  14.065  68.859  1.00  0.00    -0.317 NA 
HETATM   14  H   UNL     1     -11.991  13.887  67.907  1.00  0.00     0.000 HD 
BRANCH  13  15
HETATM   15  C   UNL     1     -11.338  12.787  69.526  1.00  0.00    -0.154 C  
BRANCH  15  16
HETATM   16  C   UNL     1     -11.888  11.543  68.789  1.00  0.00    -0.330 C  
HETATM   17  H   UNL     1     -12.203   9.641  69.212  1.00  0.00     0.000 HD 
HETATM   18  O   UNL     1     -11.865  10.405  69.664  1.00  0.00    -0.241 OA 
BRANCH  16  19
HETATM   19  C   UNL     1     -11.156  11.265  67.494  1.00  0.00    -0.346 A  
HETATM   20  C   UNL     1     -11.460  11.982  66.324  1.00  0.00    -0.345 A  
HETATM   21  O   UNL     1     -12.479  12.900  66.392  1.00  0.00    -0.422 OA 
HETATM   22  C   UNL     1     -12.475  13.843  65.327  1.00  0.00    -0.478 C  
HETATM   23  C   UNL     1     -12.120  13.319  63.941  1.00  0.00    -0.468 C  
HETATM   24  O   UNL     1     -12.568  13.786  62.898  1.00  0.00    -0.611 OA 
HETATM   25  N   UNL     1     -11.166  12.336  63.944  1.00  0.00    -0.382 N  
HETATM   26  H   UNL     1     -10.732  12.059  63.063  1.00  0.00     0.000 HD 
HETATM   27  C   UNL     1     -10.777  11.706  65.130  1.00  0.00    -0.296 A  
HETATM   28  C   UNL     1      -9.750  10.764  65.098  1.00  0.00    -0.319 A  
HETATM   29  C   UNL     1      -9.421  10.089  66.266  1.00  0.00    -0.191 A  
HETATM   30  O   UNL     1      -8.420   9.166  66.307  1.00  0.00    -0.119 OA 
HETATM   31  C   UNL     1     -10.115  10.325  67.450  1.00  0.00    -0.246 A  
HETATM   32  H   UNL     1      -8.195   8.704  67.105  1.00  0.00     0.000 HD 
ENDBRANCH  16  19
ENDBRANCH  15  16
ENDBRANCH  13  15
ENDBRANCH   6   9
ENDBRANCH   2   3
TORSDOF 5
ENDMDL
MODEL       12
REMARK 921   NORMALIZED FREE ENERGY PREDICTED BY IDOCK:   -7.22 KCAL/MOL
REMARK 922        TOTAL FREE ENERGY PREDICTED BY IDOCK:   -9.57 KCAL/MOL
REMARK 923 INTER-LIGAND FREE ENERGY PREDICTED BY IDOCK:   -8.96 KCAL/MOL
REMARK 924 INTRA-LIGAND FREE ENERGY PREDICTED BY IDOCK:   -0.62 KCAL/MOL
REMARK 927      BINDING AFFINITY PREDICTED BY RF-SCORE:    0.00 PKD
ROOT
HETATM    1  C   UNL     1      -6.248  21.338  66.608  1.00  0.00    -0.306 C  
HETATM    2  O   UNL     1      -7.518  21.331  67.254  1.00  0.00    -0.449 OA 
ENDROOT
BRANCH   2   3
HETATM    3  C   UNL     1      -8.214  20.150  67.206  1.00  0.00    -0.336 A  
HETATM    4  C   UNL     1      -9.464  19.930  67.775  1.00  0.00    -0.474 A  
HETATM    5  C   UNL     1     -10.067  18.675  67.681  1.00  0.00    -0.404 A  
HETATM    6  C   UNL     1      -9.442  17.619  67.002  1.00  0.00    -0.266 A  
HETATM    7  C   UNL     1      -7.587  19.110  66.517  1.00  0.00    -0.264 A  
HETATM    8  C   UNL     1      -8.193  17.853  66.415  1.00  0.00    -0.287 A  
BRANCH   6   9
HETATM    9  C   UNL     1     -10.119  16.259  66.929  1.00  0.00    -0.278 C  
HETATM   10  C   UNL     1      -9.574  15.130  67.871  1.00  0.00    -0.203 C  
HETATM   11  C   UNL     1      -9.890  15.492  69.335  1.00  0.00    -0.283 C  
HETATM   12  C   UNL     1      -8.058  14.928  67.674  1.00  0.00    -0.180 C  
HETATM   13  N   UNL     1     -10.294  13.880  67.513  1.00  0.00    -0.244 NA 
HETATM   14  H   UNL     1     -10.179  13.685  66.519  1.00  0.00     0.000 HD 
BRANCH  13  15
HETATM   15  C   UNL     1      -9.935  12.684  68.307  1.00  0.00    -0.229 C  
BRANCH  15  16
HETATM   16  C   UNL     1     -10.997  11.560  68.246  1.00  0.00    -0.224 C  
HETATM   17  H   UNL     1     -12.586  11.136  67.155  1.00  0.00     0.000 HD 
HETATM   18  O   UNL     1     -11.935  11.827  67.193  1.00  0.00    -0.617 OA 
BRANCH  16  19
HETATM   19  C   UNL     1     -11.694  11.347  69.572  1.00  0.00    -0.417 A  
HETATM   20  C   UNL     1     -11.724  10.079  70.178  1.00  0.00    -0.215 A  
HETATM   21  O   UNL     1     -11.147   9.038  69.494  1.00  0.00    -0.160 OA 
HETATM   22  C   UNL     1     -10.867   7.904  70.305  1.00  0.00    -0.241 C  
HETATM   23  C   UNL     1     -11.901   7.536  71.361  1.00  0.00    -0.294 C  
HETATM   24  O   UNL     1     -12.114   6.388  71.740  1.00  0.00    -0.340 OA 
HETATM   25  N   UNL     1     -12.513   8.615  71.942  1.00  0.00    -0.333 N  
HETATM   26  H   UNL     1     -13.076   8.478  72.782  1.00  0.00     0.000 HD 
HETATM   27  C   UNL     1     -12.382   9.899  71.405  1.00  0.00    -0.404 A  
HETATM   28  C   UNL     1     -12.960  10.980  72.069  1.00  0.00    -0.398 A  
HETATM   29  C   UNL     1     -12.889  12.240  71.490  1.00  0.00    -0.280 A  
HETATM   30  O   UNL     1     -13.422  13.340  72.091  1.00  0.00    -0.485 OA 
HETATM   31  C   UNL     1     -12.273  12.428  70.255  1.00  0.00    -0.345 A  
HETATM   32  H   UNL     1     -13.374  14.202  71.696  1.00  0.00     0.000 HD 
ENDBRANCH  16  19
ENDBRANCH  15  16
ENDBRANCH  13  15
ENDBRANCH   6   9
ENDBRANCH   2   3
TORSDOF 5
ENDMDL
MODEL       13
REMARK 921   NORMALIZED FREE ENERGY PREDICTED BY IDOCK:   -7.17 KCAL/MOL
REMARK 922        TOTAL FREE ENERGY PREDICTED BY IDOCK:   -9.51 KCAL/MOL
REMARK 923 INTER-LIGAND FREE ENERGY PREDICTED BY IDOCK:   -9.62 KCAL/MOL
REMARK 924 INTRA-LIGAND FREE ENERGY PREDICTED BY IDOCK:    0.11 KCAL/MOL
REMARK 927      BINDING AFFINITY PREDICTED BY RF-SCORE:    0.00 PKD
ROOT
HETATM    1  C   UNL     1     -10.489  19.632  66.049  1.00  0.00    -0.523 C  
HETATM    2  O   UNL     1      -9.877  18.445  65.553  1.00  0.00    -0.323 OA 
ENDROOT
BRANCH   2   3
HETATM    3  C   UNL     1     -10.358  17.263  66.055  1.00  0.00    -0.305 A  
HETATM    4  C   UNL     1     -10.517  16.968  67.405  1.00  0.00    -0.322 A  
HETATM    5  C   UNL     1     -10.997  15.718  67.799  1.00  0.00    -0.314 A  
HETATM    6  C   UNL     1     -11.345  14.743  66.853  1.00  0.00    -0.358 A  
HETATM    7  C   UNL     1     -10.713  16.304  65.103  1.00  0.00    -0.350 A  
HETATM    8  C   UNL     1     -11.202  15.054  65.496  1.00  0.00    -0.344 A  
BRANCH   6   9
HETATM    9  C   UNL     1     -11.853  13.386  67.315  1.00  0.00    -0.422 C  
HETATM   10  C   UNL     1     -10.821  12.205  67.353  1.00  0.00    -0.245 C  
HETATM   11  C   UNL     1      -9.779  12.474  68.455  1.00  0.00    -0.189 C  
HETATM   12  C   UNL     1     -10.134  12.025  65.984  1.00  0.00    -0.257 C  
HETATM   13  N   UNL     1     -11.582  10.975  67.693  1.00  0.00    -0.562 NA 
HETATM   14  H   UNL     1     -12.345  10.842  67.029  1.00  0.00     0.000 HD 
BRANCH  13  15
HETATM   15  C   UNL     1     -10.782   9.735  67.798  1.00  0.00    -0.272 C  
BRANCH  15  16
HETATM   16  C   UNL     1     -10.195   9.494  69.210  1.00  0.00    -0.203 C  
HETATM   17  H   UNL     1      -8.874   8.281  70.034  1.00  0.00     0.000 HD 
HETATM   18  O   UNL     1      -9.235   8.429  69.168  1.00  0.00    -0.150 OA 
BRANCH  16  19
HETATM   19  C   UNL     1     -11.267   9.237  70.247  1.00  0.00    -0.267 A  
HETATM   20  C   UNL     1     -11.993  10.299  70.815  1.00  0.00    -0.360 A  
HETATM   21  O   UNL     1     -11.653  11.573  70.432  1.00  0.00    -0.281 OA 
HETATM   22  C   UNL     1     -12.650  12.545  70.724  1.00  0.00    -0.212 C  
HETATM   23  C   UNL     1     -13.384  12.405  72.051  1.00  0.00    -0.407 C  
HETATM   24  O   UNL     1     -13.825  13.355  72.692  1.00  0.00    -0.726 OA 
HETATM   25  N   UNL     1     -13.611  11.108  72.429  1.00  0.00    -0.394 N  
HETATM   26  H   UNL     1     -14.253  10.916  73.198  1.00  0.00     0.000 HD 
HETATM   27  C   UNL     1     -12.978  10.043  71.782  1.00  0.00    -0.458 A  
HETATM   28  C   UNL     1     -13.293   8.735  72.148  1.00  0.00    -0.465 A  
HETATM   29  C   UNL     1     -12.606   7.686  71.553  1.00  0.00    -0.343 A  
HETATM   30  O   UNL     1     -12.874   6.385  71.857  1.00  0.00    -0.355 OA 
HETATM   31  C   UNL     1     -11.600   7.926  70.620  1.00  0.00    -0.215 A  
HETATM   32  H   UNL     1     -12.404   5.667  71.450  1.00  0.00     0.000 HD 
ENDBRANCH  16  19
ENDBRANCH  15  16
ENDBRANCH  13  15
ENDBRANCH   6   9
ENDBRANCH   2   3
TORSDOF 5
ENDMDL
MODEL       14
REMARK 921   NORMALIZED FREE ENERGY PREDICTED BY IDOCK:   -7.16 KCAL/MOL
REMARK 922        TOTAL FREE ENERGY PREDICTED BY IDOCK:   -9.49 KCAL/MOL
REMARK 923 INTER-LIGAND FREE ENERGY PREDICTED BY IDOCK:   -8.94 KCAL/MOL
REMARK 924 INTRA-LIGAND FREE ENERGY PREDICTED BY IDOCK:   -0.55 KCAL/MOL
REMARK 927      BINDING AFFINITY PREDICTED BY RF-SCORE:    0.00 PKD
ROOT
HETATM    1  C   UNL     1      -7.567   2.117  69.369  1.00  0.00    -0.043 C  
HETATM    2  O   UNL     1      -8.504   2.196  70.439  1.00  0.00    -0.044 OA 
ENDROOT
BRANCH   2   3
HETATM    3  C   UNL     1      -9.239   3.351  70.514  1.00  0.00    -0.141 A  
HETATM    4  C   UNL     1      -9.777   3.887  71.680  1.00  0.00    -0.240 A  
HETATM    5  C   UNL     1     -10.530   5.061  71.630  1.00  0.00    -0.232 A  
HETATM    6  C   UNL     1     -10.746   5.734  70.418  1.00  0.00    -0.372 A  
HETATM    7  C   UNL     1      -9.437   4.018  69.303  1.00  0.00    -0.260 A  
HETATM    8  C   UNL     1     -10.184   5.199  69.252  1.00  0.00    -0.276 A  
BRANCH   6   9
HETATM    9  C   UNL     1     -11.582   7.004  70.395  1.00  0.00    -0.341 C  
HETATM   10  C   UNL     1     -10.815   8.372  70.343  1.00  0.00    -0.235 C  
HETATM   11  C   UNL     1     -10.109   8.508  68.980  1.00  0.00    -0.207 C  
HETATM   12  C   UNL     1      -9.799   8.482  71.497  1.00  0.00    -0.309 C  
HETATM   13  N   UNL     1     -11.834   9.446  70.471  1.00  0.00    -0.426 NA 
HETATM   14  H   UNL     1     -12.381   9.307  71.321  1.00  0.00     0.000 HD 
BRANCH  13  15
HETATM   15  C   UNL     1     -11.315  10.831  70.427  1.00  0.00    -0.255 C  
BRANCH  15  16
HETATM   16  C   UNL     1     -12.136  11.771  69.512  1.00  0.00    -0.250 C  
HETATM   17  H   UNL     1     -12.570  11.894  67.591  1.00  0.00     0.000 HD 
HETATM   18  O   UNL     1     -12.066  11.317  68.152  1.00  0.00    -0.635 OA 
BRANCH  16  19
HETATM   19  C   UNL     1     -11.714  13.218  69.640  1.00  0.00    -0.369 A  
HETATM   20  C   UNL     1     -12.178  14.016  70.700  1.00  0.00    -0.372 A  
HETATM   21  O   UNL     1     -13.068  13.447  71.577  1.00  0.00    -0.363 OA 
HETATM   22  C   UNL     1     -13.188  14.148  72.809  1.00  0.00    -0.509 C  
HETATM   23  C   UNL     1     -13.176  15.670  72.742  1.00  0.00    -0.516 C  
HETATM   24  O   UNL     1     -13.778  16.394  73.529  1.00  0.00    -0.555 OA 
HETATM   25  N   UNL     1     -12.341  16.179  71.783  1.00  0.00    -0.587 N  
HETATM   26  H   UNL     1     -12.124  17.176  71.787  1.00  0.00     0.000 HD 
HETATM   27  C   UNL     1     -11.782  15.359  70.797  1.00  0.00    -0.348 A  
HETATM   28  C   UNL     1     -10.880  15.904  69.886  1.00  0.00    -0.333 A  
HETATM   29  C   UNL     1     -10.387  15.101  68.866  1.00  0.00    -0.243 A  
HETATM   30  O   UNL     1      -9.494  15.568  67.949  1.00  0.00    -0.200 OA 
HETATM   31  C   UNL     1     -10.800  13.778  68.734  1.00  0.00    -0.281 A  
HETATM   32  H   UNL     1      -9.157  15.019  67.251  1.00  0.00     0.000 HD 
ENDBRANCH  16  19
ENDBRANCH  15  16
ENDBRANCH  13  15
ENDBRANCH   6   9
ENDBRANCH   2   3
TORSDOF 5
ENDMDL
MODEL       15
REMARK 921   NORMALIZED FREE ENERGY PREDICTED BY IDOCK:   -7.14 KCAL/MOL
REMARK 922        TOTAL FREE ENERGY PREDICTED BY IDOCK:   -9.48 KCAL/MOL
REMARK 923 INTER-LIGAND FREE ENERGY PREDICTED BY IDOCK:   -9.10 KCAL/MOL
REMARK 924 INTRA-LIGAND FREE ENERGY PREDICTED BY IDOCK:   -0.37 KCAL/MOL
REMARK 927      BINDING AFFINITY PREDICTED BY RF-SCORE:    0.00 PKD
ROOT
HETATM    1  C   UNL     1      -6.215  21.331  66.095  1.00  0.00    -0.198 C  
HETATM    2  O   UNL     1      -6.951  21.287  67.314  1.00  0.00    -0.508 OA 
ENDROOT
BRANCH   2   3
HETATM    3  C   UNL     1      -7.287  20.038  67.772  1.00  0.00    -0.293 A  
HETATM    4  C   UNL     1      -6.384  19.064  68.185  1.00  0.00    -0.234 A  
HETATM    5  C   UNL     1      -6.843  17.817  68.611  1.00  0.00    -0.242 A  
HETATM    6  C   UNL     1      -8.214  17.522  68.651  1.00  0.00    -0.265 A  
HETATM    7  C   UNL     1      -8.655  19.761  67.817  1.00  0.00    -0.373 A  
HETATM    8  C   UNL     1      -9.117  18.515  68.252  1.00  0.00    -0.338 A  
BRANCH   6   9
HETATM    9  C   UNL     1      -8.682  16.150  69.107  1.00  0.00    -0.235 C  
HETATM   10  C   UNL     1      -8.874  15.050  68.006  1.00  0.00    -0.165 C  
HETATM   11  C   UNL     1      -7.500  14.668  67.423  1.00  0.00    -0.212 C  
HETATM   12  C   UNL     1      -9.822  15.539  66.893  1.00  0.00    -0.245 C  
HETATM   13  N   UNL     1      -9.464  13.862  68.677  1.00  0.00    -0.348 NA 
HETATM   14  H   UNL     1     -10.324  14.125  69.158  1.00  0.00     0.000 HD 
BRANCH  13  15
HETATM   15  C   UNL     1      -9.711  12.691  67.806  1.00  0.00    -0.206 C  
BRANCH  15  16
HETATM   16  C   UNL     1     -11.176  12.193  67.839  1.00  0.00    -0.272 C  
HETATM   17  H   UNL     1     -12.767  12.322  66.678  1.00  0.00     0.000 HD 
HETATM   18  O   UNL     1     -11.868  12.627  66.658  1.00  0.00    -0.389 OA 
BRANCH  16  19
HETATM   19  C   UNL     1     -11.903  12.614  69.097  1.00  0.00    -0.349 A  
HETATM   20  C   UNL     1     -12.206  11.680  70.103  1.00  0.00    -0.288 A  
HETATM   21  O   UNL     1     -11.865  10.371  69.874  1.00  0.00    -0.258 OA 
HETATM   22  C   UNL     1     -11.835   9.570  71.049  1.00  0.00    -0.330 C  
HETATM   23  C   UNL     1     -12.924   9.819  72.083  1.00  0.00    -0.394 C  
HETATM   24  O   UNL     1     -13.378   8.950  72.822  1.00  0.00    -0.405 OA 
HETATM   25  N   UNL     1     -13.292  11.133  72.201  1.00  0.00    -0.577 N  
HETATM   26  H   UNL     1     -13.872  11.422  72.989  1.00  0.00     0.000 HD 
HETATM   27  C   UNL     1     -12.888  12.087  71.260  1.00  0.00    -0.265 A  
HETATM   28  C   UNL     1     -13.221  13.426  71.458  1.00  0.00    -0.395 A  
HETATM   29  C   UNL     1     -12.881  14.354  70.483  1.00  0.00    -0.294 A  
HETATM   30  O   UNL     1     -13.167  15.679  70.619  1.00  0.00    -0.703 OA 
HETATM   31  C   UNL     1     -12.238  13.960  69.312  1.00  0.00    -0.319 A  
HETATM   32  H   UNL     1     -12.935  16.314  69.952  1.00  0.00     0.000 HD 
ENDBRANCH  16  19
ENDBRANCH  15  16
ENDBRANCH  13  15
ENDBRANCH   6   9
ENDBRANCH   2   3
TORSDOF 5
ENDMDL
MODEL       16
REMARK 921   NORMALIZED FREE ENERGY PREDICTED BY IDOCK:   -7.13 KCAL/MOL
REMARK 922        TOTAL FREE ENERGY PREDICTED BY IDOCK:   -9.46 KCAL/MOL
REMARK 923 INTER-LIGAND FREE ENERGY PREDICTED BY IDOCK:   -8.73 KCAL/MOL
REMARK 924 INTRA-LIGAND FREE ENERGY PREDICTED BY IDOCK:   -0.73 KCAL/MOL
REMARK 927      BINDING AFFINITY PREDICTED BY RF-SCORE:    0.00 PKD
ROOT
HETATM    1  C   UNL     1      -9.482   2.769  73.518  1.00  0.00    -0.084 C  
HETATM    2  O   UNL     1     -10.044   3.729  74.408  1.00  0.00    -0.138 OA 
ENDROOT
BRANCH   2   3
HETATM    3  C   UNL     1     -10.460   4.906  73.841  1.00  0.00    -0.267 A  
HETATM    4  C   UNL     1     -11.410   5.021  72.831  1.00  0.00    -0.329 A  
HETATM    5  C   UNL     1     -11.738   6.275  72.314  1.00  0.00    -0.344 A  
HETATM    6  C   UNL     1     -11.138   7.443  72.807  1.00  0.00    -0.394 A  
HETATM    7  C   UNL     1      -9.864   6.063  74.349  1.00  0.00    -0.270 A  
HETATM    8  C   UNL     1     -10.197   7.322  73.838  1.00  0.00    -0.304 A  
BRANCH   6   9
HETATM    9  C   UNL     1     -11.506   8.794  72.215  1.00  0.00    -0.376 C  
HETATM   10  C   UNL     1     -10.875   9.169  70.828  1.00  0.00    -0.268 C  
HETATM   11  C   UNL     1     -11.456   8.248  69.739  1.00  0.00     0.254 C  
HETATM   12  C   UNL     1      -9.338   9.063  70.872  1.00  0.00    -0.326 C  
HETATM   13  N   UNL     1     -11.270  10.573  70.538  1.00  0.00    -0.402 NA 
HETATM   14  H   UNL     1     -10.983  11.181  71.305  1.00  0.00     0.000 HD 
BRANCH  13  15
HETATM   15  C   UNL     1     -10.786  11.121  69.252  1.00  0.00    -0.229 C  
BRANCH  15  16
HETATM   16  C   UNL     1     -11.853  11.942  68.489  1.00  0.00    -0.297 C  
HETATM   17  H   UNL     1     -12.501  12.089  66.630  1.00  0.00     0.000 HD 
HETATM   18  O   UNL     1     -11.846  11.585  67.098  1.00  0.00    -0.595 OA 
BRANCH  16  19
HETATM   19  C   UNL     1     -11.685  13.434  68.682  1.00  0.00    -0.384 A  
HETATM   20  C   UNL     1     -12.098  14.059  69.871  1.00  0.00    -0.345 A  
HETATM   21  O   UNL     1     -12.705  13.275  70.820  1.00  0.00    -0.288 OA 
HETATM   22  C   UNL     1     -12.737  13.862  72.116  1.00  0.00    -0.230 C  
HETATM   23  C   UNL     1     -13.013  15.358  72.190  1.00  0.00    -0.394 C  
HETATM   24  O   UNL     1     -13.593  15.901  73.126  1.00  0.00    -0.580 OA 
HETATM   25  N   UNL     1     -12.462  16.078  71.163  1.00  0.00    -0.561 N  
HETATM   26  H   UNL     1     -12.432  17.096  71.226  1.00  0.00     0.000 HD 
HETATM   27  C   UNL     1     -11.942  15.445  70.030  1.00  0.00    -0.356 A  
HETATM   28  C   UNL     1     -11.323  16.210  69.043  1.00  0.00    -0.340 A  
HETATM   29  C   UNL     1     -10.876  15.582  67.888  1.00  0.00    -0.307 A  
HETATM   30  O   UNL     1     -10.253  16.269  66.890  1.00  0.00    -0.275 OA 
HETATM   31  C   UNL     1     -11.058  14.215  67.700  1.00  0.00    -0.296 A  
HETATM   32  H   UNL     1      -9.947  15.840  66.100  1.00  0.00     0.000 HD 
ENDBRANCH  16  19
ENDBRANCH  15  16
ENDBRANCH  13  15
ENDBRANCH   6   9
ENDBRANCH   2   3
TORSDOF 5
ENDMDL
MODEL       17
REMARK 921   NORMALIZED FREE ENERGY PREDICTED BY IDOCK:   -7.10 KCAL/MOL
REMARK 922        TOTAL FREE ENERGY PREDICTED BY IDOCK:   -9.42 KCAL/MOL
REMARK 923 INTER-LIGAND FREE ENERGY PREDICTED BY IDOCK:   -8.32 KCAL/MOL
REMARK 924 INTRA-LIGAND FREE ENERGY PREDICTED BY IDOCK:   -1.10 KCAL/MOL
REMARK 927      BINDING AFFINITY PREDICTED BY RF-SCORE:    0.00 PKD
ROOT
HETATM    1  C   UNL     1      -6.814  19.979  65.369  1.00  0.00    -0.305 C  
HETATM    2  O   UNL     1      -7.696  20.163  66.473  1.00  0.00    -0.281 OA 
ENDROOT
BRANCH   2   3
HETATM    3  C   UNL     1      -8.542  19.120  66.749  1.00  0.00    -0.309 A  
HETATM    4  C   UNL     1      -8.340  17.798  66.367  1.00  0.00    -0.281 A  
HETATM    5  C   UNL     1      -9.286  16.822  66.687  1.00  0.00    -0.279 A  
HETATM    6  C   UNL     1     -10.443  17.143  67.412  1.00  0.00    -0.334 A  
HETATM    7  C   UNL     1      -9.685  19.450  67.481  1.00  0.00    -0.432 A  
HETATM    8  C   UNL     1     -10.630  18.472  67.810  1.00  0.00    -0.422 A  
BRANCH   6   9
HETATM    9  C   UNL     1     -11.461  16.060  67.733  1.00  0.00    -0.080 C  
HETATM   10  C   UNL     1     -11.175  15.148  68.977  1.00  0.00    -0.273 C  
HETATM   11  C   UNL     1     -11.287  15.991  70.262  1.00  0.00    -0.391 C  
HETATM   12  C   UNL     1      -9.784  14.491  68.875  1.00  0.00    -0.169 C  
HETATM   13  N   UNL     1     -12.224  14.095  68.994  1.00  0.00    -0.521 NA 
HETATM   14  H   UNL     1     -12.231  13.597  68.104  1.00  0.00     0.000 HD 
BRANCH  13  15
HETATM   15  C   UNL     1     -12.146  13.130  70.112  1.00  0.00    -0.321 C  
BRANCH  15  16
HETATM   16  C   UNL     1     -12.403  11.665  69.685  1.00  0.00    -0.108 C  
HETATM   17  H   UNL     1     -12.812   9.954  70.579  1.00  0.00     0.000 HD 
HETATM   18  O   UNL     1     -12.653  10.853  70.842  1.00  0.00    -0.345 OA 
BRANCH  16  19
HETATM   19  C   UNL     1     -11.280  11.102  68.841  1.00  0.00    -0.317 A  
HETATM   20  C   UNL     1     -11.212  11.361  67.462  1.00  0.00    -0.292 A  
HETATM   21  O   UNL     1     -12.230  12.096  66.906  1.00  0.00    -0.537 OA 
HETATM   22  C   UNL     1     -11.913  12.645  65.632  1.00  0.00    -0.452 C  
HETATM   23  C   UNL     1     -11.108  11.767  64.682  1.00  0.00    -0.303 C  
HETATM   24  O   UNL     1     -11.208  11.812  63.460  1.00  0.00    -0.408 OA 
HETATM   25  N   UNL     1     -10.172  10.985  65.304  1.00  0.00    -0.270 N  
HETATM   26  H   UNL     1      -9.465  10.509  64.743  1.00  0.00     0.000 HD 
HETATM   27  C   UNL     1     -10.168  10.824  66.693  1.00  0.00    -0.233 A  
HETATM   28  C   UNL     1      -9.153  10.079  67.292  1.00  0.00    -0.152 A  
HETATM   29  C   UNL     1      -9.198   9.862  68.663  1.00  0.00    -0.139 A  
HETATM   30  O   UNL     1      -8.232   9.153  69.312  1.00  0.00    -0.111 OA 
HETATM   31  C   UNL     1     -10.248  10.357  69.432  1.00  0.00    -0.257 A  
HETATM   32  H   UNL     1      -8.263   9.004  70.249  1.00  0.00     0.000 HD 
ENDBRANCH  16  19
ENDBRANCH  15  16
ENDBRANCH  13  15
ENDBRANCH   6   9
ENDBRANCH   2   3
TORSDOF 5
ENDMDL
MODEL       18
REMARK 921   NORMALIZED FREE ENERGY PREDICTED BY IDOCK:   -7.06 KCAL/MOL
REMARK 922        TOTAL FREE ENERGY PREDICTED BY IDOCK:   -9.37 KCAL/MOL
REMARK 923 INTER-LIGAND FREE ENERGY PREDICTED BY IDOCK:   -8.71 KCAL/MOL
REMARK 924 INTRA-LIGAND FREE ENERGY PREDICTED BY IDOCK:   -0.65 KCAL/MOL
REMARK 927      BINDING AFFINITY PREDICTED BY RF-SCORE:    0.00 PKD
ROOT
HETATM    1  C   UNL     1      -9.128   5.207  72.882  1.00  0.00    -0.122 C  
HETATM    2  O   UNL     1     -10.361   5.877  72.638  1.00  0.00    -0.187 OA 
ENDROOT
BRANCH   2   3
HETATM    3  C   UNL     1     -10.281   7.050  71.931  1.00  0.00    -0.187 A  
HETATM    4  C   UNL     1     -11.033   8.193  72.181  1.00  0.00    -0.372 A  
HETATM    5  C   UNL     1     -10.881   9.324  71.378  1.00  0.00    -0.434 A  
HETATM    6  C   UNL     1      -9.962   9.344  70.319  1.00  0.00    -0.284 A  
HETATM    7  C   UNL     1      -9.353   7.061  70.886  1.00  0.00    -0.157 A  
HETATM    8  C   UNL     1      -9.193   8.197  70.085  1.00  0.00    -0.155 A  
BRANCH   6   9
HETATM    9  C   UNL     1      -9.829  10.587  69.453  1.00  0.00    -0.205 C  
HETATM   10  C   UNL     1     -10.844  10.753  68.269  1.00  0.00    -0.229 C  
HETATM   11  C   UNL     1     -12.256  10.991  68.839  1.00  0.00    -0.100 C  
HETATM   12  C   UNL     1     -10.828   9.517  67.348  1.00  0.00    -0.215 C  
HETATM   13  N   UNL     1     -10.422  11.953  67.501  1.00  0.00    -0.205 NA 
HETATM   14  H   UNL     1      -9.450  11.854  67.206  1.00  0.00     0.000 HD 
BRANCH  13  15
HETATM   15  C   UNL     1     -11.269  12.300  66.338  1.00  0.00    -0.324 C  
BRANCH  15  16
HETATM   16  C   UNL     1     -12.255  13.460  66.615  1.00  0.00    -0.334 C  
HETATM   17  H   UNL     1     -13.656  14.429  65.618  1.00  0.00     0.000 HD 
HETATM   18  O   UNL     1     -13.050  13.718  65.448  1.00  0.00    -0.727 OA 
BRANCH  16  19
HETATM   19  C   UNL     1     -11.557  14.711  67.102  1.00  0.00    -0.394 A  
HETATM   20  C   UNL     1     -11.580  15.069  68.461  1.00  0.00    -0.326 A  
HETATM   21  O   UNL     1     -12.302  14.272  69.313  1.00  0.00    -0.293 OA 
HETATM   22  C   UNL     1     -11.972  14.450  70.685  1.00  0.00    -0.323 C  
HETATM   23  C   UNL     1     -11.699  15.874  71.151  1.00  0.00    -0.442 C  
HETATM   24  O   UNL     1     -11.936  16.280  72.285  1.00  0.00    -0.511 OA 
HETATM   25  N   UNL     1     -11.060  16.653  70.223  1.00  0.00    -0.427 N  
HETATM   26  H   UNL     1     -10.671  17.552  70.506  1.00  0.00     0.000 HD 
HETATM   27  C   UNL     1     -10.933  16.238  68.893  1.00  0.00    -0.334 A  
HETATM   28  C   UNL     1     -10.211  17.026  67.998  1.00  0.00    -0.319 A  
HETATM   29  C   UNL     1     -10.153  16.645  66.663  1.00  0.00    -0.301 A  
HETATM   30  O   UNL     1      -9.455  17.363  65.740  1.00  0.00    -0.523 OA 
HETATM   31  C   UNL     1     -10.820  15.509  66.213  1.00  0.00    -0.283 A  
HETATM   32  H   UNL     1      -9.415  17.103  64.827  1.00  0.00     0.000 HD 
ENDBRANCH  16  19
ENDBRANCH  15  16
ENDBRANCH  13  15
ENDBRANCH   6   9
ENDBRANCH   2   3
TORSDOF 5
ENDMDL
MODEL       19
REMARK 921   NORMALIZED FREE ENERGY PREDICTED BY IDOCK:   -7.00 KCAL/MOL
REMARK 922        TOTAL FREE ENERGY PREDICTED BY IDOCK:   -9.29 KCAL/MOL
REMARK 923 INTER-LIGAND FREE ENERGY PREDICTED BY IDOCK:   -8.81 KCAL/MOL
REMARK 924 INTRA-LIGAND FREE ENERGY PREDICTED BY IDOCK:   -0.48 KCAL/MOL
REMARK 927      BINDING AFFINITY PREDICTED BY RF-SCORE:    0.00 PKD
ROOT
HETATM    1  C   UNL     1      -6.921  20.839  67.053  1.00  0.00    -0.325 C  
HETATM    2  O   UNL     1      -8.325  20.701  67.248  1.00  0.00    -0.336 OA 
ENDROOT
BRANCH   2   3
HETATM    3  C   UNL     1      -8.755  19.476  67.690  1.00  0.00    -0.315 A  
HETATM    4  C   UNL     1     -10.065  19.012  67.623  1.00  0.00    -0.448 A  
HETATM    5  C   UNL     1     -10.390  17.752  68.128  1.00  0.00    -0.393 A  
HETATM    6  C   UNL     1      -9.411  16.922  68.693  1.00  0.00    -0.268 A  
HETATM    7  C   UNL     1      -7.769  18.654  68.240  1.00  0.00    -0.321 A  
HETATM    8  C   UNL     1      -8.091  17.388  68.739  1.00  0.00    -0.234 A  
BRANCH   6   9
HETATM    9  C   UNL     1      -9.799  15.560  69.246  1.00  0.00    -0.270 C  
HETATM   10  C   UNL     1      -9.446  14.301  68.379  1.00  0.00    -0.213 C  
HETATM   11  C   UNL     1      -7.916  14.129  68.331  1.00  0.00    -0.142 C  
HETATM   12  C   UNL     1     -10.025  14.429  66.956  1.00  0.00    -0.257 C  
HETATM   13  N   UNL     1     -10.047  13.123  69.058  1.00  0.00    -0.424 NA 
HETATM   14  H   UNL     1     -11.047  13.271  69.191  1.00  0.00     0.000 HD 
BRANCH  13  15
HETATM   15  C   UNL     1      -9.812  11.818  68.402  1.00  0.00    -0.199 C  
BRANCH  15  16
HETATM   16  C   UNL     1     -11.093  10.963  68.249  1.00  0.00    -0.266 C  
HETATM   17  H   UNL     1     -12.876  11.174  67.428  1.00  0.00     0.000 HD 
HETATM   18  O   UNL     1     -12.089  11.698  67.522  1.00  0.00    -0.611 OA 
BRANCH  16  19
HETATM   19  C   UNL     1     -11.623  10.469  69.577  1.00  0.00    -0.332 A  
HETATM   20  C   UNL     1     -11.350   9.166  70.025  1.00  0.00    -0.090 A  
HETATM   21  O   UNL     1     -10.633   8.347  69.188  1.00  0.00    -0.217 OA 
HETATM   22  C   UNL     1     -10.066   7.216  69.839  1.00  0.00    -0.191 C  
HETATM   23  C   UNL     1     -10.916   6.530  70.899  1.00  0.00    -0.274 C  
HETATM   24  O   UNL     1     -10.862   5.329  71.148  1.00  0.00    -0.178 OA 
HETATM   25  N   UNL     1     -11.683   7.388  71.641  1.00  0.00    -0.268 N  
HETATM   26  H   UNL     1     -12.137   7.049  72.489  1.00  0.00     0.000 HD 
HETATM   27  C   UNL     1     -11.857   8.722  71.257  1.00  0.00    -0.303 A  
HETATM   28  C   UNL     1     -12.584   9.581  72.079  1.00  0.00    -0.456 A  
HETATM   29  C   UNL     1     -12.815  10.883  71.654  1.00  0.00    -0.449 A  
HETATM   30  O   UNL     1     -13.508  11.776  72.414  1.00  0.00    -0.612 OA 
HETATM   31  C   UNL     1     -12.351  11.326  70.418  1.00  0.00    -0.415 A  
HETATM   32  H   UNL     1     -13.666  12.666  72.124  1.00  0.00     0.000 HD 
ENDBRANCH  16  19
ENDBRANCH  15  16
ENDBRANCH  13  15
ENDBRANCH   6   9
ENDBRANCH   2   3
TORSDOF 5
ENDMDL
MODEL       20
REMARK 921   NORMALIZED FREE ENERGY PREDICTED BY IDOCK:   -6.96 KCAL/MOL
REMARK 922        TOTAL FREE ENERGY PREDICTED BY IDOCK:   -9.23 KCAL/MOL
REMARK 923 INTER-LIGAND FREE ENERGY PREDICTED BY IDOCK:   -8.89 KCAL/MOL
REMARK 924 INTRA-LIGAND FREE ENERGY PREDICTED BY IDOCK:   -0.35 KCAL/MOL
REMARK 927      BINDING AFFINITY PREDICTED BY RF-SCORE:    0.00 PKD
ROOT
HETATM    1  C   UNL     1      -9.821   5.269  74.500  1.00  0.00    -0.206 C  
HETATM    2  O   UNL     1     -10.948   4.880  73.720  1.00  0.00    -0.296 OA 
ENDROOT
BRANCH   2   3
HETATM    3  C   UNL     1     -11.006   5.390  72.448  1.00  0.00    -0.240 A  
HETATM    4  C   UNL     1     -11.935   6.321  71.996  1.00  0.00    -0.353 A  
HETATM    5  C   UNL     1     -11.911   6.752  70.669  1.00  0.00    -0.442 A  
HETATM    6  C   UNL     1     -10.946   6.275  69.769  1.00  0.00    -0.444 A  
HETATM    7  C   UNL     1     -10.033   4.917  71.564  1.00  0.00    -0.260 A  
HETATM    8  C   UNL     1     -10.001   5.353  70.236  1.00  0.00    -0.298 A  
BRANCH   6   9
HETATM    9  C   UNL     1     -10.953   6.753  68.326  1.00  0.00    -0.270 C  
HETATM   10  C   UNL     1      -9.969   7.913  67.945  1.00  0.00    -0.178 C  
HETATM   11  C   UNL     1      -8.519   7.400  68.034  1.00  0.00    -0.123 C  
HETATM   12  C   UNL     1     -10.173   9.136  68.861  1.00  0.00    -0.221 C  
HETATM   13  N   UNL     1     -10.265   8.290  66.538  1.00  0.00    -0.433 NA 
HETATM   14  H   UNL     1     -11.252   8.531  66.443  1.00  0.00     0.000 HD 
BRANCH  13  15
HETATM   15  C   UNL     1      -9.424   9.368  65.972  1.00  0.00    -0.241 C  
BRANCH  15  16
HETATM   16  C   UNL     1     -10.239  10.554  65.402  1.00  0.00    -0.270 C  
HETATM   17  H   UNL     1     -10.637  11.303  63.620  1.00  0.00     0.000 HD 
HETATM   18  O   UNL     1     -10.137  10.576  63.971  1.00  0.00    -0.334 OA 
BRANCH  16  19
HETATM   19  C   UNL     1      -9.837  11.880  66.011  1.00  0.00    -0.258 A  
HETATM   20  C   UNL     1     -10.402  13.084  65.557  1.00  0.00    -0.294 A  
HETATM   21  O   UNL     1     -11.286  13.012  64.509  1.00  0.00    -0.312 OA 
HETATM   22  C   UNL     1     -12.097  14.172  64.362  1.00  0.00    -0.463 C  
HETATM   23  C   UNL     1     -11.427  15.519  64.598  1.00  0.00    -0.324 C  
HETATM   24  O   UNL     1     -11.754  16.555  64.026  1.00  0.00    -1.111 OA 
HETATM   25  N   UNL     1     -10.485  15.507  65.591  1.00  0.00    -0.347 N  
HETATM   26  H   UNL     1     -10.121  16.391  65.947  1.00  0.00     0.000 HD 
HETATM   27  C   UNL     1     -10.011  14.305  66.127  1.00  0.00    -0.314 A  
HETATM   28  C   UNL     1      -9.108  14.339  67.189  1.00  0.00    -0.237 A  
HETATM   29  C   UNL     1      -8.585  13.144  67.665  1.00  0.00    -0.193 A  
HETATM   30  O   UNL     1      -7.708  13.106  68.706  1.00  0.00    -0.247 OA 
HETATM   31  C   UNL     1      -8.935  11.928  67.084  1.00  0.00    -0.178 A  
HETATM   32  H   UNL     1      -7.350  12.289  69.032  1.00  0.00     0.000 HD 
ENDBRANCH  16  19
ENDBRANCH  15  16
ENDBRANCH  13  15
ENDBRANCH   6   9
ENDBRANCH   2   3
TORSDOF 5
ENDMDL
MODEL       21
REMARK 921   NORMALIZED FREE ENERGY PREDICTED BY IDOCK:   -6.95 KCAL/MOL
REMARK 922        TOTAL FREE ENERGY PREDICTED BY IDOCK:   -9.23 KCAL/MOL
REMARK 923 INTER-LIGAND FREE ENERGY PREDICTED BY IDOCK:   -8.54 KCAL/MOL
REMARK 924 INTRA-LIGAND FREE ENERGY PREDICTED BY IDOCK:   -0.69 KCAL/MOL
REMARK 927      BINDING AFFINITY PREDICTED BY RF-SCORE:    0.00 PKD
ROOT
HETATM    1  C   UNL     1     -10.301   5.257  67.967  1.00  0.00    -0.118 C  
HETATM    2  O   UNL     1      -9.897   5.811  66.718  1.00  0.00    -0.142 OA 
ENDROOT
BRANCH   2   3
HETATM    3  C   UNL     1      -9.785   7.177  66.672  1.00  0.00    -0.170 A  
HETATM    4  C   UNL     1     -10.536   8.072  67.428  1.00  0.00    -0.357 A  
HETATM    5  C   UNL     1     -10.349   9.447  67.280  1.00  0.00    -0.325 A  
HETATM    6  C   UNL     1      -9.395   9.957  66.387  1.00  0.00    -0.213 A  
HETATM    7  C   UNL     1      -8.823   7.673  65.788  1.00  0.00    -0.134 A  
HETATM    8  C   UNL     1      -8.628   9.051  65.644  1.00  0.00    -0.187 A  
BRANCH   6   9
HETATM    9  C   UNL     1      -9.224  11.461  66.238  1.00  0.00    -0.220 C  
HETATM   10  C   UNL     1     -10.275  12.223  65.359  1.00  0.00    -0.270 C  
HETATM   11  C   UNL     1     -11.645  12.192  66.063  1.00  0.00    -0.420 C  
HETATM   12  C   UNL     1     -10.372  11.605  63.950  1.00  0.00    -0.417 C  
HETATM   13  N   UNL     1      -9.814  13.632  65.254  1.00  0.00    -0.554 NA 
HETATM   14  H   UNL     1      -8.863  13.661  64.886  1.00  0.00     0.000 HD 
BRANCH  13  15
HETATM   15  C   UNL     1     -10.686  14.535  64.471  1.00  0.00    -0.174 C  
BRANCH  15  16
HETATM   16  C   UNL     1     -11.125  15.799  65.249  1.00  0.00    -0.273 C  
HETATM   17  H   UNL     1     -11.443  17.704  64.841  1.00  0.00     0.000 HD 
HETATM   18  O   UNL     1     -11.173  16.928  64.364  1.00  0.00    -1.159 OA 
BRANCH  16  19
HETATM   19  C   UNL     1     -10.251  16.072  66.454  1.00  0.00    -0.315 A  
HETATM   20  C   UNL     1     -10.632  15.639  67.735  1.00  0.00    -0.281 A  
HETATM   21  O   UNL     1     -11.847  15.011  67.856  1.00  0.00    -0.334 OA 
HETATM   22  C   UNL     1     -11.992  14.269  69.061  1.00  0.00    -0.325 C  
HETATM   23  C   UNL     1     -11.415  14.886  70.328  1.00  0.00    -0.271 C  
HETATM   24  O   UNL     1     -11.883  14.709  71.449  1.00  0.00    -0.332 OA 
HETATM   25  N   UNL     1     -10.252  15.581  70.130  1.00  0.00    -0.399 N  
HETATM   26  H   UNL     1      -9.697  15.867  70.936  1.00  0.00     0.000 HD 
HETATM   27  C   UNL     1      -9.812  15.908  68.843  1.00  0.00    -0.226 A  
HETATM   28  C   UNL     1      -8.586  16.550  68.682  1.00  0.00    -0.243 A  
HETATM   29  C   UNL     1      -8.191  16.937  67.408  1.00  0.00    -0.182 A  
HETATM   30  O   UNL     1      -7.001  17.558  67.181  1.00  0.00    -0.158 OA 
HETATM   31  C   UNL     1      -9.011  16.711  66.306  1.00  0.00    -0.340 A  
HETATM   32  H   UNL     1      -6.730  17.823  66.310  1.00  0.00     0.000 HD 
ENDBRANCH  16  19
ENDBRANCH  15  16
ENDBRANCH  13  15
ENDBRANCH   6   9
ENDBRANCH   2   3
TORSDOF 5
ENDMDL
MODEL       22
REMARK 921   NORMALIZED FREE ENERGY PREDICTED BY IDOCK:   -6.94 KCAL/MOL
REMARK 922        TOTAL FREE ENERGY PREDICTED BY IDOCK:   -9.22 KCAL/MOL
REMARK 923 INTER-LIGAND FREE ENERGY PREDICTED BY IDOCK:   -9.23 KCAL/MOL
REMARK 924 INTRA-LIGAND FREE ENERGY PREDICTED BY IDOCK:    0.01 KCAL/MOL
REMARK 927      BINDING AFFINITY PREDICTED BY RF-SCORE:    0.00 PKD
ROOT
HETATM    1  C   UNL     1      -7.517  20.617  67.425  1.00  0.00    -0.337 C  
HETATM    2  O   UNL     1      -8.661  20.190  66.692  1.00  0.00    -0.314 OA 
ENDROOT
BRANCH   2   3
HETATM    3  C   UNL     1      -8.812  18.834  66.546  1.00  0.00    -0.312 A  
HETATM    4  C   UNL     1      -7.815  17.887  66.754  1.00  0.00    -0.259 A  
HETATM    5  C   UNL     1      -8.081  16.532  66.552  1.00  0.00    -0.341 A  
HETATM    6  C   UNL     1      -9.353  16.093  66.156  1.00  0.00    -0.372 A  
HETATM    7  C   UNL     1     -10.086  18.409  66.163  1.00  0.00    -0.376 A  
HETATM    8  C   UNL     1     -10.357  17.050  65.968  1.00  0.00    -0.324 A  
BRANCH   6   9
HETATM    9  C   UNL     1      -9.607  14.611  65.931  1.00  0.00    -0.303 C  
HETATM   10  C   UNL     1     -10.491  13.862  66.988  1.00  0.00    -0.278 C  
HETATM   11  C   UNL     1     -11.938  14.383  66.903  1.00  0.00    -0.425 C  
HETATM   12  C   UNL     1      -9.927  14.046  68.412  1.00  0.00    -0.236 C  
HETATM   13  N   UNL     1     -10.471  12.420  66.628  1.00  0.00    -0.228 NA 
HETATM   14  H   UNL     1      -9.508  12.087  66.578  1.00  0.00     0.000 HD 
BRANCH  13  15
HETATM   15  C   UNL     1     -11.269  11.530  67.501  1.00  0.00    -0.298 C  
BRANCH  15  16
HETATM   16  C   UNL     1     -10.511  11.065  68.768  1.00  0.00    -0.198 C  
HETATM   17  H   UNL     1      -9.133   9.724  69.211  1.00  0.00     0.000 HD 
HETATM   18  O   UNL     1      -9.598  10.009  68.434  1.00  0.00    -0.142 OA 
BRANCH  16  19
HETATM   19  C   UNL     1     -11.446  10.661  69.886  1.00  0.00    -0.393 A  
HETATM   20  C   UNL     1     -12.091  11.629  70.675  1.00  0.00    -0.335 A  
HETATM   21  O   UNL     1     -11.796  12.946  70.426  1.00  0.00    -0.284 OA 
HETATM   22  C   UNL     1     -12.744  13.859  70.966  1.00  0.00    -0.357 C  
HETATM   23  C   UNL     1     -13.308  13.536  72.343  1.00  0.00    -0.540 C  
HETATM   24  O   UNL     1     -13.661  14.387  73.155  1.00  0.00    -0.543 OA 
HETATM   25  N   UNL     1     -13.491  12.198  72.571  1.00  0.00    -0.440 N  
HETATM   26  H   UNL     1     -14.033  11.898  73.382  1.00  0.00     0.000 HD 
HETATM   27  C   UNL     1     -12.948  11.235  71.714  1.00  0.00    -0.414 A  
HETATM   28  C   UNL     1     -13.222   9.887  71.940  1.00  0.00    -0.558 A  
HETATM   29  C   UNL     1     -12.619   8.934  71.130  1.00  0.00    -0.185 A  
HETATM   30  O   UNL     1     -12.852   7.601  71.290  1.00  0.00    -0.427 OA 
HETATM   31  C   UNL     1     -11.736   9.307  70.120  1.00  0.00    -0.008 A  
HETATM   32  H   UNL     1     -12.440   6.949  70.737  1.00  0.00     0.000 HD 
ENDBRANCH  16  19
ENDBRANCH  15  16
ENDBRANCH  13  15
ENDBRANCH   6   9
ENDBRANCH   2   3
TORSDOF 5
ENDMDL
MODEL       23
REMARK 921   NORMALIZED FREE ENERGY PREDICTED BY IDOCK:   -6.92 KCAL/MOL
REMARK 922        TOTAL FREE ENERGY PREDICTED BY IDOCK:   -9.18 KCAL/MOL
REMARK 923 INTER-LIGAND FREE ENERGY PREDICTED BY IDOCK:   -8.78 KCAL/MOL
REMARK 924 INTRA-LIGAND FREE ENERGY PREDICTED BY IDOCK:   -0.40 KCAL/MOL
REMARK 927      BINDING AFFINITY PREDICTED BY RF-SCORE:    0.00 PKD
ROOT
HETATM    1  C   UNL     1      -9.652  20.615  67.658  1.00  0.00    -0.301 C  
HETATM    2  O   UNL     1      -8.817  20.004  66.678  1.00  0.00    -0.329 OA 
ENDROOT
BRANCH   2   3
HETATM    3  C   UNL     1      -9.048  18.674  66.433  1.00  0.00    -0.284 A  
HETATM    4  C   UNL     1      -8.100  17.661  66.534  1.00  0.00    -0.306 A  
HETATM    5  C   UNL     1      -8.447  16.343  66.237  1.00  0.00    -0.372 A  
HETATM    6  C   UNL     1      -9.753  16.005  65.851  1.00  0.00    -0.378 A  
HETATM    7  C   UNL     1     -10.355  18.349  66.061  1.00  0.00    -0.397 A  
HETATM    8  C   UNL     1     -10.707  17.027  65.771  1.00  0.00    -0.146 A  
BRANCH   6   9
HETATM    9  C   UNL     1     -10.096  14.561  65.521  1.00  0.00    -0.394 C  
HETATM   10  C   UNL     1     -10.508  13.627  66.712  1.00  0.00    -0.270 C  
HETATM   11  C   UNL     1     -11.866  14.089  67.274  1.00  0.00    -0.445 C  
HETATM   12  C   UNL     1      -9.431  13.629  67.815  1.00  0.00    -0.221 C  
HETATM   13  N   UNL     1     -10.652  12.256  66.158  1.00  0.00    -0.243 NA 
HETATM   14  H   UNL     1      -9.791  11.977  65.688  1.00  0.00     0.000 HD 
BRANCH  13  15
HETATM   15  C   UNL     1     -11.059  11.213  67.126  1.00  0.00    -0.287 C  
BRANCH  15  16
HETATM   16  C   UNL     1      -9.881  10.345  67.631  1.00  0.00    -0.170 C  
HETATM   17  H   UNL     1      -8.100   9.808  66.971  1.00  0.00     0.000 HD 
HETATM   18  O   UNL     1      -8.823  10.340  66.661  1.00  0.00    -0.135 OA 
BRANCH  16  19
HETATM   19  C   UNL     1     -10.310   8.940  67.995  1.00  0.00    -0.271 A  
HETATM   20  C   UNL     1     -10.602   8.595  69.325  1.00  0.00    -0.192 A  
HETATM   21  O   UNL     1     -10.429   9.564  70.282  1.00  0.00    -0.227 OA 
HETATM   22  C   UNL     1     -11.096   9.286  71.508  1.00  0.00    -0.373 C  
HETATM   23  C   UNL     1     -11.083   7.842  71.990  1.00  0.00    -0.269 C  
HETATM   24  O   UNL     1     -11.098   7.516  73.174  1.00  0.00    -0.383 OA 
HETATM   25  N   UNL     1     -11.162   6.917  70.984  1.00  0.00    -0.267 N  
HETATM   26  H   UNL     1     -11.349   5.941  71.214  1.00  0.00     0.000 HD 
HETATM   27  C   UNL     1     -10.991   7.285  69.645  1.00  0.00    -0.186 A  
HETATM   28  C   UNL     1     -11.153   6.326  68.646  1.00  0.00    -0.409 A  
HETATM   29  C   UNL     1     -10.908   6.682  67.327  1.00  0.00    -0.385 A  
HETATM   30  O   UNL     1     -11.059   5.797  66.302  1.00  0.00    -0.733 OA 
HETATM   31  C   UNL     1     -10.485   7.967  66.998  1.00  0.00    -0.410 A  
HETATM   32  H   UNL     1     -10.891   6.040  65.400  1.00  0.00     0.000 HD 
ENDBRANCH  16  19
ENDBRANCH  15  16
ENDBRANCH  13  15
ENDBRANCH   6   9
ENDBRANCH   2   3
TORSDOF 5
ENDMDL
MODEL       24
REMARK 921   NORMALIZED FREE ENERGY PREDICTED BY IDOCK:   -6.91 KCAL/MOL
REMARK 922        TOTAL FREE ENERGY PREDICTED BY IDOCK:   -9.17 KCAL/MOL
REMARK 923 INTER-LIGAND FREE ENERGY PREDICTED BY IDOCK:   -8.66 KCAL/MOL
REMARK 924 INTRA-LIGAND FREE ENERGY PREDICTED BY IDOCK:   -0.52 KCAL/MOL
REMARK 927      BINDING AFFINITY PREDICTED BY RF-SCORE:    0.00 PKD
ROOT
HETATM    1  C   UNL     1      -6.379  21.080  66.608  1.00  0.00    -0.296 C  
HETATM    2  O   UNL     1      -7.604  21.228  67.321  1.00  0.00    -0.408 OA 
ENDROOT
BRANCH   2   3
HETATM    3  C   UNL     1      -8.425  20.129  67.344  1.00  0.00    -0.339 A  
HETATM    4  C   UNL     1      -9.737  20.097  66.884  1.00  0.00    -0.582 A  
HETATM    5  C   UNL     1     -10.486  18.923  66.981  1.00  0.00    -0.497 A  
HETATM    6  C   UNL     1      -9.934  17.752  67.523  1.00  0.00    -0.324 A  
HETATM    7  C   UNL     1      -7.860  18.967  67.875  1.00  0.00    -0.301 A  
HETATM    8  C   UNL     1      -8.606  17.788  67.966  1.00  0.00    -0.250 A  
BRANCH   6   9
HETATM    9  C   UNL     1     -10.780  16.493  67.627  1.00  0.00    -0.311 C  
HETATM   10  C   UNL     1     -10.690  15.464  66.446  1.00  0.00    -0.311 C  
HETATM   11  C   UNL     1      -9.287  14.827  66.433  1.00  0.00    -0.320 C  
HETATM   12  C   UNL     1     -10.994  16.142  65.095  1.00  0.00    -0.327 C  
HETATM   13  N   UNL     1     -11.701  14.408  66.713  1.00  0.00    -0.386 NA 
HETATM   14  H   UNL     1     -12.622  14.829  66.829  1.00  0.00     0.000 HD 
BRANCH  13  15
HETATM   15  C   UNL     1     -11.767  13.317  65.715  1.00  0.00    -0.359 C  
BRANCH  15  16
HETATM   16  C   UNL     1     -11.488  11.916  66.311  1.00  0.00    -0.301 C  
HETATM   17  H   UNL     1     -10.875  11.179  68.036  1.00  0.00     0.000 HD 
HETATM   18  O   UNL     1     -11.046  12.039  67.670  1.00  0.00    -0.234 OA 
BRANCH  16  19
HETATM   19  C   UNL     1     -10.511  11.116  65.477  1.00  0.00    -0.317 A  
HETATM   20  C   UNL     1     -10.157   9.805  65.839  1.00  0.00    -0.243 A  
HETATM   21  O   UNL     1     -10.689   9.304  67.001  1.00  0.00    -0.232 OA 
HETATM   22  C   UNL     1     -10.614   7.887  67.103  1.00  0.00    -0.313 C  
HETATM   23  C   UNL     1      -9.342   7.223  66.594  1.00  0.00    -0.171 C  
HETATM   24  O   UNL     1      -8.877   6.187  67.061  1.00  0.00    -0.110 OA 
HETATM   25  N   UNL     1      -8.803   7.824  65.488  1.00  0.00    -0.356 N  
HETATM   26  H   UNL     1      -8.066   7.347  64.968  1.00  0.00     0.000 HD 
HETATM   27  C   UNL     1      -9.242   9.080  65.058  1.00  0.00    -0.049 A  
HETATM   28  C   UNL     1      -8.721   9.623  63.885  1.00  0.00    -0.241 A  
HETATM   29  C   UNL     1      -9.107  10.902  63.506  1.00  0.00    -0.202 A  
HETATM   30  O   UNL     1      -8.643  11.485  62.366  1.00  0.00    -0.573 OA 
HETATM   31  C   UNL     1      -9.984  11.647  64.290  1.00  0.00    -0.303 A  
HETATM   32  H   UNL     1      -8.907  12.360  62.106  1.00  0.00     0.000 HD 
ENDBRANCH  16  19
ENDBRANCH  15  16
ENDBRANCH  13  15
ENDBRANCH   6   9
ENDBRANCH   2   3
TORSDOF 5
ENDMDL
MODEL       25
REMARK 921   NORMALIZED FREE ENERGY PREDICTED BY IDOCK:   -6.86 KCAL/MOL
REMARK 922        TOTAL FREE ENERGY PREDICTED BY IDOCK:   -9.10 KCAL/MOL
REMARK 923 INTER-LIGAND FREE ENERGY PREDICTED BY IDOCK:   -9.67 KCAL/MOL
REMARK 924 INTRA-LIGAND FREE ENERGY PREDICTED BY IDOCK:    0.57 KCAL/MOL
REMARK 927      BINDING AFFINITY PREDICTED BY RF-SCORE:    0.00 PKD
ROOT
HETATM    1  C   UNL     1      -7.182   9.268  62.506  1.00  0.00    -0.099 C  
HETATM    2  O   UNL     1      -8.595   9.352  62.346  1.00  0.00    -0.178 OA 
ENDROOT
BRANCH   2   3
HETATM    3  C   UNL     1      -9.273  10.039  63.320  1.00  0.00    -0.284 A  
HETATM    4  C   UNL     1      -9.275   9.721  64.674  1.00  0.00    -0.312 A  
HETATM    5  C   UNL     1     -10.023  10.482  65.573  1.00  0.00    -0.342 A  
HETATM    6  C   UNL     1     -10.772  11.587  65.141  1.00  0.00    -0.348 A  
HETATM    7  C   UNL     1     -10.005  11.144  62.879  1.00  0.00    -0.282 A  
HETATM    8  C   UNL     1     -10.749  11.913  63.780  1.00  0.00    -0.476 A  
BRANCH   6   9
HETATM    9  C   UNL     1     -11.588  12.388  66.143  1.00  0.00    -0.452 C  
HETATM   10  C   UNL     1     -11.046  13.804  66.547  1.00  0.00    -0.306 C  
HETATM   11  C   UNL     1     -11.137  14.749  65.333  1.00  0.00    -0.359 C  
HETATM   12  C   UNL     1      -9.596  13.716  67.063  1.00  0.00    -0.251 C  
HETATM   13  N   UNL     1     -11.930  14.315  67.627  1.00  0.00    -0.509 NA 
HETATM   14  H   UNL     1     -11.962  13.646  68.397  1.00  0.00     0.000 HD 
BRANCH  13  15
HETATM   15  C   UNL     1     -11.598  15.662  68.143  1.00  0.00    -0.283 C  
BRANCH  15  16
HETATM   16  C   UNL     1     -10.985  15.646  69.564  1.00  0.00    -0.281 C  
HETATM   17  H   UNL     1      -9.356  14.935  70.423  1.00  0.00     0.000 HD 
HETATM   18  O   UNL     1      -9.733  14.945  69.551  1.00  0.00    -0.145 OA 
BRANCH  16  19
HETATM   19  C   UNL     1     -11.932  15.077  70.598  1.00  0.00    -0.370 A  
HETATM   20  C   UNL     1     -12.137  13.691  70.704  1.00  0.00    -0.323 A  
HETATM   21  O   UNL     1     -11.490  12.884  69.801  1.00  0.00    -0.228 OA 
HETATM   22  C   UNL     1     -11.424  11.519  70.195  1.00  0.00    -0.170 C  
HETATM   23  C   UNL     1     -12.657  10.933  70.869  1.00  0.00    -0.397 C  
HETATM   24  O   UNL     1     -12.992   9.756  70.779  1.00  0.00    -0.262 OA 
HETATM   25  N   UNL     1     -13.318  11.813  71.685  1.00  0.00    -0.258 N  
HETATM   26  H   UNL     1     -14.037  11.464  72.319  1.00  0.00     0.000 HD 
HETATM   27  C   UNL     1     -13.026  13.181  71.664  1.00  0.00    -0.335 A  
HETATM   28  C   UNL     1     -13.668  14.031  72.563  1.00  0.00    -0.651 A  
HETATM   29  C   UNL     1     -13.429  15.396  72.485  1.00  0.00    -0.504 A  
HETATM   30  O   UNL     1     -14.015  16.280  73.340  1.00  0.00    -0.808 OA 
HETATM   31  C   UNL     1     -12.579  15.920  71.514  1.00  0.00    -0.456 A  
HETATM   32  H   UNL     1     -13.852  17.214  73.287  1.00  0.00     0.000 HD 
ENDBRANCH  16  19
ENDBRANCH  15  16
ENDBRANCH  13  15
ENDBRANCH   6   9
ENDBRANCH   2   3
TORSDOF 5
ENDMDL
MODEL       26
REMARK 921   NORMALIZED FREE ENERGY PREDICTED BY IDOCK:   -6.84 KCAL/MOL
REMARK 922        TOTAL FREE ENERGY PREDICTED BY IDOCK:   -9.08 KCAL/MOL
REMARK 923 INTER-LIGAND FREE ENERGY PREDICTED BY IDOCK:   -8.44 KCAL/MOL
REMARK 924 INTRA-LIGAND FREE ENERGY PREDICTED BY IDOCK:   -0.64 KCAL/MOL
REMARK 927      BINDING AFFINITY PREDICTED BY RF-SCORE:    0.00 PKD
ROOT
HETATM    1  C   UNL     1     -10.839  17.963  65.286  1.00  0.00     0.339 C  
HETATM    2  O   UNL     1     -11.219  16.885  64.435  1.00  0.00    -1.159 OA 
ENDROOT
BRANCH   2   3
HETATM    3  C   UNL     1     -11.380  15.665  65.042  1.00  0.00    -0.253 A  
HETATM    4  C   UNL     1     -12.145  14.615  64.544  1.00  0.00    -0.490 A  
HETATM    5  C   UNL     1     -12.253  13.424  65.263  1.00  0.00    -0.478 A  
HETATM    6  C   UNL     1     -11.587  13.250  66.484  1.00  0.00    -0.392 A  
HETATM    7  C   UNL     1     -10.702  15.500  66.251  1.00  0.00    -0.307 A  
HETATM    8  C   UNL     1     -10.803  14.304  66.969  1.00  0.00    -0.297 A  
BRANCH   6   9
HETATM    9  C   UNL     1     -11.736  11.945  67.250  1.00  0.00    -0.319 C  
HETATM   10  C   UNL     1     -10.567  10.905  67.139  1.00  0.00    -0.255 C  
HETATM   11  C   UNL     1      -9.316  11.468  67.840  1.00  0.00    -0.171 C  
HETATM   12  C   UNL     1     -10.262  10.569  65.665  1.00  0.00    -0.315 C  
HETATM   13  N   UNL     1     -11.009   9.676  67.848  1.00  0.00    -0.484 NA 
HETATM   14  H   UNL     1     -11.895   9.351  67.461  1.00  0.00     0.000 HD 
BRANCH  13  15
HETATM   15  C   UNL     1     -10.032   8.565  67.876  1.00  0.00    -0.181 C  
BRANCH  15  16
HETATM   16  C   UNL     1      -9.304   8.416  69.234  1.00  0.00    -0.154 C  
HETATM   17  H   UNL     1      -7.523   7.836  69.857  1.00  0.00     0.000 HD 
HETATM   18  O   UNL     1      -7.971   7.927  69.024  1.00  0.00    -0.117 OA 
BRANCH  16  19
HETATM   19  C   UNL     1     -10.069   7.548  70.210  1.00  0.00    -0.194 A  
HETATM   20  C   UNL     1     -11.211   8.035  70.867  1.00  0.00    -0.266 A  
HETATM   21  O   UNL     1     -11.570   9.339  70.630  1.00  0.00    -0.267 OA 
HETATM   22  C   UNL     1     -12.910   9.641  70.998  1.00  0.00    -0.262 C  
HETATM   23  C   UNL     1     -13.433   9.014  72.283  1.00  0.00    -0.475 C  
HETATM   24  O   UNL     1     -14.272   9.539  73.010  1.00  0.00    -0.219 OA 
HETATM   25  N   UNL     1     -12.966   7.748  72.516  1.00  0.00    -0.509 N  
HETATM   26  H   UNL     1     -13.401   7.179  73.243  1.00  0.00     0.000 HD 
HETATM   27  C   UNL     1     -11.903   7.219  71.776  1.00  0.00    -0.295 A  
HETATM   28  C   UNL     1     -11.508   5.900  71.993  1.00  0.00    -0.311 A  
HETATM   29  C   UNL     1     -10.405   5.407  71.308  1.00  0.00    -0.228 A  
HETATM   30  O   UNL     1      -9.973   4.125  71.466  1.00  0.00    -0.182 OA 
HETATM   31  C   UNL     1      -9.686   6.217  70.432  1.00  0.00    -0.199 A  
HETATM   32  H   UNL     1      -9.219   3.788  70.998  1.00  0.00     0.000 HD 
ENDBRANCH  16  19
ENDBRANCH  15  16
ENDBRANCH  13  15
ENDBRANCH   6   9
ENDBRANCH   2   3
TORSDOF 5
ENDMDL
MODEL       27
REMARK 921   NORMALIZED FREE ENERGY PREDICTED BY IDOCK:   -6.82 KCAL/MOL
REMARK 922        TOTAL FREE ENERGY PREDICTED BY IDOCK:   -9.05 KCAL/MOL
REMARK 923 INTER-LIGAND FREE ENERGY PREDICTED BY IDOCK:   -7.87 KCAL/MOL
REMARK 924 INTRA-LIGAND FREE ENERGY PREDICTED BY IDOCK:   -1.18 KCAL/MOL
REMARK 927      BINDING AFFINITY PREDICTED BY RF-SCORE:    0.00 PKD
ROOT
HETATM    1  C   UNL     1      -7.190   6.963  71.581  1.00  0.00    -0.079 C  
HETATM    2  O   UNL     1      -7.233   6.723  70.177  1.00  0.00    -0.072 OA 
ENDROOT
BRANCH   2   3
HETATM    3  C   UNL     1      -8.176   7.427  69.474  1.00  0.00    -0.131 A  
HETATM    4  C   UNL     1      -8.642   7.100  68.204  1.00  0.00    -0.129 A  
HETATM    5  C   UNL     1      -9.590   7.908  67.575  1.00  0.00    -0.190 A  
HETATM    6  C   UNL     1     -10.106   9.049  68.207  1.00  0.00    -0.223 A  
HETATM    7  C   UNL     1      -8.691   8.555  70.118  1.00  0.00    -0.137 A  
HETATM    8  C   UNL     1      -9.647   9.361  69.492  1.00  0.00    -0.188 A  
BRANCH   6   9
HETATM    9  C   UNL     1     -11.129   9.916  67.489  1.00  0.00    -0.141 C  
HETATM   10  C   UNL     1     -10.592  10.921  66.411  1.00  0.00    -0.229 C  
HETATM   11  C   UNL     1     -10.042  10.131  65.208  1.00  0.00    -0.344 C  
HETATM   12  C   UNL     1      -9.506  11.842  67.002  1.00  0.00    -0.191 C  
HETATM   13  N   UNL     1     -11.751  11.739  65.965  1.00  0.00    -0.418 NA 
HETATM   14  H   UNL     1     -12.191  12.186  66.770  1.00  0.00     0.000 HD 
BRANCH  13  15
HETATM   15  C   UNL     1     -11.460  12.748  64.923  1.00  0.00    -0.320 C  
BRANCH  15  16
HETATM   16  C   UNL     1     -12.201  14.090  65.137  1.00  0.00    -0.436 C  
HETATM   17  H   UNL     1     -12.954  15.516  64.000  1.00  0.00     0.000 HD 
HETATM   18  O   UNL     1     -12.499  14.693  63.869  1.00  0.00    -0.813 OA 
BRANCH  16  19
HETATM   19  C   UNL     1     -11.440  15.036  66.040  1.00  0.00    -0.221 A  
HETATM   20  C   UNL     1     -11.493  14.900  67.438  1.00  0.00    -0.343 A  
HETATM   21  O   UNL     1     -12.302  13.915  67.947  1.00  0.00    -0.245 OA 
HETATM   22  C   UNL     1     -12.016  13.580  69.300  1.00  0.00    -0.330 C  
HETATM   23  C   UNL     1     -11.666  14.728  70.238  1.00  0.00    -0.298 C  
HETATM   24  O   UNL     1     -11.921  14.731  71.439  1.00  0.00    -0.320 OA 
HETATM   25  N   UNL     1     -10.939  15.727  69.649  1.00  0.00    -0.278 N  
HETATM   26  H   UNL     1     -10.501  16.439  70.234  1.00  0.00     0.000 HD 
HETATM   27  C   UNL     1     -10.787  15.792  68.260  1.00  0.00    -0.305 A  
HETATM   28  C   UNL     1      -9.977  16.783  67.707  1.00  0.00    -0.268 A  
HETATM   29  C   UNL     1      -9.891  16.886  66.324  1.00  0.00    -0.302 A  
HETATM   30  O   UNL     1      -9.109  17.823  65.720  1.00  0.00    -0.503 OA 
HETATM   31  C   UNL     1     -10.615  16.033  65.496  1.00  0.00    -0.415 A  
HETATM   32  H   UNL     1      -9.050  17.895  64.775  1.00  0.00     0.000 HD 
ENDBRANCH  16  19
ENDBRANCH  15  16
ENDBRANCH  13  15
ENDBRANCH   6   9
ENDBRANCH   2   3
TORSDOF 5
ENDMDL
MODEL       28
REMARK 921   NORMALIZED FREE ENERGY PREDICTED BY IDOCK:   -6.76 KCAL/MOL
REMARK 922        TOTAL FREE ENERGY PREDICTED BY IDOCK:   -8.99 KCAL/MOL
REMARK 923 INTER-LIGAND FREE ENERGY PREDICTED BY IDOCK:   -8.67 KCAL/MOL
REMARK 924 INTRA-LIGAND FREE ENERGY PREDICTED BY IDOCK:   -0.32 KCAL/MOL
REMARK 927      BINDING AFFINITY PREDICTED BY RF-SCORE:    0.00 PKD
ROOT
HETATM    1  C   UNL     1      -5.665  21.269  66.030  1.00  0.00    -0.240 C  
HETATM    2  O   UNL     1      -5.707  20.462  67.203  1.00  0.00    -0.164 OA 
ENDROOT
BRANCH   2   3
HETATM    3  C   UNL     1      -6.311  19.238  67.071  1.00  0.00    -0.186 A  
HETATM    4  C   UNL     1      -7.330  18.937  66.173  1.00  0.00    -0.292 A  
HETATM    5  C   UNL     1      -7.886  17.657  66.145  1.00  0.00    -0.269 A  
HETATM    6  C   UNL     1      -7.424  16.646  67.001  1.00  0.00    -0.239 A  
HETATM    7  C   UNL     1      -5.835  18.237  67.921  1.00  0.00    -0.164 A  
HETATM    8  C   UNL     1      -6.385  16.951  67.889  1.00  0.00    -0.149 A  
BRANCH   6   9
HETATM    9  C   UNL     1      -8.059  15.266  66.956  1.00  0.00    -0.253 C  
HETATM   10  C   UNL     1      -9.203  14.964  67.986  1.00  0.00    -0.185 C  
HETATM   11  C   UNL     1     -10.436  15.822  67.643  1.00  0.00    -0.282 C  
HETATM   12  C   UNL     1      -8.735  15.234  69.430  1.00  0.00    -0.216 C  
HETATM   13  N   UNL     1      -9.554  13.527  67.837  1.00  0.00    -0.211 NA 
HETATM   14  H   UNL     1      -8.721  12.951  67.958  1.00  0.00     0.000 HD 
BRANCH  13  15
HETATM   15  C   UNL     1     -10.639  13.038  68.716  1.00  0.00    -0.193 C  
BRANCH  15  16
HETATM   16  C   UNL     1     -11.852  12.467  67.944  1.00  0.00    -0.308 C  
HETATM   17  H   UNL     1     -12.971  10.843  68.015  1.00  0.00     0.000 HD 
HETATM   18  O   UNL     1     -12.226  11.193  68.489  1.00  0.00    -0.600 OA 
BRANCH  16  19
HETATM   19  C   UNL     1     -11.603  12.384  66.453  1.00  0.00    -0.442 A  
HETATM   20  C   UNL     1     -10.808  11.360  65.910  1.00  0.00    -0.234 A  
HETATM   21  O   UNL     1     -10.226  10.478  66.786  1.00  0.00    -0.217 OA 
HETATM   22  C   UNL     1      -9.777   9.274  66.176  1.00  0.00    -0.279 C  
HETATM   23  C   UNL     1      -9.133   9.394  64.801  1.00  0.00    -0.193 C  
HETATM   24  O   UNL     1      -8.253   8.643  64.390  1.00  0.00    -0.157 OA 
HETATM   25  N   UNL     1      -9.693  10.357  64.004  1.00  0.00    -0.311 N  
HETATM   26  H   UNL     1      -9.458  10.384  63.012  1.00  0.00     0.000 HD 
HETATM   27  C   UNL     1     -10.581  11.304  64.525  1.00  0.00    -0.336 A  
HETATM   28  C   UNL     1     -11.186  12.219  63.666  1.00  0.00    -0.539 A  
HETATM   29  C   UNL     1     -12.008  13.202  64.202  1.00  0.00    -0.436 A  
HETATM   30  O   UNL     1     -12.639  14.119  63.417  1.00  0.00    -1.070 OA 
HETATM   31  C   UNL     1     -12.212  13.294  65.576  1.00  0.00    -0.506 A  
HETATM   32  H   UNL     1     -13.200  14.792  63.783  1.00  0.00     0.000 HD 
ENDBRANCH  16  19
ENDBRANCH  15  16
ENDBRANCH  13  15
ENDBRANCH   6   9
ENDBRANCH   2   3
TORSDOF 5
ENDMDL
MODEL       29
REMARK 921   NORMALIZED FREE ENERGY PREDICTED BY IDOCK:   -6.76 KCAL/MOL
REMARK 922        TOTAL FREE ENERGY PREDICTED BY IDOCK:   -8.98 KCAL/MOL
REMARK 923 INTER-LIGAND FREE ENERGY PREDICTED BY IDOCK:   -8.78 KCAL/MOL
REMARK 924 INTRA-LIGAND FREE ENERGY PREDICTED BY IDOCK:   -0.20 KCAL/MOL
REMARK 927      BINDING AFFINITY PREDICTED BY RF-SCORE:    0.00 PKD
ROOT
HETATM    1  C   UNL     1     -10.453   4.134  73.879  1.00  0.00    -0.209 C  
HETATM    2  O   UNL     1     -10.782   5.469  74.253  1.00  0.00    -0.235 OA 
ENDROOT
BRANCH   2   3
HETATM    3  C   UNL     1     -10.797   6.394  73.241  1.00  0.00    -0.244 A  
HETATM    4  C   UNL     1     -10.217   7.657  73.298  1.00  0.00    -0.398 A  
HETATM    5  C   UNL     1     -10.315   8.524  72.209  1.00  0.00    -0.402 A  
HETATM    6  C   UNL     1     -10.979   8.142  71.034  1.00  0.00    -0.273 A  
HETATM    7  C   UNL     1     -11.450   5.997  72.072  1.00  0.00    -0.343 A  
HETATM    8  C   UNL     1     -11.543   6.862  70.976  1.00  0.00    -0.374 A  
BRANCH   6   9
HETATM    9  C   UNL     1     -11.081   9.115  69.869  1.00  0.00    -0.175 C  
HETATM   10  C   UNL     1     -10.171   8.843  68.621  1.00  0.00    -0.200 C  
HETATM   11  C   UNL     1     -10.643   7.556  67.918  1.00  0.00    -0.250 C  
HETATM   12  C   UNL     1      -8.689   8.730  69.029  1.00  0.00    -0.133 C  
HETATM   13  N   UNL     1     -10.347   9.994  67.697  1.00  0.00    -0.207 NA 
HETATM   14  H   UNL     1     -10.138  10.866  68.183  1.00  0.00     0.000 HD 
BRANCH  13  15
HETATM   15  C   UNL     1      -9.580   9.925  66.434  1.00  0.00    -0.200 C  
BRANCH  15  16
HETATM   16  C   UNL     1      -9.104  11.306  65.922  1.00  0.00    -0.204 C  
HETATM   17  H   UNL     1      -7.802  12.679  66.483  1.00  0.00     0.000 HD 
HETATM   18  O   UNL     1      -8.094  11.832  66.796  1.00  0.00    -0.166 OA 
BRANCH  16  19
HETATM   19  C   UNL     1     -10.246  12.281  65.738  1.00  0.00    -0.281 A  
HETATM   20  C   UNL     1     -10.751  13.015  66.825  1.00  0.00    -0.262 A  
HETATM   21  O   UNL     1     -10.206  12.771  68.061  1.00  0.00    -0.215 OA 
HETATM   22  C   UNL     1     -10.470  13.791  69.017  1.00  0.00    -0.098 C  
HETATM   23  C   UNL     1     -11.860  14.414  68.996  1.00  0.00    -0.323 C  
HETATM   24  O   UNL     1     -12.427  14.854  69.992  1.00  0.00    -0.320 OA 
HETATM   25  N   UNL     1     -12.394  14.545  67.742  1.00  0.00    -0.595 N  
HETATM   26  H   UNL     1     -13.228  15.117  67.611  1.00  0.00     0.000 HD 
HETATM   27  C   UNL     1     -11.817  13.909  66.638  1.00  0.00    -0.420 A  
HETATM   28  C   UNL     1     -12.347  14.129  65.368  1.00  0.00    -0.475 A  
HETATM   29  C   UNL     1     -11.816  13.436  64.288  1.00  0.00    -0.423 A  
HETATM   30  O   UNL     1     -12.281  13.613  63.020  1.00  0.00    -0.995 OA 
HETATM   31  C   UNL     1     -10.785  12.517  64.464  1.00  0.00    -0.360 A  
HETATM   32  H   UNL     1     -11.918  13.139  62.281  1.00  0.00     0.000 HD 
ENDBRANCH  16  19
ENDBRANCH  15  16
ENDBRANCH  13  15
ENDBRANCH   6   9
ENDBRANCH   2   3
TORSDOF 5
ENDMDL
MODEL       30
REMARK 921   NORMALIZED FREE ENERGY PREDICTED BY IDOCK:   -6.71 KCAL/MOL
REMARK 922        TOTAL FREE ENERGY PREDICTED BY IDOCK:   -8.92 KCAL/MOL
REMARK 923 INTER-LIGAND FREE ENERGY PREDICTED BY IDOCK:   -8.23 KCAL/MOL
REMARK 924 INTRA-LIGAND FREE ENERGY PREDICTED BY IDOCK:   -0.69 KCAL/MOL
REMARK 927      BINDING AFFINITY PREDICTED BY RF-SCORE:    0.00 PKD
ROOT
HETATM    1  C   UNL     1     -12.438  15.964  74.480  1.00  0.00    -0.581 C  
HETATM    2  O   UNL     1     -12.703  16.195  73.099  1.00  0.00    -0.466 OA 
ENDROOT
BRANCH   2   3
HETATM    3  C   UNL     1     -12.696  15.087  72.290  1.00  0.00    -0.338 A  
HETATM    4  C   UNL     1     -13.169  13.829  72.647  1.00  0.00    -0.571 A  
HETATM    5  C   UNL     1     -13.088  12.767  71.744  1.00  0.00    -0.455 A  
HETATM    6  C   UNL     1     -12.552  12.945  70.460  1.00  0.00    -0.204 A  
HETATM    7  C   UNL     1     -12.171  15.280  71.011  1.00  0.00    -0.407 A  
HETATM    8  C   UNL     1     -12.097  14.219  70.102  1.00  0.00    -0.403 A  
BRANCH   6   9
HETATM    9  C   UNL     1     -12.466  11.766  69.504  1.00  0.00     0.022 C  
HETATM   10  C   UNL     1     -11.035  11.281  69.082  1.00  0.00    -0.240 C  
HETATM   11  C   UNL     1     -10.324  10.669  70.304  1.00  0.00     0.263 C  
HETATM   12  C   UNL     1     -10.208  12.442  68.495  1.00  0.00    -0.213 C  
HETATM   13  N   UNL     1     -11.220  10.228  68.050  1.00  0.00    -0.463 NA 
HETATM   14  H   UNL     1     -11.782  10.591  67.279  1.00  0.00     0.000 HD 
BRANCH  13  15
HETATM   15  C   UNL     1      -9.977   9.620  67.526  1.00  0.00    -0.183 C  
BRANCH  15  16
HETATM   16  C   UNL     1     -10.176   8.859  66.193  1.00  0.00    -0.022 C  
HETATM   17  H   UNL     1      -9.619   7.127  65.426  1.00  0.00     0.000 HD 
HETATM   18  O   UNL     1      -9.498   7.595  66.244  1.00  0.00    -0.176 OA 
BRANCH  16  19
HETATM   19  C   UNL     1      -9.747   9.673  64.991  1.00  0.00    -0.234 A  
HETATM   20  C   UNL     1     -10.481  10.800  64.584  1.00  0.00    -0.276 A  
HETATM   21  O   UNL     1     -11.624  11.098  65.283  1.00  0.00     0.165 OA 
HETATM   22  C   UNL     1     -12.088  12.428  65.086  1.00  0.00    -0.405 C  
HETATM   23  C   UNL     1     -11.985  12.994  63.675  1.00  0.00    -0.539 C  
HETATM   24  O   UNL     1     -12.769  13.817  63.210  1.00  0.00    -0.783 OA 
HETATM   25  N   UNL     1     -10.872  12.586  62.990  1.00  0.00    -0.559 N  
HETATM   26  H   UNL     1     -10.621  13.054  62.119  1.00  0.00     0.000 HD 
HETATM   27  C   UNL     1     -10.073  11.539  63.462  1.00  0.00    -0.409 A  
HETATM   28  C   UNL     1      -8.908  11.205  62.774  1.00  0.00    -0.274 A  
HETATM   29  C   UNL     1      -8.161  10.117  63.205  1.00  0.00    -0.160 A  
HETATM   30  O   UNL     1      -7.007   9.744  62.585  1.00  0.00    -0.104 OA 
HETATM   31  C   UNL     1      -8.573   9.352  64.294  1.00  0.00    -0.216 A  
HETATM   32  H   UNL     1      -6.496   9.000  62.880  1.00  0.00     0.000 HD 
ENDBRANCH  16  19
ENDBRANCH  15  16
ENDBRANCH  13  15
ENDBRANCH   6   9
ENDBRANCH   2   3
TORSDOF 5
ENDMDL
MODEL       31
REMARK 921   NORMALIZED FREE ENERGY PREDICTED BY IDOCK:   -6.70 KCAL/MOL
REMARK 922        TOTAL FREE ENERGY PREDICTED BY IDOCK:   -8.90 KCAL/MOL
REMARK 923 INTER-LIGAND FREE ENERGY PREDICTED BY IDOCK:   -8.38 KCAL/MOL
REMARK 924 INTRA-LIGAND FREE ENERGY PREDICTED BY IDOCK:   -0.52 KCAL/MOL
REMARK 927      BINDING AFFINITY PREDICTED BY RF-SCORE:    0.00 PKD
ROOT
HETATM    1  C   UNL     1     -10.789   3.936  73.904  1.00  0.00    -0.230 C  
HETATM    2  O   UNL     1     -10.542   4.167  72.520  1.00  0.00    -0.166 OA 
ENDROOT
BRANCH   2   3
HETATM    3  C   UNL     1     -10.370   5.475  72.147  1.00  0.00    -0.213 A  
HETATM    4  C   UNL     1     -11.055   6.560  72.683  1.00  0.00    -0.291 A  
HETATM    5  C   UNL     1     -10.811   7.850  72.208  1.00  0.00    -0.353 A  
HETATM    6  C   UNL     1      -9.865   8.084  71.199  1.00  0.00    -0.198 A  
HETATM    7  C   UNL     1      -9.417   5.697  71.150  1.00  0.00    -0.191 A  
HETATM    8  C   UNL     1      -9.165   6.989  70.678  1.00  0.00    -0.158 A  
BRANCH   6   9
HETATM    9  C   UNL     1      -9.631   9.499  70.692  1.00  0.00    -0.292 C  
HETATM   10  C   UNL     1     -10.638  10.059  69.628  1.00  0.00    -0.252 C  
HETATM   11  C   UNL     1     -12.019  10.250  70.285  1.00  0.00    -0.348 C  
HETATM   12  C   UNL     1     -10.739   9.119  68.411  1.00  0.00    -0.163 C  
HETATM   13  N   UNL     1     -10.120  11.383  69.195  1.00  0.00    -0.413 NA 
HETATM   14  H   UNL     1      -9.163  11.287  68.854  1.00  0.00     0.000 HD 
BRANCH  13  15
HETATM   15  C   UNL     1     -10.943  12.097  68.194  1.00  0.00    -0.230 C  
BRANCH  15  16
HETATM   16  C   UNL     1     -11.055  13.618  68.458  1.00  0.00    -0.275 C  
HETATM   17  H   UNL     1     -12.274  14.825  69.434  1.00  0.00     0.000 HD 
HETATM   18  O   UNL     1     -12.205  13.892  69.272  1.00  0.00    -0.346 OA 
BRANCH  16  19
HETATM   19  C   UNL     1     -11.072  14.428  67.180  1.00  0.00    -0.318 A  
HETATM   20  C   UNL     1     -10.629  15.762  67.163  1.00  0.00    -0.313 A  
HETATM   21  O   UNL     1     -10.234  16.312  68.357  1.00  0.00    -0.233 OA 
HETATM   22  C   UNL     1      -9.448  17.489  68.215  1.00  0.00    -0.296 C  
HETATM   23  C   UNL     1      -9.854  18.463  67.118  1.00  0.00    -0.320 C  
HETATM   24  O   UNL     1      -9.689  19.678  67.186  1.00  0.00    -0.320 OA 
HETATM   25  N   UNL     1     -10.331  17.860  65.985  1.00  0.00    -0.368 N  
HETATM   26  H   UNL     1     -10.449  18.413  65.135  1.00  0.00     0.000 HD 
HETATM   27  C   UNL     1     -10.659  16.500  65.970  1.00  0.00    -0.253 A  
HETATM   28  C   UNL     1     -11.070  15.909  64.776  1.00  0.00    -0.397 A  
HETATM   29  C   UNL     1     -11.465  14.578  64.786  1.00  0.00    -0.408 A  
HETATM   30  O   UNL     1     -11.866  13.937  63.653  1.00  0.00    -0.684 OA 
HETATM   31  C   UNL     1     -11.476  13.843  65.969  1.00  0.00    -0.345 A  
HETATM   32  H   UNL     1     -12.137  13.027  63.660  1.00  0.00     0.000 HD 
ENDBRANCH  16  19
ENDBRANCH  15  16
ENDBRANCH  13  15
ENDBRANCH   6   9
ENDBRANCH   2   3
TORSDOF 5
ENDMDL
MODEL       32
REMARK 921   NORMALIZED FREE ENERGY PREDICTED BY IDOCK:   -6.70 KCAL/MOL
REMARK 922        TOTAL FREE ENERGY PREDICTED BY IDOCK:   -8.90 KCAL/MOL
REMARK 923 INTER-LIGAND FREE ENERGY PREDICTED BY IDOCK:   -8.51 KCAL/MOL
REMARK 924 INTRA-LIGAND FREE ENERGY PREDICTED BY IDOCK:   -0.39 KCAL/MOL
REMARK 927      BINDING AFFINITY PREDICTED BY RF-SCORE:    0.00 PKD
ROOT
HETATM    1  C   UNL     1     -10.008   3.099  72.466  1.00  0.00    -0.158 C  
HETATM    2  O   UNL     1      -9.972   4.128  73.452  1.00  0.00    -0.123 OA 
ENDROOT
BRANCH   2   3
HETATM    3  C   UNL     1      -9.968   5.416  72.980  1.00  0.00    -0.168 A  
HETATM    4  C   UNL     1     -10.611   6.493  73.580  1.00  0.00    -0.306 A  
HETATM    5  C   UNL     1     -10.556   7.759  72.994  1.00  0.00    -0.441 A  
HETATM    6  C   UNL     1      -9.844   7.978  71.806  1.00  0.00    -0.240 A  
HETATM    7  C   UNL     1      -9.246   5.624  71.803  1.00  0.00    -0.159 A  
HETATM    8  C   UNL     1      -9.183   6.893  71.218  1.00  0.00    -0.157 A  
BRANCH   6   9
HETATM    9  C   UNL     1      -9.814   9.366  71.185  1.00  0.00    -0.287 C  
HETATM   10  C   UNL     1     -10.996   9.754  70.230  1.00  0.00    -0.298 C  
HETATM   11  C   UNL     1     -12.296   9.871  71.049  1.00  0.00    -0.451 C  
HETATM   12  C   UNL     1     -11.156   8.720  69.097  1.00  0.00     0.139 C  
HETATM   13  N   UNL     1     -10.667  11.082  69.649  1.00  0.00    -0.428 NA 
HETATM   14  H   UNL     1      -9.756  11.046  69.192  1.00  0.00     0.000 HD 
BRANCH  13  15
HETATM   15  C   UNL     1     -11.675  11.644  68.722  1.00  0.00    -0.330 C  
BRANCH  15  16
HETATM   16  C   UNL     1     -11.242  12.981  68.075  1.00  0.00    -0.278 C  
HETATM   17  H   UNL     1     -11.768  14.879  68.200  1.00  0.00     0.000 HD 
HETATM   18  O   UNL     1     -12.034  14.058  68.597  1.00  0.00    -0.350 OA 
BRANCH  16  19
HETATM   19  C   UNL     1     -11.292  12.936  66.563  1.00  0.00    -0.361 A  
HETATM   20  C   UNL     1     -10.689  11.884  65.851  1.00  0.00    -0.284 A  
HETATM   21  O   UNL     1     -10.012  10.936  66.577  1.00  0.00    -0.198 OA 
HETATM   22  C   UNL     1      -9.775   9.728  65.864  1.00  0.00    -0.266 C  
HETATM   23  C   UNL     1      -9.400   9.856  64.393  1.00  0.00    -0.265 C  
HETATM   24  O   UNL     1      -8.671   9.065  63.802  1.00  0.00    -0.175 OA 
HETATM   25  N   UNL     1     -10.035  10.880  63.743  1.00  0.00    -0.322 N  
HETATM   26  H   UNL     1      -9.995  10.928  62.725  1.00  0.00     0.000 HD 
HETATM   27  C   UNL     1     -10.738  11.863  64.449  1.00  0.00    -0.323 A  
HETATM   28  C   UNL     1     -11.432  12.845  63.745  1.00  0.00    -0.519 A  
HETATM   29  C   UNL     1     -12.065  13.859  64.452  1.00  0.00    -0.443 A  
HETATM   30  O   UNL     1     -12.769  14.842  63.827  1.00  0.00    -0.889 OA 
HETATM   31  C   UNL     1     -11.993  13.914  65.842  1.00  0.00    -0.429 A  
HETATM   32  H   UNL     1     -13.202  15.536  64.310  1.00  0.00     0.000 HD 
ENDBRANCH  16  19
ENDBRANCH  15  16
ENDBRANCH  13  15
ENDBRANCH   6   9
ENDBRANCH   2   3
TORSDOF 5
ENDMDL
MODEL       33
REMARK 921   NORMALIZED FREE ENERGY PREDICTED BY IDOCK:   -6.65 KCAL/MOL
REMARK 922        TOTAL FREE ENERGY PREDICTED BY IDOCK:   -8.84 KCAL/MOL
REMARK 923 INTER-LIGAND FREE ENERGY PREDICTED BY IDOCK:   -7.74 KCAL/MOL
REMARK 924 INTRA-LIGAND FREE ENERGY PREDICTED BY IDOCK:   -1.10 KCAL/MOL
REMARK 927      BINDING AFFINITY PREDICTED BY RF-SCORE:    0.00 PKD
ROOT
HETATM    1  C   UNL     1      -8.561   9.271  63.031  1.00  0.00    -0.214 C  
HETATM    2  O   UNL     1      -9.768  10.008  62.856  1.00  0.00    -0.194 OA 
ENDROOT
BRANCH   2   3
HETATM    3  C   UNL     1     -10.004  11.006  63.767  1.00  0.00    -0.350 A  
HETATM    4  C   UNL     1      -9.460  11.072  65.045  1.00  0.00    -0.269 A  
HETATM    5  C   UNL     1      -9.791  12.128  65.895  1.00  0.00    -0.265 A  
HETATM    6  C   UNL     1     -10.658  13.150  65.480  1.00  0.00    -0.299 A  
HETATM    7  C   UNL     1     -10.859  12.023  63.337  1.00  0.00    -0.471 A  
HETATM    8  C   UNL     1     -11.186  13.087  64.185  1.00  0.00    -0.439 A  
BRANCH   6   9
HETATM    9  C   UNL     1     -11.010  14.280  66.434  1.00  0.00    -0.311 C  
HETATM   10  C   UNL     1     -10.512  15.720  66.062  1.00  0.00    -0.338 C  
HETATM   11  C   UNL     1     -11.258  16.208  64.806  1.00  0.00    -0.313 C  
HETATM   12  C   UNL     1      -8.987  15.737  65.833  1.00  0.00    -0.228 C  
HETATM   13  N   UNL     1     -10.854  16.607  67.205  1.00  0.00    -0.223 NA 
HETATM   14  H   UNL     1     -10.452  16.235  68.066  1.00  0.00     0.000 HD 
BRANCH  13  15
HETATM   15  C   UNL     1     -10.481  18.029  67.046  1.00  0.00    -0.351 C  
BRANCH  15  16
HETATM   16  C   UNL     1      -9.956  18.681  68.349  1.00  0.00    -0.387 C  
HETATM   17  H   UNL     1     -10.109  20.432  69.247  1.00  0.00     0.000 HD 
HETATM   18  O   UNL     1     -10.430  20.032  68.447  1.00  0.00    -0.411 OA 
BRANCH  16  19
HETATM   19  C   UNL     1      -8.449  18.609  68.466  1.00  0.00    -0.367 A  
HETATM   20  C   UNL     1      -7.813  17.435  68.905  1.00  0.00    -0.196 A  
HETATM   21  O   UNL     1      -8.614  16.382  69.272  1.00  0.00    -0.221 OA 
HETATM   22  C   UNL     1      -7.933  15.134  69.325  1.00  0.00    -0.213 C  
HETATM   23  C   UNL     1      -6.517  15.142  69.886  1.00  0.00    -0.171 C  
HETATM   24  O   UNL     1      -6.016  14.198  70.491  1.00  0.00    -0.157 OA 
HETATM   25  N   UNL     1      -5.797  16.262  69.567  1.00  0.00    -0.148 N  
HETATM   26  H   UNL     1      -4.791  16.275  69.735  1.00  0.00     0.000 HD 
HETATM   27  C   UNL     1      -6.415  17.390  69.016  1.00  0.00    -0.226 A  
HETATM   28  C   UNL     1      -5.634  18.480  68.637  1.00  0.00    -0.186 A  
HETATM   29  C   UNL     1      -6.262  19.623  68.161  1.00  0.00    -0.231 A  
HETATM   30  O   UNL     1      -5.558  20.719  67.763  1.00  0.00    -0.215 OA 
HETATM   31  C   UNL     1      -7.651  19.697  68.081  1.00  0.00    -0.342 A  
HETATM   32  H   UNL     1      -5.987  21.501  67.437  1.00  0.00     0.000 HD 
ENDBRANCH  16  19
ENDBRANCH  15  16
ENDBRANCH  13  15
ENDBRANCH   6   9
ENDBRANCH   2   3
TORSDOF 5
ENDMDL
MODEL       34
REMARK 921   NORMALIZED FREE ENERGY PREDICTED BY IDOCK:   -6.64 KCAL/MOL
REMARK 922        TOTAL FREE ENERGY PREDICTED BY IDOCK:   -8.82 KCAL/MOL
REMARK 923 INTER-LIGAND FREE ENERGY PREDICTED BY IDOCK:   -8.27 KCAL/MOL
REMARK 924 INTRA-LIGAND FREE ENERGY PREDICTED BY IDOCK:   -0.55 KCAL/MOL
REMARK 927      BINDING AFFINITY PREDICTED BY RF-SCORE:    0.00 PKD
ROOT
HETATM    1  C   UNL     1      -5.967  20.613  64.736  1.00  0.00    -0.270 C  
HETATM    2  O   UNL     1      -6.771  20.698  65.909  1.00  0.00    -0.229 OA 
ENDROOT
BRANCH   2   3
HETATM    3  C   UNL     1      -7.140  19.504  66.476  1.00  0.00    -0.219 A  
HETATM    4  C   UNL     1      -6.940  18.250  65.909  1.00  0.00    -0.312 A  
HETATM    5  C   UNL     1      -7.380  17.102  66.570  1.00  0.00    -0.311 A  
HETATM    6  C   UNL     1      -8.012  17.182  67.820  1.00  0.00    -0.190 A  
HETATM    7  C   UNL     1      -7.758  19.596  67.725  1.00  0.00    -0.319 A  
HETATM    8  C   UNL     1      -8.192  18.447  68.393  1.00  0.00    -0.331 A  
BRANCH   6   9
HETATM    9  C   UNL     1      -8.492  15.915  68.509  1.00  0.00    -0.184 C  
HETATM   10  C   UNL     1      -9.868  15.319  68.047  1.00  0.00    -0.216 C  
HETATM   11  C   UNL     1      -9.734  14.789  66.607  1.00  0.00    -0.281 C  
HETATM   12  C   UNL     1     -10.988  16.374  68.139  1.00  0.00    -0.339 C  
HETATM   13  N   UNL     1     -10.176  14.184  68.956  1.00  0.00    -0.390 NA 
HETATM   14  H   UNL     1     -10.163  14.500  69.926  1.00  0.00     0.000 HD 
BRANCH  13  15
HETATM   15  C   UNL     1     -11.438  13.464  68.676  1.00  0.00    -0.310 C  
BRANCH  15  16
HETATM   16  C   UNL     1     -11.231  11.982  68.280  1.00  0.00    -0.261 C  
HETATM   17  H   UNL     1     -11.876  10.766  66.865  1.00  0.00     0.000 HD 
HETATM   18  O   UNL     1     -12.003  11.675  67.109  1.00  0.00    -0.614 OA 
BRANCH  16  19
HETATM   19  C   UNL     1     -11.538  11.030  69.415  1.00  0.00    -0.383 A  
HETATM   20  C   UNL     1     -10.863   9.803  69.531  1.00  0.00    -0.240 A  
HETATM   21  O   UNL     1      -9.959   9.483  68.549  1.00  0.00    -0.158 OA 
HETATM   22  C   UNL     1      -9.050   8.453  68.918  1.00  0.00    -0.147 C  
HETATM   23  C   UNL     1      -9.611   7.294  69.731  1.00  0.00    -0.162 C  
HETATM   24  O   UNL     1      -9.183   6.145  69.671  1.00  0.00    -0.141 OA 
HETATM   25  N   UNL     1     -10.579   7.660  70.629  1.00  0.00    -0.218 N  
HETATM   26  H   UNL     1     -10.877   6.994  71.342  1.00  0.00     0.000 HD 
HETATM   27  C   UNL     1     -11.166   8.928  70.586  1.00  0.00    -0.266 A  
HETATM   28  C   UNL     1     -12.093   9.286  71.564  1.00  0.00    -0.435 A  
HETATM   29  C   UNL     1     -12.726  10.518  71.472  1.00  0.00    -0.452 A  
HETATM   30  O   UNL     1     -13.633  10.934  72.400  1.00  0.00    -0.545 OA 
HETATM   31  C   UNL     1     -12.463  11.380  70.410  1.00  0.00    -0.345 A  
HETATM   32  H   UNL     1     -14.066  11.776  72.337  1.00  0.00     0.000 HD 
ENDBRANCH  16  19
ENDBRANCH  15  16
ENDBRANCH  13  15
ENDBRANCH   6   9
ENDBRANCH   2   3
TORSDOF 5
ENDMDL
MODEL       35
REMARK 921   NORMALIZED FREE ENERGY PREDICTED BY IDOCK:   -6.63 KCAL/MOL
REMARK 922        TOTAL FREE ENERGY PREDICTED BY IDOCK:   -8.81 KCAL/MOL
REMARK 923 INTER-LIGAND FREE ENERGY PREDICTED BY IDOCK:   -7.60 KCAL/MOL
REMARK 924 INTRA-LIGAND FREE ENERGY PREDICTED BY IDOCK:   -1.21 KCAL/MOL
REMARK 927      BINDING AFFINITY PREDICTED BY RF-SCORE:    0.00 PKD
ROOT
HETATM    1  C   UNL     1     -12.499  15.682  73.562  1.00  0.00    -0.551 C  
HETATM    2  O   UNL     1     -12.672  15.546  72.154  1.00  0.00    -0.346 OA 
ENDROOT
BRANCH   2   3
HETATM    3  C   UNL     1     -12.642  14.266  71.663  1.00  0.00    -0.351 A  
HETATM    4  C   UNL     1     -11.974  13.862  70.512  1.00  0.00    -0.384 A  
HETATM    5  C   UNL     1     -12.034  12.531  70.096  1.00  0.00    -0.377 A  
HETATM    6  C   UNL     1     -12.747  11.572  70.830  1.00  0.00    -0.372 A  
HETATM    7  C   UNL     1     -13.346  13.318  72.409  1.00  0.00    -0.616 A  
HETATM    8  C   UNL     1     -13.401  11.982  71.998  1.00  0.00    -0.447 A  
BRANCH   6   9
HETATM    9  C   UNL     1     -12.804  10.133  70.344  1.00  0.00    -0.155 C  
HETATM   10  C   UNL     1     -11.911   9.082  71.092  1.00  0.00    -0.298 C  
HETATM   11  C   UNL     1     -12.446   8.887  72.523  1.00  0.00    -0.344 C  
HETATM   12  C   UNL     1     -10.435   9.527  71.116  1.00  0.00    -0.358 C  
HETATM   13  N   UNL     1     -12.034   7.801  70.349  1.00  0.00    -0.480 NA 
HETATM   14  H   UNL     1     -11.782   7.940  69.370  1.00  0.00     0.000 HD 
BRANCH  13  15
HETATM   15  C   UNL     1     -11.273   6.661  70.907  1.00  0.00    -0.302 C  
BRANCH  15  16
HETATM   16  C   UNL     1     -10.568   5.800  69.831  1.00  0.00    -0.318 C  
HETATM   17  H   UNL     1      -9.873   3.959  69.688  1.00  0.00     0.000 HD 
HETATM   18  O   UNL     1     -10.305   4.487  70.348  1.00  0.00    -0.161 OA 
BRANCH  16  19
HETATM   19  C   UNL     1      -9.311   6.452  69.300  1.00  0.00    -0.138 A  
HETATM   20  C   UNL     1      -9.364   7.353  68.223  1.00  0.00    -0.140 A  
HETATM   21  O   UNL     1     -10.588   7.574  67.642  1.00  0.00    -0.239 OA 
HETATM   22  C   UNL     1     -10.644   8.753  66.848  1.00  0.00    -0.193 C  
HETATM   23  C   UNL     1      -9.420   9.073  66.000  1.00  0.00    -0.256 C  
HETATM   24  O   UNL     1      -9.469   9.660  64.923  1.00  0.00    -0.267 OA 
HETATM   25  N   UNL     1      -8.230   8.743  66.591  1.00  0.00    -0.106 N  
HETATM   26  H   UNL     1      -7.358   9.088  66.188  1.00  0.00     0.000 HD 
HETATM   27  C   UNL     1      -8.186   7.943  67.737  1.00  0.00    -0.129 A  
HETATM   28  C   UNL     1      -6.959   7.693  68.351  1.00  0.00    -0.072 A  
HETATM   29  C   UNL     1      -6.916   6.837  69.443  1.00  0.00    -0.067 A  
HETATM   30  O   UNL     1      -5.752   6.560  70.095  1.00  0.00    -0.018 OA 
HETATM   31  C   UNL     1      -8.070   6.216  69.912  1.00  0.00    -0.119 A  
HETATM   32  H   UNL     1      -5.722   5.974  70.842  1.00  0.00     0.000 HD 
ENDBRANCH  16  19
ENDBRANCH  15  16
ENDBRANCH  13  15
ENDBRANCH   6   9
ENDBRANCH   2   3
TORSDOF 5
ENDMDL
MODEL       36
REMARK 921   NORMALIZED FREE ENERGY PREDICTED BY IDOCK:   -6.63 KCAL/MOL
REMARK 922        TOTAL FREE ENERGY PREDICTED BY IDOCK:   -8.81 KCAL/MOL
REMARK 923 INTER-LIGAND FREE ENERGY PREDICTED BY IDOCK:   -8.58 KCAL/MOL
REMARK 924 INTRA-LIGAND FREE ENERGY PREDICTED BY IDOCK:   -0.22 KCAL/MOL
REMARK 927      BINDING AFFINITY PREDICTED BY RF-SCORE:    0.00 PKD
ROOT
HETATM    1  C   UNL     1      -7.199  20.906  67.372  1.00  0.00    -0.340 C  
HETATM    2  O   UNL     1      -8.598  20.664  67.258  1.00  0.00    -0.334 OA 
ENDROOT
BRANCH   2   3
HETATM    3  C   UNL     1      -9.024  19.408  67.607  1.00  0.00    -0.304 A  
HETATM    4  C   UNL     1     -10.286  18.885  67.347  1.00  0.00    -0.496 A  
HETATM    5  C   UNL     1     -10.614  17.597  67.772  1.00  0.00    -0.380 A  
HETATM    6  C   UNL     1      -9.682  16.797  68.450  1.00  0.00    -0.247 A  
HETATM    7  C   UNL     1      -8.083  18.617  68.271  1.00  0.00    -0.339 A  
HETATM    8  C   UNL     1      -8.407  17.322  68.691  1.00  0.00    -0.255 A  
BRANCH   6   9
HETATM    9  C   UNL     1     -10.075  15.402  68.912  1.00  0.00    -0.219 C  
HETATM   10  C   UNL     1      -9.400  14.186  68.187  1.00  0.00    -0.206 C  
HETATM   11  C   UNL     1      -7.899  14.155  68.534  1.00  0.00    -0.140 C  
HETATM   12  C   UNL     1      -9.606  14.266  66.661  1.00  0.00    -0.302 C  
HETATM   13  N   UNL     1     -10.046  12.955  68.713  1.00  0.00    -0.421 NA 
HETATM   14  H   UNL     1     -11.056  13.009  68.584  1.00  0.00     0.000 HD 
BRANCH  13  15
HETATM   15  C   UNL     1      -9.535  11.679  68.164  1.00  0.00    -0.191 C  
BRANCH  15  16
HETATM   16  C   UNL     1     -10.606  10.859  67.405  1.00  0.00    -0.243 C  
HETATM   17  H   UNL     1     -12.549  10.976  67.083  1.00  0.00     0.000 HD 
HETATM   18  O   UNL     1     -11.892  11.479  67.549  1.00  0.00    -0.605 OA 
BRANCH  16  19
HETATM   19  C   UNL     1     -10.636   9.408  67.833  1.00  0.00    -0.293 A  
HETATM   20  C   UNL     1     -10.853   9.054  69.176  1.00  0.00    -0.089 A  
HETATM   21  O   UNL     1     -10.982  10.075  70.085  1.00  0.00    -0.265 OA 
HETATM   22  C   UNL     1     -11.576   9.676  71.315  1.00  0.00    -0.393 C  
HETATM   23  C   UNL     1     -11.174   8.316  71.869  1.00  0.00    -0.300 C  
HETATM   24  O   UNL     1     -11.127   8.053  73.067  1.00  0.00    -0.382 OA 
HETATM   25  N   UNL     1     -10.965   7.362  70.909  1.00  0.00    -0.248 N  
HETATM   26  H   UNL     1     -10.878   6.384  71.186  1.00  0.00     0.000 HD 
HETATM   27  C   UNL     1     -10.869   7.703  69.556  1.00  0.00    -0.165 A  
HETATM   28  C   UNL     1     -10.732   6.694  68.605  1.00  0.00    -0.303 A  
HETATM   29  C   UNL     1     -10.562   7.045  67.272  1.00  0.00    -0.325 A  
HETATM   30  O   UNL     1     -10.434   6.108  66.291  1.00  0.00    -0.442 OA 
HETATM   31  C   UNL     1     -10.506   8.381  66.885  1.00  0.00    -0.359 A  
HETATM   32  H   UNL     1     -10.317   6.348  65.379  1.00  0.00     0.000 HD 
ENDBRANCH  16  19
ENDBRANCH  15  16
ENDBRANCH  13  15
ENDBRANCH   6   9
ENDBRANCH   2   3
TORSDOF 5
ENDMDL
MODEL       37
REMARK 921   NORMALIZED FREE ENERGY PREDICTED BY IDOCK:   -6.60 KCAL/MOL
REMARK 922        TOTAL FREE ENERGY PREDICTED BY IDOCK:   -8.78 KCAL/MOL
REMARK 923 INTER-LIGAND FREE ENERGY PREDICTED BY IDOCK:   -8.00 KCAL/MOL
REMARK 924 INTRA-LIGAND FREE ENERGY PREDICTED BY IDOCK:   -0.78 KCAL/MOL
REMARK 927      BINDING AFFINITY PREDICTED BY RF-SCORE:    0.00 PKD
ROOT
HETATM    1  C   UNL     1      -5.413  21.173  68.354  1.00  0.00    -0.305 C  
HETATM    2  O   UNL     1      -6.185  20.352  69.225  1.00  0.00    -0.326 OA 
ENDROOT
BRANCH   2   3
HETATM    3  C   UNL     1      -6.596  19.148  68.713  1.00  0.00    -0.275 A  
HETATM    4  C   UNL     1      -7.864  18.880  68.207  1.00  0.00    -0.340 A  
HETATM    5  C   UNL     1      -8.176  17.606  67.732  1.00  0.00    -0.225 A  
HETATM    6  C   UNL     1      -7.222  16.577  67.734  1.00  0.00    -0.156 A  
HETATM    7  C   UNL     1      -5.635  18.135  68.710  1.00  0.00    -0.185 A  
HETATM    8  C   UNL     1      -5.942  16.859  68.226  1.00  0.00    -0.129 A  
BRANCH   6   9
HETATM    9  C   UNL     1      -7.596  15.195  67.221  1.00  0.00    -0.236 C  
HETATM   10  C   UNL     1      -8.128  14.156  68.269  1.00  0.00    -0.146 C  
HETATM   11  C   UNL     1      -9.505  14.616  68.787  1.00  0.00    -0.199 C  
HETATM   12  C   UNL     1      -7.135  13.987  69.436  1.00  0.00    -0.008 C  
HETATM   13  N   UNL     1      -8.285  12.862  67.556  1.00  0.00    -0.172 NA 
HETATM   14  H   UNL     1      -7.403  12.597  67.117  1.00  0.00     0.000 HD 
BRANCH  13  15
HETATM   15  C   UNL     1      -8.800  11.739  68.371  1.00  0.00    -0.161 C  
BRANCH  15  16
HETATM   16  C   UNL     1     -10.143  11.167  67.859  1.00  0.00    -0.176 C  
HETATM   17  H   UNL     1     -11.157   9.484  68.045  1.00  0.00     0.000 HD 
HETATM   18  O   UNL     1     -10.333   9.835  68.359  1.00  0.00    -0.184 OA 
BRANCH  16  19
HETATM   19  C   UNL     1     -10.257  11.218  66.350  1.00  0.00    -0.273 A  
HETATM   20  C   UNL     1     -10.852  12.316  65.707  1.00  0.00    -0.278 A  
HETATM   21  O   UNL     1     -11.372  13.309  66.500  1.00  0.00    -0.304 OA 
HETATM   22  C   UNL     1     -11.594  14.535  65.814  1.00  0.00    -0.347 C  
HETATM   23  C   UNL     1     -12.137  14.444  64.394  1.00  0.00    -0.470 C  
HETATM   24  O   UNL     1     -12.865  15.291  63.884  1.00  0.00    -0.637 OA 
HETATM   25  N   UNL     1     -11.656  13.378  63.681  1.00  0.00    -0.660 N  
HETATM   26  H   UNL     1     -11.812  13.339  62.673  1.00  0.00     0.000 HD 
HETATM   27  C   UNL     1     -10.957  12.342  64.307  1.00  0.00    -0.343 A  
HETATM   28  C   UNL     1     -10.420  11.314  63.534  1.00  0.00    -0.457 A  
HETATM   29  C   UNL     1      -9.792  10.251  64.170  1.00  0.00    -0.250 A  
HETATM   30  O   UNL     1      -9.237   9.221  63.473  1.00  0.00    -0.416 OA 
HETATM   31  C   UNL     1      -9.715  10.193  65.559  1.00  0.00    -0.344 A  
HETATM   32  H   UNL     1      -8.807   8.494  63.908  1.00  0.00     0.000 HD 
ENDBRANCH  16  19
ENDBRANCH  15  16
ENDBRANCH  13  15
ENDBRANCH   6   9
ENDBRANCH   2   3
TORSDOF 5
ENDMDL
MODEL       38
REMARK 921   NORMALIZED FREE ENERGY PREDICTED BY IDOCK:   -6.59 KCAL/MOL
REMARK 922        TOTAL FREE ENERGY PREDICTED BY IDOCK:   -8.76 KCAL/MOL
REMARK 923 INTER-LIGAND FREE ENERGY PREDICTED BY IDOCK:   -8.02 KCAL/MOL
REMARK 924 INTRA-LIGAND FREE ENERGY PREDICTED BY IDOCK:   -0.74 KCAL/MOL
REMARK 927      BINDING AFFINITY PREDICTED BY RF-SCORE:    0.00 PKD
ROOT
HETATM    1  C   UNL     1     -12.089  16.217  72.710  1.00  0.00    -0.553 C  
HETATM    2  O   UNL     1     -12.092  16.269  71.287  1.00  0.00    -0.372 OA 
ENDROOT
BRANCH   2   3
HETATM    3  C   UNL     1     -12.003  15.064  70.638  1.00  0.00    -0.318 A  
HETATM    4  C   UNL     1     -11.557  14.885  69.333  1.00  0.00    -0.337 A  
HETATM    5  C   UNL     1     -11.532  13.608  68.768  1.00  0.00    -0.346 A  
HETATM    6  C   UNL     1     -11.935  12.482  69.502  1.00  0.00    -0.329 A  
HETATM    7  C   UNL     1     -12.396  13.949  71.382  1.00  0.00    -0.383 A  
HETATM    8  C   UNL     1     -12.364  12.668  70.821  1.00  0.00    -0.372 A  
BRANCH   6   9
HETATM    9  C   UNL     1     -11.909  11.107  68.854  1.00  0.00    -0.406 C  
HETATM   10  C   UNL     1     -10.636  10.222  69.091  1.00  0.00    -0.230 C  
HETATM   11  C   UNL     1     -10.574   9.806  70.573  1.00  0.00    -0.376 C  
HETATM   12  C   UNL     1      -9.354  10.974  68.682  1.00  0.00    -0.196 C  
HETATM   13  N   UNL     1     -10.790   9.006  68.251  1.00  0.00    -0.454 NA 
HETATM   14  H   UNL     1     -10.938   9.272  67.277  1.00  0.00     0.000 HD 
BRANCH  13  15
HETATM   15  C   UNL     1      -9.691   8.020  68.344  1.00  0.00    -0.158 C  
BRANCH  15  16
HETATM   16  C   UNL     1     -10.179   6.568  68.570  1.00  0.00    -0.172 C  
HETATM   17  H   UNL     1     -11.535   5.366  67.788  1.00  0.00     0.000 HD 
HETATM   18  O   UNL     1     -11.235   6.257  67.650  1.00  0.00    -0.327 OA 
BRANCH  16  19
HETATM   19  C   UNL     1     -10.593   6.313  70.002  1.00  0.00    -0.307 A  
HETATM   20  C   UNL     1      -9.676   5.812  70.942  1.00  0.00    -0.174 A  
HETATM   21  O   UNL     1      -8.412   5.516  70.496  1.00  0.00    -0.118 OA 
HETATM   22  C   UNL     1      -7.449   5.396  71.536  1.00  0.00    -0.101 C  
HETATM   23  C   UNL     1      -7.899   4.707  72.818  1.00  0.00    -0.088 C  
HETATM   24  O   UNL     1      -7.152   4.055  73.542  1.00  0.00    -0.059 OA 
HETATM   25  N   UNL     1      -9.199   4.963  73.163  1.00  0.00    -0.119 N  
HETATM   26  H   UNL     1      -9.531   4.704  74.092  1.00  0.00     0.000 HD 
HETATM   27  C   UNL     1     -10.081   5.573  72.265  1.00  0.00    -0.183 A  
HETATM   28  C   UNL     1     -11.374   5.884  72.681  1.00  0.00    -0.337 A  
HETATM   29  C   UNL     1     -12.266   6.421  71.762  1.00  0.00    -0.256 A  
HETATM   30  O   UNL     1     -13.540   6.757  72.106  1.00  0.00    -0.544 OA 
HETATM   31  C   UNL     1     -11.890   6.628  70.437  1.00  0.00    -0.407 A  
HETATM   32  H   UNL     1     -14.150   7.124  71.478  1.00  0.00     0.000 HD 
ENDBRANCH  16  19
ENDBRANCH  15  16
ENDBRANCH  13  15
ENDBRANCH   6   9
ENDBRANCH   2   3
TORSDOF 5
ENDMDL
MODEL       39
REMARK 921   NORMALIZED FREE ENERGY PREDICTED BY IDOCK:   -6.57 KCAL/MOL
REMARK 922        TOTAL FREE ENERGY PREDICTED BY IDOCK:   -8.74 KCAL/MOL
REMARK 923 INTER-LIGAND FREE ENERGY PREDICTED BY IDOCK:   -8.52 KCAL/MOL
REMARK 924 INTRA-LIGAND FREE ENERGY PREDICTED BY IDOCK:   -0.21 KCAL/MOL
REMARK 927      BINDING AFFINITY PREDICTED BY RF-SCORE:    0.00 PKD
ROOT
HETATM    1  C   UNL     1      -9.808   4.368  66.612  1.00  0.00    -0.226 C  
HETATM    2  O   UNL     1     -10.289   4.777  67.889  1.00  0.00    -0.054 OA 
ENDROOT
BRANCH   2   3
HETATM    3  C   UNL     1     -10.184   6.114  68.174  1.00  0.00    -0.175 A  
HETATM    4  C   UNL     1      -9.490   7.047  67.410  1.00  0.00    -0.155 A  
HETATM    5  C   UNL     1      -9.433   8.382  67.812  1.00  0.00    -0.171 A  
HETATM    6  C   UNL     1     -10.082   8.817  68.977  1.00  0.00    -0.206 A  
HETATM    7  C   UNL     1     -10.844   6.538  69.330  1.00  0.00    -0.361 A  
HETATM    8  C   UNL     1     -10.795   7.877  69.731  1.00  0.00    -0.202 A  
BRANCH   6   9
HETATM    9  C   UNL     1      -9.990  10.276  69.396  1.00  0.00    -0.254 C  
HETATM   10  C   UNL     1     -11.236  11.187  69.115  1.00  0.00    -0.264 C  
HETATM   11  C   UNL     1     -12.406  10.739  70.011  1.00  0.00    -0.371 C  
HETATM   12  C   UNL     1     -11.636  11.135  67.627  1.00  0.00    -0.266 C  
HETATM   13  N   UNL     1     -10.849  12.575  69.479  1.00  0.00    -0.442 NA 
HETATM   14  H   UNL     1     -10.009  12.848  68.968  1.00  0.00     0.000 HD 
BRANCH  13  15
HETATM   15  C   UNL     1     -11.901  13.601  69.303  1.00  0.00    -0.346 C  
BRANCH  15  16
HETATM   16  C   UNL     1     -11.362  15.051  69.328  1.00  0.00    -0.296 C  
HETATM   17  H   UNL     1     -11.964  16.800  70.018  1.00  0.00     0.000 HD 
HETATM   18  O   UNL     1     -12.294  15.910  70.002  1.00  0.00    -0.317 OA 
BRANCH  16  19
HETATM   19  C   UNL     1     -11.026  15.569  67.946  1.00  0.00    -0.316 A  
HETATM   20  C   UNL     1     -10.633  16.903  67.750  1.00  0.00    -0.340 A  
HETATM   21  O   UNL     1     -10.619  17.726  68.849  1.00  0.00    -0.278 OA 
HETATM   22  C   UNL     1      -9.857  18.914  68.667  1.00  0.00    -0.407 C  
HETATM   23  C   UNL     1      -9.951  19.594  67.308  1.00  0.00    -0.395 C  
HETATM   24  O   UNL     1      -9.845  20.806  67.140  1.00  0.00    -0.463 OA 
HETATM   25  N   UNL     1     -10.059  18.724  66.255  1.00  0.00    -0.394 N  
HETATM   26  H   UNL     1      -9.939  19.073  65.304  1.00  0.00     0.000 HD 
HETATM   27  C   UNL     1     -10.333  17.368  66.460  1.00  0.00    -0.312 A  
HETATM   28  C   UNL     1     -10.360  16.504  65.367  1.00  0.00    -0.246 A  
HETATM   29  C   UNL     1     -10.706  15.174  65.570  1.00  0.00    -0.365 A  
HETATM   30  O   UNL     1     -10.741  14.275  64.548  1.00  0.00    -0.568 OA 
HETATM   31  C   UNL     1     -11.043  14.708  66.838  1.00  0.00    -0.333 A  
HETATM   32  H   UNL     1     -10.978  13.366  64.686  1.00  0.00     0.000 HD 
ENDBRANCH  16  19
ENDBRANCH  15  16
ENDBRANCH  13  15
ENDBRANCH   6   9
ENDBRANCH   2   3
TORSDOF 5
ENDMDL
MODEL       40
REMARK 921   NORMALIZED FREE ENERGY PREDICTED BY IDOCK:   -6.56 KCAL/MOL
REMARK 922        TOTAL FREE ENERGY PREDICTED BY IDOCK:   -8.72 KCAL/MOL
REMARK 923 INTER-LIGAND FREE ENERGY PREDICTED BY IDOCK:   -8.16 KCAL/MOL
REMARK 924 INTRA-LIGAND FREE ENERGY PREDICTED BY IDOCK:   -0.56 KCAL/MOL
REMARK 927      BINDING AFFINITY PREDICTED BY RF-SCORE:    0.00 PKD
ROOT
HETATM    1  C   UNL     1      -6.152  20.078  65.818  1.00  0.00    -0.189 C  
HETATM    2  O   UNL     1      -7.523  20.460  65.743  1.00  0.00    -0.218 OA 
ENDROOT
BRANCH   2   3
HETATM    3  C   UNL     1      -8.424  19.587  66.296  1.00  0.00    -0.352 A  
HETATM    4  C   UNL     1      -9.806  19.659  66.152  1.00  0.00    -0.523 A  
HETATM    5  C   UNL     1     -10.627  18.723  66.784  1.00  0.00    -0.458 A  
HETATM    6  C   UNL     1     -10.085  17.686  67.557  1.00  0.00    -0.337 A  
HETATM    7  C   UNL     1      -7.871  18.551  67.054  1.00  0.00    -0.236 A  
HETATM    8  C   UNL     1      -8.692  17.608  67.681  1.00  0.00    -0.232 A  
BRANCH   6   9
HETATM    9  C   UNL     1     -11.007  16.690  68.243  1.00  0.00    -0.341 C  
HETATM   10  C   UNL     1     -10.892  15.186  67.813  1.00  0.00    -0.292 C  
HETATM   11  C   UNL     1      -9.531  14.629  68.272  1.00  0.00    -0.211 C  
HETATM   12  C   UNL     1     -11.060  15.030  66.288  1.00  0.00    -0.334 C  
HETATM   13  N   UNL     1     -11.978  14.451  68.512  1.00  0.00    -0.495 NA 
HETATM   14  H   UNL     1     -12.880  14.877  68.299  1.00  0.00     0.000 HD 
BRANCH  13  15
HETATM   15  C   UNL     1     -12.035  12.995  68.254  1.00  0.00    -0.267 C  
BRANCH  15  16
HETATM   16  C   UNL     1     -12.126  12.141  69.542  1.00  0.00    -0.201 C  
HETATM   17  H   UNL     1     -12.181  12.470  71.487  1.00  0.00     0.000 HD 
HETATM   18  O   UNL     1     -12.125  12.994  70.697  1.00  0.00    -0.348 OA 
BRANCH  16  19
HETATM   19  C   UNL     1     -11.036  11.094  69.621  1.00  0.00    -0.297 A  
HETATM   20  C   UNL     1     -11.080  10.078  70.591  1.00  0.00    -0.335 A  
HETATM   21  O   UNL     1     -12.116  10.107  71.491  1.00  0.00    -0.377 OA 
HETATM   22  C   UNL     1     -12.321   8.874  72.171  1.00  0.00    -0.378 C  
HETATM   23  C   UNL     1     -11.078   8.099  72.588  1.00  0.00    -0.380 C  
HETATM   24  O   UNL     1     -11.021   7.380  73.581  1.00  0.00    -0.306 OA 
HETATM   25  N   UNL     1     -10.042   8.185  71.696  1.00  0.00    -0.187 N  
HETATM   26  H   UNL     1      -9.245   7.556  71.792  1.00  0.00     0.000 HD 
HETATM   27  C   UNL     1     -10.056   9.120  70.655  1.00  0.00    -0.247 A  
HETATM   28  C   UNL     1      -9.018   9.124  69.726  1.00  0.00    -0.168 A  
HETATM   29  C   UNL     1      -9.001  10.102  68.740  1.00  0.00    -0.147 A  
HETATM   30  O   UNL     1      -8.022  10.155  67.795  1.00  0.00    -0.101 OA 
HETATM   31  C   UNL     1      -9.989  11.082  68.687  1.00  0.00    -0.205 A  
HETATM   32  H   UNL     1      -8.010  10.824  67.121  1.00  0.00     0.000 HD 
ENDBRANCH  16  19
ENDBRANCH  15  16
ENDBRANCH  13  15
ENDBRANCH   6   9
ENDBRANCH   2   3
TORSDOF 5
ENDMDL
MODEL       41
REMARK 921   NORMALIZED FREE ENERGY PREDICTED BY IDOCK:   -6.56 KCAL/MOL
REMARK 922        TOTAL FREE ENERGY PREDICTED BY IDOCK:   -8.72 KCAL/MOL
REMARK 923 INTER-LIGAND FREE ENERGY PREDICTED BY IDOCK:   -8.23 KCAL/MOL
REMARK 924 INTRA-LIGAND FREE ENERGY PREDICTED BY IDOCK:   -0.49 KCAL/MOL
REMARK 927      BINDING AFFINITY PREDICTED BY RF-SCORE:    0.00 PKD
ROOT
HETATM    1  C   UNL     1      -9.741  20.691  67.152  1.00  0.00    -0.390 C  
HETATM    2  O   UNL     1     -10.741  19.735  66.809  1.00  0.00    -0.473 OA 
ENDROOT
BRANCH   2   3
HETATM    3  C   UNL     1     -10.426  18.421  67.044  1.00  0.00    -0.399 A  
HETATM    4  C   UNL     1     -10.398  17.417  66.082  1.00  0.00    -0.329 A  
HETATM    5  C   UNL     1     -10.084  16.106  66.445  1.00  0.00    -0.321 A  
HETATM    6  C   UNL     1      -9.774  15.775  67.772  1.00  0.00    -0.216 A  
HETATM    7  C   UNL     1     -10.108  18.106  68.367  1.00  0.00    -0.401 A  
HETATM    8  C   UNL     1      -9.785  16.795  68.731  1.00  0.00    -0.261 A  
BRANCH   6   9
HETATM    9  C   UNL     1      -9.449  14.335  68.138  1.00  0.00    -0.204 C  
HETATM   10  C   UNL     1     -10.655  13.375  68.428  1.00  0.00    -0.248 C  
HETATM   11  C   UNL     1     -11.439  13.134  67.123  1.00  0.00    -0.378 C  
HETATM   12  C   UNL     1     -11.577  13.955  69.519  1.00  0.00    -0.358 C  
HETATM   13  N   UNL     1     -10.081  12.086  68.894  1.00  0.00    -0.411 NA 
HETATM   14  H   UNL     1      -9.474  12.246  69.698  1.00  0.00     0.000 HD 
BRANCH  13  15
HETATM   15  C   UNL     1     -11.063  11.023  69.208  1.00  0.00    -0.254 C  
BRANCH  15  16
HETATM   16  C   UNL     1     -10.442   9.607  69.274  1.00  0.00    -0.217 C  
HETATM   17  H   UNL     1     -10.410   7.993  68.139  1.00  0.00     0.000 HD 
HETATM   18  O   UNL     1     -10.792   8.862  68.099  1.00  0.00    -0.136 OA 
BRANCH  16  19
HETATM   19  C   UNL     1     -10.822   8.866  70.538  1.00  0.00    -0.276 A  
HETATM   20  C   UNL     1      -9.993   7.861  71.063  1.00  0.00    -0.181 A  
HETATM   21  O   UNL     1      -8.859   7.543  70.357  1.00  0.00    -0.143 OA 
HETATM   22  C   UNL     1      -7.892   6.827  71.116  1.00  0.00    -0.101 C  
HETATM   23  C   UNL     1      -8.413   5.769  72.079  1.00  0.00    -0.126 C  
HETATM   24  O   UNL     1      -7.797   4.749  72.374  1.00  0.00    -0.088 OA 
HETATM   25  N   UNL     1      -9.598   6.099  72.682  1.00  0.00    -0.156 N  
HETATM   26  H   UNL     1      -9.927   5.547  73.474  1.00  0.00     0.000 HD 
HETATM   27  C   UNL     1     -10.365   7.178  72.232  1.00  0.00    -0.201 A  
HETATM   28  C   UNL     1     -11.526   7.526  72.920  1.00  0.00    -0.311 A  
HETATM   29  C   UNL     1     -12.321   8.550  72.423  1.00  0.00    -0.359 A  
HETATM   30  O   UNL     1     -13.462   8.947  73.054  1.00  0.00    -0.897 OA 
HETATM   31  C   UNL     1     -11.984   9.211  71.245  1.00  0.00    -0.394 A  
HETATM   32  H   UNL     1     -14.006   9.648  72.714  1.00  0.00     0.000 HD 
ENDBRANCH  16  19
ENDBRANCH  15  16
ENDBRANCH  13  15
ENDBRANCH   6   9
ENDBRANCH   2   3
TORSDOF 5
ENDMDL
MODEL       42
REMARK 921   NORMALIZED FREE ENERGY PREDICTED BY IDOCK:   -6.55 KCAL/MOL
REMARK 922        TOTAL FREE ENERGY PREDICTED BY IDOCK:   -8.71 KCAL/MOL
REMARK 923 INTER-LIGAND FREE ENERGY PREDICTED BY IDOCK:   -7.94 KCAL/MOL
REMARK 924 INTRA-LIGAND FREE ENERGY PREDICTED BY IDOCK:   -0.77 KCAL/MOL
REMARK 927      BINDING AFFINITY PREDICTED BY RF-SCORE:    0.00 PKD
ROOT
HETATM    1  C   UNL     1     -12.423  15.852  74.366  1.00  0.00    -0.621 C  
HETATM    2  O   UNL     1     -12.487  15.993  72.950  1.00  0.00    -0.424 OA 
ENDROOT
BRANCH   2   3
HETATM    3  C   UNL     1     -12.550  14.827  72.230  1.00  0.00    -0.335 A  
HETATM    4  C   UNL     1     -13.189  13.662  72.641  1.00  0.00    -0.533 A  
HETATM    5  C   UNL     1     -13.168  12.526  71.831  1.00  0.00    -0.495 A  
HETATM    6  C   UNL     1     -12.525  12.535  70.585  1.00  0.00    -0.323 A  
HETATM    7  C   UNL     1     -11.916  14.852  70.986  1.00  0.00    -0.376 A  
HETATM    8  C   UNL     1     -11.901  13.717  70.168  1.00  0.00    -0.360 A  
BRANCH   6   9
HETATM    9  C   UNL     1     -12.508  11.277  69.731  1.00  0.00    -0.193 C  
HETATM   10  C   UNL     1     -11.128  10.557  69.534  1.00  0.00    -0.268 C  
HETATM   11  C   UNL     1     -10.671   9.957  70.878  1.00  0.00    -0.305 C  
HETATM   12  C   UNL     1     -10.068  11.531  68.982  1.00  0.00    -0.075 C  
HETATM   13  N   UNL     1     -11.348   9.456  68.560  1.00  0.00    -0.391 NA 
HETATM   14  H   UNL     1     -11.752   9.827  67.700  1.00  0.00     0.000 HD 
BRANCH  13  15
HETATM   15  C   UNL     1     -10.161   8.631  68.246  1.00  0.00    -0.192 C  
BRANCH  15  16
HETATM   16  C   UNL     1     -10.210   7.985  66.841  1.00  0.00    -0.315 C  
HETATM   17  H   UNL     1      -9.817   6.219  66.053  1.00  0.00     0.000 HD 
HETATM   18  O   UNL     1      -9.786   6.616  66.915  1.00  0.00    -0.151 OA 
BRANCH  16  19
HETATM   19  C   UNL     1      -9.410   8.761  65.817  1.00  0.00    -0.259 A  
HETATM   20  C   UNL     1      -9.850  10.013  65.355  1.00  0.00    -0.314 A  
HETATM   21  O   UNL     1     -11.055  10.474  65.826  1.00  0.00     0.143 OA 
HETATM   22  C   UNL     1     -11.249  11.870  65.638  1.00  0.00    -0.306 C  
HETATM   23  C   UNL     1     -10.758  12.466  64.325  1.00  0.00    -0.357 C  
HETATM   24  O   UNL     1     -11.282  13.429  63.772  1.00  0.00    -0.289 OA 
HETATM   25  N   UNL     1      -9.602  11.902  63.854  1.00  0.00    -0.518 N  
HETATM   26  H   UNL     1      -9.099  12.354  63.090  1.00  0.00     0.000 HD 
HETATM   27  C   UNL     1      -9.100  10.715  64.399  1.00  0.00    -0.215 A  
HETATM   28  C   UNL     1      -7.882  10.215  63.941  1.00  0.00    -0.149 A  
HETATM   29  C   UNL     1      -7.428   8.999  64.433  1.00  0.00    -0.105 A  
HETATM   30  O   UNL     1      -6.241   8.459  64.036  1.00  0.00    -0.066 OA 
HETATM   31  C   UNL     1      -8.179   8.272  65.353  1.00  0.00    -0.146 A  
HETATM   32  H   UNL     1      -5.930   7.627  64.373  1.00  0.00     0.000 HD 
ENDBRANCH  16  19
ENDBRANCH  15  16
ENDBRANCH  13  15
ENDBRANCH   6   9
ENDBRANCH   2   3
TORSDOF 5
ENDMDL
MODEL       43
REMARK 921   NORMALIZED FREE ENERGY PREDICTED BY IDOCK:   -6.54 KCAL/MOL
REMARK 922        TOTAL FREE ENERGY PREDICTED BY IDOCK:   -8.70 KCAL/MOL
REMARK 923 INTER-LIGAND FREE ENERGY PREDICTED BY IDOCK:   -8.06 KCAL/MOL
REMARK 924 INTRA-LIGAND FREE ENERGY PREDICTED BY IDOCK:   -0.64 KCAL/MOL
REMARK 927      BINDING AFFINITY PREDICTED BY RF-SCORE:    0.00 PKD
ROOT
HETATM    1  C   UNL     1     -10.395  19.467  66.457  1.00  0.00    -0.482 C  
HETATM    2  O   UNL     1     -10.417  18.377  65.540  1.00  0.00    -0.610 OA 
ENDROOT
BRANCH   2   3
HETATM    3  C   UNL     1     -10.656  17.139  66.080  1.00  0.00    -0.201 A  
HETATM    4  C   UNL     1     -10.710  16.852  67.441  1.00  0.00    -0.241 A  
HETATM    5  C   UNL     1     -10.938  15.546  67.874  1.00  0.00    -0.316 A  
HETATM    6  C   UNL     1     -11.136  14.501  66.959  1.00  0.00    -0.324 A  
HETATM    7  C   UNL     1     -10.863  16.110  65.159  1.00  0.00    -0.376 A  
HETATM    8  C   UNL     1     -11.100  14.801  65.592  1.00  0.00    -0.342 A  
BRANCH   6   9
HETATM    9  C   UNL     1     -11.370  13.086  67.463  1.00  0.00    -0.346 C  
HETATM   10  C   UNL     1     -10.177  12.074  67.350  1.00  0.00    -0.200 C  
HETATM   11  C   UNL     1      -9.053  12.503  68.312  1.00  0.00    -0.183 C  
HETATM   12  C   UNL     1      -9.654  11.992  65.901  1.00  0.00    -0.238 C  
HETATM   13  N   UNL     1     -10.694  10.745  67.769  1.00  0.00    -0.230 NA 
HETATM   14  H   UNL     1     -11.507  10.495  67.207  1.00  0.00     0.000 HD 
BRANCH  13  15
HETATM   15  C   UNL     1      -9.710   9.640  67.751  1.00  0.00    -0.146 C  
BRANCH  15  16
HETATM   16  C   UNL     1      -9.202   9.241  69.158  1.00  0.00    -0.149 C  
HETATM   17  H   UNL     1      -7.494   8.666  69.964  1.00  0.00     0.000 HD 
HETATM   18  O   UNL     1      -7.806   8.910  69.101  1.00  0.00    -0.090 OA 
BRANCH  16  19
HETATM   19  C   UNL     1     -10.015   8.123  69.772  1.00  0.00    -0.191 A  
HETATM   20  C   UNL     1     -11.179   8.397  70.511  1.00  0.00    -0.238 A  
HETATM   21  O   UNL     1     -11.514   9.715  70.697  1.00  0.00    -0.268 OA 
HETATM   22  C   UNL     1     -12.865   9.913  71.095  1.00  0.00    -0.368 C  
HETATM   23  C   UNL     1     -13.447   8.916  72.087  1.00  0.00    -0.448 C  
HETATM   24  O   UNL     1     -14.310   9.198  72.915  1.00  0.00    -0.519 OA 
HETATM   25  N   UNL     1     -13.003   7.632  71.914  1.00  0.00    -0.435 N  
HETATM   26  H   UNL     1     -13.473   6.870  72.402  1.00  0.00     0.000 HD 
HETATM   27  C   UNL     1     -11.916   7.347  71.081  1.00  0.00    -0.320 A  
HETATM   28  C   UNL     1     -11.543   6.020  70.874  1.00  0.00    -0.147 A  
HETATM   29  C   UNL     1     -10.418   5.750  70.106  1.00  0.00    -0.278 A  
HETATM   30  O   UNL     1     -10.007   4.476  69.855  1.00  0.00    -0.219 OA 
HETATM   31  C   UNL     1      -9.655   6.782  69.566  1.00  0.00    -0.148 A  
HETATM   32  H   UNL     1      -9.237   4.291  69.330  1.00  0.00     0.000 HD 
ENDBRANCH  16  19
ENDBRANCH  15  16
ENDBRANCH  13  15
ENDBRANCH   6   9
ENDBRANCH   2   3
TORSDOF 5
ENDMDL
MODEL       44
REMARK 921   NORMALIZED FREE ENERGY PREDICTED BY IDOCK:   -6.54 KCAL/MOL
REMARK 922        TOTAL FREE ENERGY PREDICTED BY IDOCK:   -8.70 KCAL/MOL
REMARK 923 INTER-LIGAND FREE ENERGY PREDICTED BY IDOCK:   -8.69 KCAL/MOL
REMARK 924 INTRA-LIGAND FREE ENERGY PREDICTED BY IDOCK:   -0.01 KCAL/MOL
REMARK 927      BINDING AFFINITY PREDICTED BY RF-SCORE:    0.00 PKD
ROOT
HETATM    1  C   UNL     1     -11.083   2.481  73.886  1.00  0.00    -0.180 C  
HETATM    2  O   UNL     1     -10.205   3.603  73.931  1.00  0.00    -0.122 OA 
ENDROOT
BRANCH   2   3
HETATM    3  C   UNL     1     -10.300   4.486  72.887  1.00  0.00    -0.184 A  
HETATM    4  C   UNL     1      -9.349   4.653  71.885  1.00  0.00    -0.185 A  
HETATM    5  C   UNL     1      -9.544   5.603  70.882  1.00  0.00    -0.212 A  
HETATM    6  C   UNL     1     -10.703   6.393  70.847  1.00  0.00    -0.301 A  
HETATM    7  C   UNL     1     -11.463   5.259  72.856  1.00  0.00    -0.339 A  
HETATM    8  C   UNL     1     -11.665   6.206  71.846  1.00  0.00    -0.337 A  
BRANCH   6   9
HETATM    9  C   UNL     1     -10.880   7.429  69.748  1.00  0.00    -0.246 C  
HETATM   10  C   UNL     1     -10.592   8.927  70.114  1.00  0.00    -0.222 C  
HETATM   11  C   UNL     1      -9.086   9.103  70.387  1.00  0.00    -0.270 C  
HETATM   12  C   UNL     1     -11.424   9.368  71.335  1.00  0.00    -0.449 C  
HETATM   13  N   UNL     1     -10.971   9.744  68.932  1.00  0.00    -0.367 NA 
HETATM   14  H   UNL     1     -11.940   9.556  68.675  1.00  0.00     0.000 HD 
BRANCH  13  15
HETATM   15  C   UNL     1     -10.757  11.202  69.065  1.00  0.00    -0.225 C  
BRANCH  15  16
HETATM   16  C   UNL     1     -12.035  12.039  68.823  1.00  0.00    -0.244 C  
HETATM   17  H   UNL     1     -12.879  12.973  67.303  1.00  0.00     0.000 HD 
HETATM   18  O   UNL     1     -12.095  12.459  67.452  1.00  0.00    -0.505 OA 
BRANCH  16  19
HETATM   19  C   UNL     1     -12.147  13.213  69.771  1.00  0.00    -0.336 A  
HETATM   20  C   UNL     1     -11.572  14.456  69.454  1.00  0.00    -0.304 A  
HETATM   21  O   UNL     1     -10.863  14.544  68.282  1.00  0.00    -0.233 OA 
HETATM   22  C   UNL     1     -10.651  15.878  67.837  1.00  0.00    -0.300 C  
HETATM   23  C   UNL     1     -10.339  16.921  68.902  1.00  0.00    -0.333 C  
HETATM   24  O   UNL     1      -9.632  17.906  68.709  1.00  0.00    -0.310 OA 
HETATM   25  N   UNL     1     -11.003  16.727  70.084  1.00  0.00    -0.382 N  
HETATM   26  H   UNL     1     -11.005  17.469  70.784  1.00  0.00     0.000 HD 
HETATM   27  C   UNL     1     -11.679  15.532  70.349  1.00  0.00    -0.339 A  
HETATM   28  C   UNL     1     -12.405  15.405  71.532  1.00  0.00    -0.443 A  
HETATM   29  C   UNL     1     -13.010  14.189  71.822  1.00  0.00    -0.348 A  
HETATM   30  O   UNL     1     -13.743  14.002  72.955  1.00  0.00    -0.677 OA 
HETATM   31  C   UNL     1     -12.881  13.102  70.962  1.00  0.00    -0.295 A  
HETATM   32  H   UNL     1     -14.157  13.170  73.154  1.00  0.00     0.000 HD 
ENDBRANCH  16  19
ENDBRANCH  15  16
ENDBRANCH  13  15
ENDBRANCH   6   9
ENDBRANCH   2   3
TORSDOF 5
ENDMDL
MODEL       45
REMARK 921   NORMALIZED FREE ENERGY PREDICTED BY IDOCK:   -6.53 KCAL/MOL
REMARK 922        TOTAL FREE ENERGY PREDICTED BY IDOCK:   -8.68 KCAL/MOL
REMARK 923 INTER-LIGAND FREE ENERGY PREDICTED BY IDOCK:   -8.50 KCAL/MOL
REMARK 924 INTRA-LIGAND FREE ENERGY PREDICTED BY IDOCK:   -0.18 KCAL/MOL
REMARK 927      BINDING AFFINITY PREDICTED BY RF-SCORE:    0.00 PKD
ROOT
HETATM    1  C   UNL     1      -7.935   1.901  74.075  1.00  0.00    -0.046 C  
HETATM    2  O   UNL     1      -9.338   2.105  74.217  1.00  0.00    -0.074 OA 
ENDROOT
BRANCH   2   3
HETATM    3  C   UNL     1      -9.877   3.130  73.482  1.00  0.00    -0.106 A  
HETATM    4  C   UNL     1     -10.833   4.031  73.938  1.00  0.00    -0.316 A  
HETATM    5  C   UNL     1     -11.326   5.022  73.089  1.00  0.00    -0.397 A  
HETATM    6  C   UNL     1     -10.862   5.145  71.771  1.00  0.00    -0.149 A  
HETATM    7  C   UNL     1      -9.398   3.249  72.175  1.00  0.00    -0.181 A  
HETATM    8  C   UNL     1      -9.885   4.247  71.324  1.00  0.00    -0.257 A  
BRANCH   6   9
HETATM    9  C   UNL     1     -11.428   6.227  70.865  1.00  0.00    -0.377 C  
HETATM   10  C   UNL     1     -10.574   7.529  70.675  1.00  0.00    -0.224 C  
HETATM   11  C   UNL     1      -9.293   7.188  69.890  1.00  0.00    -0.150 C  
HETATM   12  C   UNL     1     -10.228   8.168  72.035  1.00  0.00    -0.316 C  
HETATM   13  N   UNL     1     -11.396   8.475  69.875  1.00  0.00    -0.456 NA 
HETATM   14  H   UNL     1     -12.295   8.628  70.333  1.00  0.00     0.000 HD 
BRANCH  13  15
HETATM   15  C   UNL     1     -10.759   9.774  69.565  1.00  0.00    -0.233 C  
BRANCH  15  16
HETATM   16  C   UNL     1     -11.211  10.378  68.214  1.00  0.00    -0.267 C  
HETATM   17  H   UNL     1     -10.528  10.439  66.363  1.00  0.00     0.000 HD 
HETATM   18  O   UNL     1     -10.251  10.069  67.193  1.00  0.00    -0.203 OA 
BRANCH  16  19
HETATM   19  C   UNL     1     -11.472  11.866  68.302  1.00  0.00    -0.372 A  
HETATM   20  C   UNL     1     -11.805  12.610  67.157  1.00  0.00    -0.330 A  
HETATM   21  O   UNL     1     -11.830  11.946  65.956  1.00  0.00    -0.497 OA 
HETATM   22  C   UNL     1     -12.537  12.636  64.933  1.00  0.00    -0.450 C  
HETATM   23  C   UNL     1     -12.363  14.148  64.872  1.00  0.00    -0.430 C  
HETATM   24  O   UNL     1     -12.415  14.801  63.834  1.00  0.00    -0.811 OA 
HETATM   25  N   UNL     1     -12.247  14.746  66.098  1.00  0.00    -0.125 N  
HETATM   26  H   UNL     1     -12.316  15.761  66.169  1.00  0.00     0.000 HD 
HETATM   27  C   UNL     1     -12.035  13.991  67.256  1.00  0.00    -0.413 A  
HETATM   28  C   UNL     1     -11.998  14.632  68.493  1.00  0.00    -0.298 A  
HETATM   29  C   UNL     1     -11.713  13.886  69.629  1.00  0.00    -0.311 A  
HETATM   30  O   UNL     1     -11.673  14.449  70.869  1.00  0.00    -0.417 OA 
HETATM   31  C   UNL     1     -11.445  12.523  69.541  1.00  0.00    -0.299 A  
HETATM   32  H   UNL     1     -11.477  13.939  71.646  1.00  0.00     0.000 HD 
ENDBRANCH  16  19
ENDBRANCH  15  16
ENDBRANCH  13  15
ENDBRANCH   6   9
ENDBRANCH   2   3
TORSDOF 5
ENDMDL
MODEL       46
REMARK 921   NORMALIZED FREE ENERGY PREDICTED BY IDOCK:   -6.51 KCAL/MOL
REMARK 922        TOTAL FREE ENERGY PREDICTED BY IDOCK:   -8.65 KCAL/MOL
REMARK 923 INTER-LIGAND FREE ENERGY PREDICTED BY IDOCK:   -8.30 KCAL/MOL
REMARK 924 INTRA-LIGAND FREE ENERGY PREDICTED BY IDOCK:   -0.35 KCAL/MOL
REMARK 927      BINDING AFFINITY PREDICTED BY RF-SCORE:    0.00 PKD
ROOT
HETATM    1  C   UNL     1     -10.622  17.588  65.342  1.00  0.00     0.003 C  
HETATM    2  O   UNL     1     -10.983  16.535  64.452  1.00  0.00    -0.872 OA 
ENDROOT
BRANCH   2   3
HETATM    3  C   UNL     1     -11.166  15.301  65.020  1.00  0.00    -0.403 A  
HETATM    4  C   UNL     1     -12.004  14.305  64.527  1.00  0.00    -0.478 A  
HETATM    5  C   UNL     1     -12.128  13.092  65.205  1.00  0.00    -0.471 A  
HETATM    6  C   UNL     1     -11.404  12.840  66.380  1.00  0.00    -0.369 A  
HETATM    7  C   UNL     1     -10.431  15.057  66.182  1.00  0.00    -0.313 A  
HETATM    8  C   UNL     1     -10.548  13.839  66.859  1.00  0.00    -0.276 A  
BRANCH   6   9
HETATM    9  C   UNL     1     -11.571  11.513  67.103  1.00  0.00    -0.249 C  
HETATM   10  C   UNL     1     -10.343  10.536  67.110  1.00  0.00    -0.235 C  
HETATM   11  C   UNL     1      -9.212  11.147  67.959  1.00  0.00    -0.159 C  
HETATM   12  C   UNL     1      -9.856  10.248  65.676  1.00  0.00    -0.332 C  
HETATM   13  N   UNL     1     -10.799   9.272  67.745  1.00  0.00    -0.480 NA 
HETATM   14  H   UNL     1     -11.617   8.910  67.254  1.00  0.00     0.000 HD 
BRANCH  13  15
HETATM   15  C   UNL     1      -9.774   8.211  67.868  1.00  0.00    -0.161 C  
BRANCH  15  16
HETATM   16  C   UNL     1     -10.287   6.935  68.578  1.00  0.00    -0.186 C  
HETATM   17  H   UNL     1     -11.673   5.567  68.258  1.00  0.00     0.000 HD 
HETATM   18  O   UNL     1     -11.359   6.350  67.823  1.00  0.00    -0.266 OA 
BRANCH  16  19
HETATM   19  C   UNL     1     -10.691   7.192  70.013  1.00  0.00    -0.268 A  
HETATM   20  C   UNL     1      -9.767   7.693  70.946  1.00  0.00    -0.172 A  
HETATM   21  O   UNL     1      -8.477   7.884  70.517  1.00  0.00    -0.122 OA 
HETATM   22  C   UNL     1      -7.712   8.736  71.361  1.00  0.00    -0.114 C  
HETATM   23  C   UNL     1      -7.915   8.586  72.863  1.00  0.00    -0.013 C  
HETATM   24  O   UNL     1      -7.038   8.792  73.696  1.00  0.00    -0.351 OA 
HETATM   25  N   UNL     1      -9.205   8.300  73.225  1.00  0.00    -0.236 N  
HETATM   26  H   UNL     1      -9.476   8.367  74.207  1.00  0.00     0.000 HD 
HETATM   27  C   UNL     1     -10.158   7.918  72.275  1.00  0.00    -0.236 A  
HETATM   28  C   UNL     1     -11.476   7.709  72.675  1.00  0.00    -0.403 A  
HETATM   29  C   UNL     1     -12.399   7.257  71.741  1.00  0.00    -0.341 A  
HETATM   30  O   UNL     1     -13.705   7.044  72.063  1.00  0.00    -0.542 OA 
HETATM   31  C   UNL     1     -12.017   6.993  70.428  1.00  0.00    -0.256 A  
HETATM   32  H   UNL     1     -14.336   6.735  71.424  1.00  0.00     0.000 HD 
ENDBRANCH  16  19
ENDBRANCH  15  16
ENDBRANCH  13  15
ENDBRANCH   6   9
ENDBRANCH   2   3
TORSDOF 5
ENDMDL
MODEL       47
REMARK 921   NORMALIZED FREE ENERGY PREDICTED BY IDOCK:   -6.44 KCAL/MOL
REMARK 922        TOTAL FREE ENERGY PREDICTED BY IDOCK:   -8.57 KCAL/MOL
REMARK 923 INTER-LIGAND FREE ENERGY PREDICTED BY IDOCK:   -7.99 KCAL/MOL
REMARK 924 INTRA-LIGAND FREE ENERGY PREDICTED BY IDOCK:   -0.58 KCAL/MOL
REMARK 927      BINDING AFFINITY PREDICTED BY RF-SCORE:    0.00 PKD
ROOT
HETATM    1  C   UNL     1      -8.048   2.519  73.608  1.00  0.00    -0.059 C  
HETATM    2  O   UNL     1      -9.326   2.387  72.991  1.00  0.00    -0.082 OA 
ENDROOT
BRANCH   2   3
HETATM    3  C   UNL     1      -9.844   3.525  72.428  1.00  0.00    -0.161 A  
HETATM    4  C   UNL     1     -10.579   4.494  73.104  1.00  0.00    -0.284 A  
HETATM    5  C   UNL     1     -11.077   5.603  72.418  1.00  0.00    -0.324 A  
HETATM    6  C   UNL     1     -10.837   5.777  71.047  1.00  0.00    -0.316 A  
HETATM    7  C   UNL     1      -9.589   3.692  71.065  1.00  0.00    -0.246 A  
HETATM    8  C   UNL     1     -10.080   4.807  70.378  1.00  0.00    -0.301 A  
BRANCH   6   9
HETATM    9  C   UNL     1     -11.404   6.989  70.326  1.00  0.00    -0.339 C  
HETATM   10  C   UNL     1     -10.414   8.158  69.992  1.00  0.00    -0.231 C  
HETATM   11  C   UNL     1      -9.403   7.682  68.931  1.00  0.00    -0.145 C  
HETATM   12  C   UNL     1      -9.685   8.647  71.260  1.00  0.00    -0.305 C  
HETATM   13  N   UNL     1     -11.227   9.267  69.426  1.00  0.00    -0.436 NA 
HETATM   14  H   UNL     1     -11.969   9.522  70.077  1.00  0.00     0.000 HD 
BRANCH  13  15
HETATM   15  C   UNL     1     -10.472  10.474  69.023  1.00  0.00    -0.217 C  
BRANCH  15  16
HETATM   16  C   UNL     1     -11.161  11.799  69.429  1.00  0.00    -0.234 C  
HETATM   17  H   UNL     1     -12.799  12.335  70.391  1.00  0.00     0.000 HD 
HETATM   18  O   UNL     1     -12.376  11.522  70.142  1.00  0.00    -0.288 OA 
BRANCH  16  19
HETATM   19  C   UNL     1     -11.405  12.711  68.246  1.00  0.00    -0.337 A  
HETATM   20  C   UNL     1     -10.969  14.047  68.262  1.00  0.00    -0.255 A  
HETATM   21  O   UNL     1     -10.367  14.502  69.408  1.00  0.00    -0.187 OA 
HETATM   22  C   UNL     1      -9.617  15.698  69.228  1.00  0.00    -0.268 C  
HETATM   23  C   UNL     1     -10.211  16.754  68.305  1.00  0.00    -0.295 C  
HETATM   24  O   UNL     1     -10.035  17.961  68.443  1.00  0.00    -0.325 OA 
HETATM   25  N   UNL     1     -10.883  16.239  67.228  1.00  0.00    -0.267 N  
HETATM   26  H   UNL     1     -11.151  16.858  66.463  1.00  0.00     0.000 HD 
HETATM   27  C   UNL     1     -11.211  14.881  67.159  1.00  0.00    -0.343 A  
HETATM   28  C   UNL     1     -11.829  14.385  66.012  1.00  0.00    -0.379 A  
HETATM   29  C   UNL     1     -12.218  13.052  65.982  1.00  0.00    -0.399 A  
HETATM   30  O   UNL     1     -12.815  12.501  64.889  1.00  0.00    -0.758 OA 
HETATM   31  C   UNL     1     -12.019  12.222  67.082  1.00  0.00    -0.207 A  
HETATM   32  H   UNL     1     -13.082  11.590  64.867  1.00  0.00     0.000 HD 
ENDBRANCH  16  19
ENDBRANCH  15  16
ENDBRANCH  13  15
ENDBRANCH   6   9
ENDBRANCH   2   3
TORSDOF 5
ENDMDL
MODEL       48
REMARK 921   NORMALIZED FREE ENERGY PREDICTED BY IDOCK:   -6.39 KCAL/MOL
REMARK 922        TOTAL FREE ENERGY PREDICTED BY IDOCK:   -8.51 KCAL/MOL
REMARK 923 INTER-LIGAND FREE ENERGY PREDICTED BY IDOCK:   -8.34 KCAL/MOL
REMARK 924 INTRA-LIGAND FREE ENERGY PREDICTED BY IDOCK:   -0.17 KCAL/MOL
REMARK 927      BINDING AFFINITY PREDICTED BY RF-SCORE:    0.00 PKD
ROOT
HETATM    1  C   UNL     1     -10.802  17.893  65.505  1.00  0.00     0.115 C  
HETATM    2  O   UNL     1     -10.948  16.894  64.500  1.00  0.00    -0.989 OA 
ENDROOT
BRANCH   2   3
HETATM    3  C   UNL     1     -11.138  15.611  64.948  1.00  0.00    -0.402 A  
HETATM    4  C   UNL     1     -11.726  14.584  64.217  1.00  0.00    -0.312 A  
HETATM    5  C   UNL     1     -11.887  13.320  64.787  1.00  0.00    -0.411 A  
HETATM    6  C   UNL     1     -11.449  13.051  66.092  1.00  0.00    -0.381 A  
HETATM    7  C   UNL     1     -10.687  15.353  66.244  1.00  0.00    -0.312 A  
HETATM    8  C   UNL     1     -10.841  14.085  66.814  1.00  0.00    -0.294 A  
BRANCH   6   9
HETATM    9  C   UNL     1     -11.651  11.668  66.690  1.00  0.00    -0.194 C  
HETATM   10  C   UNL     1     -10.367  10.832  67.026  1.00  0.00    -0.228 C  
HETATM   11  C   UNL     1      -9.613  11.504  68.190  1.00  0.00    -0.187 C  
HETATM   12  C   UNL     1      -9.454  10.697  65.791  1.00  0.00    -0.244 C  
HETATM   13  N   UNL     1     -10.825   9.486  67.456  1.00  0.00    -0.415 NA 
HETATM   14  H   UNL     1     -11.415   9.071  66.735  1.00  0.00     0.000 HD 
BRANCH  13  15
HETATM   15  C   UNL     1      -9.756   8.537  67.840  1.00  0.00    -0.162 C  
BRANCH  15  16
HETATM   16  C   UNL     1     -10.285   7.250  68.518  1.00  0.00    -0.181 C  
HETATM   17  H   UNL     1     -11.573   5.819  68.084  1.00  0.00     0.000 HD 
HETATM   18  O   UNL     1     -11.249   6.609  67.669  1.00  0.00    -0.296 OA 
BRANCH  16  19
HETATM   19  C   UNL     1     -10.844   7.510  69.900  1.00  0.00    -0.250 A  
HETATM   20  C   UNL     1     -10.817   6.512  70.889  1.00  0.00    -0.253 A  
HETATM   21  O   UNL     1     -10.315   5.284  70.536  1.00  0.00    -0.252 OA 
HETATM   22  C   UNL     1      -9.957   4.469  71.645  1.00  0.00    -0.196 C  
HETATM   23  C   UNL     1     -10.880   4.505  72.857  1.00  0.00    -0.199 C  
HETATM   24  O   UNL     1     -11.056   3.553  73.611  1.00  0.00    -0.226 OA 
HETATM   25  N   UNL     1     -11.427   5.736  73.104  1.00  0.00    -0.500 N  
HETATM   26  H   UNL     1     -11.901   5.903  73.992  1.00  0.00     0.000 HD 
HETATM   27  C   UNL     1     -11.347   6.768  72.164  1.00  0.00    -0.271 A  
HETATM   28  C   UNL     1     -11.851   8.027  72.486  1.00  0.00    -0.419 A  
HETATM   29  C   UNL     1     -11.836   9.025  71.520  1.00  0.00    -0.345 A  
HETATM   30  O   UNL     1     -12.302  10.279  71.773  1.00  0.00    -0.377 OA 
HETATM   31  C   UNL     1     -11.348   8.774  70.240  1.00  0.00    -0.162 A  
HETATM   32  H   UNL     1     -12.292  10.962  71.112  1.00  0.00     0.000 HD 
ENDBRANCH  16  19
ENDBRANCH  15  16
ENDBRANCH  13  15
ENDBRANCH   6   9
ENDBRANCH   2   3
TORSDOF 5
ENDMDL
MODEL       49
REMARK 921   NORMALIZED FREE ENERGY PREDICTED BY IDOCK:   -6.35 KCAL/MOL
REMARK 922        TOTAL FREE ENERGY PREDICTED BY IDOCK:   -8.45 KCAL/MOL
REMARK 923 INTER-LIGAND FREE ENERGY PREDICTED BY IDOCK:   -8.10 KCAL/MOL
REMARK 924 INTRA-LIGAND FREE ENERGY PREDICTED BY IDOCK:   -0.35 KCAL/MOL
REMARK 927      BINDING AFFINITY PREDICTED BY RF-SCORE:    0.00 PKD
ROOT
HETATM    1  C   UNL     1     -10.396  17.459  66.094  1.00  0.00    -0.327 C  
HETATM    2  O   UNL     1     -10.621  16.431  65.133  1.00  0.00    -0.610 OA 
ENDROOT
BRANCH   2   3
HETATM    3  C   UNL     1     -10.874  15.180  65.636  1.00  0.00    -0.360 A  
HETATM    4  C   UNL     1     -10.556  13.981  65.007  1.00  0.00    -0.426 A  
HETATM    5  C   UNL     1     -10.884  12.764  65.607  1.00  0.00    -0.300 A  
HETATM    6  C   UNL     1     -11.520  12.719  66.856  1.00  0.00    -0.396 A  
HETATM    7  C   UNL     1     -11.497  15.148  66.886  1.00  0.00    -0.215 A  
HETATM    8  C   UNL     1     -11.819  13.930  67.493  1.00  0.00    -0.431 A  
BRANCH   6   9
HETATM    9  C   UNL     1     -11.876  11.378  67.478  1.00  0.00    -0.105 C  
HETATM   10  C   UNL     1     -11.263  11.049  68.884  1.00  0.00    -0.265 C  
HETATM   11  C   UNL     1     -11.878  11.989  69.939  1.00  0.00    -0.405 C  
HETATM   12  C   UNL     1      -9.727  11.181  68.864  1.00  0.00    -0.163 C  
HETATM   13  N   UNL     1     -11.639   9.647  69.204  1.00  0.00    -0.412 NA 
HETATM   14  H   UNL     1     -11.328   9.025  68.458  1.00  0.00     0.000 HD 
BRANCH  13  15
HETATM   15  C   UNL     1     -11.169   9.141  70.512  1.00  0.00    -0.264 C  
BRANCH  15  16
HETATM   16  C   UNL     1     -12.113   8.090  71.145  1.00  0.00    -0.265 C  
HETATM   17  H   UNL     1     -13.245   7.955  72.756  1.00  0.00     0.000 HD 
HETATM   18  O   UNL     1     -12.665   8.599  72.368  1.00  0.00    -0.383 OA 
BRANCH  16  19
HETATM   19  C   UNL     1     -11.436   6.753  71.352  1.00  0.00    -0.336 A  
HETATM   20  C   UNL     1     -10.851   6.064  70.276  1.00  0.00    -0.329 A  
HETATM   21  O   UNL     1     -10.966   6.625  69.029  1.00  0.00    -0.265 OA 
HETATM   22  C   UNL     1     -10.045   6.105  68.078  1.00  0.00    -0.153 C  
HETATM   23  C   UNL     1      -9.770   4.608  68.129  1.00  0.00    -0.138 C  
HETATM   24  O   UNL     1      -9.484   3.931  67.145  1.00  0.00    -0.179 OA 
HETATM   25  N   UNL     1      -9.762   4.085  69.394  1.00  0.00    -0.183 N  
HETATM   26  H   UNL     1      -9.404   3.142  69.543  1.00  0.00     0.000 HD 
HETATM   27  C   UNL     1     -10.235   4.820  70.486  1.00  0.00    -0.182 A  
HETATM   28  C   UNL     1     -10.139   4.280  71.767  1.00  0.00    -0.227 A  
HETATM   29  C   UNL     1     -10.679   4.983  72.836  1.00  0.00    -0.242 A  
HETATM   30  O   UNL     1     -10.610   4.517  74.114  1.00  0.00    -0.243 OA 
HETATM   31  C   UNL     1     -11.327   6.200  72.638  1.00  0.00    -0.298 A  
HETATM   32  H   UNL     1     -10.979   4.998  74.845  1.00  0.00     0.000 HD 
ENDBRANCH  16  19
ENDBRANCH  15  16
ENDBRANCH  13  15
ENDBRANCH   6   9
ENDBRANCH   2   3
TORSDOF 5
ENDMDL
MODEL       50
REMARK 921   NORMALIZED FREE ENERGY PREDICTED BY IDOCK:   -6.35 KCAL/MOL
REMARK 922        TOTAL FREE ENERGY PREDICTED BY IDOCK:   -8.45 KCAL/MOL
REMARK 923 INTER-LIGAND FREE ENERGY PREDICTED BY IDOCK:   -7.90 KCAL/MOL
REMARK 924 INTRA-LIGAND FREE ENERGY PREDICTED BY IDOCK:   -0.55 KCAL/MOL
REMARK 927      BINDING AFFINITY PREDICTED BY RF-SCORE:    0.00 PKD
ROOT
HETATM    1  C   UNL     1     -10.614  18.889  65.892  1.00  0.00    -0.373 C  
HETATM    2  O   UNL     1     -10.788  17.682  65.155  1.00  0.00    -0.664 OA 
ENDROOT
BRANCH   2   3
HETATM    3  C   UNL     1     -10.475  16.522  65.816  1.00  0.00    -0.329 A  
HETATM    4  C   UNL     1     -10.475  15.251  65.250  1.00  0.00    -0.436 A  
HETATM    5  C   UNL     1     -10.160  14.136  66.029  1.00  0.00    -0.330 A  
HETATM    6  C   UNL     1      -9.820  14.269  67.383  1.00  0.00    -0.235 A  
HETATM    7  C   UNL     1     -10.127  16.669  67.160  1.00  0.00    -0.276 A  
HETATM    8  C   UNL     1      -9.803  15.554  67.940  1.00  0.00    -0.216 A  
BRANCH   6   9
HETATM    9  C   UNL     1      -9.495  13.034  68.209  1.00  0.00    -0.208 C  
HETATM   10  C   UNL     1     -10.698  12.154  68.696  1.00  0.00    -0.233 C  
HETATM   11  C   UNL     1     -11.360  11.479  67.479  1.00  0.00    -0.366 C  
HETATM   12  C   UNL     1     -11.724  13.001  69.475  1.00  0.00    -0.381 C  
HETATM   13  N   UNL     1     -10.137  11.106  69.588  1.00  0.00    -0.401 NA 
HETATM   14  H   UNL     1      -9.605  11.540  70.342  1.00  0.00     0.000 HD 
BRANCH  13  15
HETATM   15  C   UNL     1     -11.116  10.148  70.146  1.00  0.00    -0.315 C  
BRANCH  15  16
HETATM   16  C   UNL     1     -10.467   9.001  70.957  1.00  0.00    -0.269 C  
HETATM   17  H   UNL     1      -8.779   8.704  71.935  1.00  0.00     0.000 HD 
HETATM   18  O   UNL     1      -9.177   9.408  71.437  1.00  0.00    -0.277 OA 
BRANCH  16  19
HETATM   19  C   UNL     1     -10.387   7.710  70.171  1.00  0.00    -0.217 A  
HETATM   20  C   UNL     1     -10.256   6.473  70.826  1.00  0.00    -0.187 A  
HETATM   21  O   UNL     1     -10.150   6.489  72.194  1.00  0.00    -0.180 OA 
HETATM   22  C   UNL     1     -10.413   5.232  72.806  1.00  0.00    -0.217 C  
HETATM   23  C   UNL     1      -9.883   3.994  72.097  1.00  0.00    -0.168 C  
HETATM   24  O   UNL     1      -9.534   2.970  72.677  1.00  0.00    -0.098 OA 
HETATM   25  N   UNL     1      -9.925   4.073  70.730  1.00  0.00    -0.156 N  
HETATM   26  H   UNL     1      -9.770   3.231  70.175  1.00  0.00     0.000 HD 
HETATM   27  C   UNL     1     -10.175   5.286  70.081  1.00  0.00    -0.280 A  
HETATM   28  C   UNL     1     -10.283   5.308  68.691  1.00  0.00    -0.223 A  
HETATM   29  C   UNL     1     -10.457   6.527  68.050  1.00  0.00    -0.216 A  
HETATM   30  O   UNL     1     -10.582   6.618  66.697  1.00  0.00    -0.438 OA 
HETATM   31  C   UNL     1     -10.502   7.717  68.773  1.00  0.00    -0.208 A  
HETATM   32  H   UNL     1     -10.700   7.451  66.257  1.00  0.00     0.000 HD 
ENDBRANCH  16  19
ENDBRANCH  15  16
ENDBRANCH  13  15
ENDBRANCH   6   9
ENDBRANCH   2   3
TORSDOF 5
ENDMDL
MODEL       51
REMARK 921   NORMALIZED FREE ENERGY PREDICTED BY IDOCK:   -6.32 KCAL/MOL
REMARK 922        TOTAL FREE ENERGY PREDICTED BY IDOCK:   -8.41 KCAL/MOL
REMARK 923 INTER-LIGAND FREE ENERGY PREDICTED BY IDOCK:   -7.24 KCAL/MOL
REMARK 924 INTRA-LIGAND FREE ENERGY PREDICTED BY IDOCK:   -1.17 KCAL/MOL
REMARK 927      BINDING AFFINITY PREDICTED BY RF-SCORE:    0.00 PKD
ROOT
HETATM    1  C   UNL     1     -12.410  13.105  63.089  1.00  0.00    -0.123 C  
HETATM    2  O   UNL     1     -12.160  14.133  64.042  1.00  0.00    -0.456 OA 
ENDROOT
BRANCH   2   3
HETATM    3  C   UNL     1     -11.482  13.756  65.173  1.00  0.00    -0.321 A  
HETATM    4  C   UNL     1     -10.229  14.226  65.553  1.00  0.00    -0.379 A  
HETATM    5  C   UNL     1      -9.624  13.752  66.717  1.00  0.00    -0.283 A  
HETATM    6  C   UNL     1     -10.266  12.812  67.537  1.00  0.00    -0.216 A  
HETATM    7  C   UNL     1     -12.136  12.829  65.987  1.00  0.00    -0.458 A  
HETATM    8  C   UNL     1     -11.535  12.358  67.159  1.00  0.00    -0.423 A  
BRANCH   6   9
HETATM    9  C   UNL     1      -9.575  12.304  68.793  1.00  0.00     0.049 C  
HETATM   10  C   UNL     1      -8.732  10.987  68.670  1.00  0.00    -0.161 C  
HETATM   11  C   UNL     1      -7.495  11.254  67.791  1.00  0.00    -0.095 C  
HETATM   12  C   UNL     1      -9.579   9.839  68.086  1.00  0.00    -0.158 C  
HETATM   13  N   UNL     1      -8.285  10.628  70.042  1.00  0.00    -0.307 NA 
HETATM   14  H   UNL     1      -9.092  10.551  70.662  1.00  0.00     0.000 HD 
BRANCH  13  15
HETATM   15  C   UNL     1      -7.451   9.411  70.146  1.00  0.00    -0.120 C  
BRANCH  15  16
HETATM   16  C   UNL     1      -7.912   8.437  71.257  1.00  0.00    -0.121 C  
HETATM   17  H   UNL     1      -7.077   7.074  72.415  1.00  0.00     0.000 HD 
HETATM   18  O   UNL     1      -6.795   7.671  71.733  1.00  0.00    -0.058 OA 
BRANCH  16  19
HETATM   19  C   UNL     1      -9.050   7.545  70.811  1.00  0.00    -0.154 A  
HETATM   20  C   UNL     1     -10.388   7.933  70.999  1.00  0.00    -0.201 A  
HETATM   21  O   UNL     1     -10.617   9.121  71.648  1.00  0.00    -0.339 OA 
HETATM   22  C   UNL     1     -11.930   9.633  71.460  1.00  0.00    -0.406 C  
HETATM   23  C   UNL     1     -13.072   8.626  71.459  1.00  0.00    -0.305 C  
HETATM   24  O   UNL     1     -14.209   8.880  71.848  1.00  0.00    -0.395 OA 
HETATM   25  N   UNL     1     -12.756   7.425  70.883  1.00  0.00    -0.581 N  
HETATM   26  H   UNL     1     -13.500   6.761  70.668  1.00  0.00     0.000 HD 
HETATM   27  C   UNL     1     -11.431   7.089  70.586  1.00  0.00    -0.324 A  
HETATM   28  C   UNL     1     -11.160   5.889  69.932  1.00  0.00    -0.417 A  
HETATM   29  C   UNL     1      -9.837   5.529  69.708  1.00  0.00    -0.194 A  
HETATM   30  O   UNL     1      -9.504   4.375  69.065  1.00  0.00    -0.142 OA 
HETATM   31  C   UNL     1      -8.791   6.337  70.145  1.00  0.00    -0.149 A  
HETATM   32  H   UNL     1      -8.600   4.129  68.911  1.00  0.00     0.000 HD 
ENDBRANCH  16  19
ENDBRANCH  15  16
ENDBRANCH  13  15
ENDBRANCH   6   9
ENDBRANCH   2   3
TORSDOF 5
ENDMDL
MODEL       52
REMARK 921   NORMALIZED FREE ENERGY PREDICTED BY IDOCK:   -6.30 KCAL/MOL
REMARK 922        TOTAL FREE ENERGY PREDICTED BY IDOCK:   -8.38 KCAL/MOL
REMARK 923 INTER-LIGAND FREE ENERGY PREDICTED BY IDOCK:   -8.19 KCAL/MOL
REMARK 924 INTRA-LIGAND FREE ENERGY PREDICTED BY IDOCK:   -0.19 KCAL/MOL
REMARK 927      BINDING AFFINITY PREDICTED BY RF-SCORE:    0.00 PKD
ROOT
HETATM    1  C   UNL     1     -10.377   7.502  73.242  1.00  0.00    -0.357 C  
HETATM    2  O   UNL     1     -11.674   8.075  73.102  1.00  0.00    -0.268 OA 
ENDROOT
BRANCH   2   3
HETATM    3  C   UNL     1     -11.822   8.994  72.095  1.00  0.00    -0.313 A  
HETATM    4  C   UNL     1     -12.981   9.715  71.829  1.00  0.00    -0.514 A  
HETATM    5  C   UNL     1     -13.021  10.611  70.759  1.00  0.00    -0.396 A  
HETATM    6  C   UNL     1     -11.898  10.819  69.944  1.00  0.00    -0.413 A  
HETATM    7  C   UNL     1     -10.693   9.201  71.298  1.00  0.00    -0.401 A  
HETATM    8  C   UNL     1     -10.728  10.105  70.231  1.00  0.00    -0.352 A  
BRANCH   6   9
HETATM    9  C   UNL     1     -11.977  11.792  68.778  1.00  0.00    -0.317 C  
HETATM   10  C   UNL     1     -11.440  13.246  69.015  1.00  0.00    -0.302 C  
HETATM   11  C   UNL     1      -9.912  13.201  69.204  1.00  0.00     0.350 C  
HETATM   12  C   UNL     1     -12.122  13.897  70.235  1.00  0.00    -0.423 C  
HETATM   13  N   UNL     1     -11.755  14.030  67.792  1.00  0.00    -0.348 NA 
HETATM   14  H   UNL     1     -12.755  13.981  67.595  1.00  0.00     0.000 HD 
BRANCH  13  15
HETATM   15  C   UNL     1     -11.311  15.441  67.803  1.00  0.00    -0.306 C  
BRANCH  15  16
HETATM   16  C   UNL     1     -10.541  15.858  66.527  1.00  0.00    -0.297 C  
HETATM   17  H   UNL     1      -9.054  15.142  65.444  1.00  0.00     0.000 HD 
HETATM   18  O   UNL     1      -9.527  14.887  66.227  1.00  0.00    -0.279 OA 
BRANCH  16  19
HETATM   19  C   UNL     1      -9.965  17.253  66.627  1.00  0.00    -0.296 A  
HETATM   20  C   UNL     1      -8.817  17.508  67.396  1.00  0.00    -0.229 A  
HETATM   21  O   UNL     1      -8.276  16.456  68.092  1.00  0.00    -0.163 OA 
HETATM   22  C   UNL     1      -6.937  16.676  68.517  1.00  0.00    -0.161 C  
HETATM   23  C   UNL     1      -6.590  18.073  69.016  1.00  0.00    -0.251 C  
HETATM   24  O   UNL     1      -5.743  18.302  69.874  1.00  0.00    -0.229 OA 
HETATM   25  N   UNL     1      -7.233  19.079  68.346  1.00  0.00    -0.274 N  
HETATM   26  H   UNL     1      -6.928  20.044  68.479  1.00  0.00     0.000 HD 
HETATM   27  C   UNL     1      -8.302  18.811  67.484  1.00  0.00    -0.265 A  
HETATM   28  C   UNL     1      -8.879  19.856  66.765  1.00  0.00    -0.422 A  
HETATM   29  C   UNL     1      -9.987  19.593  65.970  1.00  0.00    -0.422 A  
HETATM   30  O   UNL     1     -10.592  20.566  65.233  1.00  0.00    -0.217 OA 
HETATM   31  C   UNL     1     -10.532  18.313  65.902  1.00  0.00    -0.324 A  
HETATM   32  H   UNL     1     -11.349  20.386  64.689  1.00  0.00     0.000 HD 
ENDBRANCH  16  19
ENDBRANCH  15  16
ENDBRANCH  13  15
ENDBRANCH   6   9
ENDBRANCH   2   3
TORSDOF 5
ENDMDL
MODEL       53
REMARK 921   NORMALIZED FREE ENERGY PREDICTED BY IDOCK:   -6.28 KCAL/MOL
REMARK 922        TOTAL FREE ENERGY PREDICTED BY IDOCK:   -8.36 KCAL/MOL
REMARK 923 INTER-LIGAND FREE ENERGY PREDICTED BY IDOCK:   -8.72 KCAL/MOL
REMARK 924 INTRA-LIGAND FREE ENERGY PREDICTED BY IDOCK:    0.36 KCAL/MOL
REMARK 927      BINDING AFFINITY PREDICTED BY RF-SCORE:    0.00 PKD
ROOT
HETATM    1  C   UNL     1     -10.191   1.882  73.597  1.00  0.00    -0.097 C  
HETATM    2  O   UNL     1     -10.194   3.256  73.974  1.00  0.00    -0.125 OA 
ENDROOT
BRANCH   2   3
HETATM    3  C   UNL     1     -10.311   4.162  72.952  1.00  0.00    -0.173 A  
HETATM    4  C   UNL     1      -9.492   4.217  71.829  1.00  0.00    -0.206 A  
HETATM    5  C   UNL     1      -9.692   5.202  70.861  1.00  0.00    -0.252 A  
HETATM    6  C   UNL     1     -10.726   6.142  70.985  1.00  0.00    -0.317 A  
HETATM    7  C   UNL     1     -11.351   5.085  73.081  1.00  0.00    -0.397 A  
HETATM    8  C   UNL     1     -11.559   6.068  72.108  1.00  0.00    -0.348 A  
BRANCH   6   9
HETATM    9  C   UNL     1     -10.911   7.211  69.920  1.00  0.00    -0.276 C  
HETATM   10  C   UNL     1     -10.622   8.697  70.332  1.00  0.00    -0.220 C  
HETATM   11  C   UNL     1      -9.115   8.867  70.603  1.00  0.00    -0.247 C  
HETATM   12  C   UNL     1     -11.448   9.099  71.570  1.00  0.00    -0.437 C  
HETATM   13  N   UNL     1     -11.007   9.550  69.177  1.00  0.00    -0.390 NA 
HETATM   14  H   UNL     1     -11.978   9.370  68.919  1.00  0.00     0.000 HD 
BRANCH  13  15
HETATM   15  C   UNL     1     -10.794  11.004  69.356  1.00  0.00    -0.231 C  
BRANCH  15  16
HETATM   16  C   UNL     1     -11.897  11.875  68.707  1.00  0.00    -0.313 C  
HETATM   17  H   UNL     1     -12.606  12.185  66.892  1.00  0.00     0.000 HD 
HETATM   18  O   UNL     1     -11.929  11.651  67.290  1.00  0.00    -0.627 OA 
BRANCH  16  19
HETATM   19  C   UNL     1     -11.744  13.344  69.036  1.00  0.00    -0.368 A  
HETATM   20  C   UNL     1     -11.119  14.225  68.137  1.00  0.00    -0.258 A  
HETATM   21  O   UNL     1     -10.609  13.690  66.980  1.00  0.00    -0.271 OA 
HETATM   22  C   UNL     1     -10.355  14.655  65.966  1.00  0.00    -0.305 C  
HETATM   23  C   UNL     1      -9.777  15.991  66.412  1.00  0.00    -0.284 C  
HETATM   24  O   UNL     1      -9.026  16.676  65.723  1.00  0.00    -0.498 OA 
HETATM   25  N   UNL     1     -10.251  16.429  67.619  1.00  0.00    -0.265 N  
HETATM   26  H   UNL     1     -10.070  17.390  67.910  1.00  0.00     0.000 HD 
HETATM   27  C   UNL     1     -10.979  15.583  68.463  1.00  0.00    -0.288 A  
HETATM   28  C   UNL     1     -11.507  16.089  69.649  1.00  0.00    -0.326 A  
HETATM   29  C   UNL     1     -12.163  15.225  70.516  1.00  0.00    -0.371 A  
HETATM   30  O   UNL     1     -12.712  15.658  71.685  1.00  0.00    -0.401 OA 
HETATM   31  C   UNL     1     -12.277  13.869  70.224  1.00  0.00    -0.428 A  
HETATM   32  H   UNL     1     -13.161  15.067  72.278  1.00  0.00     0.000 HD 
ENDBRANCH  16  19
ENDBRANCH  15  16
ENDBRANCH  13  15
ENDBRANCH   6   9
ENDBRANCH   2   3
TORSDOF 5
ENDMDL
MODEL       54
REMARK 921   NORMALIZED FREE ENERGY PREDICTED BY IDOCK:   -6.25 KCAL/MOL
REMARK 922        TOTAL FREE ENERGY PREDICTED BY IDOCK:   -8.32 KCAL/MOL
REMARK 923 INTER-LIGAND FREE ENERGY PREDICTED BY IDOCK:   -7.42 KCAL/MOL
REMARK 924 INTRA-LIGAND FREE ENERGY PREDICTED BY IDOCK:   -0.89 KCAL/MOL
REMARK 927      BINDING AFFINITY PREDICTED BY RF-SCORE:    0.00 PKD
ROOT
HETATM    1  C   UNL     1      -9.763   2.913  73.880  1.00  0.00    -0.093 C  
HETATM    2  O   UNL     1     -10.238   4.256  73.876  1.00  0.00    -0.143 OA 
ENDROOT
BRANCH   2   3
HETATM    3  C   UNL     1     -10.463   4.813  72.643  1.00  0.00    -0.203 A  
HETATM    4  C   UNL     1     -11.227   5.951  72.402  1.00  0.00    -0.340 A  
HETATM    5  C   UNL     1     -11.404   6.413  71.097  1.00  0.00    -0.376 A  
HETATM    6  C   UNL     1     -10.808   5.761  70.008  1.00  0.00    -0.403 A  
HETATM    7  C   UNL     1      -9.854   4.162  71.568  1.00  0.00    -0.255 A  
HETATM    8  C   UNL     1     -10.024   4.629  70.261  1.00  0.00    -0.309 A  
BRANCH   6   9
HETATM    9  C   UNL     1     -11.031   6.282  68.597  1.00  0.00    -0.423 C  
HETATM   10  C   UNL     1      -9.959   7.267  68.014  1.00  0.00    -0.157 C  
HETATM   11  C   UNL     1      -8.636   6.509  67.797  1.00  0.00    -0.117 C  
HETATM   12  C   UNL     1      -9.750   8.475  68.949  1.00  0.00    -0.172 C  
HETATM   13  N   UNL     1     -10.471   7.737  66.700  1.00  0.00    -0.491 NA 
HETATM   14  H   UNL     1     -11.398   8.148  66.813  1.00  0.00     0.000 HD 
BRANCH  13  15
HETATM   15  C   UNL     1      -9.590   8.672  65.966  1.00  0.00    -0.195 C  
BRANCH  15  16
HETATM   16  C   UNL     1     -10.233  10.057  65.711  1.00  0.00    -0.200 C  
HETATM   17  H   UNL     1     -10.568  11.225  64.156  1.00  0.00     0.000 HD 
HETATM   18  O   UNL     1     -10.173  10.376  64.313  1.00  0.00    -0.323 OA 
BRANCH  16  19
HETATM   19  C   UNL     1      -9.617  11.148  66.559  1.00  0.00    -0.222 A  
HETATM   20  C   UNL     1     -10.335  11.734  67.615  1.00  0.00    -0.200 A  
HETATM   21  O   UNL     1     -11.628  11.318  67.810  1.00  0.00    -0.463 OA 
HETATM   22  C   UNL     1     -12.150  11.644  69.092  1.00  0.00    -0.251 C  
HETATM   23  C   UNL     1     -11.781  13.006  69.663  1.00  0.00    -0.297 C  
HETATM   24  O   UNL     1     -12.507  13.654  70.411  1.00  0.00    -0.326 OA 
HETATM   25  N   UNL     1     -10.510  13.413  69.357  1.00  0.00    -0.411 N  
HETATM   26  H   UNL     1     -10.109  14.215  69.844  1.00  0.00     0.000 HD 
HETATM   27  C   UNL     1      -9.750  12.751  68.387  1.00  0.00    -0.186 A  
HETATM   28  C   UNL     1      -8.434  13.151  68.158  1.00  0.00    -0.173 A  
HETATM   29  C   UNL     1      -7.712  12.539  67.143  1.00  0.00    -0.108 A  
HETATM   30  O   UNL     1      -6.419  12.874  66.875  1.00  0.00    -0.468 OA 
HETATM   31  C   UNL     1      -8.291  11.555  66.345  1.00  0.00    -0.118 A  
HETATM   32  H   UNL     1      -5.925  12.455  66.181  1.00  0.00     0.000 HD 
ENDBRANCH  16  19
ENDBRANCH  15  16
ENDBRANCH  13  15
ENDBRANCH   6   9
ENDBRANCH   2   3
TORSDOF 5
ENDMDL
MODEL       55
REMARK 921   NORMALIZED FREE ENERGY PREDICTED BY IDOCK:   -6.22 KCAL/MOL
REMARK 922        TOTAL FREE ENERGY PREDICTED BY IDOCK:   -8.29 KCAL/MOL
REMARK 923 INTER-LIGAND FREE ENERGY PREDICTED BY IDOCK:   -8.21 KCAL/MOL
REMARK 924 INTRA-LIGAND FREE ENERGY PREDICTED BY IDOCK:   -0.08 KCAL/MOL
REMARK 927      BINDING AFFINITY PREDICTED BY RF-SCORE:    0.00 PKD
ROOT
HETATM    1  C   UNL     1     -10.412   3.148  73.014  1.00  0.00    -0.163 C  
HETATM    2  O   UNL     1     -10.769   4.400  73.592  1.00  0.00    -0.206 OA 
ENDROOT
BRANCH   2   3
HETATM    3  C   UNL     1     -10.411   5.517  72.882  1.00  0.00    -0.195 A  
HETATM    4  C   UNL     1      -9.874   5.516  71.598  1.00  0.00    -0.221 A  
HETATM    5  C   UNL     1      -9.524   6.718  70.982  1.00  0.00    -0.165 A  
HETATM    6  C   UNL     1      -9.720   7.948  71.627  1.00  0.00    -0.207 A  
HETATM    7  C   UNL     1     -10.621   6.737  73.530  1.00  0.00    -0.358 A  
HETATM    8  C   UNL     1     -10.279   7.943  72.911  1.00  0.00    -0.397 A  
BRANCH   6   9
HETATM    9  C   UNL     1      -9.317   9.240  70.934  1.00  0.00    -0.313 C  
HETATM   10  C   UNL     1     -10.361   9.895  69.964  1.00  0.00    -0.272 C  
HETATM   11  C   UNL     1     -11.561  10.410  70.781  1.00  0.00    -0.450 C  
HETATM   12  C   UNL     1     -10.822   8.892  68.888  1.00  0.00    -0.052 C  
HETATM   13  N   UNL     1      -9.685  11.048  69.314  1.00  0.00    -0.419 NA 
HETATM   14  H   UNL     1      -8.829  10.737  68.856  1.00  0.00     0.000 HD 
BRANCH  13  15
HETATM   15  C   UNL     1     -10.513  11.823  68.363  1.00  0.00    -0.215 C  
BRANCH  15  16
HETATM   16  C   UNL     1      -9.934  11.862  66.928  1.00  0.00    -0.200 C  
HETATM   17  H   UNL     1      -8.151  11.740  66.090  1.00  0.00     0.000 HD 
HETATM   18  O   UNL     1      -8.507  11.717  66.970  1.00  0.00    -0.155 OA 
BRANCH  16  19
HETATM   19  C   UNL     1     -10.346  13.106  66.171  1.00  0.00    -0.287 A  
HETATM   20  C   UNL     1      -9.779  14.356  66.472  1.00  0.00    -0.290 A  
HETATM   21  O   UNL     1      -8.883  14.410  67.511  1.00  0.00    -0.175 OA 
HETATM   22  C   UNL     1      -8.072  15.579  67.510  1.00  0.00    -0.165 C  
HETATM   23  C   UNL     1      -8.748  16.888  67.123  1.00  0.00    -0.201 C  
HETATM   24  O   UNL     1      -8.417  17.985  67.565  1.00  0.00    -0.233 OA 
HETATM   25  N   UNL     1      -9.701  16.758  66.149  1.00  0.00    -0.296 N  
HETATM   26  H   UNL     1     -10.070  17.594  65.695  1.00  0.00     0.000 HD 
HETATM   27  C   UNL     1     -10.178  15.501  65.765  1.00  0.00    -0.366 A  
HETATM   28  C   UNL     1     -11.093  15.408  64.717  1.00  0.00    -0.416 A  
HETATM   29  C   UNL     1     -11.618  14.164  64.392  1.00  0.00    -0.362 A  
HETATM   30  O   UNL     1     -12.507  14.002  63.372  1.00  0.00    -1.108 OA 
HETATM   31  C   UNL     1     -11.260  13.025  65.109  1.00  0.00    -0.321 A  
HETATM   32  H   UNL     1     -12.867  13.152  63.150  1.00  0.00     0.000 HD 
ENDBRANCH  16  19
ENDBRANCH  15  16
ENDBRANCH  13  15
ENDBRANCH   6   9
ENDBRANCH   2   3
TORSDOF 5
ENDMDL
MODEL       56
REMARK 921   NORMALIZED FREE ENERGY PREDICTED BY IDOCK:   -6.21 KCAL/MOL
REMARK 922        TOTAL FREE ENERGY PREDICTED BY IDOCK:   -8.27 KCAL/MOL
REMARK 923 INTER-LIGAND FREE ENERGY PREDICTED BY IDOCK:   -7.65 KCAL/MOL
REMARK 924 INTRA-LIGAND FREE ENERGY PREDICTED BY IDOCK:   -0.62 KCAL/MOL
REMARK 927      BINDING AFFINITY PREDICTED BY RF-SCORE:    0.00 PKD
ROOT
HETATM    1  C   UNL     1      -9.140   1.976  74.026  1.00  0.00    -0.065 C  
HETATM    2  O   UNL     1      -9.308   3.353  74.351  1.00  0.00    -0.091 OA 
ENDROOT
BRANCH   2   3
HETATM    3  C   UNL     1      -9.729   4.167  73.331  1.00  0.00    -0.117 A  
HETATM    4  C   UNL     1      -9.062   4.354  72.125  1.00  0.00    -0.152 A  
HETATM    5  C   UNL     1      -9.576   5.228  71.166  1.00  0.00    -0.218 A  
HETATM    6  C   UNL     1     -10.777   5.920  71.384  1.00  0.00    -0.319 A  
HETATM    7  C   UNL     1     -10.932   4.841  73.555  1.00  0.00    -0.398 A  
HETATM    8  C   UNL     1     -11.453   5.711  72.592  1.00  0.00    -0.339 A  
BRANCH   6   9
HETATM    9  C   UNL     1     -11.304   6.875  70.325  1.00  0.00    -0.373 C  
HETATM   10  C   UNL     1     -10.727   8.334  70.319  1.00  0.00    -0.235 C  
HETATM   11  C   UNL     1      -9.243   8.292  69.906  1.00  0.00    -0.154 C  
HETATM   12  C   UNL     1     -10.891   9.001  71.699  1.00  0.00    -0.437 C  
HETATM   13  N   UNL     1     -11.493   9.099  69.301  1.00  0.00    -0.315 NA 
HETATM   14  H   UNL     1     -12.491   9.047  69.504  1.00  0.00     0.000 HD 
BRANCH  13  15
HETATM   15  C   UNL     1     -11.088  10.511  69.122  1.00  0.00    -0.250 C  
BRANCH  15  16
HETATM   16  C   UNL     1     -11.147  10.990  67.651  1.00  0.00    -0.300 C  
HETATM   17  H   UNL     1     -10.867  10.197  65.865  1.00  0.00     0.000 HD 
HETATM   18  O   UNL     1     -10.831   9.904  66.768  1.00  0.00    -0.140 OA 
BRANCH  16  19
HETATM   19  C   UNL     1     -10.262  12.191  67.397  1.00  0.00    -0.211 A  
HETATM   20  C   UNL     1     -10.703  13.257  66.595  1.00  0.00    -0.280 A  
HETATM   21  O   UNL     1     -11.941  13.140  66.013  1.00  0.00    -0.391 OA 
HETATM   22  C   UNL     1     -12.480  14.375  65.556  1.00  0.00    -0.347 C  
HETATM   23  C   UNL     1     -11.511  15.355  64.908  1.00  0.00    -0.311 C  
HETATM   24  O   UNL     1     -11.827  16.146  64.023  1.00  0.00    -0.876 OA 
HETATM   25  N   UNL     1     -10.262  15.359  65.470  1.00  0.00    -0.361 N  
HETATM   26  H   UNL     1      -9.609  16.106  65.231  1.00  0.00     0.000 HD 
HETATM   27  C   UNL     1      -9.865  14.360  66.363  1.00  0.00    -0.295 A  
HETATM   28  C   UNL     1      -8.613  14.443  66.970  1.00  0.00    -0.226 A  
HETATM   29  C   UNL     1      -8.197  13.408  67.798  1.00  0.00    -0.172 A  
HETATM   30  O   UNL     1      -6.991  13.432  68.430  1.00  0.00    -0.086 OA 
HETATM   31  C   UNL     1      -9.002  12.291  68.007  1.00  0.00    -0.190 A  
HETATM   32  H   UNL     1      -6.706  12.725  68.996  1.00  0.00     0.000 HD 
ENDBRANCH  16  19
ENDBRANCH  15  16
ENDBRANCH  13  15
ENDBRANCH   6   9
ENDBRANCH   2   3
TORSDOF 5
ENDMDL
MODEL       57
REMARK 921   NORMALIZED FREE ENERGY PREDICTED BY IDOCK:   -6.21 KCAL/MOL
REMARK 922        TOTAL FREE ENERGY PREDICTED BY IDOCK:   -8.27 KCAL/MOL
REMARK 923 INTER-LIGAND FREE ENERGY PREDICTED BY IDOCK:   -7.60 KCAL/MOL
REMARK 924 INTRA-LIGAND FREE ENERGY PREDICTED BY IDOCK:   -0.67 KCAL/MOL
REMARK 927      BINDING AFFINITY PREDICTED BY RF-SCORE:    0.00 PKD
ROOT
HETATM    1  C   UNL     1      -9.059  16.504  66.063  1.00  0.00    -0.255 C  
HETATM    2  O   UNL     1     -10.362  16.328  66.611  1.00  0.00    -0.291 OA 
ENDROOT
BRANCH   2   3
HETATM    3  C   UNL     1     -10.700  15.046  66.963  1.00  0.00    -0.304 A  
HETATM    4  C   UNL     1     -11.592  14.699  67.973  1.00  0.00    -0.366 A  
HETATM    5  C   UNL     1     -11.841  13.356  68.258  1.00  0.00    -0.393 A  
HETATM    6  C   UNL     1     -11.218  12.331  67.530  1.00  0.00    -0.354 A  
HETATM    7  C   UNL     1     -10.083  14.035  66.223  1.00  0.00    -0.307 A  
HETATM    8  C   UNL     1     -10.337  12.688  66.502  1.00  0.00    -0.256 A  
BRANCH   6   9
HETATM    9  C   UNL     1     -11.500  10.877  67.874  1.00  0.00    -0.344 C  
HETATM   10  C   UNL     1     -11.077  10.378  69.299  1.00  0.00    -0.253 C  
HETATM   11  C   UNL     1     -11.958  11.065  70.361  1.00  0.00    -0.459 C  
HETATM   12  C   UNL     1      -9.584  10.658  69.564  1.00  0.00    -0.060 C  
HETATM   13  N   UNL     1     -11.324   8.913  69.337  1.00  0.00    -0.413 NA 
HETATM   14  H   UNL     1     -10.829   8.456  68.571  1.00  0.00     0.000 HD 
BRANCH  13  15
HETATM   15  C   UNL     1     -11.004   8.242  70.617  1.00  0.00    -0.240 C  
BRANCH  15  16
HETATM   16  C   UNL     1     -11.667   6.852  70.769  1.00  0.00    -0.369 C  
HETATM   17  H   UNL     1     -12.590   5.844  72.193  1.00  0.00     0.000 HD 
HETATM   18  O   UNL     1     -12.183   6.697  72.099  1.00  0.00    -0.299 OA 
BRANCH  16  19
HETATM   19  C   UNL     1     -10.732   5.720  70.399  1.00  0.00    -0.372 A  
HETATM   20  C   UNL     1     -10.482   5.401  69.054  1.00  0.00    -0.182 A  
HETATM   21  O   UNL     1     -11.157   6.117  68.097  1.00  0.00    -0.332 OA 
HETATM   22  C   UNL     1     -10.585   6.023  66.798  1.00  0.00    -0.291 C  
HETATM   23  C   UNL     1     -10.045   4.663  66.377  1.00  0.00    -0.261 C  
HETATM   24  O   UNL     1     -10.034   4.261  65.217  1.00  0.00    -0.196 OA 
HETATM   25  N   UNL     1      -9.467   3.952  67.395  1.00  0.00    -0.192 N  
HETATM   26  H   UNL     1      -8.915   3.122  67.175  1.00  0.00     0.000 HD 
HETATM   27  C   UNL     1      -9.618   4.343  68.729  1.00  0.00    -0.155 A  
HETATM   28  C   UNL     1      -8.951   3.635  69.728  1.00  0.00    -0.171 A  
HETATM   29  C   UNL     1      -9.166   3.983  71.055  1.00  0.00    -0.134 A  
HETATM   30  O   UNL     1      -8.537   3.340  72.079  1.00  0.00    -0.076 OA 
HETATM   31  C   UNL     1     -10.049   5.005  71.394  1.00  0.00    -0.268 A  
HETATM   32  H   UNL     1      -8.684   3.577  72.987  1.00  0.00     0.000 HD 
ENDBRANCH  16  19
ENDBRANCH  15  16
ENDBRANCH  13  15
ENDBRANCH   6   9
ENDBRANCH   2   3
TORSDOF 5
ENDMDL
MODEL       58
REMARK 921   NORMALIZED FREE ENERGY PREDICTED BY IDOCK:   -6.17 KCAL/MOL
REMARK 922        TOTAL FREE ENERGY PREDICTED BY IDOCK:   -8.22 KCAL/MOL
REMARK 923 INTER-LIGAND FREE ENERGY PREDICTED BY IDOCK:   -8.03 KCAL/MOL
REMARK 924 INTRA-LIGAND FREE ENERGY PREDICTED BY IDOCK:   -0.19 KCAL/MOL
REMARK 927      BINDING AFFINITY PREDICTED BY RF-SCORE:    0.00 PKD
ROOT
HETATM    1  C   UNL     1      -8.936   4.786  74.440  1.00  0.00    -0.111 C  
HETATM    2  O   UNL     1      -8.839   6.197  74.273  1.00  0.00    -0.125 OA 
ENDROOT
BRANCH   2   3
HETATM    3  C   UNL     1      -9.239   6.689  73.057  1.00  0.00    -0.131 A  
HETATM    4  C   UNL     1      -8.414   6.869  71.951  1.00  0.00    -0.114 A  
HETATM    5  C   UNL     1      -8.930   7.401  70.769  1.00  0.00    -0.151 A  
HETATM    6  C   UNL     1     -10.285   7.748  70.659  1.00  0.00    -0.199 A  
HETATM    7  C   UNL     1     -10.592   7.020  72.957  1.00  0.00    -0.323 A  
HETATM    8  C   UNL     1     -11.113   7.546  71.770  1.00  0.00    -0.276 A  
BRANCH   6   9
HETATM    9  C   UNL     1     -10.814   8.338  69.362  1.00  0.00    -0.095 C  
HETATM   10  C   UNL     1     -10.771   9.899  69.209  1.00  0.00    -0.224 C  
HETATM   11  C   UNL     1      -9.305  10.361  69.118  1.00  0.00    -0.211 C  
HETATM   12  C   UNL     1     -11.490  10.591  70.384  1.00  0.00    -0.427 C  
HETATM   13  N   UNL     1     -11.465  10.229  67.936  1.00  0.00    -0.652 NA 
HETATM   14  H   UNL     1     -12.406   9.836  67.941  1.00  0.00     0.000 HD 
BRANCH  13  15
HETATM   15  C   UNL     1     -11.520  11.667  67.591  1.00  0.00    -0.303 C  
BRANCH  15  16
HETATM   16  C   UNL     1     -11.272  11.953  66.091  1.00  0.00    -0.333 C  
HETATM   17  H   UNL     1     -10.108  11.246  64.662  1.00  0.00     0.000 HD 
HETATM   18  O   UNL     1     -10.260  11.071  65.583  1.00  0.00    -0.243 OA 
BRANCH  16  19
HETATM   19  C   UNL     1     -10.931  13.403  65.826  1.00  0.00    -0.288 A  
HETATM   20  C   UNL     1      -9.799  13.998  66.409  1.00  0.00    -0.296 A  
HETATM   21  O   UNL     1      -9.052  13.229  67.266  1.00  0.00    -0.203 OA 
HETATM   22  C   UNL     1      -7.745  13.738  67.504  1.00  0.00    -0.176 C  
HETATM   23  C   UNL     1      -7.607  15.248  67.647  1.00  0.00    -0.172 C  
HETATM   24  O   UNL     1      -6.762  15.794  68.350  1.00  0.00    -0.110 OA 
HETATM   25  N   UNL     1      -8.446  15.964  66.835  1.00  0.00    -0.216 N  
HETATM   26  H   UNL     1      -8.298  16.967  66.723  1.00  0.00     0.000 HD 
HETATM   27  C   UNL     1      -9.503  15.347  66.159  1.00  0.00    -0.336 A  
HETATM   28  C   UNL     1     -10.287  16.098  65.284  1.00  0.00    -0.281 A  
HETATM   29  C   UNL     1     -11.379  15.496  64.674  1.00  0.00    -0.357 A  
HETATM   30  O   UNL     1     -12.179  16.169  63.801  1.00  0.00    -1.281 OA 
HETATM   31  C   UNL     1     -11.708  14.169  64.942  1.00  0.00    -0.395 A  
HETATM   32  H   UNL     1     -12.926  15.758  63.384  1.00  0.00     0.000 HD 
ENDBRANCH  16  19
ENDBRANCH  15  16
ENDBRANCH  13  15
ENDBRANCH   6   9
ENDBRANCH   2   3
TORSDOF 5
ENDMDL
MODEL       59
REMARK 921   NORMALIZED FREE ENERGY PREDICTED BY IDOCK:   -6.16 KCAL/MOL
REMARK 922        TOTAL FREE ENERGY PREDICTED BY IDOCK:   -8.21 KCAL/MOL
REMARK 923 INTER-LIGAND FREE ENERGY PREDICTED BY IDOCK:   -7.89 KCAL/MOL
REMARK 924 INTRA-LIGAND FREE ENERGY PREDICTED BY IDOCK:   -0.32 KCAL/MOL
REMARK 927      BINDING AFFINITY PREDICTED BY RF-SCORE:    0.00 PKD
ROOT
HETATM    1  C   UNL     1      -8.213   8.507  62.522  1.00  0.00    -0.189 C  
HETATM    2  O   UNL     1      -8.951   9.715  62.356  1.00  0.00    -0.235 OA 
ENDROOT
BRANCH   2   3
HETATM    3  C   UNL     1      -9.327  10.355  63.509  1.00  0.00    -0.297 A  
HETATM    4  C   UNL     1      -8.670  10.262  64.732  1.00  0.00    -0.201 A  
HETATM    5  C   UNL     1      -9.160  10.944  65.846  1.00  0.00    -0.212 A  
HETATM    6  C   UNL     1     -10.306  11.748  65.759  1.00  0.00    -0.293 A  
HETATM    7  C   UNL     1     -10.463  11.162  63.407  1.00  0.00    -0.382 A  
HETATM    8  C   UNL     1     -10.951  11.853  64.521  1.00  0.00    -0.376 A  
BRANCH   6   9
HETATM    9  C   UNL     1     -10.823  12.467  66.995  1.00  0.00    -0.287 C  
HETATM   10  C   UNL     1     -10.951  14.029  66.919  1.00  0.00    -0.298 C  
HETATM   11  C   UNL     1     -12.066  14.401  65.924  1.00  0.00    -0.358 C  
HETATM   12  C   UNL     1      -9.613  14.675  66.507  1.00  0.00    -0.308 C  
HETATM   13  N   UNL     1     -11.334  14.499  68.276  1.00  0.00    -0.282 NA 
HETATM   14  H   UNL     1     -10.656  14.169  68.964  1.00  0.00     0.000 HD 
BRANCH  13  15
HETATM   15  C   UNL     1     -11.525  15.960  68.418  1.00  0.00    -0.348 C  
BRANCH  15  16
HETATM   16  C   UNL     1     -10.292  16.691  69.002  1.00  0.00    -0.317 C  
HETATM   17  H   UNL     1      -9.796  17.533  70.717  1.00  0.00     0.000 HD 
HETATM   18  O   UNL     1     -10.552  17.085  70.358  1.00  0.00     0.148 OA 
BRANCH  16  19
HETATM   19  C   UNL     1      -9.860  17.867  68.154  1.00  0.00    -0.334 A  
HETATM   20  C   UNL     1      -8.629  18.507  68.378  1.00  0.00    -0.331 A  
HETATM   21  O   UNL     1      -7.865  18.058  69.427  1.00  0.00     0.073 OA 
HETATM   22  C   UNL     1      -6.503  18.463  69.360  1.00  0.00    -0.239 C  
HETATM   23  C   UNL     1      -6.226  19.878  68.872  1.00  0.00    -0.291 C  
HETATM   24  O   UNL     1      -5.270  20.555  69.242  1.00  0.00    -0.231 OA 
HETATM   25  N   UNL     1      -7.080  20.308  67.891  1.00  0.00    -0.291 N  
HETATM   26  H   UNL     1      -6.861  21.159  67.374  1.00  0.00     0.000 HD 
HETATM   27  C   UNL     1      -8.248  19.601  67.586  1.00  0.00    -0.300 A  
HETATM   28  C   UNL     1      -9.051  20.031  66.531  1.00  0.00    -0.452 A  
HETATM   29  C   UNL     1     -10.246  19.369  66.283  1.00  0.00    -0.478 A  
HETATM   30  O   UNL     1     -11.071  19.731  65.262  1.00  0.00    -0.395 OA 
HETATM   31  C   UNL     1     -10.656  18.306  67.084  1.00  0.00    -0.392 A  
HETATM   32  H   UNL     1     -11.889  19.279  65.092  1.00  0.00     0.000 HD 
ENDBRANCH  16  19
ENDBRANCH  15  16
ENDBRANCH  13  15
ENDBRANCH   6   9
ENDBRANCH   2   3
TORSDOF 5
ENDMDL
MODEL       60
REMARK 921   NORMALIZED FREE ENERGY PREDICTED BY IDOCK:   -6.15 KCAL/MOL
REMARK 922        TOTAL FREE ENERGY PREDICTED BY IDOCK:   -8.20 KCAL/MOL
REMARK 923 INTER-LIGAND FREE ENERGY PREDICTED BY IDOCK:   -7.59 KCAL/MOL
REMARK 924 INTRA-LIGAND FREE ENERGY PREDICTED BY IDOCK:   -0.61 KCAL/MOL
REMARK 927      BINDING AFFINITY PREDICTED BY RF-SCORE:    0.00 PKD
ROOT
HETATM    1  C   UNL     1      -7.434   2.408  65.426  1.00  0.00    -0.071 C  
HETATM    2  O   UNL     1      -6.924   3.702  65.734  1.00  0.00    -0.055 OA 
ENDROOT
BRANCH   2   3
HETATM    3  C   UNL     1      -7.834   4.612  66.209  1.00  0.00    -0.099 A  
HETATM    4  C   UNL     1      -8.632   4.438  67.335  1.00  0.00    -0.105 A  
HETATM    5  C   UNL     1      -9.542   5.428  67.711  1.00  0.00    -0.147 A  
HETATM    6  C   UNL     1      -9.661   6.620  66.980  1.00  0.00    -0.183 A  
HETATM    7  C   UNL     1      -7.935   5.799  65.480  1.00  0.00    -0.115 A  
HETATM    8  C   UNL     1      -8.840   6.796  65.860  1.00  0.00    -0.127 A  
BRANCH   6   9
HETATM    9  C   UNL     1     -10.670   7.673  67.407  1.00  0.00    -0.318 C  
HETATM   10  C   UNL     1     -10.113   8.978  68.076  1.00  0.00    -0.190 C  
HETATM   11  C   UNL     1      -9.327   9.790  67.030  1.00  0.00    -0.178 C  
HETATM   12  C   UNL     1      -9.222   8.642  69.289  1.00  0.00    -0.150 C  
HETATM   13  N   UNL     1     -11.287   9.771  68.525  1.00  0.00    -0.508 NA 
HETATM   14  H   UNL     1     -11.875   9.206  69.139  1.00  0.00     0.000 HD 
BRANCH  13  15
HETATM   15  C   UNL     1     -10.976  11.064  69.174  1.00  0.00    -0.237 C  
BRANCH  15  16
HETATM   16  C   UNL     1     -11.895  12.222  68.717  1.00  0.00    -0.306 C  
HETATM   17  H   UNL     1     -12.625  12.895  67.011  1.00  0.00     0.000 HD 
HETATM   18  O   UNL     1     -12.061  12.184  67.292  1.00  0.00    -0.565 OA 
BRANCH  16  19
HETATM   19  C   UNL     1     -11.400  13.574  69.185  1.00  0.00    -0.333 A  
HETATM   20  C   UNL     1     -11.986  14.215  70.290  1.00  0.00    -0.334 A  
HETATM   21  O   UNL     1     -13.053  13.593  70.889  1.00  0.00    -0.228 OA 
HETATM   22  C   UNL     1     -13.338  14.075  72.197  1.00  0.00    -0.453 C  
HETATM   23  C   UNL     1     -13.207  15.575  72.426  1.00  0.00    -0.455 C  
HETATM   24  O   UNL     1     -13.885  16.206  73.231  1.00  0.00    -0.559 OA 
HETATM   25  N   UNL     1     -12.183  16.158  71.727  1.00  0.00    -0.599 N  
HETATM   26  H   UNL     1     -11.900  17.111  71.957  1.00  0.00     0.000 HD 
HETATM   27  C   UNL     1     -11.519  15.472  70.705  1.00  0.00    -0.358 A  
HETATM   28  C   UNL     1     -10.434  16.074  70.070  1.00  0.00    -0.259 A  
HETATM   29  C   UNL     1      -9.829  15.418  69.006  1.00  0.00    -0.234 A  
HETATM   30  O   UNL     1      -8.758  15.946  68.350  1.00  0.00    -0.173 OA 
HETATM   31  C   UNL     1     -10.305  14.188  68.560  1.00  0.00    -0.249 A  
HETATM   32  H   UNL     1      -8.344  15.498  67.623  1.00  0.00     0.000 HD 
ENDBRANCH  16  19
ENDBRANCH  15  16
ENDBRANCH  13  15
ENDBRANCH   6   9
ENDBRANCH   2   3
TORSDOF 5
ENDMDL
MODEL       61
REMARK 921   NORMALIZED FREE ENERGY PREDICTED BY IDOCK:   -6.12 KCAL/MOL
REMARK 922        TOTAL FREE ENERGY PREDICTED BY IDOCK:   -8.15 KCAL/MOL
REMARK 923 INTER-LIGAND FREE ENERGY PREDICTED BY IDOCK:   -8.93 KCAL/MOL
REMARK 924 INTRA-LIGAND FREE ENERGY PREDICTED BY IDOCK:    0.78 KCAL/MOL
REMARK 927      BINDING AFFINITY PREDICTED BY RF-SCORE:    0.00 PKD
ROOT
HETATM    1  C   UNL     1      -9.570   1.742  72.969  1.00  0.00    -0.077 C  
HETATM    2  O   UNL     1      -9.676   3.149  73.163  1.00  0.00    -0.100 OA 
ENDROOT
BRANCH   2   3
HETATM    3  C   UNL     1      -9.948   3.893  72.043  1.00  0.00    -0.170 A  
HETATM    4  C   UNL     1      -9.573   3.561  70.746  1.00  0.00    -0.246 A  
HETATM    5  C   UNL     1      -9.887   4.410  69.684  1.00  0.00    -0.272 A  
HETATM    6  C   UNL     1     -10.599   5.600  69.893  1.00  0.00    -0.399 A  
HETATM    7  C   UNL     1     -10.668   5.070  72.263  1.00  0.00    -0.246 A  
HETATM    8  C   UNL     1     -10.991   5.919  71.199  1.00  0.00    -0.327 A  
BRANCH   6   9
HETATM    9  C   UNL     1     -10.915   6.511  68.717  1.00  0.00    -0.371 C  
HETATM   10  C   UNL     1     -10.143   7.874  68.633  1.00  0.00    -0.197 C  
HETATM   11  C   UNL     1      -8.654   7.599  68.348  1.00  0.00    -0.124 C  
HETATM   12  C   UNL     1     -10.308   8.686  69.933  1.00  0.00    -0.213 C  
HETATM   13  N   UNL     1     -10.723   8.633  67.495  1.00  0.00    -0.468 NA 
HETATM   14  H   UNL     1     -11.731   8.731  67.620  1.00  0.00     0.000 HD 
BRANCH  13  15
HETATM   15  C   UNL     1     -10.116   9.956  67.230  1.00  0.00    -0.211 C  
BRANCH  15  16
HETATM   16  C   UNL     1     -10.281  10.431  65.766  1.00  0.00    -0.235 C  
HETATM   17  H   UNL     1      -9.102  10.776  64.221  1.00  0.00     0.000 HD 
HETATM   18  O   UNL     1      -9.001  10.485  65.120  1.00  0.00    -0.175 OA 
BRANCH  16  19
HETATM   19  C   UNL     1     -11.014  11.751  65.664  1.00  0.00    -0.348 A  
HETATM   20  C   UNL     1     -11.300  12.509  66.812  1.00  0.00    -0.334 A  
HETATM   21  O   UNL     1     -10.938  11.980  68.026  1.00  0.00    -0.201 OA 
HETATM   22  C   UNL     1     -10.894  12.935  69.079  1.00  0.00    -0.145 C  
HETATM   23  C   UNL     1     -11.987  13.996  69.097  1.00  0.00    -0.360 C  
HETATM   24  O   UNL     1     -12.426  14.508  70.122  1.00  0.00    -0.331 OA 
HETATM   25  N   UNL     1     -12.375  14.417  67.853  1.00  0.00    -0.599 N  
HETATM   26  H   UNL     1     -12.959  15.249  67.766  1.00  0.00     0.000 HD 
HETATM   27  C   UNL     1     -11.988  13.727  66.699  1.00  0.00    -0.431 A  
HETATM   28  C   UNL     1     -12.343  14.232  65.450  1.00  0.00    -0.421 A  
HETATM   29  C   UNL     1     -12.019  13.502  64.313  1.00  0.00    -0.432 A  
HETATM   30  O   UNL     1     -12.326  13.944  63.062  1.00  0.00    -1.101 OA 
HETATM   31  C   UNL     1     -11.371  12.274  64.412  1.00  0.00    -0.396 A  
HETATM   32  H   UNL     1     -12.105  13.446  62.284  1.00  0.00     0.000 HD 
ENDBRANCH  16  19
ENDBRANCH  15  16
ENDBRANCH  13  15
ENDBRANCH   6   9
ENDBRANCH   2   3
TORSDOF 5
ENDMDL
MODEL       62
REMARK 921   NORMALIZED FREE ENERGY PREDICTED BY IDOCK:   -6.11 KCAL/MOL
REMARK 922        TOTAL FREE ENERGY PREDICTED BY IDOCK:   -8.15 KCAL/MOL
REMARK 923 INTER-LIGAND FREE ENERGY PREDICTED BY IDOCK:   -8.04 KCAL/MOL
REMARK 924 INTRA-LIGAND FREE ENERGY PREDICTED BY IDOCK:   -0.10 KCAL/MOL
REMARK 927      BINDING AFFINITY PREDICTED BY RF-SCORE:    0.00 PKD
ROOT
HETATM    1  C   UNL     1      -7.877   1.913  73.562  1.00  0.00    -0.042 C  
HETATM    2  O   UNL     1      -9.192   2.262  73.985  1.00  0.00    -0.075 OA 
ENDROOT
BRANCH   2   3
HETATM    3  C   UNL     1      -9.780   3.309  73.325  1.00  0.00    -0.107 A  
HETATM    4  C   UNL     1     -10.928   3.978  73.739  1.00  0.00    -0.326 A  
HETATM    5  C   UNL     1     -11.450   5.019  72.971  1.00  0.00    -0.344 A  
HETATM    6  C   UNL     1     -10.828   5.427  71.782  1.00  0.00    -0.242 A  
HETATM    7  C   UNL     1      -9.145   3.714  72.149  1.00  0.00    -0.151 A  
HETATM    8  C   UNL     1      -9.662   4.762  71.381  1.00  0.00    -0.240 A  
BRANCH   6   9
HETATM    9  C   UNL     1     -11.429   6.556  70.960  1.00  0.00    -0.392 C  
HETATM   10  C   UNL     1     -11.201   8.021  71.471  1.00  0.00    -0.255 C  
HETATM   11  C   UNL     1      -9.708   8.379  71.340  1.00  0.00    -0.260 C  
HETATM   12  C   UNL     1     -11.674   8.179  72.929  1.00  0.00    -0.194 C  
HETATM   13  N   UNL     1     -11.994   8.917  70.589  1.00  0.00    -0.471 NA 
HETATM   14  H   UNL     1     -12.972   8.624  70.585  1.00  0.00     0.000 HD 
BRANCH  13  15
HETATM   15  C   UNL     1     -11.902  10.362  70.894  1.00  0.00    -0.377 C  
BRANCH  15  16
HETATM   16  C   UNL     1     -11.637  11.241  69.648  1.00  0.00    -0.330 C  
HETATM   17  H   UNL     1     -10.133  11.578  68.416  1.00  0.00     0.000 HD 
HETATM   18  O   UNL     1     -10.295  11.039  69.181  1.00  0.00    -0.214 OA 
BRANCH  16  19
HETATM   19  C   UNL     1     -11.924  12.705  69.901  1.00  0.00    -0.365 A  
HETATM   20  C   UNL     1     -11.623  13.678  68.932  1.00  0.00    -0.322 A  
HETATM   21  O   UNL     1     -11.011  13.254  67.779  1.00  0.00    -0.248 OA 
HETATM   22  C   UNL     1     -11.091  14.189  66.709  1.00  0.00    -0.310 C  
HETATM   23  C   UNL     1     -10.930  15.661  67.064  1.00  0.00    -0.261 C  
HETATM   24  O   UNL     1     -10.443  16.497  66.309  1.00  0.00    -0.308 OA 
HETATM   25  N   UNL     1     -11.477  16.007  68.271  1.00  0.00    -0.334 N  
HETATM   26  H   UNL     1     -11.585  16.993  68.508  1.00  0.00     0.000 HD 
HETATM   27  C   UNL     1     -11.889  15.033  69.187  1.00  0.00    -0.308 A  
HETATM   28  C   UNL     1     -12.509  15.427  70.372  1.00  0.00    -0.447 A  
HETATM   29  C   UNL     1     -12.846  14.458  71.308  1.00  0.00    -0.342 A  
HETATM   30  O   UNL     1     -13.464  14.774  72.480  1.00  0.00    -0.377 OA 
HETATM   31  C   UNL     1     -12.555  13.115  71.086  1.00  0.00    -0.403 A  
HETATM   32  H   UNL     1     -13.695  14.112  73.121  1.00  0.00     0.000 HD 
ENDBRANCH  16  19
ENDBRANCH  15  16
ENDBRANCH  13  15
ENDBRANCH   6   9
ENDBRANCH   2   3
TORSDOF 5
ENDMDL
MODEL       63
REMARK 921   NORMALIZED FREE ENERGY PREDICTED BY IDOCK:   -6.05 KCAL/MOL
REMARK 922        TOTAL FREE ENERGY PREDICTED BY IDOCK:   -8.07 KCAL/MOL
REMARK 923 INTER-LIGAND FREE ENERGY PREDICTED BY IDOCK:   -7.58 KCAL/MOL
REMARK 924 INTRA-LIGAND FREE ENERGY PREDICTED BY IDOCK:   -0.49 KCAL/MOL
REMARK 927      BINDING AFFINITY PREDICTED BY RF-SCORE:    0.00 PKD
ROOT
HETATM    1  C   UNL     1      -9.802  20.694  67.236  1.00  0.00    -0.388 C  
HETATM    2  O   UNL     1     -10.919  19.812  67.167  1.00  0.00    -0.426 OA 
ENDROOT
BRANCH   2   3
HETATM    3  C   UNL     1     -10.632  18.471  67.177  1.00  0.00    -0.398 A  
HETATM    4  C   UNL     1     -10.441  17.699  68.318  1.00  0.00    -0.376 A  
HETATM    5  C   UNL     1     -10.129  16.343  68.204  1.00  0.00    -0.251 A  
HETATM    6  C   UNL     1     -10.019  15.727  66.949  1.00  0.00    -0.247 A  
HETATM    7  C   UNL     1     -10.536  17.867  65.922  1.00  0.00    -0.216 A  
HETATM    8  C   UNL     1     -10.232  16.506  65.805  1.00  0.00    -0.350 A  
BRANCH   6   9
HETATM    9  C   UNL     1      -9.665  14.251  66.857  1.00  0.00    -0.268 C  
HETATM   10  C   UNL     1     -10.832  13.217  67.029  1.00  0.00    -0.264 C  
HETATM   11  C   UNL     1     -11.787  13.323  65.825  1.00  0.00    -0.428 C  
HETATM   12  C   UNL     1     -11.590  13.452  68.351  1.00  0.00    -0.368 C  
HETATM   13  N   UNL     1     -10.215  11.865  67.042  1.00  0.00    -0.208 NA 
HETATM   14  H   UNL     1      -9.502  11.814  67.770  1.00  0.00     0.000 HD 
BRANCH  13  15
HETATM   15  C   UNL     1     -11.158  10.732  67.179  1.00  0.00    -0.227 C  
BRANCH  15  16
HETATM   16  C   UNL     1     -10.889   9.850  68.422  1.00  0.00    -0.221 C  
HETATM   17  H   UNL     1      -9.876  10.008  70.109  1.00  0.00     0.000 HD 
HETATM   18  O   UNL     1     -10.041  10.549  69.345  1.00  0.00    -0.222 OA 
BRANCH  16  19
HETATM   19  C   UNL     1     -10.323   8.495  68.061  1.00  0.00    -0.272 A  
HETATM   20  C   UNL     1     -10.394   7.418  68.961  1.00  0.00    -0.210 A  
HETATM   21  O   UNL     1     -10.946   7.661  70.194  1.00  0.00    -0.255 OA 
HETATM   22  C   UNL     1     -11.341   6.484  70.889  1.00  0.00    -0.337 C  
HETATM   23  C   UNL     1     -10.420   5.275  70.780  1.00  0.00    -0.228 C  
HETATM   24  O   UNL     1     -10.285   4.436  71.666  1.00  0.00    -0.181 OA 
HETATM   25  N   UNL     1      -9.822   5.138  69.556  1.00  0.00    -0.188 N  
HETATM   26  H   UNL     1      -9.343   4.267  69.328  1.00  0.00     0.000 HD 
HETATM   27  C   UNL     1      -9.856   6.169  68.612  1.00  0.00    -0.138 A  
HETATM   28  C   UNL     1      -9.301   5.961  67.350  1.00  0.00    -0.111 A  
HETATM   29  C   UNL     1      -9.272   7.014  66.446  1.00  0.00    -0.149 A  
HETATM   30  O   UNL     1      -8.754   6.874  65.194  1.00  0.00    -0.348 OA 
HETATM   31  C   UNL     1      -9.768   8.269  66.792  1.00  0.00    -0.307 A  
HETATM   32  H   UNL     1      -8.734   7.594  64.575  1.00  0.00     0.000 HD 
ENDBRANCH  16  19
ENDBRANCH  15  16
ENDBRANCH  13  15
ENDBRANCH   6   9
ENDBRANCH   2   3
TORSDOF 5
ENDMDL
MODEL       64
REMARK 921   NORMALIZED FREE ENERGY PREDICTED BY IDOCK:   -6.05 KCAL/MOL
REMARK 922        TOTAL FREE ENERGY PREDICTED BY IDOCK:   -8.06 KCAL/MOL
REMARK 923 INTER-LIGAND FREE ENERGY PREDICTED BY IDOCK:   -7.63 KCAL/MOL
REMARK 924 INTRA-LIGAND FREE ENERGY PREDICTED BY IDOCK:   -0.43 KCAL/MOL
REMARK 927      BINDING AFFINITY PREDICTED BY RF-SCORE:    0.00 PKD
ROOT
HETATM    1  C   UNL     1      -9.309   3.208  67.924  1.00  0.00    -0.201 C  
HETATM    2  O   UNL     1      -9.462   3.896  69.161  1.00  0.00    -0.162 OA 
ENDROOT
BRANCH   2   3
HETATM    3  C   UNL     1      -9.116   5.224  69.160  1.00  0.00    -0.108 A  
HETATM    4  C   UNL     1      -8.168   5.806  68.326  1.00  0.00    -0.108 A  
HETATM    5  C   UNL     1      -7.881   7.168  68.431  1.00  0.00    -0.122 A  
HETATM    6  C   UNL     1      -8.549   7.980  69.360  1.00  0.00    -0.136 A  
HETATM    7  C   UNL     1      -9.796   6.024  70.081  1.00  0.00    -0.217 A  
HETATM    8  C   UNL     1      -9.516   7.391  70.183  1.00  0.00    -0.165 A  
BRANCH   6   9
HETATM    9  C   UNL     1      -8.205   9.458  69.459  1.00  0.00    -0.124 C  
HETATM   10  C   UNL     1      -9.184  10.474  68.774  1.00  0.00    -0.177 C  
HETATM   11  C   UNL     1     -10.527  10.475  69.528  1.00  0.00    -0.265 C  
HETATM   12  C   UNL     1      -9.393  10.125  67.287  1.00  0.00    -0.173 C  
HETATM   13  N   UNL     1      -8.562  11.819  68.887  1.00  0.00    -0.370 NA 
HETATM   14  H   UNL     1      -7.625  11.805  68.483  1.00  0.00     0.000 HD 
BRANCH  13  15
HETATM   15  C   UNL     1      -9.343  12.937  68.312  1.00  0.00    -0.194 C  
BRANCH  15  16
HETATM   16  C   UNL     1      -8.638  13.638  67.125  1.00  0.00    -0.192 C  
HETATM   17  H   UNL     1      -7.093  14.839  66.874  1.00  0.00     0.000 HD 
HETATM   18  O   UNL     1      -7.525  14.409  67.602  1.00  0.00    -0.145 OA 
BRANCH  16  19
HETATM   19  C   UNL     1      -9.588  14.480  66.302  1.00  0.00    -0.328 A  
HETATM   20  C   UNL     1     -10.556  13.880  65.478  1.00  0.00    -0.311 A  
HETATM   21  O   UNL     1     -10.568  12.509  65.410  1.00  0.00    -0.268 OA 
HETATM   22  C   UNL     1     -11.779  11.970  64.894  1.00  0.00    -0.258 C  
HETATM   23  C   UNL     1     -12.429  12.714  63.736  1.00  0.00    -0.420 C  
HETATM   24  O   UNL     1     -13.092  12.169  62.858  1.00  0.00    -0.327 OA 
HETATM   25  N   UNL     1     -12.303  14.076  63.808  1.00  0.00    -0.976 N  
HETATM   26  H   UNL     1     -12.860  14.664  63.187  1.00  0.00     0.000 HD 
HETATM   27  C   UNL     1     -11.424  14.677  64.715  1.00  0.00    -0.410 A  
HETATM   28  C   UNL     1     -11.382  16.067  64.807  1.00  0.00    -0.285 A  
HETATM   29  C   UNL     1     -10.454  16.656  65.656  1.00  0.00    -0.297 A  
HETATM   30  O   UNL     1     -10.367  18.008  65.802  1.00  0.00    -0.583 OA 
HETATM   31  C   UNL     1      -9.561  15.880  66.391  1.00  0.00    -0.313 A  
HETATM   32  H   UNL     1      -9.733  18.411  66.382  1.00  0.00     0.000 HD 
ENDBRANCH  16  19
ENDBRANCH  15  16
ENDBRANCH  13  15
ENDBRANCH   6   9
ENDBRANCH   2   3
TORSDOF 5
ENDMDL
MODEL       65
REMARK 921   NORMALIZED FREE ENERGY PREDICTED BY IDOCK:   -6.04 KCAL/MOL
REMARK 922        TOTAL FREE ENERGY PREDICTED BY IDOCK:   -8.05 KCAL/MOL
REMARK 923 INTER-LIGAND FREE ENERGY PREDICTED BY IDOCK:   -7.85 KCAL/MOL
REMARK 924 INTRA-LIGAND FREE ENERGY PREDICTED BY IDOCK:   -0.20 KCAL/MOL
REMARK 927      BINDING AFFINITY PREDICTED BY RF-SCORE:    0.00 PKD
ROOT
HETATM    1  C   UNL     1     -12.491  16.160  73.735  1.00  0.00    -0.587 C  
HETATM    2  O   UNL     1     -13.280  15.929  72.571  1.00  0.00    -0.469 OA 
ENDROOT
BRANCH   2   3
HETATM    3  C   UNL     1     -13.058  14.745  71.917  1.00  0.00    -0.334 A  
HETATM    4  C   UNL     1     -13.422  13.487  72.386  1.00  0.00    -0.685 A  
HETATM    5  C   UNL     1     -13.123  12.346  71.641  1.00  0.00    -0.408 A  
HETATM    6  C   UNL     1     -12.470  12.438  70.402  1.00  0.00    -0.214 A  
HETATM    7  C   UNL     1     -12.417  14.851  70.680  1.00  0.00    -0.411 A  
HETATM    8  C   UNL     1     -12.124  13.709  69.928  1.00  0.00    -0.406 A  
BRANCH   6   9
HETATM    9  C   UNL     1     -12.146  11.175  69.620  1.00  0.00    -0.406 C  
HETATM   10  C   UNL     1     -11.234  11.325  68.353  1.00  0.00    -0.262 C  
HETATM   11  C   UNL     1      -9.812  11.722  68.793  1.00  0.00    -0.100 C  
HETATM   12  C   UNL     1     -11.813  12.366  67.374  1.00  0.00    -0.360 C  
HETATM   13  N   UNL     1     -11.185   9.994  67.693  1.00  0.00    -0.456 NA 
HETATM   14  H   UNL     1     -12.131   9.671  67.490  1.00  0.00     0.000 HD 
BRANCH  13  15
HETATM   15  C   UNL     1     -10.352   9.914  66.473  1.00  0.00    -0.188 C  
BRANCH  15  16
HETATM   16  C   UNL     1      -9.135   8.969  66.615  1.00  0.00    -0.160 C  
HETATM   17  H   UNL     1      -7.707   8.272  65.444  1.00  0.00     0.000 HD 
HETATM   18  O   UNL     1      -8.454   8.852  65.357  1.00  0.00    -0.141 OA 
BRANCH  16  19
HETATM   19  C   UNL     1      -9.516   7.613  67.170  1.00  0.00    -0.196 A  
HETATM   20  C   UNL     1      -9.384   7.331  68.540  1.00  0.00    -0.141 A  
HETATM   21  O   UNL     1      -8.848   8.310  69.339  1.00  0.00    -0.143 OA 
HETATM   22  C   UNL     1      -9.100   8.121  70.726  1.00  0.00    -0.146 C  
HETATM   23  C   UNL     1      -9.028   6.695  71.255  1.00  0.00    -0.144 C  
HETATM   24  O   UNL     1      -8.681   6.405  72.397  1.00  0.00    -0.121 OA 
HETATM   25  N   UNL     1      -9.488   5.750  70.377  1.00  0.00    -0.163 N  
HETATM   26  H   UNL     1      -9.655   4.799  70.706  1.00  0.00     0.000 HD 
HETATM   27  C   UNL     1      -9.735   6.065  69.036  1.00  0.00    -0.133 A  
HETATM   28  C   UNL     1     -10.274   5.094  68.194  1.00  0.00    -0.177 A  
HETATM   29  C   UNL     1     -10.445   5.391  66.848  1.00  0.00    -0.277 A  
HETATM   30  O   UNL     1     -10.977   4.492  65.974  1.00  0.00    -0.568 OA 
HETATM   31  C   UNL     1     -10.067   6.629  66.335  1.00  0.00    -0.052 A  
HETATM   32  H   UNL     1     -11.094   4.695  65.054  1.00  0.00     0.000 HD 
ENDBRANCH  16  19
ENDBRANCH  15  16
ENDBRANCH  13  15
ENDBRANCH   6   9
ENDBRANCH   2   3
TORSDOF 5
ENDMDL
MODEL       66
REMARK 921   NORMALIZED FREE ENERGY PREDICTED BY IDOCK:   -6.03 KCAL/MOL
REMARK 922        TOTAL FREE ENERGY PREDICTED BY IDOCK:   -8.03 KCAL/MOL
REMARK 923 INTER-LIGAND FREE ENERGY PREDICTED BY IDOCK:   -7.40 KCAL/MOL
REMARK 924 INTRA-LIGAND FREE ENERGY PREDICTED BY IDOCK:   -0.63 KCAL/MOL
REMARK 927      BINDING AFFINITY PREDICTED BY RF-SCORE:    0.00 PKD
ROOT
HETATM    1  C   UNL     1     -10.655  18.751  65.736  1.00  0.00    -0.271 C  
HETATM    2  O   UNL     1     -10.994  17.682  64.857  1.00  0.00    -0.886 OA 
ENDROOT
BRANCH   2   3
HETATM    3  C   UNL     1     -11.029  16.430  65.414  1.00  0.00    -0.160 A  
HETATM    4  C   UNL     1     -10.508  16.089  66.658  1.00  0.00    -0.304 A  
HETATM    5  C   UNL     1     -10.582  14.771  67.113  1.00  0.00    -0.285 A  
HETATM    6  C   UNL     1     -11.195  13.771  66.344  1.00  0.00    -0.321 A  
HETATM    7  C   UNL     1     -11.652  15.445  64.644  1.00  0.00    -0.311 A  
HETATM    8  C   UNL     1     -11.735  14.126  65.102  1.00  0.00    -0.361 A  
BRANCH   6   9
HETATM    9  C   UNL     1     -11.248  12.342  66.862  1.00  0.00    -0.359 C  
HETATM   10  C   UNL     1     -10.236  11.314  66.246  1.00  0.00    -0.236 C  
HETATM   11  C   UNL     1      -8.805  11.687  66.678  1.00  0.00    -0.187 C  
HETATM   12  C   UNL     1     -10.350  11.276  64.709  1.00  0.00    -0.366 C  
HETATM   13  N   UNL     1     -10.580   9.980  66.804  1.00  0.00    -0.194 NA 
HETATM   14  H   UNL     1     -11.559   9.765  66.615  1.00  0.00     0.000 HD 
BRANCH  13  15
HETATM   15  C   UNL     1      -9.723   8.859  66.359  1.00  0.00    -0.262 C  
BRANCH  15  16
HETATM   16  C   UNL     1      -8.717   8.384  67.434  1.00  0.00    -0.135 C  
HETATM   17  H   UNL     1      -6.909   7.591  67.466  1.00  0.00     0.000 HD 
HETATM   18  O   UNL     1      -7.527   7.883  66.806  1.00  0.00    -0.087 OA 
BRANCH  16  19
HETATM   19  C   UNL     1      -9.317   7.368  68.382  1.00  0.00    -0.144 A  
HETATM   20  C   UNL     1     -10.146   7.771  69.442  1.00  0.00    -0.195 A  
HETATM   21  O   UNL     1     -10.342   9.118  69.615  1.00  0.00    -0.203 OA 
HETATM   22  C   UNL     1     -11.467   9.436  70.426  1.00  0.00    -0.223 C  
HETATM   23  C   UNL     1     -11.716   8.550  71.640  1.00  0.00    -0.306 C  
HETATM   24  O   UNL     1     -12.231   8.946  72.682  1.00  0.00    -0.293 OA 
HETATM   25  N   UNL     1     -11.412   7.230  71.439  1.00  0.00    -0.258 N  
HETATM   26  H   UNL     1     -11.718   6.536  72.121  1.00  0.00     0.000 HD 
HETATM   27  C   UNL     1     -10.688   6.815  70.316  1.00  0.00    -0.244 A  
HETATM   28  C   UNL     1     -10.464   5.455  70.112  1.00  0.00    -0.361 A  
HETATM   29  C   UNL     1      -9.681   5.056  69.036  1.00  0.00    -0.170 A  
HETATM   30  O   UNL     1      -9.434   3.743  68.773  1.00  0.00    -0.161 OA 
HETATM   31  C   UNL     1      -9.106   5.995  68.183  1.00  0.00    -0.118 A  
HETATM   32  H   UNL     1      -8.898   3.470  68.037  1.00  0.00     0.000 HD 
ENDBRANCH  16  19
ENDBRANCH  15  16
ENDBRANCH  13  15
ENDBRANCH   6   9
ENDBRANCH   2   3
TORSDOF 5
ENDMDL
MODEL       67
REMARK 921   NORMALIZED FREE ENERGY PREDICTED BY IDOCK:   -6.00 KCAL/MOL
REMARK 922        TOTAL FREE ENERGY PREDICTED BY IDOCK:   -7.99 KCAL/MOL
REMARK 923 INTER-LIGAND FREE ENERGY PREDICTED BY IDOCK:   -7.45 KCAL/MOL
REMARK 924 INTRA-LIGAND FREE ENERGY PREDICTED BY IDOCK:   -0.54 KCAL/MOL
REMARK 927      BINDING AFFINITY PREDICTED BY RF-SCORE:    0.00 PKD
ROOT
HETATM    1  C   UNL     1     -12.239  14.388  64.128  1.00  0.00    -0.363 C  
HETATM    2  O   UNL     1     -12.475  12.992  63.964  1.00  0.00    -0.582 OA 
ENDROOT
BRANCH   2   3
HETATM    3  C   UNL     1     -11.659  12.154  64.681  1.00  0.00    -0.328 A  
HETATM    4  C   UNL     1     -10.759  11.247  64.132  1.00  0.00    -0.436 A  
HETATM    5  C   UNL     1      -9.994  10.427  64.963  1.00  0.00    -0.399 A  
HETATM    6  C   UNL     1     -10.099  10.508  66.359  1.00  0.00    -0.285 A  
HETATM    7  C   UNL     1     -11.765  12.253  66.070  1.00  0.00    -0.451 A  
HETATM    8  C   UNL     1     -10.993  11.438  66.905  1.00  0.00    -0.355 A  
BRANCH   6   9
HETATM    9  C   UNL     1      -9.262   9.592  67.238  1.00  0.00    -0.154 C  
HETATM   10  C   UNL     1      -9.384   8.047  66.991  1.00  0.00    -0.156 C  
HETATM   11  C   UNL     1      -8.780   7.702  65.617  1.00  0.00    -0.119 C  
HETATM   12  C   UNL     1     -10.853   7.587  67.073  1.00  0.00    -0.264 C  
HETATM   13  N   UNL     1      -8.592   7.374  68.053  1.00  0.00    -0.122 NA 
HETATM   14  H   UNL     1      -8.914   7.677  68.973  1.00  0.00     0.000 HD 
BRANCH  13  15
HETATM   15  C   UNL     1      -8.560   5.896  67.990  1.00  0.00    -0.113 C  
BRANCH  15  16
HETATM   16  C   UNL     1      -8.841   5.213  69.350  1.00  0.00    -0.099 C  
HETATM   17  H   UNL     1      -9.622   3.511  69.973  1.00  0.00     0.000 HD 
HETATM   18  O   UNL     1      -9.451   3.931  69.138  1.00  0.00    -0.162 OA 
BRANCH  16  19
HETATM   19  C   UNL     1      -9.669   6.078  70.274  1.00  0.00    -0.201 A  
HETATM   20  C   UNL     1      -9.059   6.882  71.252  1.00  0.00    -0.149 A  
HETATM   21  O   UNL     1      -7.693   6.809  71.368  1.00  0.00    -0.091 OA 
HETATM   22  C   UNL     1      -7.117   7.900  72.076  1.00  0.00    -0.074 C  
HETATM   23  C   UNL     1      -7.878   8.416  73.290  1.00  0.00    -0.079 C  
HETATM   24  O   UNL     1      -7.339   8.914  74.274  1.00  0.00    -0.409 OA 
HETATM   25  N   UNL     1      -9.240   8.377  73.153  1.00  0.00    -0.215 N  
HETATM   26  H   UNL     1      -9.825   8.869  73.828  1.00  0.00     0.000 HD 
HETATM   27  C   UNL     1      -9.844   7.673  72.106  1.00  0.00    -0.178 A  
HETATM   28  C   UNL     1     -11.229   7.721  71.959  1.00  0.00    -0.327 A  
HETATM   29  C   UNL     1     -11.826   6.959  70.963  1.00  0.00    -0.364 A  
HETATM   30  O   UNL     1     -13.173   6.969  70.759  1.00  0.00    -0.528 OA 
HETATM   31  C   UNL     1     -11.064   6.141  70.133  1.00  0.00    -0.448 A  
HETATM   32  H   UNL     1     -13.582   6.449  70.078  1.00  0.00     0.000 HD 
ENDBRANCH  16  19
ENDBRANCH  15  16
ENDBRANCH  13  15
ENDBRANCH   6   9
ENDBRANCH   2   3
TORSDOF 5
ENDMDL
MODEL       68
REMARK 921   NORMALIZED FREE ENERGY PREDICTED BY IDOCK:   -5.99 KCAL/MOL
REMARK 922        TOTAL FREE ENERGY PREDICTED BY IDOCK:   -7.98 KCAL/MOL
REMARK 923 INTER-LIGAND FREE ENERGY PREDICTED BY IDOCK:   -7.21 KCAL/MOL
REMARK 924 INTRA-LIGAND FREE ENERGY PREDICTED BY IDOCK:   -0.77 KCAL/MOL
REMARK 927      BINDING AFFINITY PREDICTED BY RF-SCORE:    0.00 PKD
ROOT
HETATM    1  C   UNL     1      -9.459   1.872  68.395  1.00  0.00    -0.176 C  
HETATM    2  O   UNL     1      -9.274   2.917  69.346  1.00  0.00    -0.121 OA 
ENDROOT
BRANCH   2   3
HETATM    3  C   UNL     1      -9.612   4.179  68.930  1.00  0.00    -0.152 A  
HETATM    4  C   UNL     1      -9.167   4.785  67.759  1.00  0.00    -0.145 A  
HETATM    5  C   UNL     1      -9.561   6.087  67.449  1.00  0.00    -0.118 A  
HETATM    6  C   UNL     1     -10.421   6.806  68.293  1.00  0.00    -0.243 A  
HETATM    7  C   UNL     1     -10.478   4.880  69.772  1.00  0.00    -0.074 A  
HETATM    8  C   UNL     1     -10.880   6.182  69.459  1.00  0.00    -0.428 A  
BRANCH   6   9
HETATM    9  C   UNL     1     -10.822   8.228  67.934  1.00  0.00    -0.037 C  
HETATM   10  C   UNL     1     -10.116   9.394  68.711  1.00  0.00    -0.193 C  
HETATM   11  C   UNL     1      -8.628   9.441  68.315  1.00  0.00    -0.120 C  
HETATM   12  C   UNL     1     -10.269   9.217  70.235  1.00  0.00    -0.253 C  
HETATM   13  N   UNL     1     -10.772  10.658  68.288  1.00  0.00    -0.202 NA 
HETATM   14  H   UNL     1     -11.778  10.599  68.448  1.00  0.00     0.000 HD 
BRANCH  13  15
HETATM   15  C   UNL     1     -10.236  11.894  68.898  1.00  0.00    -0.075 C  
BRANCH  15  16
HETATM   16  C   UNL     1      -9.830  12.971  67.862  1.00  0.00    -0.224 C  
HETATM   17  H   UNL     1      -9.589  14.929  67.839  1.00  0.00     0.000 HD 
HETATM   18  O   UNL     1      -9.838  14.269  68.475  1.00  0.00    -0.223 OA 
BRANCH  16  19
HETATM   19  C   UNL     1     -10.694  12.934  66.621  1.00  0.00    -0.280 A  
HETATM   20  C   UNL     1     -10.386  12.077  65.551  1.00  0.00    -0.263 A  
HETATM   21  O   UNL     1      -9.247  11.319  65.655  1.00  0.00    -0.214 OA 
HETATM   22  C   UNL     1      -9.203  10.219  64.754  1.00  0.00    -0.241 C  
HETATM   23  C   UNL     1      -9.737  10.457  63.347  1.00  0.00    -0.263 C  
HETATM   24  O   UNL     1      -9.312   9.882  62.349  1.00  0.00    -0.292 OA 
HETATM   25  N   UNL     1     -10.816  11.298  63.295  1.00  0.00    -0.785 N  
HETATM   26  H   UNL     1     -11.354  11.368  62.431  1.00  0.00     0.000 HD 
HETATM   27  C   UNL     1     -11.195  12.063  64.403  1.00  0.00    -0.344 A  
HETATM   28  C   UNL     1     -12.343  12.849  64.331  1.00  0.00    -0.468 A  
HETATM   29  C   UNL     1     -12.670  13.662  65.408  1.00  0.00    -0.453 A  
HETATM   30  O   UNL     1     -13.784  14.446  65.407  1.00  0.00    -0.381 OA 
HETATM   31  C   UNL     1     -11.857  13.715  66.538  1.00  0.00    -0.441 A  
HETATM   32  H   UNL     1     -14.008  15.002  66.143  1.00  0.00     0.000 HD 
ENDBRANCH  16  19
ENDBRANCH  15  16
ENDBRANCH  13  15
ENDBRANCH   6   9
ENDBRANCH   2   3
TORSDOF 5
ENDMDL
MODEL       69
REMARK 921   NORMALIZED FREE ENERGY PREDICTED BY IDOCK:   -5.98 KCAL/MOL
REMARK 922        TOTAL FREE ENERGY PREDICTED BY IDOCK:   -7.97 KCAL/MOL
REMARK 923 INTER-LIGAND FREE ENERGY PREDICTED BY IDOCK:   -6.92 KCAL/MOL
REMARK 924 INTRA-LIGAND FREE ENERGY PREDICTED BY IDOCK:   -1.05 KCAL/MOL
REMARK 927      BINDING AFFINITY PREDICTED BY RF-SCORE:    0.00 PKD
ROOT
HETATM    1  C   UNL     1     -10.017   3.346  62.462  1.00  0.00    -0.113 C  
HETATM    2  O   UNL     1      -9.255   2.567  63.379  1.00  0.00    -0.092 OA 
ENDROOT
BRANCH   2   3
HETATM    3  C   UNL     1      -8.917   3.181  64.558  1.00  0.00    -0.121 A  
HETATM    4  C   UNL     1      -8.211   2.588  65.599  1.00  0.00    -0.087 A  
HETATM    5  C   UNL     1      -7.944   3.307  66.765  1.00  0.00    -0.080 A  
HETATM    6  C   UNL     1      -8.359   4.639  66.908  1.00  0.00    -0.106 A  
HETATM    7  C   UNL     1      -9.326   4.510  64.683  1.00  0.00    -0.128 A  
HETATM    8  C   UNL     1      -9.052   5.236  65.847  1.00  0.00    -0.159 A  
BRANCH   6   9
HETATM    9  C   UNL     1      -8.064   5.392  68.195  1.00  0.00    -0.095 C  
HETATM   10  C   UNL     1      -9.147   5.334  69.329  1.00  0.00    -0.108 C  
HETATM   11  C   UNL     1      -9.225   3.900  69.886  1.00  0.00    -0.214 C  
HETATM   12  C   UNL     1     -10.523   5.792  68.805  1.00  0.00    -0.312 C  
HETATM   13  N   UNL     1      -8.695   6.251  70.408  1.00  0.00    -0.145 NA 
HETATM   14  H   UNL     1      -8.537   7.185  70.029  1.00  0.00     0.000 HD 
BRANCH  13  15
HETATM   15  C   UNL     1      -9.577   6.330  71.593  1.00  0.00    -0.154 C  
BRANCH  15  16
HETATM   16  C   UNL     1      -9.624   7.737  72.237  1.00  0.00    -0.176 C  
HETATM   17  H   UNL     1      -9.504   8.492  74.056  1.00  0.00     0.000 HD 
HETATM   18  O   UNL     1      -9.476   7.629  73.661  1.00  0.00    -0.262 OA 
BRANCH  16  19
HETATM   19  C   UNL     1     -10.872   8.505  71.863  1.00  0.00    -0.392 A  
HETATM   20  C   UNL     1     -10.941   9.232  70.662  1.00  0.00    -0.276 A  
HETATM   21  O   UNL     1      -9.816   9.261  69.875  1.00  0.00    -0.178 OA 
HETATM   22  C   UNL     1     -10.064   9.664  68.534  1.00  0.00    -0.175 C  
HETATM   23  C   UNL     1     -11.071  10.787  68.324  1.00  0.00    -0.271 C  
HETATM   24  O   UNL     1     -11.013  11.593  67.400  1.00  0.00    -0.231 OA 
HETATM   25  N   UNL     1     -12.123  10.763  69.200  1.00  0.00    -0.520 N  
HETATM   26  H   UNL     1     -12.936  11.354  69.022  1.00  0.00     0.000 HD 
HETATM   27  C   UNL     1     -12.104   9.946  70.335  1.00  0.00    -0.153 A  
HETATM   28  C   UNL     1     -13.226   9.896  71.160  1.00  0.00    -0.424 A  
HETATM   29  C   UNL     1     -13.172   9.140  72.324  1.00  0.00    -0.461 A  
HETATM   30  O   UNL     1     -14.236   9.039  73.168  1.00  0.00    -1.142 OA 
HETATM   31  C   UNL     1     -12.012   8.457  72.681  1.00  0.00    -0.346 A  
HETATM   32  H   UNL     1     -14.200   8.523  73.964  1.00  0.00     0.000 HD 
ENDBRANCH  16  19
ENDBRANCH  15  16
ENDBRANCH  13  15
ENDBRANCH   6   9
ENDBRANCH   2   3
TORSDOF 5
ENDMDL
MODEL       70
REMARK 921   NORMALIZED FREE ENERGY PREDICTED BY IDOCK:   -5.96 KCAL/MOL
REMARK 922        TOTAL FREE ENERGY PREDICTED BY IDOCK:   -7.95 KCAL/MOL
REMARK 923 INTER-LIGAND FREE ENERGY PREDICTED BY IDOCK:   -7.75 KCAL/MOL
REMARK 924 INTRA-LIGAND FREE ENERGY PREDICTED BY IDOCK:   -0.20 KCAL/MOL
REMARK 927      BINDING AFFINITY PREDICTED BY RF-SCORE:    0.00 PKD
ROOT
HETATM    1  C   UNL     1      -9.548   4.551  65.545  1.00  0.00    -0.185 C  
HETATM    2  O   UNL     1      -9.656   5.367  66.708  1.00  0.00    -0.130 OA 
ENDROOT
BRANCH   2   3
HETATM    3  C   UNL     1      -9.482   6.714  66.518  1.00  0.00    -0.152 A  
HETATM    4  C   UNL     1      -8.494   7.293  65.728  1.00  0.00    -0.148 A  
HETATM    5  C   UNL     1      -8.399   8.682  65.628  1.00  0.00    -0.151 A  
HETATM    6  C   UNL     1      -9.302   9.521  66.299  1.00  0.00    -0.242 A  
HETATM    7  C   UNL     1     -10.393   7.538  67.181  1.00  0.00    -0.384 A  
HETATM    8  C   UNL     1     -10.306   8.930  67.075  1.00  0.00    -0.340 A  
BRANCH   6   9
HETATM    9  C   UNL     1      -9.165  11.031  66.180  1.00  0.00    -0.209 C  
HETATM   10  C   UNL     1     -10.278  11.796  65.382  1.00  0.00    -0.261 C  
HETATM   11  C   UNL     1     -11.604  11.722  66.162  1.00  0.00    -0.215 C  
HETATM   12  C   UNL     1     -10.444  11.211  63.965  1.00  0.00    -0.447 C  
HETATM   13  N   UNL     1      -9.847  13.215  65.289  1.00  0.00    -0.502 NA 
HETATM   14  H   UNL     1      -8.920  13.271  64.868  1.00  0.00     0.000 HD 
BRANCH  13  15
HETATM   15  C   UNL     1     -10.778  14.122  64.581  1.00  0.00    -0.389 C  
BRANCH  15  16
HETATM   16  C   UNL     1     -11.215  15.343  65.425  1.00  0.00    -0.272 C  
HETATM   17  H   UNL     1     -11.280  17.302  65.198  1.00  0.00     0.000 HD 
HETATM   18  O   UNL     1     -11.012  16.553  64.680  1.00  0.00    -0.732 OA 
BRANCH  16  19
HETATM   19  C   UNL     1     -10.524  15.394  66.771  1.00  0.00    -0.299 A  
HETATM   20  C   UNL     1      -9.247  15.963  66.906  1.00  0.00    -0.226 A  
HETATM   21  O   UNL     1      -8.632  16.417  65.765  1.00  0.00    -0.398 OA 
HETATM   22  C   UNL     1      -7.553  17.311  66.011  1.00  0.00    -0.191 C  
HETATM   23  C   UNL     1      -6.646  16.991  67.192  1.00  0.00    -0.182 C  
HETATM   24  O   UNL     1      -5.452  17.272  67.232  1.00  0.00    -0.115 OA 
HETATM   25  N   UNL     1      -7.300  16.451  68.267  1.00  0.00    -0.153 N  
HETATM   26  H   UNL     1      -6.816  16.380  69.162  1.00  0.00     0.000 HD 
HETATM   27  C   UNL     1      -8.618  15.994  68.160  1.00  0.00    -0.171 A  
HETATM   28  C   UNL     1      -9.271  15.521  69.297  1.00  0.00    -0.268 A  
HETATM   29  C   UNL     1     -10.552  15.000  69.168  1.00  0.00    -0.251 A  
HETATM   30  O   UNL     1     -11.250  14.532  70.240  1.00  0.00    -0.414 OA 
HETATM   31  C   UNL     1     -11.174  14.928  67.924  1.00  0.00    -0.324 A  
HETATM   32  H   UNL     1     -12.126  14.176  70.152  1.00  0.00     0.000 HD 
ENDBRANCH  16  19
ENDBRANCH  15  16
ENDBRANCH  13  15
ENDBRANCH   6   9
ENDBRANCH   2   3
TORSDOF 5
ENDMDL
MODEL       71
REMARK 921   NORMALIZED FREE ENERGY PREDICTED BY IDOCK:   -5.95 KCAL/MOL
REMARK 922        TOTAL FREE ENERGY PREDICTED BY IDOCK:   -7.94 KCAL/MOL
REMARK 923 INTER-LIGAND FREE ENERGY PREDICTED BY IDOCK:   -8.28 KCAL/MOL
REMARK 924 INTRA-LIGAND FREE ENERGY PREDICTED BY IDOCK:    0.34 KCAL/MOL
REMARK 927      BINDING AFFINITY PREDICTED BY RF-SCORE:    0.00 PKD
ROOT
HETATM    1  C   UNL     1      -5.927  18.952  69.667  1.00  0.00    -0.264 C  
HETATM    2  O   UNL     1      -6.590  19.771  68.709  1.00  0.00    -0.283 OA 
ENDROOT
BRANCH   2   3
HETATM    3  C   UNL     1      -7.575  19.163  67.973  1.00  0.00    -0.277 A  
HETATM    4  C   UNL     1      -8.933  19.448  68.057  1.00  0.00    -0.371 A  
HETATM    5  C   UNL     1      -9.849  18.746  67.272  1.00  0.00    -0.355 A  
HETATM    6  C   UNL     1      -9.424  17.756  66.373  1.00  0.00    -0.277 A  
HETATM    7  C   UNL     1      -7.139  18.188  67.073  1.00  0.00    -0.217 A  
HETATM    8  C   UNL     1      -8.053  17.488  66.279  1.00  0.00    -0.289 A  
BRANCH   6   9
HETATM    9  C   UNL     1     -10.447  16.999  65.541  1.00  0.00    -0.181 C  
HETATM   10  C   UNL     1     -10.762  15.519  65.957  1.00  0.00    -0.326 C  
HETATM   11  C   UNL     1     -11.488  15.516  67.315  1.00  0.00    -0.102 C  
HETATM   12  C   UNL     1      -9.473  14.676  66.024  1.00  0.00    -0.273 C  
HETATM   13  N   UNL     1     -11.669  14.961  64.920  1.00  0.00    -0.384 NA 
HETATM   14  H   UNL     1     -11.242  15.054  63.998  1.00  0.00     0.000 HD 
BRANCH  13  15
HETATM   15  C   UNL     1     -12.106  13.564  65.136  1.00  0.00    -0.404 C  
BRANCH  15  16
HETATM   16  C   UNL     1     -11.803  12.629  63.940  1.00  0.00    -0.467 C  
HETATM   17  H   UNL     1     -12.839  11.516  62.683  1.00  0.00     0.000 HD 
HETATM   18  O   UNL     1     -13.025  12.089  63.417  1.00  0.00    -0.772 OA 
BRANCH  16  19
HETATM   19  C   UNL     1     -10.818  11.536  64.295  1.00  0.00    -0.421 A  
HETATM   20  C   UNL     1     -10.631  11.136  65.629  1.00  0.00    -0.223 A  
HETATM   21  O   UNL     1     -11.335  11.810  66.595  1.00  0.00    -0.324 OA 
HETATM   22  C   UNL     1     -11.407  11.122  67.839  1.00  0.00    -0.309 C  
HETATM   23  C   UNL     1     -10.153  10.388  68.296  1.00  0.00    -0.153 C  
HETATM   24  O   UNL     1      -9.844  10.231  69.473  1.00  0.00    -0.224 OA 
HETATM   25  N   UNL     1      -9.439   9.816  67.277  1.00  0.00    -0.151 N  
HETATM   26  H   UNL     1      -8.697   9.152  67.498  1.00  0.00     0.000 HD 
HETATM   27  C   UNL     1      -9.707  10.126  65.940  1.00  0.00    -0.232 A  
HETATM   28  C   UNL     1      -9.008   9.465  64.931  1.00  0.00    -0.256 A  
HETATM   29  C   UNL     1      -9.227   9.832  63.610  1.00  0.00    -0.183 A  
HETATM   30  O   UNL     1      -8.585   9.219  62.577  1.00  0.00    -0.194 OA 
HETATM   31  C   UNL     1     -10.112  10.858  63.289  1.00  0.00    -0.368 A  
HETATM   32  H   UNL     1      -8.734   9.469  61.673  1.00  0.00     0.000 HD 
ENDBRANCH  16  19
ENDBRANCH  15  16
ENDBRANCH  13  15
ENDBRANCH   6   9
ENDBRANCH   2   3
TORSDOF 5
ENDMDL
MODEL       72
REMARK 921   NORMALIZED FREE ENERGY PREDICTED BY IDOCK:   -5.94 KCAL/MOL
REMARK 922        TOTAL FREE ENERGY PREDICTED BY IDOCK:   -7.92 KCAL/MOL
REMARK 923 INTER-LIGAND FREE ENERGY PREDICTED BY IDOCK:   -7.24 KCAL/MOL
REMARK 924 INTRA-LIGAND FREE ENERGY PREDICTED BY IDOCK:   -0.68 KCAL/MOL
REMARK 927      BINDING AFFINITY PREDICTED BY RF-SCORE:    0.00 PKD
ROOT
HETATM    1  C   UNL     1      -6.410   3.426  65.858  1.00  0.00    -0.032 C  
HETATM    2  O   UNL     1      -7.331   4.358  65.299  1.00  0.00    -0.070 OA 
ENDROOT
BRANCH   2   3
HETATM    3  C   UNL     1      -7.614   5.460  66.065  1.00  0.00    -0.087 A  
HETATM    4  C   UNL     1      -6.673   6.241  66.729  1.00  0.00    -0.061 A  
HETATM    5  C   UNL     1      -7.082   7.329  67.500  1.00  0.00    -0.085 A  
HETATM    6  C   UNL     1      -8.438   7.672  67.610  1.00  0.00    -0.117 A  
HETATM    7  C   UNL     1      -8.966   5.798  66.157  1.00  0.00    -0.154 A  
HETATM    8  C   UNL     1      -9.377   6.894  66.923  1.00  0.00    -0.177 A  
BRANCH   6   9
HETATM    9  C   UNL     1      -8.854   8.856  68.469  1.00  0.00    -0.134 C  
HETATM   10  C   UNL     1      -9.150  10.211  67.736  1.00  0.00    -0.130 C  
HETATM   11  C   UNL     1     -10.423  10.058  66.881  1.00  0.00    -0.284 C  
HETATM   12  C   UNL     1      -7.955  10.642  66.863  1.00  0.00    -0.124 C  
HETATM   13  N   UNL     1      -9.391  11.231  68.789  1.00  0.00    -0.309 NA 
HETATM   14  H   UNL     1      -8.596  11.267  69.427  1.00  0.00     0.000 HD 
BRANCH  13  15
HETATM   15  C   UNL     1      -9.711  12.591  68.303  1.00  0.00    -0.220 C  
BRANCH  15  16
HETATM   16  C   UNL     1     -11.230  12.863  68.178  1.00  0.00    -0.270 C  
HETATM   17  H   UNL     1     -12.394  14.097  67.170  1.00  0.00     0.000 HD 
HETATM   18  O   UNL     1     -11.462  13.930  67.247  1.00  0.00    -0.311 OA 
BRANCH  16  19
HETATM   19  C   UNL     1     -11.881  13.138  69.516  1.00  0.00    -0.383 A  
HETATM   20  C   UNL     1     -12.270  12.085  70.361  1.00  0.00    -0.294 A  
HETATM   21  O   UNL     1     -12.085  10.804  69.901  1.00  0.00    -0.309 OA 
HETATM   22  C   UNL     1     -12.125   9.816  70.924  1.00  0.00    -0.321 C  
HETATM   23  C   UNL     1     -13.160  10.002  72.025  1.00  0.00    -0.441 C  
HETATM   24  O   UNL     1     -13.697   9.074  72.623  1.00  0.00    -0.470 OA 
HETATM   25  N   UNL     1     -13.373  11.308  72.376  1.00  0.00    -0.437 N  
HETATM   26  H   UNL     1     -13.901  11.520  73.222  1.00  0.00     0.000 HD 
HETATM   27  C   UNL     1     -12.880  12.359  71.595  1.00  0.00    -0.270 A  
HETATM   28  C   UNL     1     -13.055  13.672  72.027  1.00  0.00    -0.484 A  
HETATM   29  C   UNL     1     -12.629  14.711  71.210  1.00  0.00    -0.333 A  
HETATM   30  O   UNL     1     -12.759  16.016  71.577  1.00  0.00    -0.534 OA 
HETATM   31  C   UNL     1     -12.056  14.456  69.966  1.00  0.00    -0.401 A  
HETATM   32  H   UNL     1     -12.468  16.727  71.019  1.00  0.00     0.000 HD 
ENDBRANCH  16  19
ENDBRANCH  15  16
ENDBRANCH  13  15
ENDBRANCH   6   9
ENDBRANCH   2   3
TORSDOF 5
ENDMDL
MODEL       73
REMARK 921   NORMALIZED FREE ENERGY PREDICTED BY IDOCK:   -5.89 KCAL/MOL
REMARK 922        TOTAL FREE ENERGY PREDICTED BY IDOCK:   -7.85 KCAL/MOL
REMARK 923 INTER-LIGAND FREE ENERGY PREDICTED BY IDOCK:   -7.39 KCAL/MOL
REMARK 924 INTRA-LIGAND FREE ENERGY PREDICTED BY IDOCK:   -0.47 KCAL/MOL
REMARK 927      BINDING AFFINITY PREDICTED BY RF-SCORE:    0.00 PKD
ROOT
HETATM    1  C   UNL     1      -6.424   5.731  68.188  1.00  0.00    -0.043 C  
HETATM    2  O   UNL     1      -7.731   5.517  67.664  1.00  0.00    -0.091 OA 
ENDROOT
BRANCH   2   3
HETATM    3  C   UNL     1      -8.378   6.627  67.184  1.00  0.00    -0.113 A  
HETATM    4  C   UNL     1      -9.749   6.850  67.252  1.00  0.00    -0.184 A  
HETATM    5  C   UNL     1     -10.299   8.011  66.706  1.00  0.00    -0.360 A  
HETATM    6  C   UNL     1      -9.490   8.982  66.097  1.00  0.00    -0.318 A  
HETATM    7  C   UNL     1      -7.560   7.591  66.590  1.00  0.00    -0.097 A  
HETATM    8  C   UNL     1      -8.108   8.759  66.050  1.00  0.00    -0.112 A  
BRANCH   6   9
HETATM    9  C   UNL     1     -10.121  10.229  65.500  1.00  0.00    -0.351 C  
HETATM   10  C   UNL     1     -10.630  11.328  66.497  1.00  0.00    -0.266 C  
HETATM   11  C   UNL     1      -9.423  11.970  67.207  1.00  0.00    -0.181 C  
HETATM   12  C   UNL     1     -11.614  10.732  67.523  1.00  0.00    -0.011 C  
HETATM   13  N   UNL     1     -11.323  12.363  65.686  1.00  0.00    -0.332 NA 
HETATM   14  H   UNL     1     -12.060  11.932  65.128  1.00  0.00     0.000 HD 
BRANCH  13  15
HETATM   15  C   UNL     1     -11.868  13.511  66.442  1.00  0.00    -0.394 C  
BRANCH  15  16
HETATM   16  C   UNL     1     -11.151  14.849  66.140  1.00  0.00    -0.335 C  
HETATM   17  H   UNL     1      -9.501  15.423  65.222  1.00  0.00     0.000 HD 
HETATM   18  O   UNL     1      -9.941  14.602  65.409  1.00  0.00    -0.359 OA 
BRANCH  16  19
HETATM   19  C   UNL     1     -10.891  15.663  67.389  1.00  0.00    -0.315 A  
HETATM   20  C   UNL     1     -10.649  17.045  67.313  1.00  0.00    -0.267 A  
HETATM   21  O   UNL     1     -10.604  17.612  66.064  1.00  0.00    -0.338 OA 
HETATM   22  C   UNL     1     -10.748  19.027  66.070  1.00  0.00    -0.337 C  
HETATM   23  C   UNL     1     -10.051  19.789  67.189  1.00  0.00    -0.424 C  
HETATM   24  O   UNL     1      -9.612  20.929  67.070  1.00  0.00    -0.361 OA 
HETATM   25  N   UNL     1     -10.043  19.132  68.390  1.00  0.00    -0.401 N  
HETATM   26  H   UNL     1      -9.770  19.635  69.234  1.00  0.00     0.000 HD 
HETATM   27  C   UNL     1     -10.402  17.783  68.482  1.00  0.00    -0.364 A  
HETATM   28  C   UNL     1     -10.453  17.173  69.734  1.00  0.00     0.077 A  
HETATM   29  C   UNL     1     -10.737  15.815  69.809  1.00  0.00    -0.316 A  
HETATM   30  O   UNL     1     -10.814  15.160  71.001  1.00  0.00    -0.531 OA 
HETATM   31  C   UNL     1     -10.947  15.063  68.656  1.00  0.00    -0.261 A  
HETATM   32  H   UNL     1     -11.008  14.232  71.053  1.00  0.00     0.000 HD 
ENDBRANCH  16  19
ENDBRANCH  15  16
ENDBRANCH  13  15
ENDBRANCH   6   9
ENDBRANCH   2   3
TORSDOF 5
ENDMDL
MODEL       74
REMARK 921   NORMALIZED FREE ENERGY PREDICTED BY IDOCK:   -5.88 KCAL/MOL
REMARK 922        TOTAL FREE ENERGY PREDICTED BY IDOCK:   -7.84 KCAL/MOL
REMARK 923 INTER-LIGAND FREE ENERGY PREDICTED BY IDOCK:   -7.06 KCAL/MOL
REMARK 924 INTRA-LIGAND FREE ENERGY PREDICTED BY IDOCK:   -0.78 KCAL/MOL
REMARK 927      BINDING AFFINITY PREDICTED BY RF-SCORE:    0.00 PKD
ROOT
HETATM    1  C   UNL     1     -12.383  12.966  63.331  1.00  0.00    -0.410 C  
HETATM    2  O   UNL     1     -12.792  13.529  64.574  1.00  0.00    -0.645 OA 
ENDROOT
BRANCH   2   3
HETATM    3  C   UNL     1     -12.152  13.055  65.691  1.00  0.00    -0.454 A  
HETATM    4  C   UNL     1     -12.201  13.638  66.953  1.00  0.00    -0.398 A  
HETATM    5  C   UNL     1     -11.488  13.077  68.014  1.00  0.00    -0.348 A  
HETATM    6  C   UNL     1     -10.726  11.912  67.840  1.00  0.00    -0.239 A  
HETATM    7  C   UNL     1     -11.406  11.889  65.509  1.00  0.00    -0.334 A  
HETATM    8  C   UNL     1     -10.697  11.320  66.572  1.00  0.00    -0.323 A  
BRANCH   6   9
HETATM    9  C   UNL     1      -9.949  11.333  69.012  1.00  0.00    -0.124 C  
HETATM   10  C   UNL     1     -10.676  10.264  69.901  1.00  0.00    -0.294 C  
HETATM   11  C   UNL     1     -10.890   8.979  69.079  1.00  0.00    -0.092 C  
HETATM   12  C   UNL     1     -12.020  10.804  70.430  1.00  0.00    -0.448 C  
HETATM   13  N   UNL     1      -9.774   9.965  71.044  1.00  0.00    -0.229 NA 
HETATM   14  H   UNL     1      -9.539  10.826  71.537  1.00  0.00     0.000 HD 
BRANCH  13  15
HETATM   15  C   UNL     1     -10.271   8.954  72.004  1.00  0.00    -0.293 C  
BRANCH  15  16
HETATM   16  C   UNL     1      -9.154   8.058  72.592  1.00  0.00    -0.227 C  
HETATM   17  H   UNL     1      -7.227   8.228  72.985  1.00  0.00     0.000 HD 
HETATM   18  O   UNL     1      -7.913   8.777  72.624  1.00  0.00    -0.380 OA 
BRANCH  16  19
HETATM   19  C   UNL     1      -9.018   6.743  71.854  1.00  0.00    -0.135 A  
HETATM   20  C   UNL     1      -9.624   5.574  72.344  1.00  0.00    -0.150 A  
HETATM   21  O   UNL     1     -10.294   5.661  73.539  1.00  0.00    -0.199 OA 
HETATM   22  C   UNL     1     -11.190   4.582  73.775  1.00  0.00    -0.197 C  
HETATM   23  C   UNL     1     -10.728   3.194  73.353  1.00  0.00    -0.201 C  
HETATM   24  O   UNL     1     -11.062   2.159  73.923  1.00  0.00    -0.169 OA 
HETATM   25  N   UNL     1      -9.982   3.180  72.204  1.00  0.00    -0.167 N  
HETATM   26  H   UNL     1      -9.789   2.290  71.744  1.00  0.00     0.000 HD 
HETATM   27  C   UNL     1      -9.479   4.362  71.651  1.00  0.00    -0.153 A  
HETATM   28  C   UNL     1      -8.789   4.310  70.441  1.00  0.00    -0.133 A  
HETATM   29  C   UNL     1      -8.229   5.477  69.937  1.00  0.00    -0.105 A  
HETATM   30  O   UNL     1      -7.552   5.498  68.755  1.00  0.00    -0.081 OA 
HETATM   31  C   UNL     1      -8.331   6.679  70.632  1.00  0.00    -0.129 A  
HETATM   32  H   UNL     1      -7.169   6.296  68.409  1.00  0.00     0.000 HD 
ENDBRANCH  16  19
ENDBRANCH  15  16
ENDBRANCH  13  15
ENDBRANCH   6   9
ENDBRANCH   2   3
TORSDOF 5
ENDMDL
MODEL       75
REMARK 921   NORMALIZED FREE ENERGY PREDICTED BY IDOCK:   -5.87 KCAL/MOL
REMARK 922        TOTAL FREE ENERGY PREDICTED BY IDOCK:   -7.83 KCAL/MOL
REMARK 923 INTER-LIGAND FREE ENERGY PREDICTED BY IDOCK:   -7.46 KCAL/MOL
REMARK 924 INTRA-LIGAND FREE ENERGY PREDICTED BY IDOCK:   -0.38 KCAL/MOL
REMARK 927      BINDING AFFINITY PREDICTED BY RF-SCORE:    0.00 PKD
ROOT
HETATM    1  C   UNL     1     -13.241  15.957  73.238  1.00  0.00    -0.595 C  
HETATM    2  O   UNL     1     -12.669  15.642  71.972  1.00  0.00    -0.375 OA 
ENDROOT
BRANCH   2   3
HETATM    3  C   UNL     1     -12.710  14.322  71.603  1.00  0.00    -0.352 A  
HETATM    4  C   UNL     1     -13.319  13.303  72.328  1.00  0.00    -0.630 A  
HETATM    5  C   UNL     1     -13.276  11.988  71.863  1.00  0.00    -0.469 A  
HETATM    6  C   UNL     1     -12.641  11.665  70.655  1.00  0.00    -0.319 A  
HETATM    7  C   UNL     1     -12.084  14.015  70.392  1.00  0.00    -0.426 A  
HETATM    8  C   UNL     1     -12.047  12.699  69.920  1.00  0.00    -0.322 A  
BRANCH   6   9
HETATM    9  C   UNL     1     -12.600  10.221  70.181  1.00  0.00    -0.137 C  
HETATM   10  C   UNL     1     -11.266   9.427  70.403  1.00  0.00    -0.262 C  
HETATM   11  C   UNL     1     -11.050   9.205  71.912  1.00  0.00    -0.385 C  
HETATM   12  C   UNL     1     -10.067  10.173  69.784  1.00  0.00    -0.269 C  
HETATM   13  N   UNL     1     -11.430   8.108  69.737  1.00  0.00    -0.432 NA 
HETATM   14  H   UNL     1     -11.678   8.242  68.756  1.00  0.00     0.000 HD 
BRANCH  13  15
HETATM   15  C   UNL     1     -10.276   7.188  69.844  1.00  0.00    -0.207 C  
BRANCH  15  16
HETATM   16  C   UNL     1     -10.674   5.736  70.205  1.00  0.00    -0.309 C  
HETATM   17  H   UNL     1     -10.894   4.670  71.851  1.00  0.00     0.000 HD 
HETATM   18  O   UNL     1     -10.650   5.560  71.629  1.00  0.00    -0.225 OA 
BRANCH  16  19
HETATM   19  C   UNL     1      -9.815   4.708  69.502  1.00  0.00    -0.286 A  
HETATM   20  C   UNL     1      -9.909   4.516  68.113  1.00  0.00    -0.088 A  
HETATM   21  O   UNL     1     -10.844   5.256  67.434  1.00  0.00    -0.108 OA 
HETATM   22  C   UNL     1     -10.626   5.308  66.029  1.00  0.00    -0.119 C  
HETATM   23  C   UNL     1     -10.151   4.028  65.355  1.00  0.00    -0.151 C  
HETATM   24  O   UNL     1     -10.424   3.722  64.198  1.00  0.00    -0.240 OA 
HETATM   25  N   UNL     1      -9.293   3.281  66.119  1.00  0.00    -0.280 N  
HETATM   26  H   UNL     1      -8.779   2.513  65.687  1.00  0.00     0.000 HD 
HETATM   27  C   UNL     1      -9.110   3.552  67.479  1.00  0.00    -0.167 A  
HETATM   28  C   UNL     1      -8.172   2.816  68.201  1.00  0.00    -0.082 A  
HETATM   29  C   UNL     1      -8.050   3.039  69.566  1.00  0.00    -0.047 A  
HETATM   30  O   UNL     1      -7.146   2.363  70.329  1.00  0.00    -0.033 OA 
HETATM   31  C   UNL     1      -8.862   3.966  70.216  1.00  0.00    -0.141 A  
HETATM   32  H   UNL     1      -7.062   2.516  71.262  1.00  0.00     0.000 HD 
ENDBRANCH  16  19
ENDBRANCH  15  16
ENDBRANCH  13  15
ENDBRANCH   6   9
ENDBRANCH   2   3
TORSDOF 5
ENDMDL
MODEL       76
REMARK 921   NORMALIZED FREE ENERGY PREDICTED BY IDOCK:   -5.87 KCAL/MOL
REMARK 922        TOTAL FREE ENERGY PREDICTED BY IDOCK:   -7.83 KCAL/MOL
REMARK 923 INTER-LIGAND FREE ENERGY PREDICTED BY IDOCK:   -7.08 KCAL/MOL
REMARK 924 INTRA-LIGAND FREE ENERGY PREDICTED BY IDOCK:   -0.75 KCAL/MOL
REMARK 927      BINDING AFFINITY PREDICTED BY RF-SCORE:    0.00 PKD
ROOT
HETATM    1  C   UNL     1      -7.828   3.294  74.565  1.00  0.00    -0.061 C  
HETATM    2  O   UNL     1      -8.331   2.594  73.430  1.00  0.00    -0.063 OA 
ENDROOT
BRANCH   2   3
HETATM    3  C   UNL     1      -8.425   3.316  72.268  1.00  0.00    -0.079 A  
HETATM    4  C   UNL     1      -8.800   2.803  71.031  1.00  0.00    -0.141 A  
HETATM    5  C   UNL     1      -8.837   3.632  69.909  1.00  0.00    -0.151 A  
HETATM    6  C   UNL     1      -8.518   4.995  70.002  1.00  0.00    -0.096 A  
HETATM    7  C   UNL     1      -8.115   4.674  72.376  1.00  0.00    -0.106 A  
HETATM    8  C   UNL     1      -8.160   5.509  71.255  1.00  0.00    -0.113 A  
BRANCH   6   9
HETATM    9  C   UNL     1      -8.555   5.869  68.759  1.00  0.00    -0.110 C  
HETATM   10  C   UNL     1      -9.721   6.912  68.644  1.00  0.00    -0.136 C  
HETATM   11  C   UNL     1      -9.536   8.003  69.716  1.00  0.00    -0.171 C  
HETATM   12  C   UNL     1     -11.094   6.226  68.795  1.00  0.00    -0.424 C  
HETATM   13  N   UNL     1      -9.619   7.531  67.297  1.00  0.00    -0.147 NA 
HETATM   14  H   UNL     1      -9.635   6.807  66.579  1.00  0.00     0.000 HD 
BRANCH  13  15
HETATM   15  C   UNL     1     -10.629   8.568  66.990  1.00  0.00    -0.235 C  
BRANCH  15  16
HETATM   16  C   UNL     1     -10.021   9.884  66.448  1.00  0.00    -0.244 C  
HETATM   17  H   UNL     1      -8.220  10.670  66.265  1.00  0.00     0.000 HD 
HETATM   18  O   UNL     1      -8.593   9.863  66.598  1.00  0.00    -0.124 OA 
BRANCH  16  19
HETATM   19  C   UNL     1     -10.631  11.112  67.087  1.00  0.00    -0.286 A  
HETATM   20  C   UNL     1     -11.195  12.131  66.301  1.00  0.00    -0.334 A  
HETATM   21  O   UNL     1     -11.120  11.993  64.937  1.00  0.00    -0.302 OA 
HETATM   22  C   UNL     1     -12.026  12.827  64.225  1.00  0.00    -0.405 C  
HETATM   23  C   UNL     1     -12.229  14.239  64.756  1.00  0.00    -0.443 C  
HETATM   24  O   UNL     1     -12.493  15.206  64.046  1.00  0.00    -0.771 OA 
HETATM   25  N   UNL     1     -12.199  14.331  66.122  1.00  0.00    -0.430 N  
HETATM   26  H   UNL     1     -12.509  15.192  66.573  1.00  0.00     0.000 HD 
HETATM   27  C   UNL     1     -11.749  13.267  66.911  1.00  0.00    -0.388 A  
HETATM   28  C   UNL     1     -11.805  13.375  68.299  1.00  0.00    -0.393 A  
HETATM   29  C   UNL     1     -11.288  12.345  69.075  1.00  0.00    -0.283 A  
HETATM   30  O   UNL     1     -11.322  12.382  70.436  1.00  0.00    -0.413 OA 
HETATM   31  C   UNL     1     -10.701  11.230  68.484  1.00  0.00    -0.235 A  
HETATM   32  H   UNL     1     -10.968  11.678  70.966  1.00  0.00     0.000 HD 
ENDBRANCH  16  19
ENDBRANCH  15  16
ENDBRANCH  13  15
ENDBRANCH   6   9
ENDBRANCH   2   3
TORSDOF 5
ENDMDL
MODEL       77
REMARK 921   NORMALIZED FREE ENERGY PREDICTED BY IDOCK:   -5.87 KCAL/MOL
REMARK 922        TOTAL FREE ENERGY PREDICTED BY IDOCK:   -7.83 KCAL/MOL
REMARK 923 INTER-LIGAND FREE ENERGY PREDICTED BY IDOCK:   -7.13 KCAL/MOL
REMARK 924 INTRA-LIGAND FREE ENERGY PREDICTED BY IDOCK:   -0.71 KCAL/MOL
REMARK 927      BINDING AFFINITY PREDICTED BY RF-SCORE:    0.00 PKD
ROOT
HETATM    1  C   UNL     1     -14.138  15.140  72.175  1.00  0.00    -0.554 C  
HETATM    2  O   UNL     1     -13.662  13.897  72.684  1.00  0.00    -0.627 OA 
ENDROOT
BRANCH   2   3
HETATM    3  C   UNL     1     -13.136  13.029  71.762  1.00  0.00    -0.373 A  
HETATM    4  C   UNL     1     -13.115  11.644  71.883  1.00  0.00    -0.490 A  
HETATM    5  C   UNL     1     -12.529  10.861  70.887  1.00  0.00    -0.507 A  
HETATM    6  C   UNL     1     -11.968  11.444  69.741  1.00  0.00    -0.422 A  
HETATM    7  C   UNL     1     -12.591  13.621  70.621  1.00  0.00    -0.366 A  
HETATM    8  C   UNL     1     -12.011  12.838  69.618  1.00  0.00    -0.354 A  
BRANCH   6   9
HETATM    9  C   UNL     1     -11.325  10.565  68.681  1.00  0.00    -0.315 C  
HETATM   10  C   UNL     1      -9.758  10.513  68.639  1.00  0.00    -0.173 C  
HETATM   11  C   UNL     1      -9.239   9.803  69.905  1.00  0.00    -0.263 C  
HETATM   12  C   UNL     1      -9.159  11.929  68.523  1.00  0.00    -0.123 C  
HETATM   13  N   UNL     1      -9.382   9.713  67.445  1.00  0.00    -0.133 NA 
HETATM   14  H   UNL     1      -9.808  10.113  66.609  1.00  0.00     0.000 HD 
BRANCH  13  15
HETATM   15  C   UNL     1      -7.930   9.525  67.231  1.00  0.00    -0.106 C  
BRANCH  15  16
HETATM   16  C   UNL     1      -7.568   8.158  66.603  1.00  0.00    -0.093 C  
HETATM   17  H   UNL     1      -7.336   7.423  64.786  1.00  0.00     0.000 HD 
HETATM   18  O   UNL     1      -7.558   8.262  65.171  1.00  0.00    -0.084 OA 
BRANCH  16  19
HETATM   19  C   UNL     1      -8.478   7.044  67.075  1.00  0.00    -0.121 A  
HETATM   20  C   UNL     1      -8.328   6.482  68.354  1.00  0.00    -0.117 A  
HETATM   21  O   UNL     1      -7.295   6.943  69.131  1.00  0.00    -0.088 OA 
HETATM   22  C   UNL     1      -7.432   6.634  70.512  1.00  0.00    -0.087 C  
HETATM   23  C   UNL     1      -7.985   5.258  70.861  1.00  0.00    -0.099 C  
HETATM   24  O   UNL     1      -7.680   4.635  71.874  1.00  0.00    -0.091 OA 
HETATM   25  N   UNL     1      -8.946   4.808  69.996  1.00  0.00    -0.092 N  
HETATM   26  H   UNL     1      -9.504   3.992  70.248  1.00  0.00     0.000 HD 
HETATM   27  C   UNL     1      -9.176   5.444  68.771  1.00  0.00    -0.124 A  
HETATM   28  C   UNL     1     -10.213   4.999  67.954  1.00  0.00    -0.147 A  
HETATM   29  C   UNL     1     -10.387   5.587  66.708  1.00  0.00    -0.269 A  
HETATM   30  O   UNL     1     -11.388   5.207  65.866  1.00  0.00    -0.782 OA 
HETATM   31  C   UNL     1      -9.531   6.591  66.265  1.00  0.00    -0.126 A  
HETATM   32  H   UNL     1     -11.507   5.609  65.014  1.00  0.00     0.000 HD 
ENDBRANCH  16  19
ENDBRANCH  15  16
ENDBRANCH  13  15
ENDBRANCH   6   9
ENDBRANCH   2   3
TORSDOF 5
ENDMDL
MODEL       78
REMARK 921   NORMALIZED FREE ENERGY PREDICTED BY IDOCK:   -5.86 KCAL/MOL
REMARK 922        TOTAL FREE ENERGY PREDICTED BY IDOCK:   -7.82 KCAL/MOL
REMARK 923 INTER-LIGAND FREE ENERGY PREDICTED BY IDOCK:   -7.42 KCAL/MOL
REMARK 924 INTRA-LIGAND FREE ENERGY PREDICTED BY IDOCK:   -0.40 KCAL/MOL
REMARK 927      BINDING AFFINITY PREDICTED BY RF-SCORE:    0.00 PKD
ROOT
HETATM    1  C   UNL     1     -13.449  16.020  73.107  1.00  0.00    -0.504 C  
HETATM    2  O   UNL     1     -12.523  15.678  72.080  1.00  0.00    -0.358 OA 
ENDROOT
BRANCH   2   3
HETATM    3  C   UNL     1     -12.565  14.381  71.636  1.00  0.00    -0.353 A  
HETATM    4  C   UNL     1     -11.889  13.889  70.525  1.00  0.00    -0.317 A  
HETATM    5  C   UNL     1     -12.026  12.550  70.155  1.00  0.00    -0.377 A  
HETATM    6  C   UNL     1     -12.828  11.670  70.897  1.00  0.00    -0.264 A  
HETATM    7  C   UNL     1     -13.358  13.512  72.390  1.00  0.00    -0.641 A  
HETATM    8  C   UNL     1     -13.491  12.168  72.026  1.00  0.00    -0.388 A  
BRANCH   6   9
HETATM    9  C   UNL     1     -12.969  10.221  70.461  1.00  0.00    -0.251 C  
HETATM   10  C   UNL     1     -12.163   9.143  71.267  1.00  0.00    -0.327 C  
HETATM   11  C   UNL     1     -12.741   9.036  72.691  1.00  0.00    -0.279 C  
HETATM   12  C   UNL     1     -10.662   9.492  71.312  1.00  0.00    -0.386 C  
HETATM   13  N   UNL     1     -12.352   7.846  70.567  1.00  0.00    -0.434 NA 
HETATM   14  H   UNL     1     -12.071   7.933  69.590  1.00  0.00     0.000 HD 
BRANCH  13  15
HETATM   15  C   UNL     1     -11.681   6.681  71.184  1.00  0.00    -0.346 C  
BRANCH  15  16
HETATM   16  C   UNL     1     -10.902   5.807  70.171  1.00  0.00    -0.313 C  
HETATM   17  H   UNL     1      -9.761   4.198  70.235  1.00  0.00     0.000 HD 
HETATM   18  O   UNL     1     -10.239   4.734  70.856  1.00  0.00    -0.223 OA 
BRANCH  16  19
HETATM   19  C   UNL     1      -9.936   6.614  69.332  1.00  0.00    -0.169 A  
HETATM   20  C   UNL     1      -8.673   6.976  69.831  1.00  0.00    -0.142 A  
HETATM   21  O   UNL     1      -8.376   6.616  71.122  1.00  0.00    -0.122 OA 
HETATM   22  C   UNL     1      -6.987   6.657  71.425  1.00  0.00    -0.075 C  
HETATM   23  C   UNL     1      -6.185   7.811  70.838  1.00  0.00    -0.034 C  
HETATM   24  O   UNL     1      -5.202   8.308  71.381  1.00  0.00    -0.033 OA 
HETATM   25  N   UNL     1      -6.588   8.191  69.586  1.00  0.00    -0.037 N  
HETATM   26  H   UNL     1      -6.000   8.821  69.040  1.00  0.00     0.000 HD 
HETATM   27  C   UNL     1      -7.792   7.732  69.041  1.00  0.00    -0.118 A  
HETATM   28  C   UNL     1      -8.129   8.083  67.735  1.00  0.00    -0.128 A  
HETATM   29  C   UNL     1      -9.360   7.686  67.228  1.00  0.00    -0.144 A  
HETATM   30  O   UNL     1      -9.746   7.985  65.957  1.00  0.00    -0.435 OA 
HETATM   31  C   UNL     1     -10.259   6.968  68.013  1.00  0.00    -0.217 A  
HETATM   32  H   UNL     1     -10.587   7.713  65.610  1.00  0.00     0.000 HD 
ENDBRANCH  16  19
ENDBRANCH  15  16
ENDBRANCH  13  15
ENDBRANCH   6   9
ENDBRANCH   2   3
TORSDOF 5
ENDMDL
MODEL       79
REMARK 921   NORMALIZED FREE ENERGY PREDICTED BY IDOCK:   -5.86 KCAL/MOL
REMARK 922        TOTAL FREE ENERGY PREDICTED BY IDOCK:   -7.81 KCAL/MOL
REMARK 923 INTER-LIGAND FREE ENERGY PREDICTED BY IDOCK:   -7.82 KCAL/MOL
REMARK 924 INTRA-LIGAND FREE ENERGY PREDICTED BY IDOCK:    0.01 KCAL/MOL
REMARK 927      BINDING AFFINITY PREDICTED BY RF-SCORE:    0.00 PKD
ROOT
HETATM    1  C   UNL     1     -10.132   5.074  73.833  1.00  0.00    -0.198 C  
HETATM    2  O   UNL     1      -9.948   4.627  72.493  1.00  0.00    -0.156 OA 
ENDROOT
BRANCH   2   3
HETATM    3  C   UNL     1     -10.160   5.560  71.510  1.00  0.00    -0.205 A  
HETATM    4  C   UNL     1     -11.406   6.012  71.086  1.00  0.00    -0.300 A  
HETATM    5  C   UNL     1     -11.499   6.951  70.058  1.00  0.00    -0.328 A  
HETATM    6  C   UNL     1     -10.351   7.473  69.445  1.00  0.00    -0.213 A  
HETATM    7  C   UNL     1      -9.009   6.081  70.916  1.00  0.00    -0.146 A  
HETATM    8  C   UNL     1      -9.100   7.029  69.891  1.00  0.00    -0.141 A  
BRANCH   6   9
HETATM    9  C   UNL     1     -10.486   8.486  68.319  1.00  0.00    -0.222 C  
HETATM   10  C   UNL     1     -10.212   9.991  68.665  1.00  0.00    -0.180 C  
HETATM   11  C   UNL     1      -8.718  10.174  68.992  1.00  0.00    -0.161 C  
HETATM   12  C   UNL     1     -11.090  10.457  69.844  1.00  0.00    -0.367 C  
HETATM   13  N   UNL     1     -10.544  10.783  67.452  1.00  0.00    -0.226 NA 
HETATM   14  H   UNL     1     -11.503  10.590  67.162  1.00  0.00     0.000 HD 
BRANCH  13  15
HETATM   15  C   UNL     1     -10.336  12.243  67.564  1.00  0.00    -0.203 C  
BRANCH  15  16
HETATM   16  C   UNL     1     -11.653  13.053  67.633  1.00  0.00    -0.355 C  
HETATM   17  H   UNL     1     -12.754  14.121  66.392  1.00  0.00     0.000 HD 
HETATM   18  O   UNL     1     -11.946  13.624  66.349  1.00  0.00    -0.380 OA 
BRANCH  16  19
HETATM   19  C   UNL     1     -11.629  14.107  68.719  1.00  0.00    -0.362 A  
HETATM   20  C   UNL     1     -11.139  15.398  68.463  1.00  0.00    -0.295 A  
HETATM   21  O   UNL     1     -10.635  15.647  67.210  1.00  0.00    -0.294 OA 
HETATM   22  C   UNL     1     -10.527  17.030  66.898  1.00  0.00    -0.268 C  
HETATM   23  C   UNL     1     -10.062  17.956  68.015  1.00  0.00    -0.358 C  
HETATM   24  O   UNL     1      -9.417  18.984  67.828  1.00  0.00    -0.294 OA 
HETATM   25  N   UNL     1     -10.518  17.604  69.257  1.00  0.00    -0.379 N  
HETATM   26  H   UNL     1     -10.418  18.260  70.032  1.00  0.00     0.000 HD 
HETATM   27  C   UNL     1     -11.117  16.360  69.485  1.00  0.00    -0.293 A  
HETATM   28  C   UNL     1     -11.634  16.071  70.747  1.00  0.00    -0.431 A  
HETATM   29  C   UNL     1     -12.159  14.808  70.985  1.00  0.00    -0.330 A  
HETATM   30  O   UNL     1     -12.690  14.464  72.191  1.00  0.00    -0.324 OA 
HETATM   31  C   UNL     1     -12.153  13.831  69.992  1.00  0.00    -0.416 A  
HETATM   32  H   UNL     1     -13.049  13.600  72.354  1.00  0.00     0.000 HD 
ENDBRANCH  16  19
ENDBRANCH  15  16
ENDBRANCH  13  15
ENDBRANCH   6   9
ENDBRANCH   2   3
TORSDOF 5
ENDMDL
MODEL       80
REMARK 921   NORMALIZED FREE ENERGY PREDICTED BY IDOCK:   -5.84 KCAL/MOL
REMARK 922        TOTAL FREE ENERGY PREDICTED BY IDOCK:   -7.80 KCAL/MOL
REMARK 923 INTER-LIGAND FREE ENERGY PREDICTED BY IDOCK:   -7.13 KCAL/MOL
REMARK 924 INTRA-LIGAND FREE ENERGY PREDICTED BY IDOCK:   -0.67 KCAL/MOL
REMARK 927      BINDING AFFINITY PREDICTED BY RF-SCORE:    0.00 PKD
ROOT
HETATM    1  C   UNL     1      -9.179   3.470  67.393  1.00  0.00    -0.194 C  
HETATM    2  O   UNL     1      -8.658   4.630  68.036  1.00  0.00    -0.101 OA 
ENDROOT
BRANCH   2   3
HETATM    3  C   UNL     1      -9.154   5.833  67.604  1.00  0.00    -0.106 A  
HETATM    4  C   UNL     1     -10.502   6.167  67.527  1.00  0.00    -0.301 A  
HETATM    5  C   UNL     1     -10.889   7.419  67.048  1.00  0.00    -0.307 A  
HETATM    6  C   UNL     1      -9.938   8.371  66.652  1.00  0.00    -0.354 A  
HETATM    7  C   UNL     1      -8.196   6.777  67.224  1.00  0.00    -0.121 A  
HETATM    8  C   UNL     1      -8.582   8.035  66.751  1.00  0.00    -0.133 A  
BRANCH   6   9
HETATM    9  C   UNL     1     -10.392   9.722  66.122  1.00  0.00    -0.215 C  
HETATM   10  C   UNL     1     -10.530  10.893  67.156  1.00  0.00    -0.237 C  
HETATM   11  C   UNL     1      -9.133  11.282  67.675  1.00  0.00    -0.149 C  
HETATM   12  C   UNL     1     -11.455  10.496  68.323  1.00  0.00    -0.272 C  
HETATM   13  N   UNL     1     -11.116  12.048  66.427  1.00  0.00    -0.303 NA 
HETATM   14  H   UNL     1     -11.995  11.774  65.988  1.00  0.00     0.000 HD 
BRANCH  13  15
HETATM   15  C   UNL     1     -11.315  13.277  67.227  1.00  0.00    -0.314 C  
BRANCH  15  16
HETATM   16  C   UNL     1     -10.746  14.551  66.556  1.00  0.00    -0.312 C  
HETATM   17  H   UNL     1      -9.791  14.997  64.887  1.00  0.00     0.000 HD 
HETATM   18  O   UNL     1     -10.140  14.215  65.299  1.00  0.00    -0.354 OA 
BRANCH  16  19
HETATM   19  C   UNL     1      -9.787  15.301  67.455  1.00  0.00    -0.213 A  
HETATM   20  C   UNL     1      -9.751  16.706  67.461  1.00  0.00    -0.247 A  
HETATM   21  O   UNL     1     -10.578  17.363  66.584  1.00  0.00    -0.281 OA 
HETATM   22  C   UNL     1     -10.781  18.734  66.905  1.00  0.00    -0.337 C  
HETATM   23  C   UNL     1      -9.575  19.511  67.417  1.00  0.00    -0.334 C  
HETATM   24  O   UNL     1      -9.403  20.711  67.227  1.00  0.00    -0.401 OA 
HETATM   25  N   UNL     1      -8.734  18.776  68.210  1.00  0.00    -0.322 N  
HETATM   26  H   UNL     1      -8.010  19.252  68.747  1.00  0.00     0.000 HD 
HETATM   27  C   UNL     1      -8.849  17.385  68.296  1.00  0.00    -0.264 A  
HETATM   28  C   UNL     1      -8.023  16.683  69.171  1.00  0.00    -0.154 A  
HETATM   29  C   UNL     1      -8.092  15.296  69.195  1.00  0.00    -0.228 A  
HETATM   30  O   UNL     1      -7.320  14.551  70.035  1.00  0.00    -0.392 OA 
HETATM   31  C   UNL     1      -8.954  14.607  68.347  1.00  0.00    -0.180 A  
HETATM   32  H   UNL     1      -7.367  13.603  70.052  1.00  0.00     0.000 HD 
ENDBRANCH  16  19
ENDBRANCH  15  16
ENDBRANCH  13  15
ENDBRANCH   6   9
ENDBRANCH   2   3
TORSDOF 5
ENDMDL
MODEL       81
REMARK 921   NORMALIZED FREE ENERGY PREDICTED BY IDOCK:   -5.83 KCAL/MOL
REMARK 922        TOTAL FREE ENERGY PREDICTED BY IDOCK:   -7.78 KCAL/MOL
REMARK 923 INTER-LIGAND FREE ENERGY PREDICTED BY IDOCK:   -6.97 KCAL/MOL
REMARK 924 INTRA-LIGAND FREE ENERGY PREDICTED BY IDOCK:   -0.81 KCAL/MOL
REMARK 927      BINDING AFFINITY PREDICTED BY RF-SCORE:    0.00 PKD
ROOT
HETATM    1  C   UNL     1     -10.476   8.449  67.066  1.00  0.00    -0.305 C  
HETATM    2  O   UNL     1     -11.005   9.719  67.437  1.00  0.00    -0.259 OA 
ENDROOT
BRANCH   2   3
HETATM    3  C   UNL     1     -10.120  10.766  67.430  1.00  0.00    -0.193 A  
HETATM    4  C   UNL     1      -8.772  10.682  67.763  1.00  0.00    -0.129 A  
HETATM    5  C   UNL     1      -7.970  11.825  67.740  1.00  0.00    -0.141 A  
HETATM    6  C   UNL     1      -8.494  13.071  67.367  1.00  0.00    -0.200 A  
HETATM    7  C   UNL     1     -10.650  12.000  67.045  1.00  0.00    -0.258 A  
HETATM    8  C   UNL     1      -9.847  13.145  67.014  1.00  0.00    -0.244 A  
BRANCH   6   9
HETATM    9  C   UNL     1      -7.598  14.300  67.365  1.00  0.00    -0.185 C  
HETATM   10  C   UNL     1      -7.311  14.986  68.747  1.00  0.00    -0.125 C  
HETATM   11  C   UNL     1      -6.451  14.046  69.612  1.00  0.00    -0.122 C  
HETATM   12  C   UNL     1      -8.625  15.345  69.471  1.00  0.00    -0.212 C  
HETATM   13  N   UNL     1      -6.543  16.226  68.465  1.00  0.00    -0.127 NA 
HETATM   14  H   UNL     1      -7.057  16.812  67.807  1.00  0.00     0.000 HD 
BRANCH  13  15
HETATM   15  C   UNL     1      -6.151  17.021  69.650  1.00  0.00    -0.231 C  
BRANCH  15  16
HETATM   16  C   UNL     1      -5.913  18.518  69.339  1.00  0.00    -0.251 C  
HETATM   17  H   UNL     1      -5.601  20.172  70.371  1.00  0.00     0.000 HD 
HETATM   18  O   UNL     1      -5.748  19.253  70.561  1.00  0.00    -0.235 OA 
BRANCH  16  19
HETATM   19  C   UNL     1      -7.004  19.112  68.475  1.00  0.00    -0.318 A  
HETATM   20  C   UNL     1      -6.739  19.523  67.158  1.00  0.00    -0.195 A  
HETATM   21  O   UNL     1      -5.446  19.414  66.709  1.00  0.00    -0.164 OA 
HETATM   22  C   UNL     1      -5.324  19.468  65.293  1.00  0.00    -0.162 C  
HETATM   23  C   UNL     1      -6.219  20.457  64.558  1.00  0.00    -0.293 C  
HETATM   24  O   UNL     1      -5.905  21.018  63.512  1.00  0.00    -0.258 OA 
HETATM   25  N   UNL     1      -7.465  20.596  65.108  1.00  0.00    -0.414 N  
HETATM   26  H   UNL     1      -8.191  21.086  64.585  1.00  0.00     0.000 HD 
HETATM   27  C   UNL     1      -7.762  20.079  66.373  1.00  0.00    -0.299 A  
HETATM   28  C   UNL     1      -9.063  20.177  66.864  1.00  0.00    -0.469 A  
HETATM   29  C   UNL     1      -9.332  19.729  68.150  1.00  0.00    -0.340 A  
HETATM   30  O   UNL     1     -10.583  19.785  68.686  1.00  0.00    -0.517 OA 
HETATM   31  C   UNL     1      -8.320  19.210  68.954  1.00  0.00    -0.325 A  
HETATM   32  H   UNL     1     -10.767  19.479  69.566  1.00  0.00     0.000 HD 
ENDBRANCH  16  19
ENDBRANCH  15  16
ENDBRANCH  13  15
ENDBRANCH   6   9
ENDBRANCH   2   3
TORSDOF 5
ENDMDL
MODEL       82
REMARK 921   NORMALIZED FREE ENERGY PREDICTED BY IDOCK:   -5.83 KCAL/MOL
REMARK 922        TOTAL FREE ENERGY PREDICTED BY IDOCK:   -7.78 KCAL/MOL
REMARK 923 INTER-LIGAND FREE ENERGY PREDICTED BY IDOCK:   -7.29 KCAL/MOL
REMARK 924 INTRA-LIGAND FREE ENERGY PREDICTED BY IDOCK:   -0.49 KCAL/MOL
REMARK 927      BINDING AFFINITY PREDICTED BY RF-SCORE:    0.00 PKD
ROOT
HETATM    1  C   UNL     1      -6.723   2.259  67.840  1.00  0.00    -0.039 C  
HETATM    2  O   UNL     1      -8.085   2.412  68.227  1.00  0.00    -0.057 OA 
ENDROOT
BRANCH   2   3
HETATM    3  C   UNL     1      -8.705   3.562  67.810  1.00  0.00    -0.108 A  
HETATM    4  C   UNL     1      -8.646   4.086  66.523  1.00  0.00    -0.110 A  
HETATM    5  C   UNL     1      -9.301   5.280  66.220  1.00  0.00    -0.159 A  
HETATM    6  C   UNL     1     -10.045   5.967  67.191  1.00  0.00    -0.213 A  
HETATM    7  C   UNL     1      -9.452   4.230  68.783  1.00  0.00    -0.230 A  
HETATM    8  C   UNL     1     -10.117   5.423  68.479  1.00  0.00    -0.242 A  
BRANCH   6   9
HETATM    9  C   UNL     1     -10.738   7.272  66.833  1.00  0.00    -0.346 C  
HETATM   10  C   UNL     1      -9.865   8.576  66.838  1.00  0.00    -0.242 C  
HETATM   11  C   UNL     1      -8.843   8.508  65.687  1.00  0.00    -0.214 C  
HETATM   12  C   UNL     1      -9.152   8.761  68.192  1.00  0.00    -0.142 C  
HETATM   13  N   UNL     1     -10.788   9.717  66.600  1.00  0.00    -0.020 NA 
HETATM   14  H   UNL     1     -11.534   9.712  67.296  1.00  0.00     0.000 HD 
BRANCH  13  15
HETATM   15  C   UNL     1     -10.155  11.053  66.549  1.00  0.00    -0.226 C  
BRANCH  15  16
HETATM   16  C   UNL     1     -11.156  12.202  66.279  1.00  0.00    -0.310 C  
HETATM   17  H   UNL     1     -11.344  13.674  64.977  1.00  0.00     0.000 HD 
HETATM   18  O   UNL     1     -10.729  12.969  65.143  1.00  0.00    -0.289 OA 
BRANCH  16  19
HETATM   19  C   UNL     1     -11.374  13.079  67.493  1.00  0.00    -0.346 A  
HETATM   20  C   UNL     1     -11.745  12.522  68.729  1.00  0.00    -0.327 A  
HETATM   21  O   UNL     1     -11.953  11.166  68.775  1.00  0.00    -0.451 OA 
HETATM   22  C   UNL     1     -11.935  10.627  70.091  1.00  0.00    -0.334 C  
HETATM   23  C   UNL     1     -12.594  11.455  71.186  1.00  0.00    -0.386 C  
HETATM   24  O   UNL     1     -13.142  10.972  72.173  1.00  0.00    -0.460 OA 
HETATM   25  N   UNL     1     -12.435  12.806  71.036  1.00  0.00    -0.347 N  
HETATM   26  H   UNL     1     -12.674  13.428  71.809  1.00  0.00     0.000 HD 
HETATM   27  C   UNL     1     -11.950  13.352  69.843  1.00  0.00    -0.338 A  
HETATM   28  C   UNL     1     -11.732  14.726  69.758  1.00  0.00    -0.354 A  
HETATM   29  C   UNL     1     -11.322  15.268  68.547  1.00  0.00    -0.327 A  
HETATM   30  O   UNL     1     -11.081  16.600  68.399  1.00  0.00    -0.359 OA 
HETATM   31  C   UNL     1     -11.151  14.463  67.423  1.00  0.00    -0.317 A  
HETATM   32  H   UNL     1     -10.801  16.971  67.571  1.00  0.00     0.000 HD 
ENDBRANCH  16  19
ENDBRANCH  15  16
ENDBRANCH  13  15
ENDBRANCH   6   9
ENDBRANCH   2   3
TORSDOF 5
ENDMDL
MODEL       83
REMARK 921   NORMALIZED FREE ENERGY PREDICTED BY IDOCK:   -5.82 KCAL/MOL
REMARK 922        TOTAL FREE ENERGY PREDICTED BY IDOCK:   -7.77 KCAL/MOL
REMARK 923 INTER-LIGAND FREE ENERGY PREDICTED BY IDOCK:   -7.17 KCAL/MOL
REMARK 924 INTRA-LIGAND FREE ENERGY PREDICTED BY IDOCK:   -0.60 KCAL/MOL
REMARK 927      BINDING AFFINITY PREDICTED BY RF-SCORE:    0.00 PKD
ROOT
HETATM    1  C   UNL     1     -13.045  15.694  73.318  1.00  0.00    -0.564 C  
HETATM    2  O   UNL     1     -12.699  15.523  71.946  1.00  0.00    -0.357 OA 
ENDROOT
BRANCH   2   3
HETATM    3  C   UNL     1     -12.643  14.229  71.495  1.00  0.00    -0.354 A  
HETATM    4  C   UNL     1     -12.132  13.829  70.265  1.00  0.00    -0.425 A  
HETATM    5  C   UNL     1     -12.148  12.481  69.903  1.00  0.00    -0.322 A  
HETATM    6  C   UNL     1     -12.658  11.503  70.769  1.00  0.00    -0.390 A  
HETATM    7  C   UNL     1     -13.142  13.263  72.372  1.00  0.00    -0.443 A  
HETATM    8  C   UNL     1     -13.152  11.911  72.014  1.00  0.00    -0.441 A  
BRANCH   6   9
HETATM    9  C   UNL     1     -12.674  10.044  70.341  1.00  0.00    -0.111 C  
HETATM   10  C   UNL     1     -11.897   9.020  71.240  1.00  0.00    -0.312 C  
HETATM   11  C   UNL     1     -12.611   8.892  72.599  1.00  0.00    -0.267 C  
HETATM   12  C   UNL     1     -10.430   9.452  71.432  1.00  0.00    -0.358 C  
HETATM   13  N   UNL     1     -11.943   7.708  70.542  1.00  0.00    -0.502 NA 
HETATM   14  H   UNL     1     -11.568   7.803  69.598  1.00  0.00     0.000 HD 
BRANCH  13  15
HETATM   15  C   UNL     1     -11.276   6.587  71.240  1.00  0.00    -0.288 C  
BRANCH  15  16
HETATM   16  C   UNL     1     -10.687   5.524  70.282  1.00  0.00    -0.263 C  
HETATM   17  H   UNL     1      -9.919   3.712  70.437  1.00  0.00     0.000 HD 
HETATM   18  O   UNL     1     -10.280   4.365  71.025  1.00  0.00    -0.161 OA 
BRANCH  16  19
HETATM   19  C   UNL     1      -9.557   6.068  69.436  1.00  0.00    -0.161 A  
HETATM   20  C   UNL     1      -9.454   5.745  68.072  1.00  0.00    -0.110 A  
HETATM   21  O   UNL     1     -10.385   4.878  67.556  1.00  0.00    -0.136 OA 
HETATM   22  C   UNL     1     -10.467   4.901  66.136  1.00  0.00    -0.302 C  
HETATM   23  C   UNL     1      -9.157   5.030  65.370  1.00  0.00    -0.154 C  
HETATM   24  O   UNL     1      -8.964   4.544  64.259  1.00  0.00    -0.148 OA 
HETATM   25  N   UNL     1      -8.230   5.832  65.981  1.00  0.00    -0.110 N  
HETATM   26  H   UNL     1      -7.404   6.128  65.460  1.00  0.00     0.000 HD 
HETATM   27  C   UNL     1      -8.394   6.253  67.304  1.00  0.00    -0.109 A  
HETATM   28  C   UNL     1      -7.466   7.130  67.863  1.00  0.00    -0.099 A  
HETATM   29  C   UNL     1      -7.595   7.483  69.200  1.00  0.00    -0.100 A  
HETATM   30  O   UNL     1      -6.729   8.343  69.804  1.00  0.00    -0.039 OA 
HETATM   31  C   UNL     1      -8.619   6.957  69.984  1.00  0.00    -0.141 A  
HETATM   32  H   UNL     1      -6.817   8.585  70.719  1.00  0.00     0.000 HD 
ENDBRANCH  16  19
ENDBRANCH  15  16
ENDBRANCH  13  15
ENDBRANCH   6   9
ENDBRANCH   2   3
TORSDOF 5
ENDMDL
MODEL       84
REMARK 921   NORMALIZED FREE ENERGY PREDICTED BY IDOCK:   -5.81 KCAL/MOL
REMARK 922        TOTAL FREE ENERGY PREDICTED BY IDOCK:   -7.75 KCAL/MOL
REMARK 923 INTER-LIGAND FREE ENERGY PREDICTED BY IDOCK:   -8.78 KCAL/MOL
REMARK 924 INTRA-LIGAND FREE ENERGY PREDICTED BY IDOCK:    1.02 KCAL/MOL
REMARK 927      BINDING AFFINITY PREDICTED BY RF-SCORE:    0.00 PKD
ROOT
HETATM    1  C   UNL     1     -10.018  20.115  67.520  1.00  0.00    -0.430 C  
HETATM    2  O   UNL     1      -9.246  19.517  66.483  1.00  0.00    -0.329 OA 
ENDROOT
BRANCH   2   3
HETATM    3  C   UNL     1      -9.504  18.195  66.224  1.00  0.00    -0.222 A  
HETATM    4  C   UNL     1     -10.651  17.706  65.608  1.00  0.00    -0.137 A  
HETATM    5  C   UNL     1     -10.815  16.333  65.417  1.00  0.00    -0.284 A  
HETATM    6  C   UNL     1      -9.828  15.421  65.821  1.00  0.00    -0.399 A  
HETATM    7  C   UNL     1      -8.510  17.298  66.621  1.00  0.00    -0.292 A  
HETATM    8  C   UNL     1      -8.668  15.922  66.423  1.00  0.00    -0.362 A  
BRANCH   6   9
HETATM    9  C   UNL     1     -10.041  13.930  65.611  1.00  0.00    -0.332 C  
HETATM   10  C   UNL     1     -10.570  13.099  66.831  1.00  0.00    -0.263 C  
HETATM   11  C   UNL     1     -12.019  13.520  67.145  1.00  0.00    -0.426 C  
HETATM   12  C   UNL     1      -9.666  13.289  68.066  1.00  0.00    -0.223 C  
HETATM   13  N   UNL     1     -10.558  11.670  66.421  1.00  0.00    -0.248 NA 
HETATM   14  H   UNL     1      -9.624  11.405  66.109  1.00  0.00     0.000 HD 
BRANCH  13  15
HETATM   15  C   UNL     1     -11.044  10.708  67.434  1.00  0.00    -0.272 C  
BRANCH  15  16
HETATM   16  C   UNL     1     -10.355  10.860  68.812  1.00  0.00    -0.198 C  
HETATM   17  H   UNL     1      -8.839  10.030  69.765  1.00  0.00     0.000 HD 
HETATM   18  O   UNL     1      -9.262   9.936  68.920  1.00  0.00    -0.146 OA 
BRANCH  16  19
HETATM   19  C   UNL     1     -11.325  10.713  69.964  1.00  0.00    -0.400 A  
HETATM   20  C   UNL     1     -11.509   9.474  70.600  1.00  0.00    -0.297 A  
HETATM   21  O   UNL     1     -10.819   8.398  70.100  1.00  0.00    -0.239 OA 
HETATM   22  C   UNL     1     -10.741   7.298  70.999  1.00  0.00    -0.231 C  
HETATM   23  C   UNL     1     -11.985   6.987  71.820  1.00  0.00    -0.326 C  
HETATM   24  O   UNL     1     -12.296   5.858  72.191  1.00  0.00    -0.182 OA 
HETATM   25  N   UNL     1     -12.688   8.096  72.210  1.00  0.00    -0.507 N  
HETATM   26  H   UNL     1     -13.421   8.002  72.914  1.00  0.00     0.000 HD 
HETATM   27  C   UNL     1     -12.420   9.354  71.662  1.00  0.00    -0.378 A  
HETATM   28  C   UNL     1     -13.106  10.469  72.141  1.00  0.00    -0.413 A  
HETATM   29  C   UNL     1     -12.888  11.702  71.540  1.00  0.00    -0.364 A  
HETATM   30  O   UNL     1     -13.517  12.832  71.967  1.00  0.00    -0.495 OA 
HETATM   31  C   UNL     1     -12.017  11.829  70.461  1.00  0.00    -0.383 A  
HETATM   32  H   UNL     1     -13.369  13.675  71.556  1.00  0.00     0.000 HD 
ENDBRANCH  16  19
ENDBRANCH  15  16
ENDBRANCH  13  15
ENDBRANCH   6   9
ENDBRANCH   2   3
TORSDOF 5
ENDMDL
MODEL       85
REMARK 921   NORMALIZED FREE ENERGY PREDICTED BY IDOCK:   -5.79 KCAL/MOL
REMARK 922        TOTAL FREE ENERGY PREDICTED BY IDOCK:   -7.73 KCAL/MOL
REMARK 923 INTER-LIGAND FREE ENERGY PREDICTED BY IDOCK:   -7.06 KCAL/MOL
REMARK 924 INTRA-LIGAND FREE ENERGY PREDICTED BY IDOCK:   -0.67 KCAL/MOL
REMARK 927      BINDING AFFINITY PREDICTED BY RF-SCORE:    0.00 PKD
ROOT
HETATM    1  C   UNL     1      -9.781   2.141  71.011  1.00  0.00    -0.088 C  
HETATM    2  O   UNL     1     -10.050   3.289  71.811  1.00  0.00    -0.154 OA 
ENDROOT
BRANCH   2   3
HETATM    3  C   UNL     1     -10.083   4.491  71.150  1.00  0.00    -0.147 A  
HETATM    4  C   UNL     1      -9.879   4.663  69.785  1.00  0.00    -0.296 A  
HETATM    5  C   UNL     1      -9.914   5.941  69.225  1.00  0.00    -0.224 A  
HETATM    6  C   UNL     1     -10.173   7.072  70.014  1.00  0.00    -0.206 A  
HETATM    7  C   UNL     1     -10.354   5.608  71.944  1.00  0.00    -0.266 A  
HETATM    8  C   UNL     1     -10.398   6.889  71.384  1.00  0.00    -0.219 A  
BRANCH   6   9
HETATM    9  C   UNL     1     -10.192   8.452  69.377  1.00  0.00    -0.208 C  
HETATM   10  C   UNL     1      -8.845   9.256  69.357  1.00  0.00    -0.149 C  
HETATM   11  C   UNL     1      -7.848   8.556  68.415  1.00  0.00    -0.106 C  
HETATM   12  C   UNL     1      -8.256   9.386  70.776  1.00  0.00    -0.173 C  
HETATM   13  N   UNL     1      -9.154  10.608  68.821  1.00  0.00    -0.163 NA 
HETATM   14  H   UNL     1      -9.892  11.042  69.376  1.00  0.00     0.000 HD 
BRANCH  13  15
HETATM   15  C   UNL     1      -8.002  11.529  68.702  1.00  0.00    -0.135 C  
BRANCH  15  16
HETATM   16  C   UNL     1      -8.123  12.522  67.521  1.00  0.00    -0.176 C  
HETATM   17  H   UNL     1      -7.109  14.067  66.829  1.00  0.00     0.000 HD 
HETATM   18  O   UNL     1      -7.035  13.457  67.553  1.00  0.00    -0.156 OA 
BRANCH  16  19
HETATM   19  C   UNL     1      -9.462  13.226  67.491  1.00  0.00    -0.220 A  
HETATM   20  C   UNL     1     -10.412  12.929  66.498  1.00  0.00    -0.265 A  
HETATM   21  O   UNL     1     -10.056  12.020  65.533  1.00  0.00    -0.241 OA 
HETATM   22  C   UNL     1     -11.159  11.482  64.815  1.00  0.00    -0.233 C  
HETATM   23  C   UNL     1     -12.289  12.441  64.464  1.00  0.00    -0.438 C  
HETATM   24  O   UNL     1     -12.990  12.335  63.461  1.00  0.00    -0.776 OA 
HETATM   25  N   UNL     1     -12.537  13.387  65.423  1.00  0.00    -0.522 N  
HETATM   26  H   UNL     1     -13.387  13.948  65.365  1.00  0.00     0.000 HD 
HETATM   27  C   UNL     1     -11.646  13.598  66.481  1.00  0.00    -0.366 A  
HETATM   28  C   UNL     1     -11.973  14.517  67.476  1.00  0.00    -0.358 A  
HETATM   29  C   UNL     1     -11.050  14.776  68.481  1.00  0.00    -0.264 A  
HETATM   30  O   UNL     1     -11.311  15.654  69.490  1.00  0.00    -0.278 OA 
HETATM   31  C   UNL     1      -9.807  14.148  68.491  1.00  0.00    -0.230 A  
HETATM   32  H   UNL     1     -10.680  15.831  70.177  1.00  0.00     0.000 HD 
ENDBRANCH  16  19
ENDBRANCH  15  16
ENDBRANCH  13  15
ENDBRANCH   6   9
ENDBRANCH   2   3
TORSDOF 5
ENDMDL
MODEL       86
REMARK 921   NORMALIZED FREE ENERGY PREDICTED BY IDOCK:   -5.79 KCAL/MOL
REMARK 922        TOTAL FREE ENERGY PREDICTED BY IDOCK:   -7.73 KCAL/MOL
REMARK 923 INTER-LIGAND FREE ENERGY PREDICTED BY IDOCK:   -6.94 KCAL/MOL
REMARK 924 INTRA-LIGAND FREE ENERGY PREDICTED BY IDOCK:   -0.79 KCAL/MOL
REMARK 927      BINDING AFFINITY PREDICTED BY RF-SCORE:    0.00 PKD
ROOT
HETATM    1  C   UNL     1     -10.143   4.208  74.432  1.00  0.00    -0.187 C  
HETATM    2  O   UNL     1      -9.472   4.456  73.200  1.00  0.00    -0.119 OA 
ENDROOT
BRANCH   2   3
HETATM    3  C   UNL     1      -9.943   5.510  72.458  1.00  0.00    -0.169 A  
HETATM    4  C   UNL     1      -9.932   6.842  72.858  1.00  0.00    -0.204 A  
HETATM    5  C   UNL     1     -10.461   7.829  72.025  1.00  0.00    -0.277 A  
HETATM    6  C   UNL     1     -10.995   7.509  70.768  1.00  0.00    -0.265 A  
HETATM    7  C   UNL     1     -10.461   5.179  71.204  1.00  0.00    -0.240 A  
HETATM    8  C   UNL     1     -10.984   6.168  70.364  1.00  0.00    -0.404 A  
BRANCH   6   9
HETATM    9  C   UNL     1     -11.576   8.605  69.889  1.00  0.00     0.260 C  
HETATM   10  C   UNL     1     -10.783   8.984  68.590  1.00  0.00    -0.097 C  
HETATM   11  C   UNL     1     -10.840   7.807  67.597  1.00  0.00    -0.149 C  
HETATM   12  C   UNL     1      -9.322   9.351  68.919  1.00  0.00    -0.154 C  
HETATM   13  N   UNL     1     -11.469  10.159  67.990  1.00  0.00    -0.643 NA 
HETATM   14  H   UNL     1     -11.532  10.912  68.675  1.00  0.00     0.000 HD 
BRANCH  13  15
HETATM   15  C   UNL     1     -10.882  10.669  66.731  1.00  0.00    -0.169 C  
BRANCH  15  16
HETATM   16  C   UNL     1     -11.139  12.177  66.495  1.00  0.00    -0.307 C  
HETATM   17  H   UNL     1     -11.279  13.389  64.944  1.00  0.00     0.000 HD 
HETATM   18  O   UNL     1     -11.121  12.464  65.089  1.00  0.00    -0.292 OA 
BRANCH  16  19
HETATM   19  C   UNL     1     -10.171  13.056  67.256  1.00  0.00    -0.239 A  
HETATM   20  C   UNL     1     -10.595  13.804  68.368  1.00  0.00    -0.253 A  
HETATM   21  O   UNL     1     -11.926  13.747  68.698  1.00  0.00    -0.351 OA 
HETATM   22  C   UNL     1     -12.209  14.190  70.020  1.00  0.00    -0.357 C  
HETATM   23  C   UNL     1     -11.433  15.399  70.525  1.00  0.00    -0.327 C  
HETATM   24  O   UNL     1     -11.880  16.211  71.330  1.00  0.00    -0.441 OA 
HETATM   25  N   UNL     1     -10.137  15.454  70.086  1.00  0.00    -0.465 N  
HETATM   26  H   UNL     1      -9.490  16.115  70.516  1.00  0.00     0.000 HD 
HETATM   27  C   UNL     1      -9.685  14.621  69.057  1.00  0.00    -0.160 A  
HETATM   28  C   UNL     1      -8.340  14.656  68.691  1.00  0.00    -0.165 A  
HETATM   29  C   UNL     1      -7.915  13.881  67.620  1.00  0.00    -0.175 A  
HETATM   30  O   UNL     1      -6.614  13.860  67.218  1.00  0.00    -0.406 OA 
HETATM   31  C   UNL     1      -8.813  13.095  66.903  1.00  0.00    -0.184 A  
HETATM   32  H   UNL     1      -6.322  13.331  66.486  1.00  0.00     0.000 HD 
ENDBRANCH  16  19
ENDBRANCH  15  16
ENDBRANCH  13  15
ENDBRANCH   6   9
ENDBRANCH   2   3
TORSDOF 5
ENDMDL
MODEL       87
REMARK 921   NORMALIZED FREE ENERGY PREDICTED BY IDOCK:   -5.76 KCAL/MOL
REMARK 922        TOTAL FREE ENERGY PREDICTED BY IDOCK:   -7.69 KCAL/MOL
REMARK 923 INTER-LIGAND FREE ENERGY PREDICTED BY IDOCK:   -7.40 KCAL/MOL
REMARK 924 INTRA-LIGAND FREE ENERGY PREDICTED BY IDOCK:   -0.29 KCAL/MOL
REMARK 927      BINDING AFFINITY PREDICTED BY RF-SCORE:    0.00 PKD
ROOT
HETATM    1  C   UNL     1      -9.984   5.958  70.479  1.00  0.00    -0.189 C  
HETATM    2  O   UNL     1      -8.862   6.235  69.646  1.00  0.00    -0.134 OA 
ENDROOT
BRANCH   2   3
HETATM    3  C   UNL     1      -8.807   7.496  69.107  1.00  0.00    -0.136 A  
HETATM    4  C   UNL     1      -7.950   7.897  68.088  1.00  0.00    -0.125 A  
HETATM    5  C   UNL     1      -7.968   9.217  67.634  1.00  0.00    -0.100 A  
HETATM    6  C   UNL     1      -8.855  10.159  68.176  1.00  0.00    -0.126 A  
HETATM    7  C   UNL     1      -9.703   8.421  69.647  1.00  0.00    -0.173 A  
HETATM    8  C   UNL     1      -9.728   9.742  69.188  1.00  0.00    -0.188 A  
BRANCH   6   9
HETATM    9  C   UNL     1      -8.842  11.592  67.670  1.00  0.00    -0.159 C  
HETATM   10  C   UNL     1      -9.721  11.922  66.414  1.00  0.00    -0.221 C  
HETATM   11  C   UNL     1     -11.210  11.800  66.789  1.00  0.00    -0.388 C  
HETATM   12  C   UNL     1      -9.376  10.989  65.236  1.00  0.00    -0.245 C  
HETATM   13  N   UNL     1      -9.429  13.330  66.037  1.00  0.00    -0.470 NA 
HETATM   14  H   UNL     1      -8.427  13.449  65.888  1.00  0.00     0.000 HD 
BRANCH  13  15
HETATM   15  C   UNL     1     -10.178  13.850  64.872  1.00  0.00    -0.351 C  
BRANCH  15  16
HETATM   16  C   UNL     1     -11.164  14.988  65.228  1.00  0.00    -0.367 C  
HETATM   17  H   UNL     1     -11.706  16.720  64.453  1.00  0.00     0.000 HD 
HETATM   18  O   UNL     1     -11.100  16.022  64.235  1.00  0.00    -0.516 OA 
BRANCH  16  19
HETATM   19  C   UNL     1     -10.937  15.537  66.620  1.00  0.00    -0.248 A  
HETATM   20  C   UNL     1      -9.848  16.381  66.895  1.00  0.00    -0.261 A  
HETATM   21  O   UNL     1      -8.974  16.641  65.868  1.00  0.00    -0.482 OA 
HETATM   22  C   UNL     1      -8.148  17.777  66.091  1.00  0.00    -0.181 C  
HETATM   23  C   UNL     1      -7.618  17.980  67.505  1.00  0.00    -0.208 C  
HETATM   24  O   UNL     1      -6.541  18.511  67.762  1.00  0.00    -0.209 OA 
HETATM   25  N   UNL     1      -8.498  17.614  68.488  1.00  0.00    -0.289 N  
HETATM   26  H   UNL     1      -8.311  17.885  69.453  1.00  0.00     0.000 HD 
HETATM   27  C   UNL     1      -9.648  16.874  68.194  1.00  0.00    -0.255 A  
HETATM   28  C   UNL     1     -10.556  16.587  69.212  1.00  0.00    -0.327 A  
HETATM   29  C   UNL     1     -11.656  15.790  68.927  1.00  0.00    -0.394 A  
HETATM   30  O   UNL     1     -12.586  15.481  69.873  1.00  0.00    -0.582 OA 
HETATM   31  C   UNL     1     -11.847  15.262  67.653  1.00  0.00    -0.076 A  
HETATM   32  H   UNL     1     -13.339  14.935  69.679  1.00  0.00     0.000 HD 
ENDBRANCH  16  19
ENDBRANCH  15  16
ENDBRANCH  13  15
ENDBRANCH   6   9
ENDBRANCH   2   3
TORSDOF 5
ENDMDL
MODEL       88
REMARK 921   NORMALIZED FREE ENERGY PREDICTED BY IDOCK:   -5.74 KCAL/MOL
REMARK 922        TOTAL FREE ENERGY PREDICTED BY IDOCK:   -7.66 KCAL/MOL
REMARK 923 INTER-LIGAND FREE ENERGY PREDICTED BY IDOCK:   -7.10 KCAL/MOL
REMARK 924 INTRA-LIGAND FREE ENERGY PREDICTED BY IDOCK:   -0.56 KCAL/MOL
REMARK 927      BINDING AFFINITY PREDICTED BY RF-SCORE:    0.00 PKD
ROOT
HETATM    1  C   UNL     1      -8.018   2.421  69.899  1.00  0.00    -0.041 C  
HETATM    2  O   UNL     1      -7.075   3.146  69.115  1.00  0.00    -0.044 OA 
ENDROOT
BRANCH   2   3
HETATM    3  C   UNL     1      -7.595   4.091  68.268  1.00  0.00    -0.066 A  
HETATM    4  C   UNL     1      -8.944   4.242  67.963  1.00  0.00    -0.148 A  
HETATM    5  C   UNL     1      -9.355   5.229  67.066  1.00  0.00    -0.123 A  
HETATM    6  C   UNL     1      -8.429   6.097  66.468  1.00  0.00    -0.119 A  
HETATM    7  C   UNL     1      -6.665   4.957  67.688  1.00  0.00    -0.055 A  
HETATM    8  C   UNL     1      -7.075   5.952  66.795  1.00  0.00    -0.070 A  
BRANCH   6   9
HETATM    9  C   UNL     1      -8.906   7.154  65.484  1.00  0.00     0.017 C  
HETATM   10  C   UNL     1      -8.957   8.638  65.988  1.00  0.00    -0.184 C  
HETATM   11  C   UNL     1      -7.522   9.144  66.227  1.00  0.00    -0.092 C  
HETATM   12  C   UNL     1      -9.799   8.759  67.274  1.00  0.00    -0.260 C  
HETATM   13  N   UNL     1      -9.582   9.443  64.906  1.00  0.00    -0.442 NA 
HETATM   14  H   UNL     1     -10.494   9.053  64.664  1.00  0.00     0.000 HD 
BRANCH  13  15
HETATM   15  C   UNL     1      -9.709  10.892  65.177  1.00  0.00    -0.262 C  
BRANCH  15  16
HETATM   16  C   UNL     1     -11.130  11.448  64.916  1.00  0.00    -0.165 C  
HETATM   17  H   UNL     1     -12.327  11.671  63.364  1.00  0.00     0.000 HD 
HETATM   18  O   UNL     1     -11.456  11.330  63.524  1.00  0.00    -0.266 OA 
BRANCH  16  19
HETATM   19  C   UNL     1     -11.295  12.870  65.409  1.00  0.00    -0.336 A  
HETATM   20  C   UNL     1     -11.558  13.139  66.763  1.00  0.00    -0.366 A  
HETATM   21  O   UNL     1     -11.712  12.065  67.604  1.00  0.00    -0.425 OA 
HETATM   22  C   UNL     1     -11.583  12.391  68.982  1.00  0.00    -0.311 C  
HETATM   23  C   UNL     1     -12.195  13.708  69.441  1.00  0.00    -0.259 C  
HETATM   24  O   UNL     1     -12.654  13.895  70.564  1.00  0.00    -0.333 OA 
HETATM   25  N   UNL     1     -12.097  14.719  68.522  1.00  0.00    -0.578 N  
HETATM   26  H   UNL     1     -12.305  15.676  68.807  1.00  0.00     0.000 HD 
HETATM   27  C   UNL     1     -11.717  14.464  67.201  1.00  0.00    -0.400 A  
HETATM   28  C   UNL     1     -11.557  15.530  66.317  1.00  0.00     0.211 A  
HETATM   29  C   UNL     1     -11.253  15.262  64.989  1.00  0.00    -0.403 A  
HETATM   30  O   UNL     1     -11.072  16.258  64.077  1.00  0.00    -1.204 OA 
HETATM   31  C   UNL     1     -11.130  13.953  64.532  1.00  0.00    -0.374 A  
HETATM   32  H   UNL     1     -10.864  16.076  63.168  1.00  0.00     0.000 HD 
ENDBRANCH  16  19
ENDBRANCH  15  16
ENDBRANCH  13  15
ENDBRANCH   6   9
ENDBRANCH   2   3
TORSDOF 5
ENDMDL
MODEL       89
REMARK 921   NORMALIZED FREE ENERGY PREDICTED BY IDOCK:   -5.74 KCAL/MOL
REMARK 922        TOTAL FREE ENERGY PREDICTED BY IDOCK:   -7.66 KCAL/MOL
REMARK 923 INTER-LIGAND FREE ENERGY PREDICTED BY IDOCK:   -7.51 KCAL/MOL
REMARK 924 INTRA-LIGAND FREE ENERGY PREDICTED BY IDOCK:   -0.15 KCAL/MOL
REMARK 927      BINDING AFFINITY PREDICTED BY RF-SCORE:    0.00 PKD
ROOT
HETATM    1  C   UNL     1     -13.159  15.892  73.272  1.00  0.00    -0.589 C  
HETATM    2  O   UNL     1     -12.695  15.970  71.928  1.00  0.00    -0.453 OA 
ENDROOT
BRANCH   2   3
HETATM    3  C   UNL     1     -12.532  14.775  71.275  1.00  0.00    -0.325 A  
HETATM    4  C   UNL     1     -11.982  14.621  70.007  1.00  0.00    -0.376 A  
HETATM    5  C   UNL     1     -11.887  13.352  69.432  1.00  0.00    -0.390 A  
HETATM    6  C   UNL     1     -12.324  12.210  70.119  1.00  0.00    -0.219 A  
HETATM    7  C   UNL     1     -12.960  13.644  71.974  1.00  0.00    -0.427 A  
HETATM    8  C   UNL     1     -12.859  12.371  71.403  1.00  0.00    -0.360 A  
BRANCH   6   9
HETATM    9  C   UNL     1     -12.220  10.843  69.460  1.00  0.00    -0.331 C  
HETATM   10  C   UNL     1     -10.795  10.196  69.362  1.00  0.00    -0.241 C  
HETATM   11  C   UNL     1     -10.302   9.834  70.776  1.00  0.00    -0.298 C  
HETATM   12  C   UNL     1      -9.801  11.147  68.664  1.00  0.00    -0.207 C  
HETATM   13  N   UNL     1     -10.937   8.951  68.564  1.00  0.00    -0.454 NA 
HETATM   14  H   UNL     1     -11.362   9.163  67.661  1.00  0.00     0.000 HD 
BRANCH  13  15
HETATM   15  C   UNL     1      -9.696   8.171  68.366  1.00  0.00    -0.161 C  
BRANCH  15  16
HETATM   16  C   UNL     1      -9.905   6.869  67.555  1.00  0.00    -0.138 C  
HETATM   17  H   UNL     1     -11.360   6.041  66.511  1.00  0.00     0.000 HD 
HETATM   18  O   UNL     1     -11.232   6.839  67.009  1.00  0.00    -0.393 OA 
BRANCH  16  19
HETATM   19  C   UNL     1      -9.607   5.626  68.365  1.00  0.00    -0.152 A  
HETATM   20  C   UNL     1     -10.100   5.482  69.673  1.00  0.00    -0.239 A  
HETATM   21  O   UNL     1     -10.811   6.531  70.201  1.00  0.00    -0.236 OA 
HETATM   22  C   UNL     1     -11.594   6.180  71.336  1.00  0.00    -0.219 C  
HETATM   23  C   UNL     1     -10.974   5.208  72.331  1.00  0.00    -0.180 C  
HETATM   24  O   UNL     1     -11.213   5.217  73.535  1.00  0.00    -0.296 OA 
HETATM   25  N   UNL     1     -10.197   4.240  71.754  1.00  0.00    -0.154 N  
HETATM   26  H   UNL     1      -9.896   3.441  72.313  1.00  0.00     0.000 HD 
HETATM   27  C   UNL     1      -9.807   4.325  70.414  1.00  0.00    -0.198 A  
HETATM   28  C   UNL     1      -9.079   3.281  69.845  1.00  0.00    -0.199 A  
HETATM   29  C   UNL     1      -8.631   3.408  68.537  1.00  0.00    -0.092 A  
HETATM   30  O   UNL     1      -7.925   2.421  67.919  1.00  0.00    -0.059 OA 
HETATM   31  C   UNL     1      -8.882   4.565  67.803  1.00  0.00    -0.119 A  
HETATM   32  H   UNL     1      -7.619   2.507  67.024  1.00  0.00     0.000 HD 
ENDBRANCH  16  19
ENDBRANCH  15  16
ENDBRANCH  13  15
ENDBRANCH   6   9
ENDBRANCH   2   3
TORSDOF 5
ENDMDL
MODEL       90
REMARK 921   NORMALIZED FREE ENERGY PREDICTED BY IDOCK:   -5.72 KCAL/MOL
REMARK 922        TOTAL FREE ENERGY PREDICTED BY IDOCK:   -7.64 KCAL/MOL
REMARK 923 INTER-LIGAND FREE ENERGY PREDICTED BY IDOCK:   -7.13 KCAL/MOL
REMARK 924 INTRA-LIGAND FREE ENERGY PREDICTED BY IDOCK:   -0.50 KCAL/MOL
REMARK 927      BINDING AFFINITY PREDICTED BY RF-SCORE:    0.00 PKD
ROOT
HETATM    1  C   UNL     1     -10.547  17.505  65.574  1.00  0.00    -0.092 C  
HETATM    2  O   UNL     1     -10.756  16.421  64.673  1.00  0.00    -0.693 OA 
ENDROOT
BRANCH   2   3
HETATM    3  C   UNL     1     -10.921  15.185  65.245  1.00  0.00    -0.395 A  
HETATM    4  C   UNL     1     -11.083  13.993  64.547  1.00  0.00    -0.360 A  
HETATM    5  C   UNL     1     -11.265  12.794  65.239  1.00  0.00    -0.328 A  
HETATM    6  C   UNL     1     -11.271  12.759  66.641  1.00  0.00    -0.344 A  
HETATM    7  C   UNL     1     -10.913  15.162  66.641  1.00  0.00    -0.318 A  
HETATM    8  C   UNL     1     -11.088  13.961  67.336  1.00  0.00    -0.313 A  
BRANCH   6   9
HETATM    9  C   UNL     1     -11.485  11.440  67.365  1.00  0.00    -0.328 C  
HETATM   10  C   UNL     1     -10.261  10.464  67.465  1.00  0.00    -0.210 C  
HETATM   11  C   UNL     1      -9.189  11.085  68.382  1.00  0.00    -0.175 C  
HETATM   12  C   UNL     1      -9.678  10.162  66.070  1.00  0.00    -0.285 C  
HETATM   13  N   UNL     1     -10.757   9.206  68.082  1.00  0.00    -0.415 NA 
HETATM   14  H   UNL     1     -11.540   8.839  67.541  1.00  0.00     0.000 HD 
BRANCH  13  15
HETATM   15  C   UNL     1      -9.743   8.148  68.284  1.00  0.00    -0.161 C  
BRANCH  15  16
HETATM   16  C   UNL     1     -10.316   6.714  68.182  1.00  0.00    -0.190 C  
HETATM   17  H   UNL     1     -11.879   5.843  67.350  1.00  0.00     0.000 HD 
HETATM   18  O   UNL     1     -11.528   6.723  67.413  1.00  0.00    -0.159 OA 
BRANCH  16  19
HETATM   19  C   UNL     1     -10.520   6.073  69.538  1.00  0.00    -0.330 A  
HETATM   20  C   UNL     1      -9.761   4.959  69.932  1.00  0.00    -0.206 A  
HETATM   21  O   UNL     1      -8.871   4.446  69.022  1.00  0.00    -0.086 OA 
HETATM   22  C   UNL     1      -7.883   3.600  69.599  1.00  0.00    -0.051 C  
HETATM   23  C   UNL     1      -8.339   2.662  70.709  1.00  0.00    -0.053 C  
HETATM   24  O   UNL     1      -7.837   1.563  70.925  1.00  0.00    -0.035 OA 
HETATM   25  N   UNL     1      -9.298   3.194  71.529  1.00  0.00    -0.120 N  
HETATM   26  H   UNL     1      -9.527   2.721  72.404  1.00  0.00     0.000 HD 
HETATM   27  C   UNL     1      -9.970   4.373  71.191  1.00  0.00    -0.173 A  
HETATM   28  C   UNL     1     -10.885   4.920  72.088  1.00  0.00    -0.136 A  
HETATM   29  C   UNL     1     -11.603   6.048  71.713  1.00  0.00    -0.226 A  
HETATM   30  O   UNL     1     -12.504   6.639  72.546  1.00  0.00    -0.509 OA 
HETATM   31  C   UNL     1     -11.433   6.618  70.454  1.00  0.00    -0.444 A  
HETATM   32  H   UNL     1     -12.994   7.411  72.290  1.00  0.00     0.000 HD 
ENDBRANCH  16  19
ENDBRANCH  15  16
ENDBRANCH  13  15
ENDBRANCH   6   9
ENDBRANCH   2   3
TORSDOF 5
ENDMDL
MODEL       91
REMARK 921   NORMALIZED FREE ENERGY PREDICTED BY IDOCK:   -5.72 KCAL/MOL
REMARK 922        TOTAL FREE ENERGY PREDICTED BY IDOCK:   -7.63 KCAL/MOL
REMARK 923 INTER-LIGAND FREE ENERGY PREDICTED BY IDOCK:   -7.52 KCAL/MOL
REMARK 924 INTRA-LIGAND FREE ENERGY PREDICTED BY IDOCK:   -0.12 KCAL/MOL
REMARK 927      BINDING AFFINITY PREDICTED BY RF-SCORE:    0.00 PKD
ROOT
HETATM    1  C   UNL     1      -9.946  20.355  67.009  1.00  0.00    -0.428 C  
HETATM    2  O   UNL     1     -10.223  19.511  65.895  1.00  0.00    -0.444 OA 
ENDROOT
BRANCH   2   3
HETATM    3  C   UNL     1     -10.032  18.167  66.094  1.00  0.00    -0.299 A  
HETATM    4  C   UNL     1      -9.192  17.608  67.052  1.00  0.00    -0.254 A  
HETATM    5  C   UNL     1      -9.060  16.222  67.146  1.00  0.00    -0.217 A  
HETATM    6  C   UNL     1      -9.778  15.365  66.298  1.00  0.00    -0.325 A  
HETATM    7  C   UNL     1     -10.760  17.325  65.252  1.00  0.00    -0.019 A  
HETATM    8  C   UNL     1     -10.636  15.935  65.350  1.00  0.00    -0.439 A  
BRANCH   6   9
HETATM    9  C   UNL     1      -9.602  13.859  66.417  1.00  0.00    -0.292 C  
HETATM   10  C   UNL     1     -10.674  13.071  67.248  1.00  0.00    -0.250 C  
HETATM   11  C   UNL     1     -12.023  13.111  66.505  1.00  0.00    -0.459 C  
HETATM   12  C   UNL     1     -10.815  13.656  68.667  1.00  0.00    -0.283 C  
HETATM   13  N   UNL     1     -10.208  11.663  67.333  1.00  0.00    -0.201 NA 
HETATM   14  H   UNL     1      -9.268  11.630  67.728  1.00  0.00     0.000 HD 
BRANCH  13  15
HETATM   15  C   UNL     1     -11.097  10.737  68.069  1.00  0.00    -0.299 C  
BRANCH  15  16
HETATM   16  C   UNL     1     -10.484  10.207  69.388  1.00  0.00    -0.233 C  
HETATM   17  H   UNL     1      -8.700  10.161  70.230  1.00  0.00     0.000 HD 
HETATM   18  O   UNL     1      -9.076  10.486  69.421  1.00  0.00    -0.181 OA 
BRANCH  16  19
HETATM   19  C   UNL     1     -10.766   8.737  69.608  1.00  0.00    -0.212 A  
HETATM   20  C   UNL     1     -10.277   7.766  68.718  1.00  0.00    -0.201 A  
HETATM   21  O   UNL     1      -9.585   8.207  67.618  1.00  0.00    -0.145 OA 
HETATM   22  C   UNL     1      -8.802   7.200  66.990  1.00  0.00    -0.124 C  
HETATM   23  C   UNL     1      -9.411   5.807  66.897  1.00  0.00    -0.133 C  
HETATM   24  O   UNL     1      -9.178   5.018  65.986  1.00  0.00    -0.142 OA 
HETATM   25  N   UNL     1     -10.171   5.458  67.981  1.00  0.00    -0.175 N  
HETATM   26  H   UNL     1     -10.461   4.487  68.097  1.00  0.00     0.000 HD 
HETATM   27  C   UNL     1     -10.556   6.407  68.934  1.00  0.00    -0.252 A  
HETATM   28  C   UNL     1     -11.265   5.995  70.061  1.00  0.00    -0.425 A  
HETATM   29  C   UNL     1     -11.708   6.953  70.963  1.00  0.00    -0.345 A  
HETATM   30  O   UNL     1     -12.396   6.618  72.090  1.00  0.00    -0.471 OA 
HETATM   31  C   UNL     1     -11.472   8.308  70.743  1.00  0.00    -0.268 A  
HETATM   32  H   UNL     1     -12.699   7.273  72.707  1.00  0.00     0.000 HD 
ENDBRANCH  16  19
ENDBRANCH  15  16
ENDBRANCH  13  15
ENDBRANCH   6   9
ENDBRANCH   2   3
TORSDOF 5
ENDMDL
MODEL       92
REMARK 921   NORMALIZED FREE ENERGY PREDICTED BY IDOCK:   -5.68 KCAL/MOL
REMARK 922        TOTAL FREE ENERGY PREDICTED BY IDOCK:   -7.59 KCAL/MOL
REMARK 923 INTER-LIGAND FREE ENERGY PREDICTED BY IDOCK:   -6.86 KCAL/MOL
REMARK 924 INTRA-LIGAND FREE ENERGY PREDICTED BY IDOCK:   -0.73 KCAL/MOL
REMARK 927      BINDING AFFINITY PREDICTED BY RF-SCORE:    0.00 PKD
ROOT
HETATM    1  C   UNL     1     -10.674  19.733  65.799  1.00  0.00    -0.370 C  
HETATM    2  O   UNL     1     -10.486  19.753  67.211  1.00  0.00    -0.426 OA 
ENDROOT
BRANCH   2   3
HETATM    3  C   UNL     1      -9.974  18.609  67.768  1.00  0.00    -0.346 A  
HETATM    4  C   UNL     1     -10.726  17.534  68.229  1.00  0.00    -0.309 A  
HETATM    5  C   UNL     1     -10.094  16.428  68.800  1.00  0.00    -0.247 A  
HETATM    6  C   UNL     1      -8.697  16.365  68.905  1.00  0.00    -0.253 A  
HETATM    7  C   UNL     1      -8.581  18.554  67.856  1.00  0.00    -0.304 A  
HETATM    8  C   UNL     1      -7.945  17.443  68.421  1.00  0.00    -0.259 A  
BRANCH   6   9
HETATM    9  C   UNL     1      -8.038  15.153  69.544  1.00  0.00    -0.167 C  
HETATM   10  C   UNL     1      -7.738  13.923  68.618  1.00  0.00    -0.128 C  
HETATM   11  C   UNL     1      -6.640  14.304  67.606  1.00  0.00    -0.172 C  
HETATM   12  C   UNL     1      -9.013  13.454  67.889  1.00  0.00    -0.201 C  
HETATM   13  N   UNL     1      -7.235  12.833  69.493  1.00  0.00    -0.302 NA 
HETATM   14  H   UNL     1      -7.910  12.642  70.234  1.00  0.00     0.000 HD 
BRANCH  13  15
HETATM   15  C   UNL     1      -6.872  11.574  68.805  1.00  0.00    -0.084 C  
BRANCH  15  16
HETATM   16  C   UNL     1      -7.324  10.302  69.562  1.00  0.00    -0.132 C  
HETATM   17  H   UNL     1      -6.482   8.644  70.223  1.00  0.00     0.000 HD 
HETATM   18  O   UNL     1      -6.205   9.424  69.758  1.00  0.00    -0.038 OA 
BRANCH  16  19
HETATM   19  C   UNL     1      -8.473   9.596  68.876  1.00  0.00    -0.125 A  
HETATM   20  C   UNL     1      -9.491   8.979  69.622  1.00  0.00    -0.171 A  
HETATM   21  O   UNL     1      -9.372   8.996  70.989  1.00  0.00    -0.229 OA 
HETATM   22  C   UNL     1     -10.587   8.718  71.675  1.00  0.00    -0.331 C  
HETATM   23  C   UNL     1     -11.484   7.639  71.083  1.00  0.00    -0.275 C  
HETATM   24  O   UNL     1     -12.217   6.916  71.751  1.00  0.00    -0.326 OA 
HETATM   25  N   UNL     1     -11.489   7.608  69.714  1.00  0.00    -0.459 N  
HETATM   26  H   UNL     1     -12.194   7.052  69.228  1.00  0.00     0.000 HD 
HETATM   27  C   UNL     1     -10.545   8.321  68.968  1.00  0.00    -0.150 A  
HETATM   28  C   UNL     1     -10.631   8.322  67.577  1.00  0.00    -0.291 A  
HETATM   29  C   UNL     1      -9.647   8.971  66.843  1.00  0.00    -0.185 A  
HETATM   30  O   UNL     1      -9.678   9.019  65.482  1.00  0.00    -0.452 OA 
HETATM   31  C   UNL     1      -8.576   9.595  67.476  1.00  0.00    -0.126 A  
HETATM   32  H   UNL     1      -9.005   9.462  64.979  1.00  0.00     0.000 HD 
ENDBRANCH  16  19
ENDBRANCH  15  16
ENDBRANCH  13  15
ENDBRANCH   6   9
ENDBRANCH   2   3
TORSDOF 5
ENDMDL
MODEL       93
REMARK 921   NORMALIZED FREE ENERGY PREDICTED BY IDOCK:   -5.68 KCAL/MOL
REMARK 922        TOTAL FREE ENERGY PREDICTED BY IDOCK:   -7.58 KCAL/MOL
REMARK 923 INTER-LIGAND FREE ENERGY PREDICTED BY IDOCK:   -8.18 KCAL/MOL
REMARK 924 INTRA-LIGAND FREE ENERGY PREDICTED BY IDOCK:    0.60 KCAL/MOL
REMARK 927      BINDING AFFINITY PREDICTED BY RF-SCORE:    0.00 PKD
ROOT
HETATM    1  C   UNL     1      -9.901   3.653  73.502  1.00  0.00    -0.110 C  
HETATM    2  O   UNL     1     -10.598   4.883  73.324  1.00  0.00    -0.189 OA 
ENDROOT
BRANCH   2   3
HETATM    3  C   UNL     1     -10.609   5.391  72.050  1.00  0.00    -0.224 A  
HETATM    4  C   UNL     1     -11.479   6.371  71.583  1.00  0.00    -0.354 A  
HETATM    5  C   UNL     1     -11.411   6.795  70.255  1.00  0.00    -0.414 A  
HETATM    6  C   UNL     1     -10.461   6.263  69.371  1.00  0.00    -0.298 A  
HETATM    7  C   UNL     1      -9.651   4.862  71.182  1.00  0.00    -0.232 A  
HETATM    8  C   UNL     1      -9.576   5.292  69.853  1.00  0.00    -0.241 A  
BRANCH   6   9
HETATM    9  C   UNL     1     -10.421   6.736  67.926  1.00  0.00    -0.265 C  
HETATM   10  C   UNL     1      -9.721   8.109  67.636  1.00  0.00    -0.159 C  
HETATM   11  C   UNL     1      -8.209   7.975  67.901  1.00  0.00    -0.129 C  
HETATM   12  C   UNL     1     -10.328   9.234  68.498  1.00  0.00    -0.237 C  
HETATM   13  N   UNL     1      -9.937   8.412  66.197  1.00  0.00    -0.472 NA 
HETATM   14  H   UNL     1     -10.935   8.399  65.985  1.00  0.00     0.000 HD 
BRANCH  13  15
HETATM   15  C   UNL     1      -9.333   9.671  65.709  1.00  0.00    -0.228 C  
BRANCH  15  16
HETATM   16  C   UNL     1     -10.030  10.246  64.452  1.00  0.00    -0.261 C  
HETATM   17  H   UNL     1      -9.591  10.481  62.542  1.00  0.00     0.000 HD 
HETATM   18  O   UNL     1      -9.163  10.129  63.314  1.00  0.00    -0.253 OA 
BRANCH  16  19
HETATM   19  C   UNL     1     -10.501  11.670  64.651  1.00  0.00    -0.354 A  
HETATM   20  C   UNL     1      -9.991  12.461  65.694  1.00  0.00    -0.244 A  
HETATM   21  O   UNL     1      -9.095  11.874  66.553  1.00  0.00    -0.204 OA 
HETATM   22  C   UNL     1      -8.340  12.805  67.319  1.00  0.00    -0.187 C  
HETATM   23  C   UNL     1      -9.076  14.033  67.837  1.00  0.00    -0.188 C  
HETATM   24  O   UNL     1      -8.794  14.608  68.885  1.00  0.00    -0.179 OA 
HETATM   25  N   UNL     1     -10.026  14.518  66.978  1.00  0.00    -0.251 N  
HETATM   26  H   UNL     1     -10.435  15.436  67.151  1.00  0.00     0.000 HD 
HETATM   27  C   UNL     1     -10.446  13.777  65.868  1.00  0.00    -0.297 A  
HETATM   28  C   UNL     1     -11.360  14.339  64.978  1.00  0.00    -0.365 A  
HETATM   29  C   UNL     1     -11.828  13.570  63.921  1.00  0.00    -0.411 A  
HETATM   30  O   UNL     1     -12.713  14.061  63.009  1.00  0.00    -0.891 OA 
HETATM   31  C   UNL     1     -11.415  12.250  63.758  1.00  0.00    -0.545 A  
HETATM   32  H   UNL     1     -13.033  13.536  62.286  1.00  0.00     0.000 HD 
ENDBRANCH  16  19
ENDBRANCH  15  16
ENDBRANCH  13  15
ENDBRANCH   6   9
ENDBRANCH   2   3
TORSDOF 5
ENDMDL
MODEL       94
REMARK 921   NORMALIZED FREE ENERGY PREDICTED BY IDOCK:   -5.65 KCAL/MOL
REMARK 922        TOTAL FREE ENERGY PREDICTED BY IDOCK:   -7.54 KCAL/MOL
REMARK 923 INTER-LIGAND FREE ENERGY PREDICTED BY IDOCK:   -6.78 KCAL/MOL
REMARK 924 INTRA-LIGAND FREE ENERGY PREDICTED BY IDOCK:   -0.76 KCAL/MOL
REMARK 927      BINDING AFFINITY PREDICTED BY RF-SCORE:    0.00 PKD
ROOT
HETATM    1  C   UNL     1      -8.702   2.602  68.143  1.00  0.00    -0.103 C  
HETATM    2  O   UNL     1      -9.730   3.344  67.494  1.00  0.00    -0.166 OA 
ENDROOT
BRANCH   2   3
HETATM    3  C   UNL     1      -9.400   4.615  67.099  1.00  0.00    -0.142 A  
HETATM    4  C   UNL     1      -8.164   5.004  66.592  1.00  0.00    -0.108 A  
HETATM    5  C   UNL     1      -7.935   6.336  66.244  1.00  0.00    -0.110 A  
HETATM    6  C   UNL     1      -8.941   7.304  66.378  1.00  0.00    -0.184 A  
HETATM    7  C   UNL     1     -10.413   5.568  67.226  1.00  0.00    -0.300 A  
HETATM    8  C   UNL     1     -10.189   6.902  66.870  1.00  0.00    -0.310 A  
BRANCH   6   9
HETATM    9  C   UNL     1      -8.657   8.750  66.002  1.00  0.00    -0.166 C  
HETATM   10  C   UNL     1      -8.291   9.738  67.164  1.00  0.00    -0.121 C  
HETATM   11  C   UNL     1      -6.918   9.353  67.746  1.00  0.00    -0.080 C  
HETATM   12  C   UNL     1      -9.373   9.727  68.262  1.00  0.00    -0.134 C  
HETATM   13  N   UNL     1      -8.202  11.096  66.566  1.00  0.00    -0.164 NA 
HETATM   14  H   UNL     1      -9.072  11.323  66.084  1.00  0.00     0.000 HD 
BRANCH  13  15
HETATM   15  C   UNL     1      -7.845  12.186  67.502  1.00  0.00    -0.162 C  
BRANCH  15  16
HETATM   16  C   UNL     1      -8.230  13.594  66.988  1.00  0.00    -0.037 C  
HETATM   17  H   UNL     1      -7.721  15.460  67.381  1.00  0.00     0.000 HD 
HETATM   18  O   UNL     1      -7.485  14.596  67.696  1.00  0.00    -0.153 OA 
BRANCH  16  19
HETATM   19  C   UNL     1      -9.719  13.851  67.061  1.00  0.00    -0.250 A  
HETATM   20  C   UNL     1     -10.593  13.312  66.101  1.00  0.00    -0.287 A  
HETATM   21  O   UNL     1     -10.037  12.595  65.071  1.00  0.00    -0.282 OA 
HETATM   22  C   UNL     1     -10.967  11.769  64.379  1.00  0.00    -0.339 C  
HETATM   23  C   UNL     1     -12.356  12.345  64.137  1.00  0.00    -0.467 C  
HETATM   24  O   UNL     1     -13.052  12.065  63.165  1.00  0.00    -0.624 OA 
HETATM   25  N   UNL     1     -12.820  13.131  65.157  1.00  0.00    -0.699 N  
HETATM   26  H   UNL     1     -13.803  13.404  65.172  1.00  0.00     0.000 HD 
HETATM   27  C   UNL     1     -11.971  13.568  66.180  1.00  0.00    -0.412 A  
HETATM   28  C   UNL     1     -12.500  14.304  67.239  1.00  0.00     0.058 A  
HETATM   29  C   UNL     1     -11.639  14.797  68.211  1.00  0.00    -0.323 A  
HETATM   30  O   UNL     1     -12.091  15.513  69.277  1.00  0.00    -0.483 OA 
HETATM   31  C   UNL     1     -10.265  14.584  68.125  1.00  0.00    -0.230 A  
HETATM   32  H   UNL     1     -11.503  15.851  69.942  1.00  0.00     0.000 HD 
ENDBRANCH  16  19
ENDBRANCH  15  16
ENDBRANCH  13  15
ENDBRANCH   6   9
ENDBRANCH   2   3
TORSDOF 5
ENDMDL
MODEL       95
REMARK 921   NORMALIZED FREE ENERGY PREDICTED BY IDOCK:   -5.64 KCAL/MOL
REMARK 922        TOTAL FREE ENERGY PREDICTED BY IDOCK:   -7.54 KCAL/MOL
REMARK 923 INTER-LIGAND FREE ENERGY PREDICTED BY IDOCK:   -7.38 KCAL/MOL
REMARK 924 INTRA-LIGAND FREE ENERGY PREDICTED BY IDOCK:   -0.15 KCAL/MOL
REMARK 927      BINDING AFFINITY PREDICTED BY RF-SCORE:    0.00 PKD
ROOT
HETATM    1  C   UNL     1      -8.923   1.739  72.384  1.00  0.00    -0.069 C  
HETATM    2  O   UNL     1      -8.562   1.778  71.007  1.00  0.00    -0.049 OA 
ENDROOT
BRANCH   2   3
HETATM    3  C   UNL     1      -9.005   2.865  70.297  1.00  0.00    -0.098 A  
HETATM    4  C   UNL     1      -9.552   4.018  70.851  1.00  0.00    -0.253 A  
HETATM    5  C   UNL     1      -9.991   5.054  70.025  1.00  0.00    -0.324 A  
HETATM    6  C   UNL     1      -9.876   4.968  68.630  1.00  0.00    -0.227 A  
HETATM    7  C   UNL     1      -8.874   2.773  68.910  1.00  0.00    -0.151 A  
HETATM    8  C   UNL     1      -9.306   3.813  68.081  1.00  0.00    -0.228 A  
BRANCH   6   9
HETATM    9  C   UNL     1     -10.375   6.108  67.756  1.00  0.00    -0.247 C  
HETATM   10  C   UNL     1      -9.339   7.212  67.349  1.00  0.00    -0.127 C  
HETATM   11  C   UNL     1      -8.293   6.603  66.397  1.00  0.00    -0.121 C  
HETATM   12  C   UNL     1      -8.657   7.818  68.593  1.00  0.00    -0.129 C  
HETATM   13  N   UNL     1     -10.093   8.271  66.629  1.00  0.00    -0.329 NA 
HETATM   14  H   UNL     1     -10.858   8.612  67.212  1.00  0.00     0.000 HD 
BRANCH  13  15
HETATM   15  C   UNL     1      -9.287   9.411  66.139  1.00  0.00    -0.205 C  
BRANCH  15  16
HETATM   16  C   UNL     1     -10.140  10.590  65.611  1.00  0.00    -0.268 C  
HETATM   17  H   UNL     1     -10.701  11.288  63.852  1.00  0.00     0.000 HD 
HETATM   18  O   UNL     1     -10.178  10.565  64.176  1.00  0.00    -0.342 OA 
BRANCH  16  19
HETATM   19  C   UNL     1      -9.664  11.929  66.133  1.00  0.00    -0.251 A  
HETATM   20  C   UNL     1     -10.214  13.129  65.652  1.00  0.00    -0.286 A  
HETATM   21  O   UNL     1     -11.156  13.039  64.657  1.00  0.00    -0.304 OA 
HETATM   22  C   UNL     1     -11.937  14.217  64.497  1.00  0.00    -0.458 C  
HETATM   23  C   UNL     1     -11.214  15.550  64.631  1.00  0.00    -0.371 C  
HETATM   24  O   UNL     1     -11.538  16.569  64.028  1.00  0.00    -1.154 OA 
HETATM   25  N   UNL     1     -10.219  15.553  65.573  1.00  0.00    -0.367 N  
HETATM   26  H   UNL     1      -9.809  16.440  65.866  1.00  0.00     0.000 HD 
HETATM   27  C   UNL     1      -9.755  14.362  66.141  1.00  0.00    -0.312 A  
HETATM   28  C   UNL     1      -8.794  14.414  67.150  1.00  0.00    -0.244 A  
HETATM   29  C   UNL     1      -8.284  13.226  67.655  1.00  0.00    -0.179 A  
HETATM   30  O   UNL     1      -7.353  13.207  68.649  1.00  0.00    -0.107 OA 
HETATM   31  C   UNL     1      -8.703  11.996  67.153  1.00  0.00    -0.183 A  
HETATM   32  H   UNL     1      -7.004  12.394  68.995  1.00  0.00     0.000 HD 
ENDBRANCH  16  19
ENDBRANCH  15  16
ENDBRANCH  13  15
ENDBRANCH   6   9
ENDBRANCH   2   3
TORSDOF 5
ENDMDL
MODEL       96
REMARK 921   NORMALIZED FREE ENERGY PREDICTED BY IDOCK:   -5.64 KCAL/MOL
REMARK 922        TOTAL FREE ENERGY PREDICTED BY IDOCK:   -7.53 KCAL/MOL
REMARK 923 INTER-LIGAND FREE ENERGY PREDICTED BY IDOCK:   -7.05 KCAL/MOL
REMARK 924 INTRA-LIGAND FREE ENERGY PREDICTED BY IDOCK:   -0.48 KCAL/MOL
REMARK 927      BINDING AFFINITY PREDICTED BY RF-SCORE:    0.00 PKD
ROOT
HETATM    1  C   UNL     1     -12.282  12.892  63.373  1.00  0.00    -0.490 C  
HETATM    2  O   UNL     1     -12.552  13.629  64.562  1.00  0.00    -0.608 OA 
ENDROOT
BRANCH   2   3
HETATM    3  C   UNL     1     -12.043  13.107  65.724  1.00  0.00    -0.447 A  
HETATM    4  C   UNL     1     -12.130  13.703  66.978  1.00  0.00    -0.423 A  
HETATM    5  C   UNL     1     -11.553  13.087  68.089  1.00  0.00    -0.379 A  
HETATM    6  C   UNL     1     -10.893  11.854  67.975  1.00  0.00    -0.256 A  
HETATM    7  C   UNL     1     -11.398  11.875  65.599  1.00  0.00    -0.339 A  
HETATM    8  C   UNL     1     -10.826  11.252  66.713  1.00  0.00    -0.334 A  
BRANCH   6   9
HETATM    9  C   UNL     1     -10.262  11.215  69.202  1.00  0.00    -0.163 C  
HETATM   10  C   UNL     1     -11.104  10.134  69.965  1.00  0.00    -0.308 C  
HETATM   11  C   UNL     1     -11.253   8.884  69.076  1.00  0.00     0.267 C  
HETATM   12  C   UNL     1     -12.487  10.687  70.363  1.00  0.00    -0.421 C  
HETATM   13  N   UNL     1     -10.341   9.772  71.188  1.00  0.00    -0.279 NA 
HETATM   14  H   UNL     1     -10.143  10.610  71.735  1.00  0.00     0.000 HD 
BRANCH  13  15
HETATM   15  C   UNL     1     -10.961   8.741  72.049  1.00  0.00    -0.368 C  
BRANCH  15  16
HETATM   16  C   UNL     1      -9.945   7.987  72.941  1.00  0.00    -0.290 C  
HETATM   17  H   UNL     1      -8.033   8.151  73.401  1.00  0.00     0.000 HD 
HETATM   18  O   UNL     1      -8.656   8.613  72.853  1.00  0.00    -0.398 OA 
BRANCH  16  19
HETATM   19  C   UNL     1      -9.871   6.511  72.616  1.00  0.00    -0.179 A  
HETATM   20  C   UNL     1      -9.313   6.064  71.406  1.00  0.00    -0.146 A  
HETATM   21  O   UNL     1      -8.890   7.018  70.514  1.00  0.00    -0.152 OA 
HETATM   22  C   UNL     1      -8.003   6.522  69.520  1.00  0.00    -0.117 C  
HETATM   23  C   UNL     1      -8.306   5.142  68.949  1.00  0.00    -0.087 C  
HETATM   24  O   UNL     1      -8.036   4.803  67.801  1.00  0.00    -0.093 OA 
HETATM   25  N   UNL     1      -8.816   4.260  69.864  1.00  0.00    -0.077 N  
HETATM   26  H   UNL     1      -8.872   3.270  69.627  1.00  0.00     0.000 HD 
HETATM   27  C   UNL     1      -9.261   4.691  71.118  1.00  0.00    -0.139 A  
HETATM   28  C   UNL     1      -9.703   3.751  72.047  1.00  0.00    -0.236 A  
HETATM   29  C   UNL     1     -10.213   4.193  73.261  1.00  0.00    -0.154 A  
HETATM   30  O   UNL     1     -10.650   3.327  74.217  1.00  0.00    -0.184 OA 
HETATM   31  C   UNL     1     -10.306   5.553  73.545  1.00  0.00    -0.252 A  
HETATM   32  H   UNL     1     -10.999   3.629  75.047  1.00  0.00     0.000 HD 
ENDBRANCH  16  19
ENDBRANCH  15  16
ENDBRANCH  13  15
ENDBRANCH   6   9
ENDBRANCH   2   3
TORSDOF 5
ENDMDL
MODEL       97
REMARK 921   NORMALIZED FREE ENERGY PREDICTED BY IDOCK:   -5.63 KCAL/MOL
REMARK 922        TOTAL FREE ENERGY PREDICTED BY IDOCK:   -7.52 KCAL/MOL
REMARK 923 INTER-LIGAND FREE ENERGY PREDICTED BY IDOCK:   -7.65 KCAL/MOL
REMARK 924 INTRA-LIGAND FREE ENERGY PREDICTED BY IDOCK:    0.12 KCAL/MOL
REMARK 927      BINDING AFFINITY PREDICTED BY RF-SCORE:    0.00 PKD
ROOT
HETATM    1  C   UNL     1     -12.247  16.206  73.501  1.00  0.00    -0.528 C  
HETATM    2  O   UNL     1     -12.770  16.057  72.183  1.00  0.00    -0.449 OA 
ENDROOT
BRANCH   2   3
HETATM    3  C   UNL     1     -12.688  14.800  71.641  1.00  0.00    -0.330 A  
HETATM    4  C   UNL     1     -13.111  13.628  72.260  1.00  0.00    -0.491 A  
HETATM    5  C   UNL     1     -12.956  12.399  71.617  1.00  0.00    -0.409 A  
HETATM    6  C   UNL     1     -12.393  12.316  70.335  1.00  0.00    -0.309 A  
HETATM    7  C   UNL     1     -12.136  14.732  70.360  1.00  0.00    -0.381 A  
HETATM    8  C   UNL     1     -11.987  13.502  69.710  1.00  0.00    -0.405 A  
BRANCH   6   9
HETATM    9  C   UNL     1     -12.225  10.961  69.667  1.00  0.00    -0.354 C  
HETATM   10  C   UNL     1     -11.109  10.830  68.572  1.00  0.00    -0.262 C  
HETATM   11  C   UNL     1      -9.726  10.957  69.238  1.00  0.00    -0.087 C  
HETATM   12  C   UNL     1     -11.285  11.894  67.471  1.00  0.00    -0.359 C  
HETATM   13  N   UNL     1     -11.240   9.473  67.979  1.00  0.00    -0.509 NA 
HETATM   14  H   UNL     1     -12.188   9.337  67.627  1.00  0.00     0.000 HD 
BRANCH  13  15
HETATM   15  C   UNL     1     -10.258   9.137  66.926  1.00  0.00    -0.266 C  
BRANCH  15  16
HETATM   16  C   UNL     1      -9.809   7.655  66.948  1.00  0.00    -0.234 C  
HETATM   17  H   UNL     1     -10.680   5.885  66.876  1.00  0.00     0.000 HD 
HETATM   18  O   UNL     1     -10.955   6.794  66.863  1.00  0.00    -0.378 OA 
BRANCH  16  19
HETATM   19  C   UNL     1      -8.953   7.327  68.152  1.00  0.00    -0.132 A  
HETATM   20  C   UNL     1      -9.538   7.002  69.387  1.00  0.00    -0.155 A  
HETATM   21  O   UNL     1     -10.907   7.048  69.471  1.00  0.00    -0.236 OA 
HETATM   22  C   UNL     1     -11.439   6.348  70.589  1.00  0.00    -0.362 C  
HETATM   23  C   UNL     1     -10.672   6.458  71.901  1.00  0.00    -0.224 C  
HETATM   24  O   UNL     1     -11.201   6.414  73.008  1.00  0.00    -0.229 OA 
HETATM   25  N   UNL     1      -9.312   6.504  71.750  1.00  0.00    -0.150 N  
HETATM   26  H   UNL     1      -8.713   6.388  72.568  1.00  0.00     0.000 HD 
HETATM   27  C   UNL     1      -8.728   6.708  70.495  1.00  0.00    -0.144 A  
HETATM   28  C   UNL     1      -7.340   6.673  70.374  1.00  0.00    -0.082 A  
HETATM   29  C   UNL     1      -6.766   6.951  69.140  1.00  0.00    -0.053 A  
HETATM   30  O   UNL     1      -5.417   6.923  68.951  1.00  0.00    -0.016 OA 
HETATM   31  C   UNL     1      -7.555   7.281  68.042  1.00  0.00    -0.115 A  
HETATM   32  H   UNL     1      -5.024   7.113  68.108  1.00  0.00     0.000 HD 
ENDBRANCH  16  19
ENDBRANCH  15  16
ENDBRANCH  13  15
ENDBRANCH   6   9
ENDBRANCH   2   3
TORSDOF 5
ENDMDL
MODEL       98
REMARK 921   NORMALIZED FREE ENERGY PREDICTED BY IDOCK:   -5.61 KCAL/MOL
REMARK 922        TOTAL FREE ENERGY PREDICTED BY IDOCK:   -7.50 KCAL/MOL
REMARK 923 INTER-LIGAND FREE ENERGY PREDICTED BY IDOCK:   -6.84 KCAL/MOL
REMARK 924 INTRA-LIGAND FREE ENERGY PREDICTED BY IDOCK:   -0.65 KCAL/MOL
REMARK 927      BINDING AFFINITY PREDICTED BY RF-SCORE:    0.00 PKD
ROOT
HETATM    1  C   UNL     1      -8.685   3.705  73.832  1.00  0.00    -0.089 C  
HETATM    2  O   UNL     1      -8.537   3.472  72.434  1.00  0.00    -0.083 OA 
ENDROOT
BRANCH   2   3
HETATM    3  C   UNL     1      -9.039   4.441  71.605  1.00  0.00    -0.130 A  
HETATM    4  C   UNL     1     -10.273   4.390  70.964  1.00  0.00    -0.121 A  
HETATM    5  C   UNL     1     -10.670   5.429  70.121  1.00  0.00    -0.295 A  
HETATM    6  C   UNL     1      -9.852   6.550  69.916  1.00  0.00    -0.185 A  
HETATM    7  C   UNL     1      -8.221   5.558  71.417  1.00  0.00    -0.118 A  
HETATM    8  C   UNL     1      -8.621   6.604  70.580  1.00  0.00    -0.143 A  
BRANCH   6   9
HETATM    9  C   UNL     1     -10.308   7.660  68.982  1.00  0.00    -0.220 C  
HETATM   10  C   UNL     1     -10.642   9.052  69.624  1.00  0.00    -0.224 C  
HETATM   11  C   UNL     1      -9.346   9.689  70.161  1.00  0.00    -0.294 C  
HETATM   12  C   UNL     1     -11.686   8.907  70.749  1.00  0.00    -0.269 C  
HETATM   13  N   UNL     1     -11.191   9.909  68.541  1.00  0.00    -0.491 NA 
HETATM   14  H   UNL     1     -11.990   9.449  68.104  1.00  0.00     0.000 HD 
BRANCH  13  15
HETATM   15  C   UNL     1     -11.558  11.287  68.938  1.00  0.00    -0.319 C  
BRANCH  15  16
HETATM   16  C   UNL     1     -11.558  12.291  67.760  1.00  0.00    -0.351 C  
HETATM   17  H   UNL     1     -11.827  12.219  65.806  1.00  0.00     0.000 HD 
HETATM   18  O   UNL     1     -11.826  11.603  66.529  1.00  0.00    -0.500 OA 
BRANCH  16  19
HETATM   19  C   UNL     1     -10.277  13.093  67.682  1.00  0.00    -0.224 A  
HETATM   20  C   UNL     1     -10.237  14.433  68.102  1.00  0.00    -0.232 A  
HETATM   21  O   UNL     1     -11.413  14.997  68.531  1.00  0.00    -0.288 OA 
HETATM   22  C   UNL     1     -11.237  16.186  69.290  1.00  0.00    -0.337 C  
HETATM   23  C   UNL     1     -10.150  17.148  68.827  1.00  0.00    -0.329 C  
HETATM   24  O   UNL     1     -10.206  18.365  68.974  1.00  0.00    -0.367 OA 
HETATM   25  N   UNL     1      -9.038  16.530  68.320  1.00  0.00    -0.208 N  
HETATM   26  H   UNL     1      -8.191  17.076  68.160  1.00  0.00     0.000 HD 
HETATM   27  C   UNL     1      -9.042  15.165  68.014  1.00  0.00    -0.180 A  
HETATM   28  C   UNL     1      -7.868  14.560  67.570  1.00  0.00    -0.212 A  
HETATM   29  C   UNL     1      -7.899  13.222  67.198  1.00  0.00    -0.033 A  
HETATM   30  O   UNL     1      -6.785  12.569  66.767  1.00  0.00    -0.411 OA 
HETATM   31  C   UNL     1      -9.085  12.494  67.244  1.00  0.00    -0.189 A  
HETATM   32  H   UNL     1      -6.806  11.654  66.513  1.00  0.00     0.000 HD 
ENDBRANCH  16  19
ENDBRANCH  15  16
ENDBRANCH  13  15
ENDBRANCH   6   9
ENDBRANCH   2   3
TORSDOF 5
ENDMDL
MODEL       99
REMARK 921   NORMALIZED FREE ENERGY PREDICTED BY IDOCK:   -5.61 KCAL/MOL
REMARK 922        TOTAL FREE ENERGY PREDICTED BY IDOCK:   -7.49 KCAL/MOL
REMARK 923 INTER-LIGAND FREE ENERGY PREDICTED BY IDOCK:   -6.55 KCAL/MOL
REMARK 924 INTRA-LIGAND FREE ENERGY PREDICTED BY IDOCK:   -0.94 KCAL/MOL
REMARK 927      BINDING AFFINITY PREDICTED BY RF-SCORE:    0.00 PKD
ROOT
HETATM    1  C   UNL     1     -11.612  15.852  64.244  1.00  0.00    -0.178 C  
HETATM    2  O   UNL     1     -10.523  16.302  65.046  1.00  0.00    -0.621 OA 
ENDROOT
BRANCH   2   3
HETATM    3  C   UNL     1      -9.918  15.353  65.830  1.00  0.00    -0.362 A  
HETATM    4  C   UNL     1      -8.712  15.516  66.503  1.00  0.00    -0.340 A  
HETATM    5  C   UNL     1      -8.180  14.468  67.255  1.00  0.00    -0.230 A  
HETATM    6  C   UNL     1      -8.851  13.241  67.367  1.00  0.00    -0.204 A  
HETATM    7  C   UNL     1     -10.602  14.141  65.943  1.00  0.00    -0.301 A  
HETATM    8  C   UNL     1     -10.075  13.091  66.703  1.00  0.00    -0.251 A  
BRANCH   6   9
HETATM    9  C   UNL     1      -8.240  12.114  68.184  1.00  0.00    -0.164 C  
HETATM   10  C   UNL     1      -7.714  10.860  67.402  1.00  0.00    -0.108 C  
HETATM   11  C   UNL     1      -6.486  11.261  66.563  1.00  0.00    -0.111 C  
HETATM   12  C   UNL     1      -8.817  10.264  66.504  1.00  0.00    -0.150 C  
HETATM   13  N   UNL     1      -7.303   9.856  68.418  1.00  0.00    -0.077 NA 
HETATM   14  H   UNL     1      -8.080   9.659  69.048  1.00  0.00     0.000 HD 
BRANCH  13  15
HETATM   15  C   UNL     1      -6.754   8.591  67.883  1.00  0.00    -0.066 C  
BRANCH  15  16
HETATM   16  C   UNL     1      -7.162   7.343  68.703  1.00  0.00    -0.090 C  
HETATM   17  H   UNL     1      -6.607   5.453  68.823  1.00  0.00     0.000 HD 
HETATM   18  O   UNL     1      -6.357   6.218  68.319  1.00  0.00    -0.042 OA 
BRANCH  16  19
HETATM   19  C   UNL     1      -8.639   7.034  68.592  1.00  0.00    -0.120 A  
HETATM   20  C   UNL     1      -9.543   7.466  69.578  1.00  0.00    -0.155 A  
HETATM   21  O   UNL     1      -9.027   8.128  70.664  1.00  0.00    -0.143 OA 
HETATM   22  C   UNL     1      -9.995   8.864  71.402  1.00  0.00    -0.308 C  
HETATM   23  C   UNL     1     -11.362   8.218  71.585  1.00  0.00    -0.272 C  
HETATM   24  O   UNL     1     -12.078   8.399  72.565  1.00  0.00    -0.393 OA 
HETATM   25  N   UNL     1     -11.784   7.491  70.504  1.00  0.00    -0.459 N  
HETATM   26  H   UNL     1     -12.755   7.182  70.457  1.00  0.00     0.000 HD 
HETATM   27  C   UNL     1     -10.909   7.164  69.463  1.00  0.00    -0.225 A  
HETATM   28  C   UNL     1     -11.398   6.487  68.347  1.00  0.00    -0.154 A  
HETATM   29  C   UNL     1     -10.509   6.100  67.353  1.00  0.00    -0.247 A  
HETATM   30  O   UNL     1     -10.922   5.447  66.231  1.00  0.00    -0.666 OA 
HETATM   31  C   UNL     1      -9.146   6.360  67.470  1.00  0.00    -0.114 A  
HETATM   32  H   UNL     1     -10.314   5.182  65.551  1.00  0.00     0.000 HD 
ENDBRANCH  16  19
ENDBRANCH  15  16
ENDBRANCH  13  15
ENDBRANCH   6   9
ENDBRANCH   2   3
TORSDOF 5
ENDMDL
MODEL      100
REMARK 921   NORMALIZED FREE ENERGY PREDICTED BY IDOCK:   -5.60 KCAL/MOL
REMARK 922        TOTAL FREE ENERGY PREDICTED BY IDOCK:   -7.48 KCAL/MOL
REMARK 923 INTER-LIGAND FREE ENERGY PREDICTED BY IDOCK:   -6.87 KCAL/MOL
REMARK 924 INTRA-LIGAND FREE ENERGY PREDICTED BY IDOCK:   -0.61 KCAL/MOL
REMARK 927      BINDING AFFINITY PREDICTED BY RF-SCORE:    0.00 PKD
ROOT
HETATM    1  C   UNL     1     -11.189   2.192  73.591  1.00  0.00    -0.206 C  
HETATM    2  O   UNL     1     -10.163   3.129  73.274  1.00  0.00    -0.123 OA 
ENDROOT
BRANCH   2   3
HETATM    3  C   UNL     1     -10.550   4.225  72.547  1.00  0.00    -0.110 A  
HETATM    4  C   UNL     1     -11.512   5.151  72.938  1.00  0.00    -0.329 A  
HETATM    5  C   UNL     1     -11.840   6.218  72.101  1.00  0.00    -0.365 A  
HETATM    6  C   UNL     1     -11.203   6.394  70.864  1.00  0.00    -0.384 A  
HETATM    7  C   UNL     1      -9.900   4.396  71.323  1.00  0.00    -0.260 A  
HETATM    8  C   UNL     1     -10.222   5.469  70.486  1.00  0.00    -0.311 A  
BRANCH   6   9
HETATM    9  C   UNL     1     -11.592   7.560  69.969  1.00  0.00     0.029 C  
HETATM   10  C   UNL     1     -11.152   8.995  70.422  1.00  0.00    -0.244 C  
HETATM   11  C   UNL     1      -9.618   9.109  70.333  1.00  0.00    -0.268 C  
HETATM   12  C   UNL     1     -11.640   9.299  71.852  1.00  0.00    -0.405 C  
HETATM   13  N   UNL     1     -11.767   9.958  69.471  1.00  0.00    -0.461 NA 
HETATM   14  H   UNL     1     -12.777   9.821  69.441  1.00  0.00     0.000 HD 
BRANCH  13  15
HETATM   15  C   UNL     1     -11.457  11.385  69.713  1.00  0.00    -0.300 C  
BRANCH  15  16
HETATM   16  C   UNL     1     -11.351  12.224  68.417  1.00  0.00    -0.292 C  
HETATM   17  H   UNL     1     -11.995  12.088  66.556  1.00  0.00     0.000 HD 
HETATM   18  O   UNL     1     -12.059  11.573  67.351  1.00  0.00    -0.593 OA 
BRANCH  16  19
HETATM   19  C   UNL     1      -9.917  12.519  68.034  1.00  0.00    -0.219 A  
HETATM   20  C   UNL     1      -9.344  13.776  68.292  1.00  0.00    -0.209 A  
HETATM   21  O   UNL     1     -10.151  14.735  68.853  1.00  0.00    -0.228 OA 
HETATM   22  C   UNL     1      -9.435  15.817  69.437  1.00  0.00    -0.275 C  
HETATM   23  C   UNL     1      -8.203  16.313  68.693  1.00  0.00    -0.214 C  
HETATM   24  O   UNL     1      -7.814  17.478  68.713  1.00  0.00    -0.267 OA 
HETATM   25  N   UNL     1      -7.490  15.323  68.072  1.00  0.00    -0.112 N  
HETATM   26  H   UNL     1      -6.558  15.528  67.711  1.00  0.00     0.000 HD 
HETATM   27  C   UNL     1      -8.015  14.035  67.922  1.00  0.00    -0.158 A  
HETATM   28  C   UNL     1      -7.227  13.037  67.352  1.00  0.00    -0.123 A  
HETATM   29  C   UNL     1      -7.782  11.782  67.138  1.00  0.00    -0.162 A  
HETATM   30  O   UNL     1      -7.063  10.760  66.596  1.00  0.00    -0.117 OA 
HETATM   31  C   UNL     1      -9.110  11.521  67.465  1.00  0.00    -0.166 A  
HETATM   32  H   UNL     1      -7.442   9.902  66.450  1.00  0.00     0.000 HD 
ENDBRANCH  16  19
ENDBRANCH  15  16
ENDBRANCH  13  15
ENDBRANCH   6   9
ENDBRANCH   2   3
TORSDOF 5
ENDMDL
MODEL      101
REMARK 921   NORMALIZED FREE ENERGY PREDICTED BY IDOCK:   -5.59 KCAL/MOL
REMARK 922        TOTAL FREE ENERGY PREDICTED BY IDOCK:   -7.47 KCAL/MOL
REMARK 923 INTER-LIGAND FREE ENERGY PREDICTED BY IDOCK:   -7.42 KCAL/MOL
REMARK 924 INTRA-LIGAND FREE ENERGY PREDICTED BY IDOCK:   -0.05 KCAL/MOL
REMARK 927      BINDING AFFINITY PREDICTED BY RF-SCORE:    0.00 PKD
ROOT
HETATM    1  C   UNL     1      -7.861   7.232  62.337  1.00  0.00    -0.126 C  
HETATM    2  O   UNL     1      -7.723   8.642  62.484  1.00  0.00    -0.112 OA 
ENDROOT
BRANCH   2   3
HETATM    3  C   UNL     1      -8.427   9.213  63.513  1.00  0.00    -0.189 A  
HETATM    4  C   UNL     1      -8.250   8.928  64.863  1.00  0.00    -0.161 A  
HETATM    5  C   UNL     1      -9.044   9.558  65.823  1.00  0.00    -0.243 A  
HETATM    6  C   UNL     1     -10.018  10.498  65.457  1.00  0.00    -0.342 A  
HETATM    7  C   UNL     1      -9.386  10.157  63.137  1.00  0.00    -0.333 A  
HETATM    8  C   UNL     1     -10.176  10.795  64.098  1.00  0.00    -0.412 A  
BRANCH   6   9
HETATM    9  C   UNL     1     -10.875  11.157  66.526  1.00  0.00    -0.302 C  
HETATM   10  C   UNL     1     -10.968  12.723  66.512  1.00  0.00    -0.262 C  
HETATM   11  C   UNL     1     -11.736  13.176  65.256  1.00  0.00    -0.375 C  
HETATM   12  C   UNL     1      -9.566  13.362  66.555  1.00  0.00    -0.277 C  
HETATM   13  N   UNL     1     -11.735  13.123  67.721  1.00  0.00    -0.343 NA 
HETATM   14  H   UNL     1     -11.293  12.738  68.557  1.00  0.00     0.000 HD 
BRANCH  13  15
HETATM   15  C   UNL     1     -11.954  14.576  67.890  1.00  0.00    -0.287 C  
BRANCH  15  16
HETATM   16  C   UNL     1     -11.356  15.145  69.199  1.00  0.00    -0.298 C  
HETATM   17  H   UNL     1     -11.916  16.406  70.611  1.00  0.00     0.000 HD 
HETATM   18  O   UNL     1     -12.283  16.057  69.807  1.00  0.00    -0.244 OA 
BRANCH  16  19
HETATM   19  C   UNL     1     -10.001  15.784  68.989  1.00  0.00    -0.234 A  
HETATM   20  C   UNL     1      -9.876  17.003  68.299  1.00  0.00    -0.278 A  
HETATM   21  O   UNL     1     -11.021  17.556  67.781  1.00  0.00    -0.314 OA 
HETATM   22  C   UNL     1     -10.895  18.935  67.454  1.00  0.00    -0.374 C  
HETATM   23  C   UNL     1      -9.580  19.380  66.829  1.00  0.00    -0.346 C  
HETATM   24  O   UNL     1      -9.481  20.305  66.028  1.00  0.00    -0.319 OA 
HETATM   25  N   UNL     1      -8.480  18.725  67.317  1.00  0.00    -0.267 N  
HETATM   26  H   UNL     1      -7.549  19.080  67.100  1.00  0.00     0.000 HD 
HETATM   27  C   UNL     1      -8.610  17.577  68.106  1.00  0.00    -0.258 A  
HETATM   28  C   UNL     1      -7.469  16.985  68.644  1.00  0.00    -0.229 A  
HETATM   29  C   UNL     1      -7.600  15.804  69.363  1.00  0.00    -0.214 A  
HETATM   30  O   UNL     1      -6.528  15.181  69.925  1.00  0.00    -0.156 OA 
HETATM   31  C   UNL     1      -8.845  15.203  69.531  1.00  0.00    -0.125 A  
HETATM   32  H   UNL     1      -6.617  14.373  70.417  1.00  0.00     0.000 HD 
ENDBRANCH  16  19
ENDBRANCH  15  16
ENDBRANCH  13  15
ENDBRANCH   6   9
ENDBRANCH   2   3
TORSDOF 5
ENDMDL
MODEL      102
REMARK 921   NORMALIZED FREE ENERGY PREDICTED BY IDOCK:   -5.57 KCAL/MOL
REMARK 922        TOTAL FREE ENERGY PREDICTED BY IDOCK:   -7.45 KCAL/MOL
REMARK 923 INTER-LIGAND FREE ENERGY PREDICTED BY IDOCK:   -7.07 KCAL/MOL
REMARK 924 INTRA-LIGAND FREE ENERGY PREDICTED BY IDOCK:   -0.38 KCAL/MOL
REMARK 927      BINDING AFFINITY PREDICTED BY RF-SCORE:    0.00 PKD
ROOT
HETATM    1  C   UNL     1      -6.760  20.820  66.712  1.00  0.00    -0.285 C  
HETATM    2  O   UNL     1      -7.076  20.545  68.074  1.00  0.00    -0.291 OA 
ENDROOT
BRANCH   2   3
HETATM    3  C   UNL     1      -7.123  19.221  68.428  1.00  0.00    -0.293 A  
HETATM    4  C   UNL     1      -6.040  18.469  68.873  1.00  0.00    -0.229 A  
HETATM    5  C   UNL     1      -6.204  17.119  69.184  1.00  0.00    -0.212 A  
HETATM    6  C   UNL     1      -7.456  16.495  69.074  1.00  0.00    -0.229 A  
HETATM    7  C   UNL     1      -8.377  18.615  68.325  1.00  0.00    -0.350 A  
HETATM    8  C   UNL     1      -8.545  17.263  68.644  1.00  0.00    -0.265 A  
BRANCH   6   9
HETATM    9  C   UNL     1      -7.600  15.019  69.408  1.00  0.00    -0.195 C  
HETATM   10  C   UNL     1      -7.395  13.992  68.239  1.00  0.00    -0.115 C  
HETATM   11  C   UNL     1      -5.919  14.010  67.799  1.00  0.00    -0.115 C  
HETATM   12  C   UNL     1      -8.323  14.313  67.051  1.00  0.00    -0.156 C  
HETATM   13  N   UNL     1      -7.724  12.648  68.780  1.00  0.00    -0.294 NA 
HETATM   14  H   UNL     1      -8.666  12.651  69.172  1.00  0.00     0.000 HD 
BRANCH  13  15
HETATM   15  C   UNL     1      -7.577  11.522  67.832  1.00  0.00    -0.113 C  
BRANCH  15  16
HETATM   16  C   UNL     1      -8.924  10.887  67.410  1.00  0.00    -0.136 C  
HETATM   17  H   UNL     1     -10.035  10.815  65.781  1.00  0.00     0.000 HD 
HETATM   18  O   UNL     1      -9.209  11.204  66.040  1.00  0.00    -0.192 OA 
BRANCH  16  19
HETATM   19  C   UNL     1     -10.063  11.285  68.323  1.00  0.00    -0.198 A  
HETATM   20  C   UNL     1     -10.368  10.531  69.469  1.00  0.00    -0.221 A  
HETATM   21  O   UNL     1      -9.630   9.395  69.694  1.00  0.00    -0.167 OA 
HETATM   22  C   UNL     1      -9.714   8.911  71.029  1.00  0.00    -0.252 C  
HETATM   23  C   UNL     1     -11.076   8.983  71.706  1.00  0.00    -0.374 C  
HETATM   24  O   UNL     1     -11.463   8.182  72.552  1.00  0.00    -0.370 OA 
HETATM   25  N   UNL     1     -11.808  10.090  71.370  1.00  0.00    -0.377 N  
HETATM   26  H   UNL     1     -12.643  10.321  71.909  1.00  0.00     0.000 HD 
HETATM   27  C   UNL     1     -11.434  10.910  70.300  1.00  0.00    -0.302 A  
HETATM   28  C   UNL     1     -12.164  12.068  70.038  1.00  0.00    -0.280 A  
HETATM   29  C   UNL     1     -11.832  12.836  68.930  1.00  0.00    -0.308 A  
HETATM   30  O   UNL     1     -12.497  13.985  68.624  1.00  0.00    -0.494 OA 
HETATM   31  C   UNL     1     -10.802  12.452  68.075  1.00  0.00    -0.251 A  
HETATM   32  H   UNL     1     -12.270  14.510  67.866  1.00  0.00     0.000 HD 
ENDBRANCH  16  19
ENDBRANCH  15  16
ENDBRANCH  13  15
ENDBRANCH   6   9
ENDBRANCH   2   3
TORSDOF 5
ENDMDL
MODEL      103
REMARK 921   NORMALIZED FREE ENERGY PREDICTED BY IDOCK:   -5.55 KCAL/MOL
REMARK 922        TOTAL FREE ENERGY PREDICTED BY IDOCK:   -7.41 KCAL/MOL
REMARK 923 INTER-LIGAND FREE ENERGY PREDICTED BY IDOCK:   -7.12 KCAL/MOL
REMARK 924 INTRA-LIGAND FREE ENERGY PREDICTED BY IDOCK:   -0.29 KCAL/MOL
REMARK 927      BINDING AFFINITY PREDICTED BY RF-SCORE:    0.00 PKD
ROOT
HETATM    1  C   UNL     1     -13.683  13.217  72.330  1.00  0.00    -0.578 C  
HETATM    2  O   UNL     1     -13.128  12.330  71.363  1.00  0.00    -0.328 OA 
ENDROOT
BRANCH   2   3
HETATM    3  C   UNL     1     -12.264  12.889  70.457  1.00  0.00    -0.314 A  
HETATM    4  C   UNL     1     -11.631  12.206  69.423  1.00  0.00    -0.381 A  
HETATM    5  C   UNL     1     -10.751  12.878  68.574  1.00  0.00    -0.275 A  
HETATM    6  C   UNL     1     -10.498  14.249  68.727  1.00  0.00    -0.249 A  
HETATM    7  C   UNL     1     -12.029  14.257  70.613  1.00  0.00    -0.392 A  
HETATM    8  C   UNL     1     -11.153  14.933  69.758  1.00  0.00    -0.300 A  
BRANCH   6   9
HETATM    9  C   UNL     1      -9.523  14.949  67.794  1.00  0.00    -0.203 C  
HETATM   10  C   UNL     1      -7.993  14.787  68.095  1.00  0.00    -0.129 C  
HETATM   11  C   UNL     1      -7.577  13.325  67.845  1.00  0.00    -0.152 C  
HETATM   12  C   UNL     1      -7.665  15.208  69.542  1.00  0.00    -0.197 C  
HETATM   13  N   UNL     1      -7.267  15.669  67.144  1.00  0.00    -0.213 NA 
HETATM   14  H   UNL     1      -7.609  16.626  67.225  1.00  0.00     0.000 HD 
BRANCH  13  15
HETATM   15  C   UNL     1      -5.791  15.649  67.250  1.00  0.00     0.131 C  
BRANCH  15  16
HETATM   16  C   UNL     1      -5.163  17.056  67.401  1.00  0.00    -0.131 C  
HETATM   17  H   UNL     1      -4.805  18.324  68.871  1.00  0.00     0.000 HD 
HETATM   18  O   UNL     1      -5.191  17.461  68.778  1.00  0.00    -0.144 OA 
BRANCH  16  19
HETATM   19  C   UNL     1      -5.819  18.083  66.504  1.00  0.00    -0.199 A  
HETATM   20  C   UNL     1      -7.004  18.731  66.894  1.00  0.00    -0.200 A  
HETATM   21  O   UNL     1      -7.566  18.356  68.089  1.00  0.00    -0.257 OA 
HETATM   22  C   UNL     1      -8.507  19.293  68.600  1.00  0.00    -0.368 C  
HETATM   23  C   UNL     1      -9.432  19.963  67.593  1.00  0.00    -0.364 C  
HETATM   24  O   UNL     1     -10.575  20.329  67.851  1.00  0.00    -0.252 OA 
HETATM   25  N   UNL     1      -8.843  20.227  66.385  1.00  0.00    -0.560 N  
HETATM   26  H   UNL     1      -9.318  20.837  65.719  1.00  0.00     0.000 HD 
HETATM   27  C   UNL     1      -7.603  19.675  66.046  1.00  0.00    -0.321 A  
HETATM   28  C   UNL     1      -7.005  20.029  64.838  1.00  0.00    -0.067 A  
HETATM   29  C   UNL     1      -5.811  19.420  64.475  1.00  0.00    -0.279 A  
HETATM   30  O   UNL     1      -5.168  19.728  63.314  1.00  0.00    -0.197 OA 
HETATM   31  C   UNL     1      -5.224  18.454  65.289  1.00  0.00    -0.206 A  
HETATM   32  H   UNL     1      -4.352  19.312  63.066  1.00  0.00     0.000 HD 
ENDBRANCH  16  19
ENDBRANCH  15  16
ENDBRANCH  13  15
ENDBRANCH   6   9
ENDBRANCH   2   3
TORSDOF 5
ENDMDL
MODEL      104
REMARK 921   NORMALIZED FREE ENERGY PREDICTED BY IDOCK:   -5.54 KCAL/MOL
REMARK 922        TOTAL FREE ENERGY PREDICTED BY IDOCK:   -7.41 KCAL/MOL
REMARK 923 INTER-LIGAND FREE ENERGY PREDICTED BY IDOCK:   -7.08 KCAL/MOL
REMARK 924 INTRA-LIGAND FREE ENERGY PREDICTED BY IDOCK:   -0.32 KCAL/MOL
REMARK 927      BINDING AFFINITY PREDICTED BY RF-SCORE:    0.00 PKD
ROOT
HETATM    1  C   UNL     1     -10.048   3.967  74.130  1.00  0.00    -0.154 C  
HETATM    2  O   UNL     1     -10.532   3.706  72.816  1.00  0.00    -0.164 OA 
ENDROOT
BRANCH   2   3
HETATM    3  C   UNL     1     -10.603   4.786  71.973  1.00  0.00    -0.106 A  
HETATM    4  C   UNL     1     -11.620   5.735  71.967  1.00  0.00    -0.226 A  
HETATM    5  C   UNL     1     -11.598   6.782  71.044  1.00  0.00    -0.388 A  
HETATM    6  C   UNL     1     -10.549   6.914  70.122  1.00  0.00    -0.249 A  
HETATM    7  C   UNL     1      -9.547   4.914  71.068  1.00  0.00    -0.238 A  
HETATM    8  C   UNL     1      -9.518   5.967  70.148  1.00  0.00    -0.182 A  
BRANCH   6   9
HETATM    9  C   UNL     1     -10.560   8.059  69.121  1.00  0.00    -0.181 C  
HETATM   10  C   UNL     1      -9.957   9.430  69.587  1.00  0.00    -0.197 C  
HETATM   11  C   UNL     1      -8.437   9.278  69.782  1.00  0.00    -0.152 C  
HETATM   12  C   UNL     1     -10.628   9.917  70.887  1.00  0.00    -0.254 C  
HETATM   13  N   UNL     1     -10.212  10.409  68.498  1.00  0.00    -0.165 NA 
HETATM   14  H   UNL     1     -11.210  10.442  68.286  1.00  0.00     0.000 HD 
BRANCH  13  15
HETATM   15  C   UNL     1      -9.701  11.777  68.733  1.00  0.00    -0.067 C  
BRANCH  15  16
HETATM   16  C   UNL     1      -8.539  12.174  67.791  1.00  0.00    -0.164 C  
HETATM   17  H   UNL     1      -6.590  12.448  67.942  1.00  0.00     0.000 HD 
HETATM   18  O   UNL     1      -7.304  12.205  68.520  1.00  0.00    -0.095 OA 
BRANCH  16  19
HETATM   19  C   UNL     1      -8.796  13.482  67.073  1.00  0.00    -0.219 A  
HETATM   20  C   UNL     1      -9.911  13.638  66.233  1.00  0.00    -0.301 A  
HETATM   21  O   UNL     1     -10.722  12.546  66.049  1.00  0.00    -0.254 OA 
HETATM   22  C   UNL     1     -12.006  12.866  65.527  1.00  0.00    -0.436 C  
HETATM   23  C   UNL     1     -12.069  13.950  64.459  1.00  0.00    -0.443 C  
HETATM   24  O   UNL     1     -12.904  13.976  63.560  1.00  0.00    -0.597 OA 
HETATM   25  N   UNL     1     -11.170  14.967  64.643  1.00  0.00    -0.582 N  
HETATM   26  H   UNL     1     -11.262  15.821  64.093  1.00  0.00     0.000 HD 
HETATM   27  C   UNL     1     -10.128  14.856  65.569  1.00  0.00    -0.370 A  
HETATM   28  C   UNL     1      -9.282  15.943  65.779  1.00  0.00    -0.241 A  
HETATM   29  C   UNL     1      -8.205  15.799  66.644  1.00  0.00    -0.270 A  
HETATM   30  O   UNL     1      -7.347  16.825  66.902  1.00  0.00    -0.175 OA 
HETATM   31  C   UNL     1      -7.955  14.586  67.281  1.00  0.00    -0.216 A  
HETATM   32  H   UNL     1      -6.610  16.727  67.494  1.00  0.00     0.000 HD 
ENDBRANCH  16  19
ENDBRANCH  15  16
ENDBRANCH  13  15
ENDBRANCH   6   9
ENDBRANCH   2   3
TORSDOF 5
ENDMDL
MODEL      105
REMARK 921   NORMALIZED FREE ENERGY PREDICTED BY IDOCK:   -5.54 KCAL/MOL
REMARK 922        TOTAL FREE ENERGY PREDICTED BY IDOCK:   -7.40 KCAL/MOL
REMARK 923 INTER-LIGAND FREE ENERGY PREDICTED BY IDOCK:   -6.67 KCAL/MOL
REMARK 924 INTRA-LIGAND FREE ENERGY PREDICTED BY IDOCK:   -0.74 KCAL/MOL
REMARK 927      BINDING AFFINITY PREDICTED BY RF-SCORE:    0.00 PKD
ROOT
HETATM    1  C   UNL     1      -9.883   4.050  69.887  1.00  0.00    -0.115 C  
HETATM    2  O   UNL     1      -9.184   4.987  70.701  1.00  0.00    -0.137 OA 
ENDROOT
BRANCH   2   3
HETATM    3  C   UNL     1      -9.232   6.296  70.293  1.00  0.00    -0.157 A  
HETATM    4  C   UNL     1      -9.079   6.734  68.981  1.00  0.00    -0.137 A  
HETATM    5  C   UNL     1      -9.125   8.097  68.687  1.00  0.00    -0.143 A  
HETATM    6  C   UNL     1      -9.341   9.050  69.693  1.00  0.00    -0.169 A  
HETATM    7  C   UNL     1      -9.460   7.234  71.302  1.00  0.00    -0.156 A  
HETATM    8  C   UNL     1      -9.514   8.600  71.008  1.00  0.00    -0.261 A  
BRANCH   6   9
HETATM    9  C   UNL     1      -9.372  10.530  69.343  1.00  0.00    -0.139 C  
HETATM   10  C   UNL     1      -8.035  11.181  68.844  1.00  0.00    -0.126 C  
HETATM   11  C   UNL     1      -7.671  10.601  67.464  1.00  0.00    -0.101 C  
HETATM   12  C   UNL     1      -6.894  10.946  69.853  1.00  0.00    -0.126 C  
HETATM   13  N   UNL     1      -8.287  12.639  68.707  1.00  0.00    -0.356 NA 
HETATM   14  H   UNL     1      -8.632  13.017  69.590  1.00  0.00     0.000 HD 
BRANCH  13  15
HETATM   15  C   UNL     1      -7.144  13.445  68.225  1.00  0.00    -0.109 C  
BRANCH  15  16
HETATM   16  C   UNL     1      -7.540  14.525  67.189  1.00  0.00    -0.012 C  
HETATM   17  H   UNL     1      -6.804  16.237  66.539  1.00  0.00     0.000 HD 
HETATM   18  O   UNL     1      -6.561  15.574  67.175  1.00  0.00    -0.283 OA 
BRANCH  16  19
HETATM   19  C   UNL     1      -8.934  15.066  67.421  1.00  0.00    -0.196 A  
HETATM   20  C   UNL     1     -10.059  14.422  66.878  1.00  0.00    -0.259 A  
HETATM   21  O   UNL     1      -9.838  13.320  66.089  1.00  0.00    -0.283 OA 
HETATM   22  C   UNL     1     -10.990  12.506  65.904  1.00  0.00    -0.279 C  
HETATM   23  C   UNL     1     -12.320  13.223  65.716  1.00  0.00    -0.447 C  
HETATM   24  O   UNL     1     -13.246  12.782  65.040  1.00  0.00    -0.768 OA 
HETATM   25  N   UNL     1     -12.447  14.368  66.456  1.00  0.00    -0.490 N  
HETATM   26  H   UNL     1     -13.362  14.810  66.542  1.00  0.00     0.000 HD 
HETATM   27  C   UNL     1     -11.344  14.943  67.097  1.00  0.00    -0.343 A  
HETATM   28  C   UNL     1     -11.530  16.066  67.902  1.00  0.00    -0.140 A  
HETATM   29  C   UNL     1     -10.421  16.674  68.474  1.00  0.00    -0.319 A  
HETATM   30  O   UNL     1     -10.534  17.767  69.279  1.00  0.00    -0.426 OA 
HETATM   31  C   UNL     1      -9.137  16.191  68.235  1.00  0.00    -0.190 A  
HETATM   32  H   UNL     1      -9.775  18.183  69.671  1.00  0.00     0.000 HD 
ENDBRANCH  16  19
ENDBRANCH  15  16
ENDBRANCH  13  15
ENDBRANCH   6   9
ENDBRANCH   2   3
TORSDOF 5
ENDMDL
MODEL      106
REMARK 921   NORMALIZED FREE ENERGY PREDICTED BY IDOCK:   -5.53 KCAL/MOL
REMARK 922        TOTAL FREE ENERGY PREDICTED BY IDOCK:   -7.39 KCAL/MOL
REMARK 923 INTER-LIGAND FREE ENERGY PREDICTED BY IDOCK:   -6.98 KCAL/MOL
REMARK 924 INTRA-LIGAND FREE ENERGY PREDICTED BY IDOCK:   -0.41 KCAL/MOL
REMARK 927      BINDING AFFINITY PREDICTED BY RF-SCORE:    0.00 PKD
ROOT
HETATM    1  C   UNL     1      -6.213  21.165  68.289  1.00  0.00    -0.188 C  
HETATM    2  O   UNL     1      -6.563  19.974  68.988  1.00  0.00    -0.307 OA 
ENDROOT
BRANCH   2   3
HETATM    3  C   UNL     1      -7.482  19.162  68.373  1.00  0.00    -0.307 A  
HETATM    4  C   UNL     1      -8.858  19.214  68.568  1.00  0.00    -0.406 A  
HETATM    5  C   UNL     1      -9.696  18.318  67.903  1.00  0.00    -0.314 A  
HETATM    6  C   UNL     1      -9.179  17.364  67.014  1.00  0.00    -0.252 A  
HETATM    7  C   UNL     1      -6.956  18.225  67.482  1.00  0.00    -0.204 A  
HETATM    8  C   UNL     1      -7.794  17.331  66.807  1.00  0.00    -0.278 A  
BRANCH   6   9
HETATM    9  C   UNL     1     -10.116  16.394  66.313  1.00  0.00    -0.346 C  
HETATM   10  C   UNL     1     -10.655  15.181  67.149  1.00  0.00    -0.295 C  
HETATM   11  C   UNL     1     -11.602  15.700  68.248  1.00  0.00    -0.326 C  
HETATM   12  C   UNL     1      -9.494  14.374  67.766  1.00  0.00    -0.211 C  
HETATM   13  N   UNL     1     -11.422  14.316  66.215  1.00  0.00    -0.347 NA 
HETATM   14  H   UNL     1     -10.834  14.050  65.425  1.00  0.00     0.000 HD 
BRANCH  13  15
HETATM   15  C   UNL     1     -12.036  13.111  66.815  1.00  0.00    -0.327 C  
BRANCH  15  16
HETATM   16  C   UNL     1     -11.202  11.823  66.610  1.00  0.00    -0.323 C  
HETATM   17  H   UNL     1     -11.186  10.303  65.352  1.00  0.00     0.000 HD 
HETATM   18  O   UNL     1     -11.698  11.093  65.479  1.00  0.00     0.124 OA 
BRANCH  16  19
HETATM   19  C   UNL     1     -11.152  10.961  67.852  1.00  0.00    -0.362 A  
HETATM   20  C   UNL     1     -10.212   9.924  67.975  1.00  0.00    -0.182 A  
HETATM   21  O   UNL     1      -9.383   9.692  66.905  1.00  0.00    -0.140 OA 
HETATM   22  C   UNL     1      -8.231   8.923  67.228  1.00  0.00    -0.104 C  
HETATM   23  C   UNL     1      -8.420   7.771  68.205  1.00  0.00    -0.124 C  
HETATM   24  O   UNL     1      -7.757   6.737  68.181  1.00  0.00    -0.105 OA 
HETATM   25  N   UNL     1      -9.330   8.024  69.196  1.00  0.00    -0.151 N  
HETATM   26  H   UNL     1      -9.386   7.394  69.997  1.00  0.00     0.000 HD 
HETATM   27  C   UNL     1     -10.186   9.128  69.131  1.00  0.00    -0.207 A  
HETATM   28  C   UNL     1     -11.046   9.391  70.196  1.00  0.00    -0.277 A  
HETATM   29  C   UNL     1     -11.944  10.445  70.091  1.00  0.00    -0.276 A  
HETATM   30  O   UNL     1     -12.803  10.762  71.099  1.00  0.00    -0.367 OA 
HETATM   31  C   UNL     1     -12.007  11.219  68.935  1.00  0.00    -0.378 A  
HETATM   32  H   UNL     1     -13.417  11.483  71.028  1.00  0.00     0.000 HD 
ENDBRANCH  16  19
ENDBRANCH  15  16
ENDBRANCH  13  15
ENDBRANCH   6   9
ENDBRANCH   2   3
TORSDOF 5
ENDMDL
MODEL      107
REMARK 921   NORMALIZED FREE ENERGY PREDICTED BY IDOCK:   -5.52 KCAL/MOL
REMARK 922        TOTAL FREE ENERGY PREDICTED BY IDOCK:   -7.37 KCAL/MOL
REMARK 923 INTER-LIGAND FREE ENERGY PREDICTED BY IDOCK:   -6.18 KCAL/MOL
REMARK 924 INTRA-LIGAND FREE ENERGY PREDICTED BY IDOCK:   -1.19 KCAL/MOL
REMARK 927      BINDING AFFINITY PREDICTED BY RF-SCORE:    0.00 PKD
ROOT
HETATM    1  C   UNL     1      -8.407   9.533  62.627  1.00  0.00    -0.166 C  
HETATM    2  O   UNL     1      -9.492  10.091  63.363  1.00  0.00    -0.294 OA 
ENDROOT
BRANCH   2   3
HETATM    3  C   UNL     1      -9.327  10.159  64.723  1.00  0.00    -0.268 A  
HETATM    4  C   UNL     1     -10.352  10.106  65.661  1.00  0.00    -0.210 A  
HETATM    5  C   UNL     1     -10.065  10.209  67.023  1.00  0.00    -0.277 A  
HETATM    6  C   UNL     1      -8.745  10.348  67.477  1.00  0.00    -0.125 A  
HETATM    7  C   UNL     1      -8.007  10.286  65.164  1.00  0.00    -0.147 A  
HETATM    8  C   UNL     1      -7.716  10.381  66.528  1.00  0.00    -0.121 A  
BRANCH   6   9
HETATM    9  C   UNL     1      -8.465  10.471  68.967  1.00  0.00    -0.159 C  
HETATM   10  C   UNL     1      -7.949   9.191  69.712  1.00  0.00    -0.098 C  
HETATM   11  C   UNL     1      -6.531   8.850  69.215  1.00  0.00    -0.042 C  
HETATM   12  C   UNL     1      -8.904   8.000  69.495  1.00  0.00    -0.144 C  
HETATM   13  N   UNL     1      -7.889   9.525  71.159  1.00  0.00    -0.295 NA 
HETATM   14  H   UNL     1      -8.800   9.854  71.478  1.00  0.00     0.000 HD 
BRANCH  13  15
HETATM   15  C   UNL     1      -7.403   8.445  72.046  1.00  0.00    -0.097 C  
BRANCH  15  16
HETATM   16  C   UNL     1      -8.262   8.258  73.320  1.00  0.00    -0.173 C  
HETATM   17  H   UNL     1      -7.946   7.822  75.219  1.00  0.00     0.000 HD 
HETATM   18  O   UNL     1      -7.420   7.937  74.437  1.00  0.00    -0.144 OA 
BRANCH  16  19
HETATM   19  C   UNL     1      -9.358   7.231  73.135  1.00  0.00    -0.216 A  
HETATM   20  C   UNL     1     -10.604   7.593  72.597  1.00  0.00    -0.299 A  
HETATM   21  O   UNL     1     -10.804   8.918  72.300  1.00  0.00    -0.332 OA 
HETATM   22  C   UNL     1     -11.897   9.152  71.421  1.00  0.00    -0.345 C  
HETATM   23  C   UNL     1     -13.146   8.305  71.630  1.00  0.00    -0.334 C  
HETATM   24  O   UNL     1     -14.285   8.693  71.386  1.00  0.00    -0.386 OA 
HETATM   25  N   UNL     1     -12.888   7.017  72.018  1.00  0.00    -0.530 N  
HETATM   26  H   UNL     1     -13.640   6.329  72.000  1.00  0.00     0.000 HD 
HETATM   27  C   UNL     1     -11.612   6.629  72.440  1.00  0.00    -0.245 A  
HETATM   28  C   UNL     1     -11.374   5.292  72.755  1.00  0.00    -0.342 A  
HETATM   29  C   UNL     1     -10.127   4.928  73.245  1.00  0.00    -0.161 A  
HETATM   30  O   UNL     1      -9.825   3.638  73.561  1.00  0.00    -0.106 OA 
HETATM   31  C   UNL     1      -9.129   5.880  73.442  1.00  0.00    -0.132 A  
HETATM   32  H   UNL     1      -8.972   3.389  73.896  1.00  0.00     0.000 HD 
ENDBRANCH  16  19
ENDBRANCH  15  16
ENDBRANCH  13  15
ENDBRANCH   6   9
ENDBRANCH   2   3
TORSDOF 5
ENDMDL
MODEL      108
REMARK 921   NORMALIZED FREE ENERGY PREDICTED BY IDOCK:   -5.51 KCAL/MOL
REMARK 922        TOTAL FREE ENERGY PREDICTED BY IDOCK:   -7.37 KCAL/MOL
REMARK 923 INTER-LIGAND FREE ENERGY PREDICTED BY IDOCK:   -6.74 KCAL/MOL
REMARK 924 INTRA-LIGAND FREE ENERGY PREDICTED BY IDOCK:   -0.63 KCAL/MOL
REMARK 927      BINDING AFFINITY PREDICTED BY RF-SCORE:    0.00 PKD
ROOT
HETATM    1  C   UNL     1      -9.884   2.410  71.543  1.00  0.00    -0.127 C  
HETATM    2  O   UNL     1      -9.108   2.603  70.363  1.00  0.00    -0.087 OA 
ENDROOT
BRANCH   2   3
HETATM    3  C   UNL     1      -8.969   3.900  69.939  1.00  0.00    -0.098 A  
HETATM    4  C   UNL     1      -7.762   4.520  69.632  1.00  0.00    -0.054 A  
HETATM    5  C   UNL     1      -7.742   5.857  69.230  1.00  0.00    -0.094 A  
HETATM    6  C   UNL     1      -8.928   6.596  69.108  1.00  0.00    -0.131 A  
HETATM    7  C   UNL     1     -10.158   4.622  69.810  1.00  0.00    -0.243 A  
HETATM    8  C   UNL     1     -10.140   5.959  69.399  1.00  0.00    -0.260 A  
BRANCH   6   9
HETATM    9  C   UNL     1      -8.872   8.054  68.680  1.00  0.00    -0.134 C  
HETATM   10  C   UNL     1      -9.044   8.365  67.152  1.00  0.00    -0.138 C  
HETATM   11  C   UNL     1     -10.486   8.031  66.724  1.00  0.00    -0.319 C  
HETATM   12  C   UNL     1      -8.026   7.572  66.307  1.00  0.00    -0.109 C  
HETATM   13  N   UNL     1      -8.810   9.822  66.976  1.00  0.00    -0.134 NA 
HETATM   14  H   UNL     1      -7.897  10.076  67.353  1.00  0.00     0.000 HD 
BRANCH  13  15
HETATM   15  C   UNL     1      -8.945  10.330  65.593  1.00  0.00    -0.172 C  
BRANCH  15  16
HETATM   16  C   UNL     1     -10.378  10.797  65.242  1.00  0.00    -0.258 C  
HETATM   17  H   UNL     1     -11.491  10.932  63.618  1.00  0.00     0.000 HD 
HETATM   18  O   UNL     1     -10.612  10.646  63.834  1.00  0.00    -0.223 OA 
BRANCH  16  19
HETATM   19  C   UNL     1     -10.658  12.210  65.706  1.00  0.00    -0.295 A  
HETATM   20  C   UNL     1     -11.024  12.474  67.036  1.00  0.00    -0.267 A  
HETATM   21  O   UNL     1     -11.169  11.400  67.878  1.00  0.00    -0.243 OA 
HETATM   22  C   UNL     1     -11.149  11.744  69.258  1.00  0.00    -0.218 C  
HETATM   23  C   UNL     1     -11.866  13.026  69.661  1.00  0.00    -0.319 C  
HETATM   24  O   UNL     1     -12.407  13.195  70.750  1.00  0.00    -0.357 OA 
HETATM   25  N   UNL     1     -11.767  14.034  68.738  1.00  0.00    -0.330 N  
HETATM   26  H   UNL     1     -12.050  14.979  68.997  1.00  0.00     0.000 HD 
HETATM   27  C   UNL     1     -11.288  13.791  67.447  1.00  0.00    -0.324 A  
HETATM   28  C   UNL     1     -11.133  14.857  66.563  1.00  0.00    -0.341 A  
HETATM   29  C   UNL     1     -10.728  14.597  65.260  1.00  0.00    -0.381 A  
HETATM   30  O   UNL     1     -10.547  15.594  64.350  1.00  0.00    -0.676 OA 
HETATM   31  C   UNL     1     -10.499  13.293  64.828  1.00  0.00    -0.402 A  
HETATM   32  H   UNL     1     -10.270  15.417  63.459  1.00  0.00     0.000 HD 
ENDBRANCH  16  19
ENDBRANCH  15  16
ENDBRANCH  13  15
ENDBRANCH   6   9
ENDBRANCH   2   3
TORSDOF 5
ENDMDL
MODEL      109
REMARK 921   NORMALIZED FREE ENERGY PREDICTED BY IDOCK:   -5.47 KCAL/MOL
REMARK 922        TOTAL FREE ENERGY PREDICTED BY IDOCK:   -7.31 KCAL/MOL
REMARK 923 INTER-LIGAND FREE ENERGY PREDICTED BY IDOCK:   -6.73 KCAL/MOL
REMARK 924 INTRA-LIGAND FREE ENERGY PREDICTED BY IDOCK:   -0.58 KCAL/MOL
REMARK 927      BINDING AFFINITY PREDICTED BY RF-SCORE:    0.00 PKD
ROOT
HETATM    1  C   UNL     1     -11.065   3.021  73.618  1.00  0.00    -0.226 C  
HETATM    2  O   UNL     1     -10.335   3.227  72.412  1.00  0.00    -0.152 OA 
ENDROOT
BRANCH   2   3
HETATM    3  C   UNL     1     -10.085   4.532  72.074  1.00  0.00    -0.196 A  
HETATM    4  C   UNL     1     -10.639   5.645  72.697  1.00  0.00    -0.266 A  
HETATM    5  C   UNL     1     -10.327   6.929  72.250  1.00  0.00    -0.219 A  
HETATM    6  C   UNL     1      -9.440   7.130  71.182  1.00  0.00    -0.157 A  
HETATM    7  C   UNL     1      -9.191   4.719  71.017  1.00  0.00    -0.194 A  
HETATM    8  C   UNL     1      -8.871   6.006  70.572  1.00  0.00    -0.146 A  
BRANCH   6   9
HETATM    9  C   UNL     1      -9.131   8.541  70.708  1.00  0.00    -0.196 C  
HETATM   10  C   UNL     1     -10.140   9.204  69.707  1.00  0.00    -0.199 C  
HETATM   11  C   UNL     1     -11.475   9.466  70.429  1.00  0.00    -0.272 C  
HETATM   12  C   UNL     1     -10.355   8.314  68.467  1.00  0.00    -0.230 C  
HETATM   13  N   UNL     1      -9.549  10.503  69.291  1.00  0.00    -0.299 NA 
HETATM   14  H   UNL     1      -8.616  10.354  68.906  1.00  0.00     0.000 HD 
BRANCH  13  15
HETATM   15  C   UNL     1     -10.361  11.305  68.350  1.00  0.00    -0.192 C  
BRANCH  15  16
HETATM   16  C   UNL     1      -9.790  12.719  68.088  1.00  0.00    -0.226 C  
HETATM   17  H   UNL     1      -8.053  13.632  68.298  1.00  0.00     0.000 HD 
HETATM   18  O   UNL     1      -8.404  12.765  68.459  1.00  0.00    -0.137 OA 
BRANCH  16  19
HETATM   19  C   UNL     1     -10.588  13.804  68.777  1.00  0.00    -0.253 A  
HETATM   20  C   UNL     1     -10.551  15.131  68.317  1.00  0.00    -0.243 A  
HETATM   21  O   UNL     1      -9.725  15.411  67.258  1.00  0.00    -0.211 OA 
HETATM   22  C   UNL     1     -10.021  16.640  66.607  1.00  0.00    -0.283 C  
HETATM   23  C   UNL     1     -10.414  17.815  67.493  1.00  0.00    -0.372 C  
HETATM   24  O   UNL     1     -10.176  18.988  67.219  1.00  0.00    -0.351 OA 
HETATM   25  N   UNL     1     -11.158  17.463  68.588  1.00  0.00    -0.187 N  
HETATM   26  H   UNL     1     -11.622  18.191  69.131  1.00  0.00     0.000 HD 
HETATM   27  C   UNL     1     -11.292  16.126  68.975  1.00  0.00    -0.340 A  
HETATM   28  C   UNL     1     -12.119  15.805  70.050  1.00  0.00    -0.344 A  
HETATM   29  C   UNL     1     -12.187  14.485  70.475  1.00  0.00    -0.332 A  
HETATM   30  O   UNL     1     -12.984  14.103  71.511  1.00  0.00    -0.312 OA 
HETATM   31  C   UNL     1     -11.430  13.494  69.857  1.00  0.00    -0.194 A  
HETATM   32  H   UNL     1     -13.031  13.200  71.802  1.00  0.00     0.000 HD 
ENDBRANCH  16  19
ENDBRANCH  15  16
ENDBRANCH  13  15
ENDBRANCH   6   9
ENDBRANCH   2   3
TORSDOF 5
ENDMDL
MODEL      110
REMARK 921   NORMALIZED FREE ENERGY PREDICTED BY IDOCK:   -5.43 KCAL/MOL
REMARK 922        TOTAL FREE ENERGY PREDICTED BY IDOCK:   -7.26 KCAL/MOL
REMARK 923 INTER-LIGAND FREE ENERGY PREDICTED BY IDOCK:   -6.82 KCAL/MOL
REMARK 924 INTRA-LIGAND FREE ENERGY PREDICTED BY IDOCK:   -0.44 KCAL/MOL
REMARK 927      BINDING AFFINITY PREDICTED BY RF-SCORE:    0.00 PKD
ROOT
HETATM    1  C   UNL     1      -7.556   2.136  67.976  1.00  0.00    -0.055 C  
HETATM    2  O   UNL     1      -6.987   3.303  67.388  1.00  0.00    -0.049 OA 
ENDROOT
BRANCH   2   3
HETATM    3  C   UNL     1      -7.797   4.409  67.335  1.00  0.00    -0.096 A  
HETATM    4  C   UNL     1      -8.544   4.909  68.396  1.00  0.00    -0.101 A  
HETATM    5  C   UNL     1      -9.353   6.032  68.217  1.00  0.00    -0.116 A  
HETATM    6  C   UNL     1      -9.419   6.690  66.980  1.00  0.00    -0.170 A  
HETATM    7  C   UNL     1      -7.844   5.062  66.102  1.00  0.00    -0.099 A  
HETATM    8  C   UNL     1      -8.648   6.193  65.922  1.00  0.00    -0.147 A  
BRANCH   6   9
HETATM    9  C   UNL     1     -10.320   7.903  66.814  1.00  0.00    -0.357 C  
HETATM   10  C   UNL     1      -9.628   9.282  66.530  1.00  0.00    -0.224 C  
HETATM   11  C   UNL     1      -8.985   9.250  65.130  1.00  0.00    -0.257 C  
HETATM   12  C   UNL     1      -8.574   9.606  67.608  1.00  0.00    -0.126 C  
HETATM   13  N   UNL     1     -10.696  10.316  66.550  1.00  0.00    -0.133 NA 
HETATM   14  H   UNL     1     -11.201  10.277  67.436  1.00  0.00     0.000 HD 
BRANCH  13  15
HETATM   15  C   UNL     1     -10.251  11.701  66.283  1.00  0.00    -0.227 C  
BRANCH  15  16
HETATM   16  C   UNL     1     -11.115  12.775  66.987  1.00  0.00    -0.278 C  
HETATM   17  H   UNL     1     -13.037  13.183  67.174  1.00  0.00     0.000 HD 
HETATM   18  O   UNL     1     -12.507  12.524  66.741  1.00  0.00    -0.318 OA 
BRANCH  16  19
HETATM   19  C   UNL     1     -10.724  14.183  66.593  1.00  0.00    -0.289 A  
HETATM   20  C   UNL     1      -9.684  14.857  67.256  1.00  0.00    -0.228 A  
HETATM   21  O   UNL     1      -9.078  14.209  68.303  1.00  0.00    -0.180 OA 
HETATM   22  C   UNL     1      -7.815  14.756  68.663  1.00  0.00    -0.140 C  
HETATM   23  C   UNL     1      -7.684  16.273  68.633  1.00  0.00    -0.192 C  
HETATM   24  O   UNL     1      -6.945  16.911  69.377  1.00  0.00    -0.236 OA 
HETATM   25  N   UNL     1      -8.388  16.873  67.623  1.00  0.00    -0.183 N  
HETATM   26  H   UNL     1      -8.215  17.855  67.407  1.00  0.00     0.000 HD 
HETATM   27  C   UNL     1      -9.341  16.166  66.883  1.00  0.00    -0.227 A  
HETATM   28  C   UNL     1      -9.981  16.793  65.815  1.00  0.00    -0.242 A  
HETATM   29  C   UNL     1     -10.978  16.109  65.133  1.00  0.00    -0.316 A  
HETATM   30  O   UNL     1     -11.635  16.659  64.074  1.00  0.00    -1.490 OA 
HETATM   31  C   UNL     1     -11.355  14.824  65.516  1.00  0.00    -0.343 A  
HETATM   32  H   UNL     1     -12.317  16.192  63.608  1.00  0.00     0.000 HD 
ENDBRANCH  16  19
ENDBRANCH  15  16
ENDBRANCH  13  15
ENDBRANCH   6   9
ENDBRANCH   2   3
TORSDOF 5
ENDMDL
MODEL      111
REMARK 921   NORMALIZED FREE ENERGY PREDICTED BY IDOCK:   -5.42 KCAL/MOL
REMARK 922        TOTAL FREE ENERGY PREDICTED BY IDOCK:   -7.25 KCAL/MOL
REMARK 923 INTER-LIGAND FREE ENERGY PREDICTED BY IDOCK:   -6.64 KCAL/MOL
REMARK 924 INTRA-LIGAND FREE ENERGY PREDICTED BY IDOCK:   -0.61 KCAL/MOL
REMARK 927      BINDING AFFINITY PREDICTED BY RF-SCORE:    0.00 PKD
ROOT
HETATM    1  C   UNL     1      -8.661  19.303  66.437  1.00  0.00    -0.343 C  
HETATM    2  O   UNL     1      -9.696  18.392  66.078  1.00  0.00    -0.491 OA 
ENDROOT
BRANCH   2   3
HETATM    3  C   UNL     1      -9.476  17.075  66.390  1.00  0.00    -0.271 A  
HETATM    4  C   UNL     1      -8.728  16.619  67.471  1.00  0.00    -0.198 A  
HETATM    5  C   UNL     1      -8.553  15.250  67.675  1.00  0.00    -0.178 A  
HETATM    6  C   UNL     1      -9.135  14.307  66.815  1.00  0.00    -0.269 A  
HETATM    7  C   UNL     1     -10.070  16.146  65.533  1.00  0.00    -0.308 A  
HETATM    8  C   UNL     1      -9.902  14.773  65.741  1.00  0.00    -0.373 A  
BRANCH   6   9
HETATM    9  C   UNL     1      -8.914  12.822  67.057  1.00  0.00    -0.221 C  
HETATM   10  C   UNL     1     -10.188  11.918  67.205  1.00  0.00    -0.200 C  
HETATM   11  C   UNL     1     -10.922  11.848  65.853  1.00  0.00    -0.354 C  
HETATM   12  C   UNL     1     -11.123  12.455  68.307  1.00  0.00    -0.283 C  
HETATM   13  N   UNL     1      -9.714  10.558  67.572  1.00  0.00    -0.164 NA 
HETATM   14  H   UNL     1      -9.136  10.605  68.411  1.00  0.00     0.000 HD 
BRANCH  13  15
HETATM   15  C   UNL     1     -10.771   9.536  67.743  1.00  0.00    -0.242 C  
BRANCH  15  16
HETATM   16  C   UNL     1     -10.245   8.188  68.292  1.00  0.00    -0.206 C  
HETATM   17  H   UNL     1     -10.749   6.284  68.161  1.00  0.00     0.000 HD 
HETATM   18  O   UNL     1     -11.072   7.112  67.825  1.00  0.00    -0.142 OA 
BRANCH  16  19
HETATM   19  C   UNL     1     -10.123   8.183  69.800  1.00  0.00    -0.197 A  
HETATM   20  C   UNL     1      -8.885   8.410  70.425  1.00  0.00    -0.146 A  
HETATM   21  O   UNL     1      -7.789   8.580  69.616  1.00  0.00    -0.091 OA 
HETATM   22  C   UNL     1      -6.679   9.181  70.272  1.00  0.00    -0.055 C  
HETATM   23  C   UNL     1      -6.406   8.749  71.706  1.00  0.00    -0.074 C  
HETATM   24  O   UNL     1      -5.286   8.712  72.209  1.00  0.00    -0.039 OA 
HETATM   25  N   UNL     1      -7.536   8.500  72.439  1.00  0.00    -0.079 N  
HETATM   26  H   UNL     1      -7.463   8.389  73.450  1.00  0.00     0.000 HD 
HETATM   27  C   UNL     1      -8.789   8.394  71.826  1.00  0.00    -0.195 A  
HETATM   28  C   UNL     1      -9.924   8.215  72.616  1.00  0.00    -0.371 A  
HETATM   29  C   UNL     1     -11.153   8.035  71.995  1.00  0.00    -0.293 A  
HETATM   30  O   UNL     1     -12.301   7.867  72.708  1.00  0.00    -0.591 OA 
HETATM   31  C   UNL     1     -11.258   8.011  70.607  1.00  0.00    -0.266 A  
HETATM   32  H   UNL     1     -13.142   7.744  72.285  1.00  0.00     0.000 HD 
ENDBRANCH  16  19
ENDBRANCH  15  16
ENDBRANCH  13  15
ENDBRANCH   6   9
ENDBRANCH   2   3
TORSDOF 5
ENDMDL
MODEL      112
REMARK 921   NORMALIZED FREE ENERGY PREDICTED BY IDOCK:   -5.41 KCAL/MOL
REMARK 922        TOTAL FREE ENERGY PREDICTED BY IDOCK:   -7.24 KCAL/MOL
REMARK 923 INTER-LIGAND FREE ENERGY PREDICTED BY IDOCK:   -6.98 KCAL/MOL
REMARK 924 INTRA-LIGAND FREE ENERGY PREDICTED BY IDOCK:   -0.25 KCAL/MOL
REMARK 927      BINDING AFFINITY PREDICTED BY RF-SCORE:    0.00 PKD
ROOT
HETATM    1  C   UNL     1     -10.503  17.260  67.441  1.00  0.00    -0.338 C  
HETATM    2  O   UNL     1     -11.408  16.706  68.392  1.00  0.00    -0.321 OA 
ENDROOT
BRANCH   2   3
HETATM    3  C   UNL     1     -11.494  15.338  68.418  1.00  0.00    -0.345 A  
HETATM    4  C   UNL     1     -11.614  14.561  69.566  1.00  0.00    -0.350 A  
HETATM    5  C   UNL     1     -11.671  13.170  69.470  1.00  0.00    -0.382 A  
HETATM    6  C   UNL     1     -11.629  12.526  68.224  1.00  0.00    -0.376 A  
HETATM    7  C   UNL     1     -11.462  14.709  67.171  1.00  0.00    -0.380 A  
HETATM    8  C   UNL     1     -11.528  13.315  67.072  1.00  0.00    -0.378 A  
BRANCH   6   9
HETATM    9  C   UNL     1     -11.679  11.008  68.153  1.00  0.00    -0.277 C  
HETATM   10  C   UNL     1     -10.371  10.262  67.716  1.00  0.00    -0.204 C  
HETATM   11  C   UNL     1      -9.300  10.429  68.810  1.00  0.00    -0.175 C  
HETATM   12  C   UNL     1      -9.857  10.793  66.363  1.00  0.00    -0.254 C  
HETATM   13  N   UNL     1     -10.715   8.822  67.588  1.00  0.00    -0.464 NA 
HETATM   14  H   UNL     1     -11.497   8.707  66.942  1.00  0.00     0.000 HD 
BRANCH  13  15
HETATM   15  C   UNL     1      -9.601   7.930  67.196  1.00  0.00    -0.171 C  
BRANCH  15  16
HETATM   16  C   UNL     1     -10.046   6.477  66.901  1.00  0.00    -0.192 C  
HETATM   17  H   UNL     1     -11.721   5.555  66.413  1.00  0.00     0.000 HD 
HETATM   18  O   UNL     1     -11.448   6.446  66.594  1.00  0.00    -0.046 OA 
BRANCH  16  19
HETATM   19  C   UNL     1      -9.701   5.525  68.026  1.00  0.00    -0.159 A  
HETATM   20  C   UNL     1     -10.252   5.691  69.308  1.00  0.00    -0.239 A  
HETATM   21  O   UNL     1     -11.068   6.777  69.510  1.00  0.00    -0.268 OA 
HETATM   22  C   UNL     1     -11.884   6.674  70.671  1.00  0.00    -0.383 C  
HETATM   23  C   UNL     1     -11.248   6.059  71.910  1.00  0.00    -0.282 C  
HETATM   24  O   UNL     1     -11.552   6.367  73.059  1.00  0.00    -0.084 OA 
HETATM   25  N   UNL     1     -10.369   5.044  71.642  1.00  0.00    -0.206 N  
HETATM   26  H   UNL     1     -10.040   4.451  72.404  1.00  0.00     0.000 HD 
HETATM   27  C   UNL     1      -9.914   4.804  70.341  1.00  0.00    -0.245 A  
HETATM   28  C   UNL     1      -9.079   3.714  70.099  1.00  0.00    -0.199 A  
HETATM   29  C   UNL     1      -8.571   3.526  68.821  1.00  0.00    -0.087 A  
HETATM   30  O   UNL     1      -7.760   2.476  68.515  1.00  0.00    -0.054 OA 
HETATM   31  C   UNL     1      -8.868   4.420  67.794  1.00  0.00    -0.122 A  
HETATM   32  H   UNL     1      -7.413   2.347  67.640  1.00  0.00     0.000 HD 
ENDBRANCH  16  19
ENDBRANCH  15  16
ENDBRANCH  13  15
ENDBRANCH   6   9
ENDBRANCH   2   3
TORSDOF 5
ENDMDL
MODEL      113
REMARK 921   NORMALIZED FREE ENERGY PREDICTED BY IDOCK:   -5.40 KCAL/MOL
REMARK 922        TOTAL FREE ENERGY PREDICTED BY IDOCK:   -7.22 KCAL/MOL
REMARK 923 INTER-LIGAND FREE ENERGY PREDICTED BY IDOCK:   -6.80 KCAL/MOL
REMARK 924 INTRA-LIGAND FREE ENERGY PREDICTED BY IDOCK:   -0.42 KCAL/MOL
REMARK 927      BINDING AFFINITY PREDICTED BY RF-SCORE:    0.00 PKD
ROOT
HETATM    1  C   UNL     1      -8.982  16.251  66.087  1.00  0.00    -0.339 C  
HETATM    2  O   UNL     1     -10.166  15.807  66.744  1.00  0.00    -0.268 OA 
ENDROOT
BRANCH   2   3
HETATM    3  C   UNL     1     -10.325  14.449  66.847  1.00  0.00    -0.265 A  
HETATM    4  C   UNL     1     -10.288  13.552  65.784  1.00  0.00    -0.296 A  
HETATM    5  C   UNL     1     -10.487  12.189  66.008  1.00  0.00    -0.281 A  
HETATM    6  C   UNL     1     -10.708  11.690  67.300  1.00  0.00    -0.281 A  
HETATM    7  C   UNL     1     -10.532  13.963  68.140  1.00  0.00    -0.246 A  
HETATM    8  C   UNL     1     -10.723  12.596  68.368  1.00  0.00    -0.260 A  
BRANCH   6   9
HETATM    9  C   UNL     1     -10.934  10.202  67.510  1.00  0.00    -0.319 C  
HETATM   10  C   UNL     1      -9.698   9.338  67.942  1.00  0.00    -0.153 C  
HETATM   11  C   UNL     1      -9.275   9.734  69.370  1.00  0.00    -0.214 C  
HETATM   12  C   UNL     1      -8.526   9.516  66.957  1.00  0.00    -0.128 C  
HETATM   13  N   UNL     1     -10.139   7.919  67.942  1.00  0.00    -0.182 NA 
HETATM   14  H   UNL     1     -10.520   7.673  67.029  1.00  0.00     0.000 HD 
BRANCH  13  15
HETATM   15  C   UNL     1      -9.114   6.930  68.344  1.00  0.00    -0.126 C  
BRANCH  15  16
HETATM   16  C   UNL     1      -9.612   5.919  69.405  1.00  0.00    -0.138 C  
HETATM   17  H   UNL     1     -11.181   4.749  69.655  1.00  0.00     0.000 HD 
HETATM   18  O   UNL     1     -10.876   5.369  69.004  1.00  0.00    -0.170 OA 
BRANCH  16  19
HETATM   19  C   UNL     1      -9.680   6.521  70.792  1.00  0.00    -0.194 A  
HETATM   20  C   UNL     1     -10.887   7.032  71.299  1.00  0.00    -0.235 A  
HETATM   21  O   UNL     1     -11.981   7.011  70.470  1.00  0.00    -0.325 OA 
HETATM   22  C   UNL     1     -13.221   7.166  71.150  1.00  0.00    -0.191 C  
HETATM   23  C   UNL     1     -13.258   8.162  72.301  1.00  0.00    -0.162 C  
HETATM   24  O   UNL     1     -14.254   8.806  72.617  1.00  0.00    -0.527 OA 
HETATM   25  N   UNL     1     -12.103   8.208  73.036  1.00  0.00    -0.466 N  
HETATM   26  H   UNL     1     -12.098   8.700  73.930  1.00  0.00     0.000 HD 
HETATM   27  C   UNL     1     -10.930   7.594  72.585  1.00  0.00    -0.351 A  
HETATM   28  C   UNL     1      -9.798   7.600  73.398  1.00  0.00    -0.362 A  
HETATM   29  C   UNL     1      -8.618   7.055  72.911  1.00  0.00    -0.114 A  
HETATM   30  O   UNL     1      -7.479   7.018  73.658  1.00  0.00    -0.080 OA 
HETATM   31  C   UNL     1      -8.550   6.527  71.624  1.00  0.00    -0.128 A  
HETATM   32  H   UNL     1      -6.672   6.645  73.325  1.00  0.00     0.000 HD 
ENDBRANCH  16  19
ENDBRANCH  15  16
ENDBRANCH  13  15
ENDBRANCH   6   9
ENDBRANCH   2   3
TORSDOF 5
ENDMDL
MODEL      114
REMARK 921   NORMALIZED FREE ENERGY PREDICTED BY IDOCK:   -5.40 KCAL/MOL
REMARK 922        TOTAL FREE ENERGY PREDICTED BY IDOCK:   -7.22 KCAL/MOL
REMARK 923 INTER-LIGAND FREE ENERGY PREDICTED BY IDOCK:   -7.42 KCAL/MOL
REMARK 924 INTRA-LIGAND FREE ENERGY PREDICTED BY IDOCK:    0.20 KCAL/MOL
REMARK 927      BINDING AFFINITY PREDICTED BY RF-SCORE:    0.00 PKD
ROOT
HETATM    1  C   UNL     1      -8.483   2.884  74.332  1.00  0.00    -0.069 C  
HETATM    2  O   UNL     1      -8.508   4.302  74.461  1.00  0.00    -0.092 OA 
ENDROOT
BRANCH   2   3
HETATM    3  C   UNL     1      -8.817   5.006  73.325  1.00  0.00    -0.114 A  
HETATM    4  C   UNL     1      -7.893   5.595  72.468  1.00  0.00    -0.103 A  
HETATM    5  C   UNL     1      -8.328   6.309  71.351  1.00  0.00    -0.123 A  
HETATM    6  C   UNL     1      -9.693   6.435  71.055  1.00  0.00    -0.192 A  
HETATM    7  C   UNL     1     -10.179   5.115  73.036  1.00  0.00    -0.217 A  
HETATM    8  C   UNL     1     -10.617   5.823  71.911  1.00  0.00    -0.285 A  
BRANCH   6   9
HETATM    9  C   UNL     1     -10.135   7.230  69.837  1.00  0.00    -0.196 C  
HETATM   10  C   UNL     1     -10.121   8.795  69.953  1.00  0.00    -0.191 C  
HETATM   11  C   UNL     1      -8.664   9.284  70.060  1.00  0.00    -0.208 C  
HETATM   12  C   UNL     1     -10.946   9.268  71.167  1.00  0.00    -0.409 C  
HETATM   13  N   UNL     1     -10.722   9.328  68.703  1.00  0.00    -0.368 NA 
HETATM   14  H   UNL     1     -11.651   8.929  68.565  1.00  0.00     0.000 HD 
BRANCH  13  15
HETATM   15  C   UNL     1     -10.787  10.803  68.602  1.00  0.00    -0.220 C  
BRANCH  15  16
HETATM   16  C   UNL     1     -11.236  11.309  67.210  1.00  0.00    -0.296 C  
HETATM   17  H   UNL     1     -10.702  11.022  65.332  1.00  0.00     0.000 HD 
HETATM   18  O   UNL     1     -10.426  10.712  66.186  1.00  0.00    -0.243 OA 
BRANCH  16  19
HETATM   19  C   UNL     1     -11.234  12.819  67.113  1.00  0.00    -0.336 A  
HETATM   20  C   UNL     1     -11.692  13.612  68.179  1.00  0.00    -0.357 A  
HETATM   21  O   UNL     1     -12.189  12.963  69.283  1.00  0.00    -0.215 OA 
HETATM   22  C   UNL     1     -12.263  13.780  70.445  1.00  0.00    -0.363 C  
HETATM   23  C   UNL     1     -12.705  15.224  70.247  1.00  0.00    -0.314 C  
HETATM   24  O   UNL     1     -13.324  15.871  71.087  1.00  0.00    -0.516 OA 
HETATM   25  N   UNL     1     -12.258  15.790  69.083  1.00  0.00    -0.552 N  
HETATM   26  H   UNL     1     -12.342  16.798  68.952  1.00  0.00     0.000 HD 
HETATM   27  C   UNL     1     -11.691  15.011  68.069  1.00  0.00    -0.298 A  
HETATM   28  C   UNL     1     -11.181  15.636  66.932  1.00  0.00    -0.106 A  
HETATM   29  C   UNL     1     -10.688  14.851  65.898  1.00  0.00    -0.323 A  
HETATM   30  O   UNL     1     -10.165  15.397  64.765  1.00  0.00    -0.430 OA 
HETATM   31  C   UNL     1     -10.717  13.461  65.977  1.00  0.00    -0.283 A  
HETATM   32  H   UNL     1      -9.828  14.861  64.058  1.00  0.00     0.000 HD 
ENDBRANCH  16  19
ENDBRANCH  15  16
ENDBRANCH  13  15
ENDBRANCH   6   9
ENDBRANCH   2   3
TORSDOF 5
ENDMDL
MODEL      115
REMARK 921   NORMALIZED FREE ENERGY PREDICTED BY IDOCK:   -5.39 KCAL/MOL
REMARK 922        TOTAL FREE ENERGY PREDICTED BY IDOCK:   -7.21 KCAL/MOL
REMARK 923 INTER-LIGAND FREE ENERGY PREDICTED BY IDOCK:   -7.17 KCAL/MOL
REMARK 924 INTRA-LIGAND FREE ENERGY PREDICTED BY IDOCK:   -0.04 KCAL/MOL
REMARK 927      BINDING AFFINITY PREDICTED BY RF-SCORE:    0.00 PKD
ROOT
HETATM    1  C   UNL     1     -10.315   5.325  73.649  1.00  0.00    -0.231 C  
HETATM    2  O   UNL     1     -11.340   5.890  72.836  1.00  0.00    -0.272 OA 
ENDROOT
BRANCH   2   3
HETATM    3  C   UNL     1     -10.989   6.997  72.106  1.00  0.00    -0.234 A  
HETATM    4  C   UNL     1     -11.493   8.279  72.297  1.00  0.00    -0.452 A  
HETATM    5  C   UNL     1     -11.077   9.327  71.475  1.00  0.00    -0.443 A  
HETATM    6  C   UNL     1     -10.135   9.121  70.456  1.00  0.00    -0.288 A  
HETATM    7  C   UNL     1     -10.042   6.781  71.102  1.00  0.00    -0.198 A  
HETATM    8  C   UNL     1      -9.617   7.832  70.282  1.00  0.00    -0.175 A  
BRANCH   6   9
HETATM    9  C   UNL     1      -9.712  10.280  69.568  1.00  0.00    -0.235 C  
HETATM   10  C   UNL     1     -10.579  10.565  68.292  1.00  0.00    -0.206 C  
HETATM   11  C   UNL     1     -11.969  11.070  68.722  1.00  0.00    -0.295 C  
HETATM   12  C   UNL     1     -10.703   9.303  67.414  1.00  0.00    -0.263 C  
HETATM   13  N   UNL     1      -9.888  11.637  67.528  1.00  0.00    -0.186 NA 
HETATM   14  H   UNL     1      -8.927  11.357  67.327  1.00  0.00     0.000 HD 
BRANCH  13  15
HETATM   15  C   UNL     1     -10.558  12.071  66.283  1.00  0.00    -0.252 C  
BRANCH  15  16
HETATM   16  C   UNL     1     -10.498  13.599  66.047  1.00  0.00    -0.300 C  
HETATM   17  H   UNL     1     -10.404  14.815  64.496  1.00  0.00     0.000 HD 
HETATM   18  O   UNL     1     -10.441  13.877  64.640  1.00  0.00    -0.425 OA 
BRANCH  16  19
HETATM   19  C   UNL     1      -9.356  14.256  66.792  1.00  0.00    -0.290 A  
HETATM   20  C   UNL     1      -9.537  15.478  67.460  1.00  0.00    -0.212 A  
HETATM   21  O   UNL     1     -10.770  16.075  67.364  1.00  0.00    -0.313 OA 
HETATM   22  C   UNL     1     -11.004  17.071  68.352  1.00  0.00    -0.263 C  
HETATM   23  C   UNL     1      -9.835  17.977  68.712  1.00  0.00    -0.354 C  
HETATM   24  O   UNL     1      -9.960  19.143  69.077  1.00  0.00    -0.416 OA 
HETATM   25  N   UNL     1      -8.618  17.349  68.699  1.00  0.00    -0.274 N  
HETATM   26  H   UNL     1      -7.808  17.819  69.105  1.00  0.00     0.000 HD 
HETATM   27  C   UNL     1      -8.464  16.077  68.139  1.00  0.00    -0.169 A  
HETATM   28  C   UNL     1      -7.225  15.443  68.214  1.00  0.00    -0.118 A  
HETATM   29  C   UNL     1      -7.061  14.213  67.590  1.00  0.00    -0.183 A  
HETATM   30  O   UNL     1      -5.881  13.534  67.634  1.00  0.00    -0.236 OA 
HETATM   31  C   UNL     1      -8.106  13.625  66.881  1.00  0.00     0.113 A  
HETATM   32  H   UNL     1      -5.768  12.693  67.208  1.00  0.00     0.000 HD 
ENDBRANCH  16  19
ENDBRANCH  15  16
ENDBRANCH  13  15
ENDBRANCH   6   9
ENDBRANCH   2   3
TORSDOF 5
ENDMDL
MODEL      116
REMARK 921   NORMALIZED FREE ENERGY PREDICTED BY IDOCK:   -5.39 KCAL/MOL
REMARK 922        TOTAL FREE ENERGY PREDICTED BY IDOCK:   -7.21 KCAL/MOL
REMARK 923 INTER-LIGAND FREE ENERGY PREDICTED BY IDOCK:   -7.01 KCAL/MOL
REMARK 924 INTRA-LIGAND FREE ENERGY PREDICTED BY IDOCK:   -0.19 KCAL/MOL
REMARK 927      BINDING AFFINITY PREDICTED BY RF-SCORE:    0.00 PKD
ROOT
HETATM    1  C   UNL     1      -5.760   6.057  64.467  1.00  0.00    -0.021 C  
HETATM    2  O   UNL     1      -7.161   5.797  64.453  1.00  0.00    -0.050 OA 
ENDROOT
BRANCH   2   3
HETATM    3  C   UNL     1      -7.962   6.775  64.984  1.00  0.00    -0.125 A  
HETATM    4  C   UNL     1      -8.853   6.600  66.038  1.00  0.00    -0.151 A  
HETATM    5  C   UNL     1      -9.635   7.668  66.480  1.00  0.00    -0.254 A  
HETATM    6  C   UNL     1      -9.532   8.937  65.891  1.00  0.00    -0.303 A  
HETATM    7  C   UNL     1      -7.841   8.037  64.397  1.00  0.00    -0.139 A  
HETATM    8  C   UNL     1      -8.618   9.110  64.844  1.00  0.00    -0.208 A  
BRANCH   6   9
HETATM    9  C   UNL     1     -10.408  10.077  66.387  1.00  0.00    -0.249 C  
HETATM   10  C   UNL     1     -10.085  10.671  67.802  1.00  0.00    -0.174 C  
HETATM   11  C   UNL     1      -8.728  11.399  67.751  1.00  0.00    -0.136 C  
HETATM   12  C   UNL     1     -10.073   9.567  68.878  1.00  0.00    -0.199 C  
HETATM   13  N   UNL     1     -11.153  11.657  68.112  1.00  0.00    -0.224 NA 
HETATM   14  H   UNL     1     -12.069  11.212  68.046  1.00  0.00     0.000 HD 
BRANCH  13  15
HETATM   15  C   UNL     1     -11.025  12.354  69.411  1.00  0.00    -0.010 C  
BRANCH  15  16
HETATM   16  C   UNL     1     -11.242  13.884  69.317  1.00  0.00    -0.251 C  
HETATM   17  H   UNL     1     -12.781  15.117  69.234  1.00  0.00     0.000 HD 
HETATM   18  O   UNL     1     -12.647  14.179  69.291  1.00  0.00    -0.156 OA 
BRANCH  16  19
HETATM   19  C   UNL     1     -10.522  14.501  68.138  1.00  0.00    -0.239 A  
HETATM   20  C   UNL     1     -11.064  14.432  66.843  1.00  0.00    -0.323 A  
HETATM   21  O   UNL     1     -12.239  13.740  66.685  1.00  0.00    -0.426 OA 
HETATM   22  C   UNL     1     -12.920  14.034  65.471  1.00  0.00    -0.316 C  
HETATM   23  C   UNL     1     -12.064  14.217  64.225  1.00  0.00    -0.444 C  
HETATM   24  O   UNL     1     -12.439  13.936  63.090  1.00  0.00    -0.766 OA 
HETATM   25  N   UNL     1     -10.861  14.827  64.459  1.00  0.00    -0.625 N  
HETATM   26  H   UNL     1     -10.306  15.160  63.670  1.00  0.00     0.000 HD 
HETATM   27  C   UNL     1     -10.377  15.003  65.760  1.00  0.00    -0.335 A  
HETATM   28  C   UNL     1      -9.184  15.696  65.958  1.00  0.00    -0.374 A  
HETATM   29  C   UNL     1      -8.673  15.800  67.245  1.00  0.00    -0.191 A  
HETATM   30  O   UNL     1      -7.519  16.473  67.509  1.00  0.00    -0.133 OA 
HETATM   31  C   UNL     1      -9.323  15.207  68.324  1.00  0.00    -0.193 A  
HETATM   32  H   UNL     1      -7.169  16.545  68.389  1.00  0.00     0.000 HD 
ENDBRANCH  16  19
ENDBRANCH  15  16
ENDBRANCH  13  15
ENDBRANCH   6   9
ENDBRANCH   2   3
TORSDOF 5
ENDMDL
MODEL      117
REMARK 921   NORMALIZED FREE ENERGY PREDICTED BY IDOCK:   -5.39 KCAL/MOL
REMARK 922        TOTAL FREE ENERGY PREDICTED BY IDOCK:   -7.20 KCAL/MOL
REMARK 923 INTER-LIGAND FREE ENERGY PREDICTED BY IDOCK:   -6.87 KCAL/MOL
REMARK 924 INTRA-LIGAND FREE ENERGY PREDICTED BY IDOCK:   -0.33 KCAL/MOL
REMARK 927      BINDING AFFINITY PREDICTED BY RF-SCORE:    0.00 PKD
ROOT
HETATM    1  C   UNL     1     -13.617  15.233  72.904  1.00  0.00    -0.487 C  
HETATM    2  O   UNL     1     -12.886  15.043  71.696  1.00  0.00    -0.305 OA 
ENDROOT
BRANCH   2   3
HETATM    3  C   UNL     1     -12.712  13.743  71.295  1.00  0.00    -0.371 A  
HETATM    4  C   UNL     1     -12.012  13.339  70.163  1.00  0.00    -0.388 A  
HETATM    5  C   UNL     1     -11.920  11.984  69.841  1.00  0.00    -0.391 A  
HETATM    6  C   UNL     1     -12.510  11.003  70.653  1.00  0.00    -0.465 A  
HETATM    7  C   UNL     1     -13.293  12.776  72.117  1.00  0.00    -0.593 A  
HETATM    8  C   UNL     1     -13.196  11.417  71.801  1.00  0.00    -0.472 A  
BRANCH   6   9
HETATM    9  C   UNL     1     -12.403   9.536  70.268  1.00  0.00     0.172 C  
HETATM   10  C   UNL     1     -11.309   8.678  70.993  1.00  0.00    -0.274 C  
HETATM   11  C   UNL     1     -11.685   8.523  72.479  1.00  0.00    -0.390 C  
HETATM   12  C   UNL     1      -9.914   9.319  70.847  1.00  0.00    -0.367 C  
HETATM   13  N   UNL     1     -11.311   7.338  70.350  1.00  0.00    -0.329 NA 
HETATM   14  H   UNL     1     -11.167   7.434  69.344  1.00  0.00     0.000 HD 
BRANCH  13  15
HETATM   15  C   UNL     1     -10.351   6.359  70.905  1.00  0.00    -0.204 C  
BRANCH  15  16
HETATM   16  C   UNL     1     -10.182   5.093  70.031  1.00  0.00    -0.284 C  
HETATM   17  H   UNL     1      -9.015   3.501  70.010  1.00  0.00     0.000 HD 
HETATM   18  O   UNL     1      -9.119   4.278  70.547  1.00  0.00    -0.091 OA 
BRANCH  16  19
HETATM   19  C   UNL     1      -9.973   5.422  68.569  1.00  0.00    -0.223 A  
HETATM   20  C   UNL     1      -8.929   6.271  68.162  1.00  0.00    -0.115 A  
HETATM   21  O   UNL     1      -8.148   6.828  69.143  1.00  0.00    -0.117 OA 
HETATM   22  C   UNL     1      -6.908   7.339  68.669  1.00  0.00    -0.076 C  
HETATM   23  C   UNL     1      -6.923   8.053  67.323  1.00  0.00    -0.075 C  
HETATM   24  O   UNL     1      -6.165   8.972  67.028  1.00  0.00    -0.057 OA 
HETATM   25  N   UNL     1      -7.792   7.511  66.415  1.00  0.00    -0.096 N  
HETATM   26  H   UNL     1      -7.737   7.797  65.437  1.00  0.00     0.000 HD 
HETATM   27  C   UNL     1      -8.755   6.573  66.802  1.00  0.00    -0.123 A  
HETATM   28  C   UNL     1      -9.570   5.990  65.833  1.00  0.00     0.047 A  
HETATM   29  C   UNL     1     -10.572   5.117  66.234  1.00  0.00    -0.266 A  
HETATM   30  O   UNL     1     -11.396   4.505  65.338  1.00  0.00    -0.937 OA 
HETATM   31  C   UNL     1     -10.782   4.838  67.582  1.00  0.00     0.401 A  
HETATM   32  H   UNL     1     -12.081   3.908  65.612  1.00  0.00     0.000 HD 
ENDBRANCH  16  19
ENDBRANCH  15  16
ENDBRANCH  13  15
ENDBRANCH   6   9
ENDBRANCH   2   3
TORSDOF 5
ENDMDL
MODEL      118
REMARK 921   NORMALIZED FREE ENERGY PREDICTED BY IDOCK:   -5.38 KCAL/MOL
REMARK 922        TOTAL FREE ENERGY PREDICTED BY IDOCK:   -7.19 KCAL/MOL
REMARK 923 INTER-LIGAND FREE ENERGY PREDICTED BY IDOCK:   -6.74 KCAL/MOL
REMARK 924 INTRA-LIGAND FREE ENERGY PREDICTED BY IDOCK:   -0.45 KCAL/MOL
REMARK 927      BINDING AFFINITY PREDICTED BY RF-SCORE:    0.00 PKD
ROOT
HETATM    1  C   UNL     1     -10.729   5.070  73.749  1.00  0.00    -0.301 C  
HETATM    2  O   UNL     1     -11.228   4.928  72.422  1.00  0.00    -0.115 OA 
ENDROOT
BRANCH   2   3
HETATM    3  C   UNL     1     -10.767   5.836  71.504  1.00  0.00    -0.258 A  
HETATM    4  C   UNL     1     -11.564   6.585  70.645  1.00  0.00    -0.442 A  
HETATM    5  C   UNL     1     -10.980   7.465  69.733  1.00  0.00    -0.215 A  
HETATM    6  C   UNL     1      -9.588   7.629  69.672  1.00  0.00    -0.160 A  
HETATM    7  C   UNL     1      -9.381   5.999  71.461  1.00  0.00    -0.161 A  
HETATM    8  C   UNL     1      -8.793   6.886  70.554  1.00  0.00    -0.155 A  
BRANCH   6   9
HETATM    9  C   UNL     1      -8.981   8.586  68.659  1.00  0.00    -0.139 C  
HETATM   10  C   UNL     1      -8.637  10.035  69.151  1.00  0.00    -0.158 C  
HETATM   11  C   UNL     1      -7.477   9.968  70.162  1.00  0.00    -0.176 C  
HETATM   12  C   UNL     1      -9.871  10.714  69.779  1.00  0.00     0.051 C  
HETATM   13  N   UNL     1      -8.198  10.806  67.958  1.00  0.00    -0.112 NA 
HETATM   14  H   UNL     1      -8.917  10.770  67.236  1.00  0.00     0.000 HD 
BRANCH  13  15
HETATM   15  C   UNL     1      -7.806  12.210  68.211  1.00  0.00    -0.153 C  
BRANCH  15  16
HETATM   16  C   UNL     1      -8.224  13.182  67.081  1.00  0.00    -0.120 C  
HETATM   17  H   UNL     1      -7.836  15.048  66.570  1.00  0.00     0.000 HD 
HETATM   18  O   UNL     1      -7.580  14.452  67.263  1.00  0.00    -0.188 OA 
BRANCH  16  19
HETATM   19  C   UNL     1      -9.726  13.329  66.969  1.00  0.00    -0.238 A  
HETATM   20  C   UNL     1     -10.454  14.061  67.923  1.00  0.00    -0.241 A  
HETATM   21  O   UNL     1      -9.757  14.586  68.983  1.00  0.00    -0.200 OA 
HETATM   22  C   UNL     1     -10.455  15.614  69.676  1.00  0.00    -0.283 C  
HETATM   23  C   UNL     1     -11.952  15.421  69.874  1.00  0.00    -0.359 C  
HETATM   24  O   UNL     1     -12.577  15.856  70.837  1.00  0.00    -0.427 OA 
HETATM   25  N   UNL     1     -12.579  14.805  68.823  1.00  0.00    -0.403 N  
HETATM   26  H   UNL     1     -13.598  14.802  68.780  1.00  0.00     0.000 HD 
HETATM   27  C   UNL     1     -11.847  14.180  67.808  1.00  0.00    -0.379 A  
HETATM   28  C   UNL     1     -12.522  13.631  66.719  1.00  0.00    -0.241 A  
HETATM   29  C   UNL     1     -11.795  12.946  65.753  1.00  0.00    -0.419 A  
HETATM   30  O   UNL     1     -12.390  12.396  64.659  1.00  0.00    -0.452 OA 
HETATM   31  C   UNL     1     -10.416  12.787  65.874  1.00  0.00    -0.295 A  
HETATM   32  H   UNL     1     -11.893  11.928  63.999  1.00  0.00     0.000 HD 
ENDBRANCH  16  19
ENDBRANCH  15  16
ENDBRANCH  13  15
ENDBRANCH   6   9
ENDBRANCH   2   3
TORSDOF 5
ENDMDL
MODEL      119
REMARK 921   NORMALIZED FREE ENERGY PREDICTED BY IDOCK:   -5.37 KCAL/MOL
REMARK 922        TOTAL FREE ENERGY PREDICTED BY IDOCK:   -7.18 KCAL/MOL
REMARK 923 INTER-LIGAND FREE ENERGY PREDICTED BY IDOCK:   -6.97 KCAL/MOL
REMARK 924 INTRA-LIGAND FREE ENERGY PREDICTED BY IDOCK:   -0.20 KCAL/MOL
REMARK 927      BINDING AFFINITY PREDICTED BY RF-SCORE:    0.00 PKD
ROOT
HETATM    1  C   UNL     1      -8.564  18.931  66.957  1.00  0.00    -0.289 C  
HETATM    2  O   UNL     1      -9.943  18.813  67.297  1.00  0.00    -0.306 OA 
ENDROOT
BRANCH   2   3
HETATM    3  C   UNL     1     -10.442  17.537  67.357  1.00  0.00    -0.342 A  
HETATM    4  C   UNL     1     -11.205  17.021  68.399  1.00  0.00    -0.040 A  
HETATM    5  C   UNL     1     -11.641  15.696  68.361  1.00  0.00    -0.358 A  
HETATM    6  C   UNL     1     -11.339  14.863  67.274  1.00  0.00    -0.355 A  
HETATM    7  C   UNL     1     -10.145  16.722  66.263  1.00  0.00    -0.338 A  
HETATM    8  C   UNL     1     -10.587  15.395  66.219  1.00  0.00    -0.311 A  
BRANCH   6   9
HETATM    9  C   UNL     1     -11.816  13.420  67.268  1.00  0.00    -0.422 C  
HETATM   10  C   UNL     1     -11.285  12.480  68.406  1.00  0.00    -0.272 C  
HETATM   11  C   UNL     1     -11.870  12.935  69.757  1.00  0.00    -0.380 C  
HETATM   12  C   UNL     1      -9.744  12.480  68.451  1.00  0.00    -0.189 C  
HETATM   13  N   UNL     1     -11.775  11.110  68.101  1.00  0.00    -0.547 NA 
HETATM   14  H   UNL     1     -11.482  10.836  67.163  1.00  0.00     0.000 HD 
BRANCH  13  15
HETATM   15  C   UNL     1     -11.395  10.062  69.075  1.00  0.00    -0.084 C  
BRANCH  15  16
HETATM   16  C   UNL     1     -10.499   8.953  68.472  1.00  0.00    -0.182 C  
HETATM   17  H   UNL     1     -10.328   8.021  66.741  1.00  0.00     0.000 HD 
HETATM   18  O   UNL     1     -10.878   8.701  67.111  1.00  0.00    -0.212 OA 
BRANCH  16  19
HETATM   19  C   UNL     1     -10.511   7.686  69.298  1.00  0.00    -0.220 A  
HETATM   20  C   UNL     1      -9.651   6.617  68.994  1.00  0.00    -0.133 A  
HETATM   21  O   UNL     1      -8.844   6.748  67.892  1.00  0.00    -0.120 OA 
HETATM   22  C   UNL     1      -7.752   5.837  67.867  1.00  0.00    -0.097 C  
HETATM   23  C   UNL     1      -8.025   4.417  68.346  1.00  0.00    -0.078 C  
HETATM   24  O   UNL     1      -7.442   3.426  67.916  1.00  0.00    -0.057 OA 
HETATM   25  N   UNL     1      -8.912   4.341  69.387  1.00  0.00    -0.093 N  
HETATM   26  H   UNL     1      -9.013   3.461  69.894  1.00  0.00     0.000 HD 
HETATM   27  C   UNL     1      -9.682   5.445  69.766  1.00  0.00    -0.184 A  
HETATM   28  C   UNL     1     -10.517   5.346  70.878  1.00  0.00    -0.307 A  
HETATM   29  C   UNL     1     -11.334   6.421  71.203  1.00  0.00    -0.319 A  
HETATM   30  O   UNL     1     -12.165   6.394  72.282  1.00  0.00    -0.483 OA 
HETATM   31  C   UNL     1     -11.342   7.575  70.424  1.00  0.00    -0.253 A  
HETATM   32  H   UNL     1     -12.723   7.129  72.504  1.00  0.00     0.000 HD 
ENDBRANCH  16  19
ENDBRANCH  15  16
ENDBRANCH  13  15
ENDBRANCH   6   9
ENDBRANCH   2   3
TORSDOF 5
ENDMDL
MODEL      120
REMARK 921   NORMALIZED FREE ENERGY PREDICTED BY IDOCK:   -5.34 KCAL/MOL
REMARK 922        TOTAL FREE ENERGY PREDICTED BY IDOCK:   -7.14 KCAL/MOL
REMARK 923 INTER-LIGAND FREE ENERGY PREDICTED BY IDOCK:   -6.85 KCAL/MOL
REMARK 924 INTRA-LIGAND FREE ENERGY PREDICTED BY IDOCK:   -0.30 KCAL/MOL
REMARK 927      BINDING AFFINITY PREDICTED BY RF-SCORE:    0.00 PKD
ROOT
HETATM    1  C   UNL     1     -13.904  15.438  71.946  1.00  0.00    -0.517 C  
HETATM    2  O   UNL     1     -12.886  15.609  70.964  1.00  0.00    -0.467 OA 
ENDROOT
BRANCH   2   3
HETATM    3  C   UNL     1     -12.513  14.480  70.279  1.00  0.00    -0.348 A  
HETATM    4  C   UNL     1     -12.132  14.441  68.942  1.00  0.00    -0.288 A  
HETATM    5  C   UNL     1     -11.795  13.227  68.343  1.00  0.00    -0.395 A  
HETATM    6  C   UNL     1     -11.813  12.028  69.072  1.00  0.00    -0.372 A  
HETATM    7  C   UNL     1     -12.524  13.296  71.018  1.00  0.00    -0.422 A  
HETATM    8  C   UNL     1     -12.178  12.078  70.422  1.00  0.00    -0.379 A  
BRANCH   6   9
HETATM    9  C   UNL     1     -11.453  10.719  68.387  1.00  0.00    -0.358 C  
HETATM   10  C   UNL     1     -10.241  10.735  67.392  1.00  0.00    -0.204 C  
HETATM   11  C   UNL     1      -8.939  10.976  68.179  1.00  0.00    -0.152 C  
HETATM   12  C   UNL     1     -10.430  11.813  66.306  1.00  0.00    -0.281 C  
HETATM   13  N   UNL     1     -10.184   9.393  66.756  1.00  0.00    -0.250 NA 
HETATM   14  H   UNL     1     -11.080   9.175  66.319  1.00  0.00     0.000 HD 
BRANCH  13  15
HETATM   15  C   UNL     1      -9.086   9.190  65.785  1.00  0.00    -0.213 C  
BRANCH  15  16
HETATM   16  C   UNL     1      -8.024   8.168  66.256  1.00  0.00    -0.101 C  
HETATM   17  H   UNL     1      -6.284   7.497  65.608  1.00  0.00     0.000 HD 
HETATM   18  O   UNL     1      -6.937   8.124  65.319  1.00  0.00    -0.061 OA 
BRANCH  16  19
HETATM   19  C   UNL     1      -8.608   6.794  66.498  1.00  0.00    -0.128 A  
HETATM   20  C   UNL     1      -9.240   6.481  67.713  1.00  0.00    -0.113 A  
HETATM   21  O   UNL     1      -9.257   7.450  68.685  1.00  0.00    -0.144 OA 
HETATM   22  C   UNL     1     -10.223   7.224  69.704  1.00  0.00    -0.211 C  
HETATM   23  C   UNL     1     -10.412   5.787  70.172  1.00  0.00    -0.278 C  
HETATM   24  O   UNL     1     -10.739   5.477  71.314  1.00  0.00    -0.251 OA 
HETATM   25  N   UNL     1     -10.289   4.856  69.176  1.00  0.00    -0.117 N  
HETATM   26  H   UNL     1     -10.582   3.894  69.351  1.00  0.00     0.000 HD 
HETATM   27  C   UNL     1      -9.769   5.198  67.923  1.00  0.00    -0.145 A  
HETATM   28  C   UNL     1      -9.731   4.237  66.913  1.00  0.00    -0.239 A  
HETATM   29  C   UNL     1      -9.146   4.563  65.697  1.00  0.00    -0.140 A  
HETATM   30  O   UNL     1      -9.086   3.676  64.666  1.00  0.00    -0.121 OA 
HETATM   31  C   UNL     1      -8.583   5.820  65.487  1.00  0.00    -0.151 A  
HETATM   32  H   UNL     1      -8.686   3.898  63.834  1.00  0.00     0.000 HD 
ENDBRANCH  16  19
ENDBRANCH  15  16
ENDBRANCH  13  15
ENDBRANCH   6   9
ENDBRANCH   2   3
TORSDOF 5
ENDMDL
MODEL      121
REMARK 921   NORMALIZED FREE ENERGY PREDICTED BY IDOCK:   -5.33 KCAL/MOL
REMARK 922        TOTAL FREE ENERGY PREDICTED BY IDOCK:   -7.14 KCAL/MOL
REMARK 923 INTER-LIGAND FREE ENERGY PREDICTED BY IDOCK:   -6.97 KCAL/MOL
REMARK 924 INTRA-LIGAND FREE ENERGY PREDICTED BY IDOCK:   -0.17 KCAL/MOL
REMARK 927      BINDING AFFINITY PREDICTED BY RF-SCORE:    0.00 PKD
ROOT
HETATM    1  C   UNL     1     -12.272  14.593  64.227  1.00  0.00    -0.408 C  
HETATM    2  O   UNL     1     -12.615  13.212  64.304  1.00  0.00    -0.610 OA 
ENDROOT
BRANCH   2   3
HETATM    3  C   UNL     1     -11.745  12.412  64.999  1.00  0.00    -0.371 A  
HETATM    4  C   UNL     1     -10.779  11.589  64.428  1.00  0.00    -0.404 A  
HETATM    5  C   UNL     1      -9.962  10.799  65.238  1.00  0.00    -0.342 A  
HETATM    6  C   UNL     1     -10.079  10.828  66.636  1.00  0.00    -0.265 A  
HETATM    7  C   UNL     1     -11.864  12.458  66.390  1.00  0.00    -0.421 A  
HETATM    8  C   UNL     1     -11.040  11.673  67.204  1.00  0.00    -0.354 A  
BRANCH   6   9
HETATM    9  C   UNL     1      -9.183   9.945  67.490  1.00  0.00    -0.148 C  
HETATM   10  C   UNL     1      -9.325   8.393  67.318  1.00  0.00    -0.146 C  
HETATM   11  C   UNL     1      -8.821   7.987  65.920  1.00  0.00    -0.189 C  
HETATM   12  C   UNL     1     -10.785   7.943  67.524  1.00  0.00    -0.252 C  
HETATM   13  N   UNL     1      -8.459   7.761  68.349  1.00  0.00    -0.125 NA 
HETATM   14  H   UNL     1      -8.715   8.103  69.275  1.00  0.00     0.000 HD 
BRANCH  13  15
HETATM   15  C   UNL     1      -8.435   6.282  68.346  1.00  0.00    -0.115 C  
BRANCH  15  16
HETATM   16  C   UNL     1      -8.029   5.667  69.707  1.00  0.00    -0.098 C  
HETATM   17  H   UNL     1      -8.394   4.003  70.703  1.00  0.00     0.000 HD 
HETATM   18  O   UNL     1      -8.644   4.380  69.868  1.00  0.00    -0.068 OA 
BRANCH  16  19
HETATM   19  C   UNL     1      -8.338   6.582  70.872  1.00  0.00    -0.126 A  
HETATM   20  C   UNL     1      -9.662   6.941  71.177  1.00  0.00    -0.173 A  
HETATM   21  O   UNL     1     -10.651   6.474  70.348  1.00  0.00    -0.212 OA 
HETATM   22  C   UNL     1     -11.954   6.537  70.915  1.00  0.00    -0.291 C  
HETATM   23  C   UNL     1     -12.287   7.768  71.747  1.00  0.00    -0.317 C  
HETATM   24  O   UNL     1     -13.414   8.247  71.840  1.00  0.00    -0.337 OA 
HETATM   25  N   UNL     1     -11.235   8.247  72.482  1.00  0.00    -0.380 N  
HETATM   26  H   UNL     1     -11.406   8.944  73.206  1.00  0.00     0.000 HD 
HETATM   27  C   UNL     1      -9.929   7.798  72.257  1.00  0.00    -0.203 A  
HETATM   28  C   UNL     1      -8.899   8.254  73.076  1.00  0.00    -0.302 A  
HETATM   29  C   UNL     1      -7.596   7.862  72.799  1.00  0.00    -0.113 A  
HETATM   30  O   UNL     1      -6.544   8.263  73.567  1.00  0.00    -0.111 OA 
HETATM   31  C   UNL     1      -7.311   7.044  71.710  1.00  0.00    -0.086 A  
HETATM   32  H   UNL     1      -5.653   7.995  73.378  1.00  0.00     0.000 HD 
ENDBRANCH  16  19
ENDBRANCH  15  16
ENDBRANCH  13  15
ENDBRANCH   6   9
ENDBRANCH   2   3
TORSDOF 5
ENDMDL
MODEL      122
REMARK 921   NORMALIZED FREE ENERGY PREDICTED BY IDOCK:   -5.31 KCAL/MOL
REMARK 922        TOTAL FREE ENERGY PREDICTED BY IDOCK:   -7.10 KCAL/MOL
REMARK 923 INTER-LIGAND FREE ENERGY PREDICTED BY IDOCK:   -6.75 KCAL/MOL
REMARK 924 INTRA-LIGAND FREE ENERGY PREDICTED BY IDOCK:   -0.35 KCAL/MOL
REMARK 927      BINDING AFFINITY PREDICTED BY RF-SCORE:    0.00 PKD
ROOT
HETATM    1  C   UNL     1      -9.289   3.401  74.077  1.00  0.00    -0.092 C  
HETATM    2  O   UNL     1     -10.130   3.152  72.954  1.00  0.00    -0.133 OA 
ENDROOT
BRANCH   2   3
HETATM    3  C   UNL     1     -10.402   4.232  72.153  1.00  0.00    -0.123 A  
HETATM    4  C   UNL     1     -11.159   5.338  72.525  1.00  0.00    -0.289 A  
HETATM    5  C   UNL     1     -11.389   6.370  71.614  1.00  0.00    -0.339 A  
HETATM    6  C   UNL     1     -10.853   6.328  70.319  1.00  0.00    -0.366 A  
HETATM    7  C   UNL     1      -9.853   4.184  70.870  1.00  0.00    -0.247 A  
HETATM    8  C   UNL     1     -10.075   5.221  69.958  1.00  0.00    -0.336 A  
BRANCH   6   9
HETATM    9  C   UNL     1     -11.132   7.462  69.345  1.00  0.00    -0.052 C  
HETATM   10  C   UNL     1     -10.415   8.832  69.608  1.00  0.00    -0.220 C  
HETATM   11  C   UNL     1      -8.901   8.667  69.376  1.00  0.00    -0.144 C  
HETATM   12  C   UNL     1     -10.697   9.340  71.036  1.00  0.00    -0.387 C  
HETATM   13  N   UNL     1     -10.955   9.801  68.619  1.00  0.00    -0.402 NA 
HETATM   14  H   UNL     1     -11.972   9.842  68.691  1.00  0.00     0.000 HD 
BRANCH  13  15
HETATM   15  C   UNL     1     -10.389  11.167  68.686  1.00  0.00    -0.203 C  
BRANCH  15  16
HETATM   16  C   UNL     1      -9.177  11.381  67.748  1.00  0.00    -0.159 C  
HETATM   17  H   UNL     1      -7.648  12.624  67.630  1.00  0.00     0.000 HD 
HETATM   18  O   UNL     1      -8.392  12.493  68.205  1.00  0.00    -0.166 OA 
BRANCH  16  19
HETATM   19  C   UNL     1      -9.586  11.545  66.300  1.00  0.00    -0.239 A  
HETATM   20  C   UNL     1      -9.239  10.583  65.337  1.00  0.00    -0.192 A  
HETATM   21  O   UNL     1      -8.471   9.522  65.751  1.00  0.00    -0.127 OA 
HETATM   22  C   UNL     1      -8.488   8.417  64.856  1.00  0.00    -0.122 C  
HETATM   23  C   UNL     1      -8.465   8.734  63.366  1.00  0.00    -0.111 C  
HETATM   24  O   UNL     1      -7.949   8.009  62.520  1.00  0.00    -0.140 OA 
HETATM   25  N   UNL     1      -9.169   9.858  63.024  1.00  0.00    -0.278 N  
HETATM   26  H   UNL     1      -9.368  10.044  62.041  1.00  0.00     0.000 HD 
HETATM   27  C   UNL     1      -9.620  10.756  63.997  1.00  0.00    -0.291 A  
HETATM   28  C   UNL     1     -10.396  11.847  63.613  1.00  0.00    -0.477 A  
HETATM   29  C   UNL     1     -10.776  12.774  64.575  1.00  0.00    -0.358 A  
HETATM   30  O   UNL     1     -11.544  13.857  64.268  1.00  0.00    -0.467 OA 
HETATM   31  C   UNL     1     -10.374  12.636  65.901  1.00  0.00    -0.295 A  
HETATM   32  H   UNL     1     -11.804  14.491  64.926  1.00  0.00     0.000 HD 
ENDBRANCH  16  19
ENDBRANCH  15  16
ENDBRANCH  13  15
ENDBRANCH   6   9
ENDBRANCH   2   3
TORSDOF 5
ENDMDL
MODEL      123
REMARK 921   NORMALIZED FREE ENERGY PREDICTED BY IDOCK:   -5.30 KCAL/MOL
REMARK 922        TOTAL FREE ENERGY PREDICTED BY IDOCK:   -7.10 KCAL/MOL
REMARK 923 INTER-LIGAND FREE ENERGY PREDICTED BY IDOCK:   -7.94 KCAL/MOL
REMARK 924 INTRA-LIGAND FREE ENERGY PREDICTED BY IDOCK:    0.84 KCAL/MOL
REMARK 927      BINDING AFFINITY PREDICTED BY RF-SCORE:    0.00 PKD
ROOT
HETATM    1  C   UNL     1      -7.399   1.921  69.273  1.00  0.00    -0.043 C  
HETATM    2  O   UNL     1      -8.815   2.072  69.316  1.00  0.00    -0.066 OA 
ENDROOT
BRANCH   2   3
HETATM    3  C   UNL     1      -9.308   3.271  68.868  1.00  0.00    -0.164 A  
HETATM    4  C   UNL     1      -9.327   3.686  67.540  1.00  0.00    -0.244 A  
HETATM    5  C   UNL     1      -9.834   4.942  67.204  1.00  0.00    -0.215 A  
HETATM    6  C   UNL     1     -10.350   5.802  68.185  1.00  0.00    -0.264 A  
HETATM    7  C   UNL     1      -9.829   4.114  69.852  1.00  0.00    -0.233 A  
HETATM    8  C   UNL     1     -10.346   5.370  69.516  1.00  0.00    -0.350 A  
BRANCH   6   9
HETATM    9  C   UNL     1     -10.884   7.170  67.789  1.00  0.00    -0.248 C  
HETATM   10  C   UNL     1     -10.074   8.426  68.264  1.00  0.00    -0.199 C  
HETATM   11  C   UNL     1      -8.718   8.462  67.534  1.00  0.00    -0.136 C  
HETATM   12  C   UNL     1      -9.871   8.409  69.792  1.00  0.00    -0.187 C  
HETATM   13  N   UNL     1     -10.865   9.624  67.879  1.00  0.00    -0.426 NA 
HETATM   14  H   UNL     1     -11.805   9.561  68.271  1.00  0.00     0.000 HD 
BRANCH  13  15
HETATM   15  C   UNL     1     -10.260  10.929  68.225  1.00  0.00    -0.173 C  
BRANCH  15  16
HETATM   16  C   UNL     1     -11.302  12.036  68.517  1.00  0.00    -0.272 C  
HETATM   17  H   UNL     1     -11.321  14.007  68.613  1.00  0.00     0.000 HD 
HETATM   18  O   UNL     1     -10.682  13.328  68.434  1.00  0.00    -0.242 OA 
BRANCH  16  19
HETATM   19  C   UNL     1     -12.001  11.838  69.845  1.00  0.00    -0.405 A  
HETATM   20  C   UNL     1     -12.437  12.937  70.603  1.00  0.00    -0.252 A  
HETATM   21  O   UNL     1     -12.155  14.191  70.120  1.00  0.00    -0.303 OA 
HETATM   22  C   UNL     1     -12.940  15.222  70.705  1.00  0.00    -0.436 C  
HETATM   23  C   UNL     1     -13.220  15.115  72.198  1.00  0.00    -0.376 C  
HETATM   24  O   UNL     1     -13.371  16.084  72.937  1.00  0.00    -0.506 OA 
HETATM   25  N   UNL     1     -13.399  13.832  72.642  1.00  0.00    -0.546 N  
HETATM   26  H   UNL     1     -13.774  13.673  73.577  1.00  0.00     0.000 HD 
HETATM   27  C   UNL     1     -13.076  12.735  71.836  1.00  0.00    -0.371 A  
HETATM   28  C   UNL     1     -13.344  11.447  72.297  1.00  0.00    -0.080 A  
HETATM   29  C   UNL     1     -12.952  10.362  71.524  1.00  0.00    -0.458 A  
HETATM   30  O   UNL     1     -13.193   9.078  71.911  1.00  0.00    -0.348 OA 
HETATM   31  C   UNL     1     -12.283  10.547  70.317  1.00  0.00    -0.393 A  
HETATM   32  H   UNL     1     -12.926   8.335  71.382  1.00  0.00     0.000 HD 
ENDBRANCH  16  19
ENDBRANCH  15  16
ENDBRANCH  13  15
ENDBRANCH   6   9
ENDBRANCH   2   3
TORSDOF 5
ENDMDL
MODEL      124
REMARK 921   NORMALIZED FREE ENERGY PREDICTED BY IDOCK:   -5.28 KCAL/MOL
REMARK 922        TOTAL FREE ENERGY PREDICTED BY IDOCK:   -7.07 KCAL/MOL
REMARK 923 INTER-LIGAND FREE ENERGY PREDICTED BY IDOCK:   -6.58 KCAL/MOL
REMARK 924 INTRA-LIGAND FREE ENERGY PREDICTED BY IDOCK:   -0.49 KCAL/MOL
REMARK 927      BINDING AFFINITY PREDICTED BY RF-SCORE:    0.00 PKD
ROOT
HETATM    1  C   UNL     1     -12.993  15.330  73.435  1.00  0.00    -0.531 C  
HETATM    2  O   UNL     1     -12.816  16.072  72.232  1.00  0.00    -0.452 OA 
ENDROOT
BRANCH   2   3
HETATM    3  C   UNL     1     -12.474  15.345  71.120  1.00  0.00    -0.402 A  
HETATM    4  C   UNL     1     -12.146  15.881  69.879  1.00  0.00    -0.245 A  
HETATM    5  C   UNL     1     -11.836  15.039  68.810  1.00  0.00    -0.331 A  
HETATM    6  C   UNL     1     -11.828  13.645  68.963  1.00  0.00    -0.393 A  
HETATM    7  C   UNL     1     -12.458  13.959  71.288  1.00  0.00    -0.440 A  
HETATM    8  C   UNL     1     -12.140  13.113  70.220  1.00  0.00    -0.399 A  
BRANCH   6   9
HETATM    9  C   UNL     1     -11.499  12.754  67.775  1.00  0.00    -0.376 C  
HETATM   10  C   UNL     1      -9.993  12.377  67.552  1.00  0.00    -0.196 C  
HETATM   11  C   UNL     1      -9.523  11.459  68.696  1.00  0.00    -0.168 C  
HETATM   12  C   UNL     1      -9.112  13.640  67.469  1.00  0.00    -0.213 C  
HETATM   13  N   UNL     1      -9.918  11.632  66.268  1.00  0.00    -0.211 NA 
HETATM   14  H   UNL     1     -10.324  12.190  65.517  1.00  0.00     0.000 HD 
BRANCH  13  15
HETATM   15  C   UNL     1      -8.570  11.164  65.877  1.00  0.00    -0.135 C  
BRANCH  15  16
HETATM   16  C   UNL     1      -8.582  10.143  64.714  1.00  0.00    -0.181 C  
HETATM   17  H   UNL     1      -9.893   9.473  63.399  1.00  0.00     0.000 HD 
HETATM   18  O   UNL     1      -9.885  10.099  64.113  1.00  0.00    -0.305 OA 
BRANCH  16  19
HETATM   19  C   UNL     1      -8.120   8.768  65.144  1.00  0.00    -0.133 A  
HETATM   20  C   UNL     1      -8.843   8.028  66.096  1.00  0.00    -0.166 A  
HETATM   21  O   UNL     1      -9.946   8.623  66.655  1.00  0.00    -0.241 OA 
HETATM   22  C   UNL     1     -10.832   7.709  67.291  1.00  0.00    -0.193 C  
HETATM   23  C   UNL     1     -10.200   6.569  68.078  1.00  0.00    -0.164 C  
HETATM   24  O   UNL     1     -10.711   6.058  69.071  1.00  0.00    -0.258 OA 
HETATM   25  N   UNL     1      -9.048   6.078  67.523  1.00  0.00    -0.111 N  
HETATM   26  H   UNL     1      -8.660   5.201  67.870  1.00  0.00     0.000 HD 
HETATM   27  C   UNL     1      -8.394   6.757  66.490  1.00  0.00    -0.121 A  
HETATM   28  C   UNL     1      -7.267   6.186  65.902  1.00  0.00    -0.075 A  
HETATM   29  C   UNL     1      -6.581   6.900  64.929  1.00  0.00    -0.043 A  
HETATM   30  O   UNL     1      -5.479   6.395  64.308  1.00  0.00    -0.021 OA 
HETATM   31  C   UNL     1      -6.991   8.177  64.556  1.00  0.00    -0.075 A  
HETATM   32  H   UNL     1      -5.010   6.883  63.642  1.00  0.00     0.000 HD 
ENDBRANCH  16  19
ENDBRANCH  15  16
ENDBRANCH  13  15
ENDBRANCH   6   9
ENDBRANCH   2   3
TORSDOF 5
ENDMDL
MODEL      125
REMARK 921   NORMALIZED FREE ENERGY PREDICTED BY IDOCK:   -5.26 KCAL/MOL
REMARK 922        TOTAL FREE ENERGY PREDICTED BY IDOCK:   -7.05 KCAL/MOL
REMARK 923 INTER-LIGAND FREE ENERGY PREDICTED BY IDOCK:   -6.30 KCAL/MOL
REMARK 924 INTRA-LIGAND FREE ENERGY PREDICTED BY IDOCK:   -0.75 KCAL/MOL
REMARK 927      BINDING AFFINITY PREDICTED BY RF-SCORE:    0.00 PKD
ROOT
HETATM    1  C   UNL     1      -8.890  18.827  67.765  1.00  0.00    -0.290 C  
HETATM    2  O   UNL     1     -10.210  18.530  68.213  1.00  0.00    -0.361 OA 
ENDROOT
BRANCH   2   3
HETATM    3  C   UNL     1     -10.641  17.244  68.011  1.00  0.00    -0.394 A  
HETATM    4  C   UNL     1     -11.259  16.443  68.966  1.00  0.00    -0.291 A  
HETATM    5  C   UNL     1     -11.635  15.137  68.650  1.00  0.00    -0.358 A  
HETATM    6  C   UNL     1     -11.420  14.609  67.368  1.00  0.00    -0.384 A  
HETATM    7  C   UNL     1     -10.432  16.734  66.727  1.00  0.00    -0.258 A  
HETATM    8  C   UNL     1     -10.816  15.428  66.406  1.00  0.00    -0.303 A  
BRANCH   6   9
HETATM    9  C   UNL     1     -11.830  13.178  67.059  1.00  0.00    -0.435 C  
HETATM   10  C   UNL     1     -11.093  12.033  67.838  1.00  0.00    -0.236 C  
HETATM   11  C   UNL     1     -11.488  12.093  69.325  1.00  0.00    -0.363 C  
HETATM   12  C   UNL     1      -9.564  12.145  67.673  1.00  0.00    -0.190 C  
HETATM   13  N   UNL     1     -11.563  10.745  67.262  1.00  0.00    -0.397 NA 
HETATM   14  H   UNL     1     -11.403  10.735  66.255  1.00  0.00     0.000 HD 
BRANCH  13  15
HETATM   15  C   UNL     1     -10.996   9.524  67.876  1.00  0.00    -0.110 C  
BRANCH  15  16
HETATM   16  C   UNL     1     -10.449   8.509  66.844  1.00  0.00    -0.275 C  
HETATM   17  H   UNL     1     -10.679   6.589  66.450  1.00  0.00     0.000 HD 
HETATM   18  O   UNL     1     -11.014   7.212  67.084  1.00  0.00    -0.342 OA 
BRANCH  16  19
HETATM   19  C   UNL     1      -8.936   8.463  66.821  1.00  0.00    -0.172 A  
HETATM   20  C   UNL     1      -8.215   8.942  65.714  1.00  0.00    -0.115 A  
HETATM   21  O   UNL     1      -8.936   9.400  64.640  1.00  0.00    -0.208 OA 
HETATM   22  C   UNL     1      -8.183  10.211  63.746  1.00  0.00    -0.163 C  
HETATM   23  C   UNL     1      -6.746   9.788  63.472  1.00  0.00    -0.117 C  
HETATM   24  O   UNL     1      -6.165   9.989  62.410  1.00  0.00    -0.103 OA 
HETATM   25  N   UNL     1      -6.107   9.249  64.557  1.00  0.00    -0.070 N  
HETATM   26  H   UNL     1      -5.096   9.112  64.524  1.00  0.00     0.000 HD 
HETATM   27  C   UNL     1      -6.813   8.884  65.707  1.00  0.00    -0.072 A  
HETATM   28  C   UNL     1      -6.114   8.409  66.816  1.00  0.00    -0.054 A  
HETATM   29  C   UNL     1      -6.828   7.978  67.926  1.00  0.00    -0.073 A  
HETATM   30  O   UNL     1      -6.206   7.514  69.046  1.00  0.00    -0.033 OA 
HETATM   31  C   UNL     1      -8.220   7.995  67.933  1.00  0.00    -0.129 A  
HETATM   32  H   UNL     1      -6.694   7.219  69.806  1.00  0.00     0.000 HD 
ENDBRANCH  16  19
ENDBRANCH  15  16
ENDBRANCH  13  15
ENDBRANCH   6   9
ENDBRANCH   2   3
TORSDOF 5
ENDMDL
MODEL      126
REMARK 921   NORMALIZED FREE ENERGY PREDICTED BY IDOCK:   -5.26 KCAL/MOL
REMARK 922        TOTAL FREE ENERGY PREDICTED BY IDOCK:   -7.04 KCAL/MOL
REMARK 923 INTER-LIGAND FREE ENERGY PREDICTED BY IDOCK:   -6.03 KCAL/MOL
REMARK 924 INTRA-LIGAND FREE ENERGY PREDICTED BY IDOCK:   -1.01 KCAL/MOL
REMARK 927      BINDING AFFINITY PREDICTED BY RF-SCORE:    0.00 PKD
ROOT
HETATM    1  C   UNL     1      -8.904   1.833  64.527  1.00  0.00    -0.106 C  
HETATM    2  O   UNL     1      -8.366   1.671  65.836  1.00  0.00    -0.081 OA 
ENDROOT
BRANCH   2   3
HETATM    3  C   UNL     1      -8.509   2.739  66.684  1.00  0.00    -0.102 A  
HETATM    4  C   UNL     1      -9.131   2.700  67.928  1.00  0.00    -0.227 A  
HETATM    5  C   UNL     1      -9.239   3.860  68.696  1.00  0.00    -0.211 A  
HETATM    6  C   UNL     1      -8.711   5.080  68.247  1.00  0.00    -0.106 A  
HETATM    7  C   UNL     1      -7.970   3.945  66.231  1.00  0.00    -0.094 A  
HETATM    8  C   UNL     1      -8.069   5.107  67.003  1.00  0.00    -0.104 A  
BRANCH   6   9
HETATM    9  C   UNL     1      -8.855   6.329  69.101  1.00  0.00    -0.128 C  
HETATM   10  C   UNL     1     -10.220   7.100  69.027  1.00  0.00    -0.190 C  
HETATM   11  C   UNL     1     -11.328   6.234  69.655  1.00  0.00    -0.492 C  
HETATM   12  C   UNL     1     -10.571   7.466  67.571  1.00  0.00    -0.340 C  
HETATM   13  N   UNL     1     -10.061   8.342  69.828  1.00  0.00    -0.193 NA 
HETATM   14  H   UNL     1      -9.261   8.876  69.488  1.00  0.00     0.000 HD 
BRANCH  13  15
HETATM   15  C   UNL     1     -11.254   9.213  69.903  1.00  0.00    -0.102 C  
BRANCH  15  16
HETATM   16  C   UNL     1     -10.915  10.715  70.060  1.00  0.00    -0.259 C  
HETATM   17  H   UNL     1     -11.726  12.293  70.925  1.00  0.00     0.000 HD 
HETATM   18  O   UNL     1     -11.934  11.371  70.828  1.00  0.00    -0.345 OA 
BRANCH  16  19
HETATM   19  C   UNL     1     -10.691  11.401  68.729  1.00  0.00    -0.240 A  
HETATM   20  C   UNL     1      -9.418  11.429  68.136  1.00  0.00    -0.181 A  
HETATM   21  O   UNL     1      -8.382  10.859  68.834  1.00  0.00    -0.145 OA 
HETATM   22  C   UNL     1      -7.240  10.574  68.035  1.00  0.00    -0.087 C  
HETATM   23  C   UNL     1      -6.864  11.599  66.974  1.00  0.00    -0.144 C  
HETATM   24  O   UNL     1      -5.713  11.810  66.604  1.00  0.00    -0.187 OA 
HETATM   25  N   UNL     1      -7.938  12.205  66.378  1.00  0.00    -0.376 N  
HETATM   26  H   UNL     1      -7.795  12.761  65.535  1.00  0.00     0.000 HD 
HETATM   27  C   UNL     1      -9.228  12.077  66.905  1.00  0.00    -0.197 A  
HETATM   28  C   UNL     1     -10.303  12.647  66.226  1.00  0.00    -0.269 A  
HETATM   29  C   UNL     1     -11.569  12.579  66.794  1.00  0.00    -0.382 A  
HETATM   30  O   UNL     1     -12.664  13.105  66.178  1.00  0.00    -0.347 OA 
HETATM   31  C   UNL     1     -11.767  11.973  68.032  1.00  0.00    -0.398 A  
HETATM   32  H   UNL     1     -13.529  13.059  66.566  1.00  0.00     0.000 HD 
ENDBRANCH  16  19
ENDBRANCH  15  16
ENDBRANCH  13  15
ENDBRANCH   6   9
ENDBRANCH   2   3
TORSDOF 5
ENDMDL
MODEL      127
REMARK 921   NORMALIZED FREE ENERGY PREDICTED BY IDOCK:   -5.26 KCAL/MOL
REMARK 922        TOTAL FREE ENERGY PREDICTED BY IDOCK:   -7.04 KCAL/MOL
REMARK 923 INTER-LIGAND FREE ENERGY PREDICTED BY IDOCK:   -6.59 KCAL/MOL
REMARK 924 INTRA-LIGAND FREE ENERGY PREDICTED BY IDOCK:   -0.45 KCAL/MOL
REMARK 927      BINDING AFFINITY PREDICTED BY RF-SCORE:    0.00 PKD
ROOT
HETATM    1  C   UNL     1      -8.078   2.941  65.962  1.00  0.00    -0.083 C  
HETATM    2  O   UNL     1      -7.747   3.505  67.228  1.00  0.00    -0.077 OA 
ENDROOT
BRANCH   2   3
HETATM    3  C   UNL     1      -7.978   4.850  67.368  1.00  0.00    -0.095 A  
HETATM    4  C   UNL     1      -7.952   5.782  66.336  1.00  0.00    -0.102 A  
HETATM    5  C   UNL     1      -8.181   7.133  66.603  1.00  0.00    -0.112 A  
HETATM    6  C   UNL     1      -8.459   7.578  67.904  1.00  0.00    -0.122 A  
HETATM    7  C   UNL     1      -8.266   5.280  68.666  1.00  0.00    -0.093 A  
HETATM    8  C   UNL     1      -8.504   6.631  68.934  1.00  0.00    -0.123 A  
BRANCH   6   9
HETATM    9  C   UNL     1      -8.691   9.058  68.165  1.00  0.00    -0.130 C  
HETATM   10  C   UNL     1     -10.106   9.639  67.818  1.00  0.00    -0.187 C  
HETATM   11  C   UNL     1     -11.151   9.044  68.782  1.00  0.00     0.139 C  
HETATM   12  C   UNL     1     -10.484   9.340  66.353  1.00  0.00    -0.157 C  
HETATM   13  N   UNL     1     -10.035  11.109  68.024  1.00  0.00    -0.172 NA 
HETATM   14  H   UNL     1      -9.275  11.502  67.469  1.00  0.00     0.000 HD 
BRANCH  13  15
HETATM   15  C   UNL     1     -11.287  11.854  67.766  1.00  0.00    -0.292 C  
BRANCH  15  16
HETATM   16  C   UNL     1     -11.219  13.343  68.182  1.00  0.00    -0.273 C  
HETATM   17  H   UNL     1     -12.244  14.562  69.348  1.00  0.00     0.000 HD 
HETATM   18  O   UNL     1     -12.286  13.648  69.092  1.00  0.00    -0.326 OA 
BRANCH  16  19
HETATM   19  C   UNL     1     -11.216  14.278  66.992  1.00  0.00    -0.332 A  
HETATM   20  C   UNL     1     -10.709  15.584  67.100  1.00  0.00    -0.315 A  
HETATM   21  O   UNL     1     -10.270  15.991  68.335  1.00  0.00    -0.226 OA 
HETATM   22  C   UNL     1      -9.431  17.139  68.296  1.00  0.00    -0.276 C  
HETATM   23  C   UNL     1      -9.807  18.238  67.310  1.00  0.00    -0.321 C  
HETATM   24  O   UNL     1      -9.582  19.430  67.496  1.00  0.00    -0.309 OA 
HETATM   25  N   UNL     1     -10.329  17.775  66.132  1.00  0.00    -0.374 N  
HETATM   26  H   UNL     1     -10.434  18.415  65.345  1.00  0.00     0.000 HD 
HETATM   27  C   UNL     1     -10.723  16.440  65.988  1.00  0.00    -0.191 A  
HETATM   28  C   UNL     1     -11.179  15.992  64.749  1.00  0.00    -0.348 A  
HETATM   29  C   UNL     1     -11.638  14.687  64.634  1.00  0.00    -0.402 A  
HETATM   30  O   UNL     1     -12.087  14.183  63.451  1.00  0.00    -0.927 OA 
HETATM   31  C   UNL     1     -11.666  13.837  65.738  1.00  0.00    -0.365 A  
HETATM   32  H   UNL     1     -12.401  13.290  63.372  1.00  0.00     0.000 HD 
ENDBRANCH  16  19
ENDBRANCH  15  16
ENDBRANCH  13  15
ENDBRANCH   6   9
ENDBRANCH   2   3
TORSDOF 5
ENDMDL
MODEL      128
REMARK 921   NORMALIZED FREE ENERGY PREDICTED BY IDOCK:   -5.26 KCAL/MOL
REMARK 922        TOTAL FREE ENERGY PREDICTED BY IDOCK:   -7.04 KCAL/MOL
REMARK 923 INTER-LIGAND FREE ENERGY PREDICTED BY IDOCK:   -6.51 KCAL/MOL
REMARK 924 INTRA-LIGAND FREE ENERGY PREDICTED BY IDOCK:   -0.53 KCAL/MOL
REMARK 927      BINDING AFFINITY PREDICTED BY RF-SCORE:    0.00 PKD
ROOT
HETATM    1  C   UNL     1      -9.934   3.141  71.385  1.00  0.00    -0.027 C  
HETATM    2  O   UNL     1      -9.584   3.236  70.007  1.00  0.00    -0.175 OA 
ENDROOT
BRANCH   2   3
HETATM    3  C   UNL     1      -9.668   4.485  69.448  1.00  0.00    -0.202 A  
HETATM    4  C   UNL     1      -8.784   5.007  68.509  1.00  0.00    -0.103 A  
HETATM    5  C   UNL     1      -8.958   6.304  68.026  1.00  0.00    -0.114 A  
HETATM    6  C   UNL     1     -10.029   7.102  68.456  1.00  0.00    -0.163 A  
HETATM    7  C   UNL     1     -10.745   5.265  69.875  1.00  0.00    -0.196 A  
HETATM    8  C   UNL     1     -10.926   6.563  69.385  1.00  0.00    -0.395 A  
BRANCH   6   9
HETATM    9  C   UNL     1     -10.184   8.516  67.920  1.00  0.00    -0.273 C  
HETATM   10  C   UNL     1      -9.355   9.648  68.623  1.00  0.00    -0.143 C  
HETATM   11  C   UNL     1      -7.857   9.432  68.339  1.00  0.00    -0.090 C  
HETATM   12  C   UNL     1      -9.626   9.672  70.140  1.00  0.00    -0.300 C  
HETATM   13  N   UNL     1      -9.783  10.937  68.020  1.00  0.00    -0.161 NA 
HETATM   14  H   UNL     1     -10.794  11.044  68.108  1.00  0.00     0.000 HD 
BRANCH  13  15
HETATM   15  C   UNL     1      -9.101  12.144  68.536  1.00  0.00    -0.090 C  
BRANCH  15  16
HETATM   16  C   UNL     1      -8.240  12.871  67.475  1.00  0.00    -0.184 C  
HETATM   17  H   UNL     1      -6.319  13.059  67.062  1.00  0.00     0.000 HD 
HETATM   18  O   UNL     1      -6.848  12.614  67.713  1.00  0.00    -0.097 OA 
BRANCH  16  19
HETATM   19  C   UNL     1      -8.530  14.354  67.410  1.00  0.00    -0.216 A  
HETATM   20  C   UNL     1      -9.495  14.864  66.525  1.00  0.00    -0.283 A  
HETATM   21  O   UNL     1     -10.121  13.972  65.689  1.00  0.00    -0.313 OA 
HETATM   22  C   UNL     1     -11.326  14.467  65.119  1.00  0.00    -0.366 C  
HETATM   23  C   UNL     1     -11.338  15.928  64.689  1.00  0.00    -0.322 C  
HETATM   24  O   UNL     1     -12.004  16.359  63.751  1.00  0.00    -0.964 OA 
HETATM   25  N   UNL     1     -10.618  16.757  65.507  1.00  0.00    -0.304 N  
HETATM   26  H   UNL     1     -10.720  17.767  65.410  1.00  0.00     0.000 HD 
HETATM   27  C   UNL     1      -9.745  16.244  66.472  1.00  0.00    -0.263 A  
HETATM   28  C   UNL     1      -9.088  17.121  67.334  1.00  0.00    -0.226 A  
HETATM   29  C   UNL     1      -8.167  16.609  68.239  1.00  0.00    -0.200 A  
HETATM   30  O   UNL     1      -7.500  17.409  69.116  1.00  0.00    -0.222 OA 
HETATM   31  C   UNL     1      -7.881  15.247  68.277  1.00  0.00    -0.116 A  
HETATM   32  H   UNL     1      -6.870  17.060  69.735  1.00  0.00     0.000 HD 
ENDBRANCH  16  19
ENDBRANCH  15  16
ENDBRANCH  13  15
ENDBRANCH   6   9
ENDBRANCH   2   3
TORSDOF 5
ENDMDL
MODEL      129
REMARK 921   NORMALIZED FREE ENERGY PREDICTED BY IDOCK:   -5.26 KCAL/MOL
REMARK 922        TOTAL FREE ENERGY PREDICTED BY IDOCK:   -7.04 KCAL/MOL
REMARK 923 INTER-LIGAND FREE ENERGY PREDICTED BY IDOCK:   -7.25 KCAL/MOL
REMARK 924 INTRA-LIGAND FREE ENERGY PREDICTED BY IDOCK:    0.21 KCAL/MOL
REMARK 927      BINDING AFFINITY PREDICTED BY RF-SCORE:    0.00 PKD
ROOT
HETATM    1  C   UNL     1      -9.926  19.609  68.807  1.00  0.00    -0.451 C  
HETATM    2  O   UNL     1     -10.419  19.132  67.559  1.00  0.00    -0.400 OA 
ENDROOT
BRANCH   2   3
HETATM    3  C   UNL     1     -10.192  17.807  67.287  1.00  0.00    -0.350 A  
HETATM    4  C   UNL     1      -9.503  16.924  68.112  1.00  0.00    -0.251 A  
HETATM    5  C   UNL     1      -9.313  15.599  67.718  1.00  0.00    -0.202 A  
HETATM    6  C   UNL     1      -9.823  15.123  66.501  1.00  0.00    -0.278 A  
HETATM    7  C   UNL     1     -10.714  17.343  66.078  1.00  0.00    -0.122 A  
HETATM    8  C   UNL     1     -10.533  16.012  65.685  1.00  0.00    -0.416 A  
BRANCH   6   9
HETATM    9  C   UNL     1      -9.588  13.677  66.094  1.00  0.00    -0.226 C  
HETATM   10  C   UNL     1     -10.510  12.586  66.743  1.00  0.00    -0.225 C  
HETATM   11  C   UNL     1     -11.951  12.764  66.226  1.00  0.00    -0.460 C  
HETATM   12  C   UNL     1     -10.468  12.669  68.282  1.00  0.00    -0.249 C  
HETATM   13  N   UNL     1      -9.995  11.263  66.301  1.00  0.00    -0.214 NA 
HETATM   14  H   UNL     1      -9.009  11.175  66.545  1.00  0.00     0.000 HD 
BRANCH  13  15
HETATM   15  C   UNL     1     -10.745  10.087  66.793  1.00  0.00    -0.101 C  
BRANCH  15  16
HETATM   16  C   UNL     1      -9.843   8.875  67.130  1.00  0.00    -0.207 C  
HETATM   17  H   UNL     1      -9.972   6.909  67.022  1.00  0.00     0.000 HD 
HETATM   18  O   UNL     1     -10.526   7.652  66.816  1.00  0.00    -0.314 OA 
BRANCH  16  19
HETATM   19  C   UNL     1      -9.361   8.892  68.565  1.00  0.00    -0.141 A  
HETATM   20  C   UNL     1      -9.868   7.981  69.508  1.00  0.00    -0.181 A  
HETATM   21  O   UNL     1     -10.850   7.118  69.089  1.00  0.00    -0.216 OA 
HETATM   22  C   UNL     1     -11.033   5.997  69.945  1.00  0.00    -0.388 C  
HETATM   23  C   UNL     1     -10.941   6.249  71.444  1.00  0.00    -0.275 C  
HETATM   24  O   UNL     1     -11.567   5.610  72.285  1.00  0.00    -0.264 OA 
HETATM   25  N   UNL     1     -10.010   7.190  71.795  1.00  0.00    -0.176 N  
HETATM   26  H   UNL     1      -9.745   7.290  72.776  1.00  0.00     0.000 HD 
HETATM   27  C   UNL     1      -9.416   8.016  70.836  1.00  0.00    -0.161 A  
HETATM   28  C   UNL     1      -8.419   8.909  71.226  1.00  0.00    -0.239 A  
HETATM   29  C   UNL     1      -7.888   9.778  70.282  1.00  0.00    -0.171 A  
HETATM   30  O   UNL     1      -6.904  10.666  70.594  1.00  0.00    -0.447 OA 
HETATM   31  C   UNL     1      -8.353   9.780  68.969  1.00  0.00    -0.127 A  
HETATM   32  H   UNL     1      -6.540  11.260  69.948  1.00  0.00     0.000 HD 
ENDBRANCH  16  19
ENDBRANCH  15  16
ENDBRANCH  13  15
ENDBRANCH   6   9
ENDBRANCH   2   3
TORSDOF 5
ENDMDL
MODEL      130
REMARK 921   NORMALIZED FREE ENERGY PREDICTED BY IDOCK:   -5.25 KCAL/MOL
REMARK 922        TOTAL FREE ENERGY PREDICTED BY IDOCK:   -7.02 KCAL/MOL
REMARK 923 INTER-LIGAND FREE ENERGY PREDICTED BY IDOCK:   -7.03 KCAL/MOL
REMARK 924 INTRA-LIGAND FREE ENERGY PREDICTED BY IDOCK:    0.01 KCAL/MOL
REMARK 927      BINDING AFFINITY PREDICTED BY RF-SCORE:    0.00 PKD
ROOT
HETATM    1  C   UNL     1     -11.377   7.195  72.070  1.00  0.00    -0.258 C  
HETATM    2  O   UNL     1     -11.524   8.589  72.324  1.00  0.00    -0.355 OA 
ENDROOT
BRANCH   2   3
HETATM    3  C   UNL     1     -11.515   9.407  71.223  1.00  0.00    -0.363 A  
HETATM    4  C   UNL     1     -12.402  10.453  70.992  1.00  0.00    -0.490 A  
HETATM    5  C   UNL     1     -12.310  11.206  69.820  1.00  0.00    -0.315 A  
HETATM    6  C   UNL     1     -11.318  10.942  68.864  1.00  0.00    -0.354 A  
HETATM    7  C   UNL     1     -10.516   9.142  70.284  1.00  0.00    -0.257 A  
HETATM    8  C   UNL     1     -10.416   9.900  69.113  1.00  0.00    -0.235 A  
BRANCH   6   9
HETATM    9  C   UNL     1     -11.252  11.771  67.592  1.00  0.00    -0.345 C  
HETATM   10  C   UNL     1     -10.167  12.903  67.524  1.00  0.00    -0.213 C  
HETATM   11  C   UNL     1      -8.767  12.263  67.483  1.00  0.00    -0.177 C  
HETATM   12  C   UNL     1     -10.294  13.864  68.723  1.00  0.00    -0.210 C  
HETATM   13  N   UNL     1     -10.398  13.650  66.260  1.00  0.00    -0.287 NA 
HETATM   14  H   UNL     1     -11.359  13.990  66.227  1.00  0.00     0.000 HD 
BRANCH  13  15
HETATM   15  C   UNL     1      -9.459  14.761  65.992  1.00  0.00    -0.264 C  
BRANCH  15  16
HETATM   16  C   UNL     1      -9.657  15.978  66.928  1.00  0.00    -0.226 C  
HETATM   17  H   UNL     1     -10.941  17.466  67.105  1.00  0.00     0.000 HD 
HETATM   18  O   UNL     1     -10.819  16.720  66.530  1.00  0.00    -0.162 OA 
BRANCH  16  19
HETATM   19  C   UNL     1      -8.429  16.860  67.000  1.00  0.00    -0.228 A  
HETATM   20  C   UNL     1      -7.530  16.762  68.075  1.00  0.00    -0.167 A  
HETATM   21  O   UNL     1      -7.838  15.876  69.078  1.00  0.00    -0.186 OA 
HETATM   22  C   UNL     1      -6.733  15.543  69.909  1.00  0.00    -0.112 C  
HETATM   23  C   UNL     1      -5.771  16.669  70.265  1.00  0.00    -0.166 C  
HETATM   24  O   UNL     1      -5.144  16.725  71.319  1.00  0.00    -0.307 OA 
HETATM   25  N   UNL     1      -5.576  17.576  69.258  1.00  0.00    -0.186 N  
HETATM   26  H   UNL     1      -4.815  18.251  69.333  1.00  0.00     0.000 HD 
HETATM   27  C   UNL     1      -6.401  17.594  68.129  1.00  0.00    -0.172 A  
HETATM   28  C   UNL     1      -6.122  18.484  67.093  1.00  0.00    -0.176 A  
HETATM   29  C   UNL     1      -6.989  18.548  66.009  1.00  0.00    -0.275 A  
HETATM   30  O   UNL     1      -6.768  19.386  64.959  1.00  0.00    -0.412 OA 
HETATM   31  C   UNL     1      -8.133  17.755  65.960  1.00  0.00    -0.136 A  
HETATM   32  H   UNL     1      -7.361  19.430  64.218  1.00  0.00     0.000 HD 
ENDBRANCH  16  19
ENDBRANCH  15  16
ENDBRANCH  13  15
ENDBRANCH   6   9
ENDBRANCH   2   3
TORSDOF 5
ENDMDL
MODEL      131
REMARK 921   NORMALIZED FREE ENERGY PREDICTED BY IDOCK:   -5.23 KCAL/MOL
REMARK 922        TOTAL FREE ENERGY PREDICTED BY IDOCK:   -7.01 KCAL/MOL
REMARK 923 INTER-LIGAND FREE ENERGY PREDICTED BY IDOCK:   -6.34 KCAL/MOL
REMARK 924 INTRA-LIGAND FREE ENERGY PREDICTED BY IDOCK:   -0.67 KCAL/MOL
REMARK 927      BINDING AFFINITY PREDICTED BY RF-SCORE:    0.00 PKD
ROOT
HETATM    1  C   UNL     1     -11.329  15.560  64.774  1.00  0.00    -0.357 C  
HETATM    2  O   UNL     1     -10.305  15.363  65.744  1.00  0.00    -0.310 OA 
ENDROOT
BRANCH   2   3
HETATM    3  C   UNL     1     -10.388  14.212  66.484  1.00  0.00    -0.284 A  
HETATM    4  C   UNL     1      -9.497  13.832  67.483  1.00  0.00    -0.220 A  
HETATM    5  C   UNL     1      -9.670  12.622  68.155  1.00  0.00    -0.219 A  
HETATM    6  C   UNL     1     -10.747  11.773  67.858  1.00  0.00    -0.241 A  
HETATM    7  C   UNL     1     -11.471  13.381  66.187  1.00  0.00    -0.354 A  
HETATM    8  C   UNL     1     -11.651  12.172  66.865  1.00  0.00    -0.408 A  
BRANCH   6   9
HETATM    9  C   UNL     1     -10.901  10.455  68.599  1.00  0.00    -0.270 C  
HETATM   10  C   UNL     1     -10.170   9.202  68.002  1.00  0.00    -0.211 C  
HETATM   11  C   UNL     1      -8.647   9.391  68.135  1.00  0.00    -0.120 C  
HETATM   12  C   UNL     1     -10.566   8.979  66.529  1.00  0.00    -0.076 C  
HETATM   13  N   UNL     1     -10.586   8.029  68.814  1.00  0.00    -0.351 NA 
HETATM   14  H   UNL     1     -11.604   7.954  68.821  1.00  0.00     0.000 HD 
BRANCH  13  15
HETATM   15  C   UNL     1      -9.988   6.734  68.422  1.00  0.00    -0.151 C  
BRANCH  15  16
HETATM   16  C   UNL     1      -8.970   6.186  69.452  1.00  0.00    -0.128 C  
HETATM   17  H   UNL     1      -8.054   4.473  69.800  1.00  0.00     0.000 HD 
HETATM   18  O   UNL     1      -8.678   4.809  69.169  1.00  0.00    -0.086 OA 
BRANCH  16  19
HETATM   19  C   UNL     1      -9.432   6.375  70.880  1.00  0.00    -0.185 A  
HETATM   20  C   UNL     1      -8.672   7.128  71.792  1.00  0.00    -0.117 A  
HETATM   21  O   UNL     1      -7.475   7.635  71.350  1.00  0.00    -0.076 OA 
HETATM   22  C   UNL     1      -6.960   8.683  72.163  1.00  0.00    -0.042 C  
HETATM   23  C   UNL     1      -7.122   8.533  73.670  1.00  0.00    -0.022 C  
HETATM   24  O   UNL     1      -6.331   8.986  74.491  1.00  0.00    -0.261 OA 
HETATM   25  N   UNL     1      -8.294   7.933  74.048  1.00  0.00    -0.234 N  
HETATM   26  H   UNL     1      -8.576   7.959  75.028  1.00  0.00     0.000 HD 
HETATM   27  C   UNL     1      -9.112   7.286  73.115  1.00  0.00    -0.153 A  
HETATM   28  C   UNL     1     -10.332   6.755  73.529  1.00  0.00    -0.342 A  
HETATM   29  C   UNL     1     -11.103   6.049  72.614  1.00  0.00    -0.275 A  
HETATM   30  O   UNL     1     -12.309   5.514  72.950  1.00  0.00    -0.519 OA 
HETATM   31  C   UNL     1     -10.662   5.851  71.308  1.00  0.00    -0.325 A  
HETATM   32  H   UNL     1     -12.837   5.031  72.325  1.00  0.00     0.000 HD 
ENDBRANCH  16  19
ENDBRANCH  15  16
ENDBRANCH  13  15
ENDBRANCH   6   9
ENDBRANCH   2   3
TORSDOF 5
ENDMDL
MODEL      132
REMARK 921   NORMALIZED FREE ENERGY PREDICTED BY IDOCK:   -5.22 KCAL/MOL
REMARK 922        TOTAL FREE ENERGY PREDICTED BY IDOCK:   -6.99 KCAL/MOL
REMARK 923 INTER-LIGAND FREE ENERGY PREDICTED BY IDOCK:   -6.59 KCAL/MOL
REMARK 924 INTRA-LIGAND FREE ENERGY PREDICTED BY IDOCK:   -0.40 KCAL/MOL
REMARK 927      BINDING AFFINITY PREDICTED BY RF-SCORE:    0.00 PKD
ROOT
HETATM    1  C   UNL     1      -5.289   5.897  62.402  1.00  0.00    -0.017 C  
HETATM    2  O   UNL     1      -6.562   5.257  62.401  1.00  0.00    -0.025 OA 
ENDROOT
BRANCH   2   3
HETATM    3  C   UNL     1      -7.127   5.036  63.630  1.00  0.00    -0.048 A  
HETATM    4  C   UNL     1      -8.369   4.449  63.850  1.00  0.00    -0.108 A  
HETATM    5  C   UNL     1      -8.852   4.295  65.150  1.00  0.00    -0.134 A  
HETATM    6  C   UNL     1      -8.099   4.708  66.259  1.00  0.00    -0.103 A  
HETATM    7  C   UNL     1      -6.362   5.441  64.726  1.00  0.00    -0.034 A  
HETATM    8  C   UNL     1      -6.841   5.281  66.031  1.00  0.00    -0.061 A  
BRANCH   6   9
HETATM    9  C   UNL     1      -8.659   4.540  67.662  1.00  0.00    -0.106 C  
HETATM   10  C   UNL     1      -9.687   5.614  68.162  1.00  0.00    -0.127 C  
HETATM   11  C   UNL     1     -10.991   5.487  67.352  1.00  0.00     0.063 C  
HETATM   12  C   UNL     1      -9.105   7.037  68.041  1.00  0.00    -0.127 C  
HETATM   13  N   UNL     1      -9.971   5.312  69.590  1.00  0.00    -0.210 NA 
HETATM   14  H   UNL     1      -9.100   5.288  70.120  1.00  0.00     0.000 HD 
BRANCH  13  15
HETATM   15  C   UNL     1     -10.943   6.208  70.253  1.00  0.00    -0.349 C  
BRANCH  15  16
HETATM   16  C   UNL     1     -10.286   7.415  70.965  1.00  0.00    -0.191 C  
HETATM   17  H   UNL     1      -9.210   7.717  72.592  1.00  0.00     0.000 HD 
HETATM   18  O   UNL     1      -9.614   6.977  72.156  1.00  0.00    -0.148 OA 
BRANCH  16  19
HETATM   19  C   UNL     1     -11.274   8.523  71.258  1.00  0.00    -0.321 A  
HETATM   20  C   UNL     1     -11.210   9.748  70.572  1.00  0.00    -0.315 A  
HETATM   21  O   UNL     1     -10.188   9.916  69.671  1.00  0.00    -0.206 OA 
HETATM   22  C   UNL     1     -10.402  10.980  68.752  1.00  0.00    -0.199 C  
HETATM   23  C   UNL     1     -11.043  12.249  69.299  1.00  0.00    -0.158 C  
HETATM   24  O   UNL     1     -10.816  13.373  68.862  1.00  0.00    -0.246 OA 
HETATM   25  N   UNL     1     -11.987  12.025  70.265  1.00  0.00    -0.442 N  
HETATM   26  H   UNL     1     -12.599  12.788  70.554  1.00  0.00     0.000 HD 
HETATM   27  C   UNL     1     -12.130  10.768  70.863  1.00  0.00    -0.370 A  
HETATM   28  C   UNL     1     -13.153  10.563  71.787  1.00  0.00    -0.570 A  
HETATM   29  C   UNL     1     -13.240   9.336  72.431  1.00  0.00    -0.426 A  
HETATM   30  O   UNL     1     -14.222   9.066  73.336  1.00  0.00    -1.202 OA 
HETATM   31  C   UNL     1     -12.313   8.328  72.181  1.00  0.00    -0.410 A  
HETATM   32  H   UNL     1     -14.282   8.227  73.777  1.00  0.00     0.000 HD 
ENDBRANCH  16  19
ENDBRANCH  15  16
ENDBRANCH  13  15
ENDBRANCH   6   9
ENDBRANCH   2   3
TORSDOF 5
ENDMDL
MODEL      133
REMARK 921   NORMALIZED FREE ENERGY PREDICTED BY IDOCK:   -5.19 KCAL/MOL
REMARK 922        TOTAL FREE ENERGY PREDICTED BY IDOCK:   -6.95 KCAL/MOL
REMARK 923 INTER-LIGAND FREE ENERGY PREDICTED BY IDOCK:   -6.92 KCAL/MOL
REMARK 924 INTRA-LIGAND FREE ENERGY PREDICTED BY IDOCK:   -0.02 KCAL/MOL
REMARK 927      BINDING AFFINITY PREDICTED BY RF-SCORE:    0.00 PKD
ROOT
HETATM    1  C   UNL     1      -9.265   1.604  69.025  1.00  0.00    -0.132 C  
HETATM    2  O   UNL     1      -9.771   2.436  70.065  1.00  0.00    -0.043 OA 
ENDROOT
BRANCH   2   3
HETATM    3  C   UNL     1      -9.483   3.773  69.963  1.00  0.00    -0.193 A  
HETATM    4  C   UNL     1      -8.531   4.328  69.114  1.00  0.00    -0.099 A  
HETATM    5  C   UNL     1      -8.309   5.705  69.113  1.00  0.00    -0.100 A  
HETATM    6  C   UNL     1      -9.045   6.560  69.946  1.00  0.00    -0.143 A  
HETATM    7  C   UNL     1     -10.231   4.615  70.789  1.00  0.00    -0.214 A  
HETATM    8  C   UNL     1     -10.016   5.997  70.784  1.00  0.00    -0.237 A  
BRANCH   6   9
HETATM    9  C   UNL     1      -8.770   8.055  69.932  1.00  0.00    -0.139 C  
HETATM   10  C   UNL     1      -9.677   8.947  69.014  1.00  0.00    -0.171 C  
HETATM   11  C   UNL     1     -11.112   8.959  69.574  1.00  0.00    -0.015 C  
HETATM   12  C   UNL     1      -9.663   8.438  67.559  1.00  0.00    -0.209 C  
HETATM   13  N   UNL     1      -9.124  10.326  69.065  1.00  0.00    -0.173 NA 
HETATM   14  H   UNL     1      -8.140  10.316  68.796  1.00  0.00     0.000 HD 
BRANCH  13  15
HETATM   15  C   UNL     1      -9.855  11.339  68.271  1.00  0.00    -0.197 C  
BRANCH  15  16
HETATM   16  C   UNL     1      -8.999  11.987  67.156  1.00  0.00    -0.185 C  
HETATM   17  H   UNL     1      -8.175  13.747  66.812  1.00  0.00     0.000 HD 
HETATM   18  O   UNL     1      -8.701  13.349  67.495  1.00  0.00    -0.181 OA 
BRANCH  16  19
HETATM   19  C   UNL     1      -9.646  11.880  65.793  1.00  0.00    -0.241 A  
HETATM   20  C   UNL     1     -10.475  12.905  65.304  1.00  0.00    -0.296 A  
HETATM   21  O   UNL     1     -10.714  13.973  66.132  1.00  0.00    -0.285 OA 
HETATM   22  C   UNL     1     -11.215  15.121  65.458  1.00  0.00    -0.320 C  
HETATM   23  C   UNL     1     -12.226  14.883  64.344  1.00  0.00    -0.381 C  
HETATM   24  O   UNL     1     -13.120  15.671  64.051  1.00  0.00    -0.310 OA 
HETATM   25  N   UNL     1     -11.991  13.750  63.611  1.00  0.00    -0.752 N  
HETATM   26  H   UNL     1     -12.495  13.606  62.736  1.00  0.00     0.000 HD 
HETATM   27  C   UNL     1     -11.073  12.785  64.040  1.00  0.00    -0.414 A  
HETATM   28  C   UNL     1     -10.809  11.684  63.228  1.00  0.00    -0.380 A  
HETATM   29  C   UNL     1      -9.954  10.694  63.695  1.00  0.00    -0.301 A  
HETATM   30  O   UNL     1      -9.645   9.598  62.947  1.00  0.00    -0.549 OA 
HETATM   31  C   UNL     1      -9.383  10.780  64.962  1.00  0.00    -0.261 A  
HETATM   32  H   UNL     1      -9.060   8.921  63.266  1.00  0.00     0.000 HD 
ENDBRANCH  16  19
ENDBRANCH  15  16
ENDBRANCH  13  15
ENDBRANCH   6   9
ENDBRANCH   2   3
TORSDOF 5
ENDMDL
MODEL      134
REMARK 921   NORMALIZED FREE ENERGY PREDICTED BY IDOCK:   -5.18 KCAL/MOL
REMARK 922        TOTAL FREE ENERGY PREDICTED BY IDOCK:   -6.94 KCAL/MOL
REMARK 923 INTER-LIGAND FREE ENERGY PREDICTED BY IDOCK:   -6.47 KCAL/MOL
REMARK 924 INTRA-LIGAND FREE ENERGY PREDICTED BY IDOCK:   -0.47 KCAL/MOL
REMARK 927      BINDING AFFINITY PREDICTED BY RF-SCORE:    0.00 PKD
ROOT
HETATM    1  C   UNL     1     -12.321  15.385  74.212  1.00  0.00    -0.664 C  
HETATM    2  O   UNL     1     -12.946  15.485  72.936  1.00  0.00    -0.388 OA 
ENDROOT
BRANCH   2   3
HETATM    3  C   UNL     1     -12.870  14.372  72.138  1.00  0.00    -0.342 A  
HETATM    4  C   UNL     1     -13.338  13.107  72.475  1.00  0.00    -0.525 A  
HETATM    5  C   UNL     1     -13.184  12.041  71.588  1.00  0.00    -0.361 A  
HETATM    6  C   UNL     1     -12.575  12.220  70.337  1.00  0.00    -0.106 A  
HETATM    7  C   UNL     1     -12.272  14.566  70.890  1.00  0.00    -0.409 A  
HETATM    8  C   UNL     1     -12.123  13.501  69.996  1.00  0.00    -0.411 A  
BRANCH   6   9
HETATM    9  C   UNL     1     -12.409  11.036  69.397  1.00  0.00    -0.222 C  
HETATM   10  C   UNL     1     -10.977  10.409  69.273  1.00  0.00    -0.242 C  
HETATM   11  C   UNL     1     -10.601   9.730  70.604  1.00  0.00    -0.382 C  
HETATM   12  C   UNL     1      -9.934  11.479  68.892  1.00  0.00    -0.117 C  
HETATM   13  N   UNL     1     -11.046   9.378  68.204  1.00  0.00    -0.502 NA 
HETATM   14  H   UNL     1     -11.396   9.794  67.341  1.00  0.00     0.000 HD 
BRANCH  13  15
HETATM   15  C   UNL     1      -9.789   8.645  67.938  1.00  0.00    -0.173 C  
BRANCH  15  16
HETATM   16  C   UNL     1      -9.998   7.137  67.661  1.00  0.00    -0.158 C  
HETATM   17  H   UNL     1     -10.123   5.480  68.725  1.00  0.00     0.000 HD 
HETATM   18  O   UNL     1      -9.995   6.405  68.895  1.00  0.00    -0.140 OA 
BRANCH  16  19
HETATM   19  C   UNL     1      -8.986   6.582  66.682  1.00  0.00    -0.144 A  
HETATM   20  C   UNL     1      -9.326   5.537  65.806  1.00  0.00    -0.091 A  
HETATM   21  O   UNL     1     -10.588   5.007  65.913  1.00  0.00    -0.256 OA 
HETATM   22  C   UNL     1     -10.992   4.253  64.776  1.00  0.00    -0.023 C  
HETATM   23  C   UNL     1      -9.937   3.373  64.119  1.00  0.00    -0.185 C  
HETATM   24  O   UNL     1     -10.189   2.318  63.545  1.00  0.00    -0.137 OA 
HETATM   25  N   UNL     1      -8.678   3.911  64.127  1.00  0.00    -0.107 N  
HETATM   26  H   UNL     1      -7.950   3.489  63.551  1.00  0.00     0.000 HD 
HETATM   27  C   UNL     1      -8.372   5.029  64.910  1.00  0.00    -0.142 A  
HETATM   28  C   UNL     1      -7.098   5.590  64.831  1.00  0.00    -0.061 A  
HETATM   29  C   UNL     1      -6.779   6.653  65.667  1.00  0.00    -0.051 A  
HETATM   30  O   UNL     1      -5.558   7.254  65.633  1.00  0.00    -0.031 OA 
HETATM   31  C   UNL     1      -7.703   7.142  66.587  1.00  0.00    -0.097 A  
HETATM   32  H   UNL     1      -5.339   7.981  66.204  1.00  0.00     0.000 HD 
ENDBRANCH  16  19
ENDBRANCH  15  16
ENDBRANCH  13  15
ENDBRANCH   6   9
ENDBRANCH   2   3
TORSDOF 5
ENDMDL
MODEL      135
REMARK 921   NORMALIZED FREE ENERGY PREDICTED BY IDOCK:   -5.18 KCAL/MOL
REMARK 922        TOTAL FREE ENERGY PREDICTED BY IDOCK:   -6.94 KCAL/MOL
REMARK 923 INTER-LIGAND FREE ENERGY PREDICTED BY IDOCK:   -6.72 KCAL/MOL
REMARK 924 INTRA-LIGAND FREE ENERGY PREDICTED BY IDOCK:   -0.22 KCAL/MOL
REMARK 927      BINDING AFFINITY PREDICTED BY RF-SCORE:    0.00 PKD
ROOT
HETATM    1  C   UNL     1     -11.012  17.456  64.832  1.00  0.00     0.504 C  
HETATM    2  O   UNL     1     -11.303  16.252  64.127  1.00  0.00    -0.788 OA 
ENDROOT
BRANCH   2   3
HETATM    3  C   UNL     1     -11.495  15.134  64.897  1.00  0.00    -0.374 A  
HETATM    4  C   UNL     1     -12.135  13.971  64.480  1.00  0.00    -0.484 A  
HETATM    5  C   UNL     1     -12.292  12.901  65.362  1.00  0.00    -0.538 A  
HETATM    6  C   UNL     1     -11.799  12.963  66.674  1.00  0.00    -0.461 A  
HETATM    7  C   UNL     1     -10.989  15.203  66.197  1.00  0.00    -0.331 A  
HETATM    8  C   UNL     1     -11.139  14.129  67.080  1.00  0.00    -0.315 A  
BRANCH   6   9
HETATM    9  C   UNL     1     -11.998  11.786  67.615  1.00  0.00    -0.106 C  
HETATM   10  C   UNL     1     -10.759  10.864  67.890  1.00  0.00    -0.231 C  
HETATM   11  C   UNL     1      -9.706  11.653  68.691  1.00  0.00    -0.151 C  
HETATM   12  C   UNL     1     -10.160  10.334  66.572  1.00  0.00    -0.290 C  
HETATM   13  N   UNL     1     -11.241   9.723  68.713  1.00  0.00    -0.469 NA 
HETATM   14  H   UNL     1     -12.013   9.254  68.240  1.00  0.00     0.000 HD 
BRANCH  13  15
HETATM   15  C   UNL     1     -10.212   8.734  69.102  1.00  0.00    -0.207 C  
BRANCH  15  16
HETATM   16  C   UNL     1     -10.617   7.864  70.316  1.00  0.00    -0.231 C  
HETATM   17  H   UNL     1     -10.566   8.021  72.282  1.00  0.00     0.000 HD 
HETATM   18  O   UNL     1     -10.317   8.555  71.537  1.00  0.00    -0.211 OA 
BRANCH  16  19
HETATM   19  C   UNL     1      -9.983   6.490  70.282  1.00  0.00    -0.198 A  
HETATM   20  C   UNL     1     -10.218   5.560  71.308  1.00  0.00    -0.222 A  
HETATM   21  O   UNL     1     -10.997   5.966  72.363  1.00  0.00    -0.235 OA 
HETATM   22  C   UNL     1     -11.509   4.893  73.145  1.00  0.00    -0.278 C  
HETATM   23  C   UNL     1     -10.577   3.717  73.400  1.00  0.00    -0.193 C  
HETATM   24  O   UNL     1     -10.609   3.026  74.414  1.00  0.00    -0.172 OA 
HETATM   25  N   UNL     1      -9.755   3.418  72.346  1.00  0.00    -0.137 N  
HETATM   26  H   UNL     1      -9.235   2.540  72.351  1.00  0.00     0.000 HD 
HETATM   27  C   UNL     1      -9.614   4.293  71.264  1.00  0.00    -0.172 A  
HETATM   28  C   UNL     1      -8.826   3.917  70.178  1.00  0.00    -0.138 A  
HETATM   29  C   UNL     1      -8.632   4.822  69.143  1.00  0.00    -0.080 A  
HETATM   30  O   UNL     1      -7.883   4.514  68.048  1.00  0.00    -0.080 OA 
HETATM   31  C   UNL     1      -9.193   6.096  69.191  1.00  0.00    -0.129 A  
HETATM   32  H   UNL     1      -7.750   5.132  67.340  1.00  0.00     0.000 HD 
ENDBRANCH  16  19
ENDBRANCH  15  16
ENDBRANCH  13  15
ENDBRANCH   6   9
ENDBRANCH   2   3
TORSDOF 5
ENDMDL
MODEL      136
REMARK 921   NORMALIZED FREE ENERGY PREDICTED BY IDOCK:   -5.17 KCAL/MOL
REMARK 922        TOTAL FREE ENERGY PREDICTED BY IDOCK:   -6.93 KCAL/MOL
REMARK 923 INTER-LIGAND FREE ENERGY PREDICTED BY IDOCK:   -6.33 KCAL/MOL
REMARK 924 INTRA-LIGAND FREE ENERGY PREDICTED BY IDOCK:   -0.60 KCAL/MOL
REMARK 927      BINDING AFFINITY PREDICTED BY RF-SCORE:    0.00 PKD
ROOT
HETATM    1  C   UNL     1     -12.383  15.525  74.034  1.00  0.00    -0.660 C  
HETATM    2  O   UNL     1     -12.971  15.516  72.736  1.00  0.00    -0.375 OA 
ENDROOT
BRANCH   2   3
HETATM    3  C   UNL     1     -12.870  14.342  72.036  1.00  0.00    -0.347 A  
HETATM    4  C   UNL     1     -13.306  13.099  72.483  1.00  0.00    -0.525 A  
HETATM    5  C   UNL     1     -13.129  11.965  71.689  1.00  0.00    -0.433 A  
HETATM    6  C   UNL     1     -12.530  12.051  70.424  1.00  0.00    -0.235 A  
HETATM    7  C   UNL     1     -12.282  14.443  70.773  1.00  0.00    -0.413 A  
HETATM    8  C   UNL     1     -12.111  13.309  69.972  1.00  0.00    -0.385 A  
BRANCH   6   9
HETATM    9  C   UNL     1     -12.339  10.796  69.588  1.00  0.00    -0.262 C  
HETATM   10  C   UNL     1     -10.883  10.227  69.461  1.00  0.00    -0.256 C  
HETATM   11  C   UNL     1     -10.425   9.692  70.831  1.00  0.00    -0.359 C  
HETATM   12  C   UNL     1      -9.910  11.306  68.944  1.00  0.00    -0.153 C  
HETATM   13  N   UNL     1     -10.939   9.101  68.493  1.00  0.00    -0.456 NA 
HETATM   14  H   UNL     1     -11.340   9.419  67.611  1.00  0.00     0.000 HD 
BRANCH  13  15
HETATM   15  C   UNL     1      -9.656   8.407  68.242  1.00  0.00    -0.144 C  
BRANCH  15  16
HETATM   16  C   UNL     1      -9.797   6.871  68.121  1.00  0.00    -0.136 C  
HETATM   17  H   UNL     1     -11.193   5.520  68.469  1.00  0.00     0.000 HD 
HETATM   18  O   UNL     1     -11.107   6.463  68.544  1.00  0.00    -0.318 OA 
BRANCH  16  19
HETATM   19  C   UNL     1      -8.713   6.128  68.872  1.00  0.00    -0.123 A  
HETATM   20  C   UNL     1      -7.905   5.179  68.223  1.00  0.00    -0.087 A  
HETATM   21  O   UNL     1      -8.175   4.915  66.903  1.00  0.00    -0.107 OA 
HETATM   22  C   UNL     1      -7.111   4.266  66.217  1.00  0.00    -0.067 C  
HETATM   23  C   UNL     1      -6.347   3.194  66.984  1.00  0.00    -0.036 C  
HETATM   24  O   UNL     1      -5.828   2.215  66.456  1.00  0.00    -0.020 OA 
HETATM   25  N   UNL     1      -6.191   3.466  68.317  1.00  0.00    -0.031 N  
HETATM   26  H   UNL     1      -5.540   2.907  68.869  1.00  0.00     0.000 HD 
HETATM   27  C   UNL     1      -6.910   4.493  68.937  1.00  0.00    -0.050 A  
HETATM   28  C   UNL     1      -6.666   4.785  70.278  1.00  0.00    -0.036 A  
HETATM   29  C   UNL     1      -7.436   5.756  70.905  1.00  0.00    -0.090 A  
HETATM   30  O   UNL     1      -7.242   6.097  72.209  1.00  0.00    -0.085 OA 
HETATM   31  C   UNL     1      -8.452   6.417  70.220  1.00  0.00    -0.135 A  
HETATM   32  H   UNL     1      -7.768   6.761  72.639  1.00  0.00     0.000 HD 
ENDBRANCH  16  19
ENDBRANCH  15  16
ENDBRANCH  13  15
ENDBRANCH   6   9
ENDBRANCH   2   3
TORSDOF 5
ENDMDL
MODEL      137
REMARK 921   NORMALIZED FREE ENERGY PREDICTED BY IDOCK:   -5.16 KCAL/MOL
REMARK 922        TOTAL FREE ENERGY PREDICTED BY IDOCK:   -6.92 KCAL/MOL
REMARK 923 INTER-LIGAND FREE ENERGY PREDICTED BY IDOCK:   -6.27 KCAL/MOL
REMARK 924 INTRA-LIGAND FREE ENERGY PREDICTED BY IDOCK:   -0.65 KCAL/MOL
REMARK 927      BINDING AFFINITY PREDICTED BY RF-SCORE:    0.00 PKD
ROOT
HETATM    1  C   UNL     1      -8.373  19.193  67.326  1.00  0.00    -0.277 C  
HETATM    2  O   UNL     1      -9.554  18.761  67.996  1.00  0.00    -0.299 OA 
ENDROOT
BRANCH   2   3
HETATM    3  C   UNL     1      -9.677  17.409  68.192  1.00  0.00    -0.291 A  
HETATM    4  C   UNL     1      -8.773  16.612  68.887  1.00  0.00    -0.238 A  
HETATM    5  C   UNL     1      -8.992  15.239  69.002  1.00  0.00    -0.225 A  
HETATM    6  C   UNL     1     -10.128  14.635  68.442  1.00  0.00    -0.237 A  
HETATM    7  C   UNL     1     -10.817  16.822  67.639  1.00  0.00    -0.252 A  
HETATM    8  C   UNL     1     -11.043  15.447  67.761  1.00  0.00    -0.320 A  
BRANCH   6   9
HETATM    9  C   UNL     1     -10.331  13.134  68.574  1.00  0.00    -0.245 C  
HETATM   10  C   UNL     1      -9.796  12.229  67.410  1.00  0.00    -0.198 C  
HETATM   11  C   UNL     1      -8.256  12.275  67.396  1.00  0.00    -0.178 C  
HETATM   12  C   UNL     1     -10.368  12.678  66.050  1.00  0.00    -0.287 C  
HETATM   13  N   UNL     1     -10.238  10.840  67.702  1.00  0.00    -0.182 NA 
HETATM   14  H   UNL     1     -11.251  10.814  67.819  1.00  0.00     0.000 HD 
BRANCH  13  15
HETATM   15  C   UNL     1      -9.815   9.814  66.723  1.00  0.00    -0.208 C  
BRANCH  15  16
HETATM   16  C   UNL     1      -8.738   8.845  67.267  1.00  0.00    -0.121 C  
HETATM   17  H   UNL     1      -7.173   7.880  66.549  1.00  0.00     0.000 HD 
HETATM   18  O   UNL     1      -7.835   8.474  66.215  1.00  0.00    -0.095 OA 
BRANCH  16  19
HETATM   19  C   UNL     1      -9.337   7.631  67.942  1.00  0.00    -0.146 A  
HETATM   20  C   UNL     1      -9.915   7.725  69.219  1.00  0.00    -0.182 A  
HETATM   21  O   UNL     1      -9.865   8.944  69.848  1.00  0.00    -0.173 OA 
HETATM   22  C   UNL     1     -10.783   9.073  70.926  1.00  0.00    -0.253 C  
HETATM   23  C   UNL     1     -10.978   7.854  71.818  1.00  0.00    -0.243 C  
HETATM   24  O   UNL     1     -11.255   7.917  73.013  1.00  0.00    -0.411 OA 
HETATM   25  N   UNL     1     -10.924   6.660  71.150  1.00  0.00    -0.247 N  
HETATM   26  H   UNL     1     -11.227   5.808  71.623  1.00  0.00     0.000 HD 
HETATM   27  C   UNL     1     -10.460   6.586  69.833  1.00  0.00    -0.213 A  
HETATM   28  C   UNL     1     -10.491   5.363  69.165  1.00  0.00    -0.277 A  
HETATM   29  C   UNL     1      -9.959   5.283  67.884  1.00  0.00    -0.160 A  
HETATM   30  O   UNL     1      -9.969   4.122  67.172  1.00  0.00    -0.184 OA 
HETATM   31  C   UNL     1      -9.382   6.395  67.278  1.00  0.00    -0.125 A  
HETATM   32  H   UNL     1      -9.605   4.066  66.296  1.00  0.00     0.000 HD 
ENDBRANCH  16  19
ENDBRANCH  15  16
ENDBRANCH  13  15
ENDBRANCH   6   9
ENDBRANCH   2   3
TORSDOF 5
ENDMDL
MODEL      138
REMARK 921   NORMALIZED FREE ENERGY PREDICTED BY IDOCK:   -5.11 KCAL/MOL
REMARK 922        TOTAL FREE ENERGY PREDICTED BY IDOCK:   -6.85 KCAL/MOL
REMARK 923 INTER-LIGAND FREE ENERGY PREDICTED BY IDOCK:   -6.04 KCAL/MOL
REMARK 924 INTRA-LIGAND FREE ENERGY PREDICTED BY IDOCK:   -0.81 KCAL/MOL
REMARK 927      BINDING AFFINITY PREDICTED BY RF-SCORE:    0.00 PKD
ROOT
HETATM    1  C   UNL     1     -11.520   1.960  62.590  1.00  0.00    -0.201 C  
HETATM    2  O   UNL     1     -10.175   2.066  63.047  1.00  0.00    -0.102 OA 
ENDROOT
BRANCH   2   3
HETATM    3  C   UNL     1      -9.878   3.177  63.794  1.00  0.00    -0.151 A  
HETATM    4  C   UNL     1      -8.686   3.892  63.732  1.00  0.00    -0.102 A  
HETATM    5  C   UNL     1      -8.487   4.998  64.560  1.00  0.00    -0.142 A  
HETATM    6  C   UNL     1      -9.480   5.424  65.453  1.00  0.00     0.047 A  
HETATM    7  C   UNL     1     -10.880   3.599  64.671  1.00  0.00     0.089 A  
HETATM    8  C   UNL     1     -10.685   4.712  65.496  1.00  0.00    -0.176 A  
BRANCH   6   9
HETATM    9  C   UNL     1      -9.228   6.625  66.351  1.00  0.00    -0.180 C  
HETATM   10  C   UNL     1      -8.477   6.368  67.704  1.00  0.00    -0.117 C  
HETATM   11  C   UNL     1      -7.021   5.962  67.409  1.00  0.00    -0.069 C  
HETATM   12  C   UNL     1      -9.189   5.283  68.536  1.00  0.00    -0.138 C  
HETATM   13  N   UNL     1      -8.481   7.652  68.453  1.00  0.00    -0.125 NA 
HETATM   14  H   UNL     1      -9.438   7.988  68.564  1.00  0.00     0.000 HD 
BRANCH  13  15
HETATM   15  C   UNL     1      -7.798   7.630  69.766  1.00  0.00    -0.110 C  
BRANCH  15  16
HETATM   16  C   UNL     1      -8.063   8.892  70.622  1.00  0.00    -0.144 C  
HETATM   17  H   UNL     1      -7.527   9.567  72.398  1.00  0.00     0.000 HD 
HETATM   18  O   UNL     1      -7.365   8.793  71.872  1.00  0.00    -0.225 OA 
BRANCH  16  19
HETATM   19  C   UNL     1      -9.539   9.154  70.827  1.00  0.00    -0.338 A  
HETATM   20  C   UNL     1     -10.269   9.930  69.911  1.00  0.00    -0.257 A  
HETATM   21  O   UNL     1      -9.581  10.481  68.859  1.00  0.00    -0.176 OA 
HETATM   22  C   UNL     1     -10.414  10.907  67.787  1.00  0.00    -0.203 C  
HETATM   23  C   UNL     1     -11.735  11.568  68.159  1.00  0.00    -0.287 C  
HETATM   24  O   UNL     1     -12.281  12.434  67.481  1.00  0.00    -0.442 OA 
HETATM   25  N   UNL     1     -12.329  11.040  69.274  1.00  0.00    -0.405 N  
HETATM   26  H   UNL     1     -13.296  11.285  69.490  1.00  0.00     0.000 HD 
HETATM   27  C   UNL     1     -11.637  10.170  70.122  1.00  0.00    -0.277 A  
HETATM   28  C   UNL     1     -12.302   9.595  71.204  1.00  0.00    -0.427 A  
HETATM   29  C   UNL     1     -11.587   8.793  72.083  1.00  0.00    -0.364 A  
HETATM   30  O   UNL     1     -12.179   8.192  73.153  1.00  0.00    -0.645 OA 
HETATM   31  C   UNL     1     -10.223   8.577  71.908  1.00  0.00    -0.369 A  
HETATM   32  H   UNL     1     -11.691   7.643  73.755  1.00  0.00     0.000 HD 
ENDBRANCH  16  19
ENDBRANCH  15  16
ENDBRANCH  13  15
ENDBRANCH   6   9
ENDBRANCH   2   3
TORSDOF 5
ENDMDL
MODEL      139
REMARK 921   NORMALIZED FREE ENERGY PREDICTED BY IDOCK:   -5.11 KCAL/MOL
REMARK 922        TOTAL FREE ENERGY PREDICTED BY IDOCK:   -6.84 KCAL/MOL
REMARK 923 INTER-LIGAND FREE ENERGY PREDICTED BY IDOCK:   -7.66 KCAL/MOL
REMARK 924 INTRA-LIGAND FREE ENERGY PREDICTED BY IDOCK:    0.82 KCAL/MOL
REMARK 927      BINDING AFFINITY PREDICTED BY RF-SCORE:    0.00 PKD
ROOT
HETATM    1  C   UNL     1     -11.279   6.964  72.312  1.00  0.00    -0.263 C  
HETATM    2  O   UNL     1     -11.618   8.287  72.716  1.00  0.00    -0.395 OA 
ENDROOT
BRANCH   2   3
HETATM    3  C   UNL     1     -11.733   9.214  71.711  1.00  0.00    -0.386 A  
HETATM    4  C   UNL     1     -12.748  10.159  71.602  1.00  0.00    -0.549 A  
HETATM    5  C   UNL     1     -12.773  11.040  70.519  1.00  0.00    -0.331 A  
HETATM    6  C   UNL     1     -11.776  11.007  69.533  1.00  0.00    -0.400 A  
HETATM    7  C   UNL     1     -10.728   9.179  70.742  1.00  0.00    -0.327 A  
HETATM    8  C   UNL     1     -10.747  10.066  69.660  1.00  0.00    -0.282 A  
BRANCH   6   9
HETATM    9  C   UNL     1     -11.839  11.971  68.359  1.00  0.00    -0.360 C  
HETATM   10  C   UNL     1     -10.807  13.152  68.338  1.00  0.00    -0.262 C  
HETATM   11  C   UNL     1      -9.390  12.586  68.126  1.00  0.00    -0.210 C  
HETATM   12  C   UNL     1     -10.878  13.972  69.642  1.00  0.00    -0.013 C  
HETATM   13  N   UNL     1     -11.162  14.019  67.185  1.00  0.00    -0.303 NA 
HETATM   14  H   UNL     1     -12.136  14.316  67.259  1.00  0.00     0.000 HD 
BRANCH  13  15
HETATM   15  C   UNL     1     -10.290  15.195  66.975  1.00  0.00    -0.271 C  
BRANCH  15  16
HETATM   16  C   UNL     1     -10.096  16.057  68.246  1.00  0.00    -0.229 C  
HETATM   17  H   UNL     1     -10.971  17.620  69.074  1.00  0.00     0.000 HD 
HETATM   18  O   UNL     1     -11.090  17.092  68.294  1.00  0.00    -0.337 OA 
BRANCH  16  19
HETATM   19  C   UNL     1      -8.697  16.622  68.355  1.00  0.00    -0.225 A  
HETATM   20  C   UNL     1      -8.281  17.685  67.535  1.00  0.00    -0.216 A  
HETATM   21  O   UNL     1      -9.172  18.149  66.600  1.00  0.00    -0.275 OA 
HETATM   22  C   UNL     1      -8.852  19.438  66.091  1.00  0.00    -0.283 C  
HETATM   23  C   UNL     1      -7.380  19.734  65.834  1.00  0.00    -0.318 C  
HETATM   24  O   UNL     1      -6.977  20.488  64.954  1.00  0.00    -0.255 OA 
HETATM   25  N   UNL     1      -6.530  19.165  66.745  1.00  0.00    -0.187 N  
HETATM   26  H   UNL     1      -5.553  19.457  66.768  1.00  0.00     0.000 HD 
HETATM   27  C   UNL     1      -6.976  18.191  67.644  1.00  0.00    -0.202 A  
HETATM   28  C   UNL     1      -6.097  17.693  68.604  1.00  0.00    -0.180 A  
HETATM   29  C   UNL     1      -6.525  16.673  69.444  1.00  0.00    -0.220 A  
HETATM   30  O   UNL     1      -5.720  16.150  70.410  1.00  0.00    -0.175 OA 
HETATM   31  C   UNL     1      -7.804  16.135  69.322  1.00  0.00    -0.203 A  
HETATM   32  H   UNL     1      -6.013  15.452  70.984  1.00  0.00     0.000 HD 
ENDBRANCH  16  19
ENDBRANCH  15  16
ENDBRANCH  13  15
ENDBRANCH   6   9
ENDBRANCH   2   3
TORSDOF 5
ENDMDL
MODEL      140
REMARK 921   NORMALIZED FREE ENERGY PREDICTED BY IDOCK:   -5.10 KCAL/MOL
REMARK 922        TOTAL FREE ENERGY PREDICTED BY IDOCK:   -6.83 KCAL/MOL
REMARK 923 INTER-LIGAND FREE ENERGY PREDICTED BY IDOCK:   -6.33 KCAL/MOL
REMARK 924 INTRA-LIGAND FREE ENERGY PREDICTED BY IDOCK:   -0.50 KCAL/MOL
REMARK 927      BINDING AFFINITY PREDICTED BY RF-SCORE:    0.00 PKD
ROOT
HETATM    1  C   UNL     1     -10.614  17.257  68.458  1.00  0.00    -0.350 C  
HETATM    2  O   UNL     1     -10.262  16.512  67.296  1.00  0.00    -0.275 OA 
ENDROOT
BRANCH   2   3
HETATM    3  C   UNL     1     -10.532  15.167  67.337  1.00  0.00    -0.264 A  
HETATM    4  C   UNL     1     -10.248  14.259  66.322  1.00  0.00    -0.307 A  
HETATM    5  C   UNL     1     -10.590  12.914  66.468  1.00  0.00    -0.272 A  
HETATM    6  C   UNL     1     -11.207  12.444  67.637  1.00  0.00    -0.340 A  
HETATM    7  C   UNL     1     -11.135  14.710  68.511  1.00  0.00    -0.273 A  
HETATM    8  C   UNL     1     -11.472  13.361  68.662  1.00  0.00    -0.345 A  
BRANCH   6   9
HETATM    9  C   UNL     1     -11.580  10.976  67.759  1.00  0.00    -0.277 C  
HETATM   10  C   UNL     1     -10.497  10.002  68.342  1.00  0.00    -0.205 C  
HETATM   11  C   UNL     1     -10.266  10.330  69.829  1.00  0.00    -0.262 C  
HETATM   12  C   UNL     1      -9.178  10.103  67.549  1.00  0.00    -0.150 C  
HETATM   13  N   UNL     1     -11.044   8.625  68.227  1.00  0.00    -0.377 NA 
HETATM   14  H   UNL     1     -11.301   8.432  67.259  1.00  0.00     0.000 HD 
BRANCH  13  15
HETATM   15  C   UNL     1     -10.174   7.545  68.744  1.00  0.00    -0.197 C  
BRANCH  15  16
HETATM   16  C   UNL     1     -10.950   6.275  69.168  1.00  0.00    -0.377 C  
HETATM   17  H   UNL     1     -12.298   5.798  70.529  1.00  0.00     0.000 HD 
HETATM   18  O   UNL     1     -11.821   6.577  70.268  1.00  0.00    -0.413 OA 
BRANCH  16  19
HETATM   19  C   UNL     1     -10.033   5.114  69.485  1.00  0.00    -0.301 A  
HETATM   20  C   UNL     1      -9.522   4.297  68.462  1.00  0.00    -0.153 A  
HETATM   21  O   UNL     1      -9.931   4.560  67.178  1.00  0.00    -0.197 OA 
HETATM   22  C   UNL     1      -9.101   3.977  66.181  1.00  0.00    -0.141 C  
HETATM   23  C   UNL     1      -8.573   2.575  66.453  1.00  0.00    -0.113 C  
HETATM   24  O   UNL     1      -8.340   1.749  65.575  1.00  0.00    -0.084 OA 
HETATM   25  N   UNL     1      -8.272   2.338  67.768  1.00  0.00    -0.063 N  
HETATM   26  H   UNL     1      -7.741   1.504  68.018  1.00  0.00     0.000 HD 
HETATM   27  C   UNL     1      -8.679   3.219  68.776  1.00  0.00    -0.101 A  
HETATM   28  C   UNL     1      -8.288   2.980  70.092  1.00  0.00    -0.076 A  
HETATM   29  C   UNL     1      -8.759   3.816  71.096  1.00  0.00    -0.081 A  
HETATM   30  O   UNL     1      -8.406   3.645  72.400  1.00  0.00    -0.082 OA 
HETATM   31  C   UNL     1      -9.626   4.866  70.805  1.00  0.00    -0.251 A  
HETATM   32  H   UNL     1      -8.727   4.217  73.087  1.00  0.00     0.000 HD 
ENDBRANCH  16  19
ENDBRANCH  15  16
ENDBRANCH  13  15
ENDBRANCH   6   9
ENDBRANCH   2   3
TORSDOF 5
ENDMDL
MODEL      141
REMARK 921   NORMALIZED FREE ENERGY PREDICTED BY IDOCK:   -5.09 KCAL/MOL
REMARK 922        TOTAL FREE ENERGY PREDICTED BY IDOCK:   -6.83 KCAL/MOL
REMARK 923 INTER-LIGAND FREE ENERGY PREDICTED BY IDOCK:   -6.34 KCAL/MOL
REMARK 924 INTRA-LIGAND FREE ENERGY PREDICTED BY IDOCK:   -0.49 KCAL/MOL
REMARK 927      BINDING AFFINITY PREDICTED BY RF-SCORE:    0.00 PKD
ROOT
HETATM    1  C   UNL     1     -10.624  19.977  65.602  1.00  0.00    -0.275 C  
HETATM    2  O   UNL     1     -10.061  20.072  66.908  1.00  0.00    -0.413 OA 
ENDROOT
BRANCH   2   3
HETATM    3  C   UNL     1      -9.659  18.892  67.479  1.00  0.00    -0.305 A  
HETATM    4  C   UNL     1     -10.436  17.742  67.580  1.00  0.00    -0.393 A  
HETATM    5  C   UNL     1      -9.927  16.604  68.205  1.00  0.00    -0.261 A  
HETATM    6  C   UNL     1      -8.625  16.583  68.727  1.00  0.00    -0.262 A  
HETATM    7  C   UNL     1      -8.357  18.880  67.985  1.00  0.00    -0.325 A  
HETATM    8  C   UNL     1      -7.842  17.737  68.605  1.00  0.00    -0.278 A  
BRANCH   6   9
HETATM    9  C   UNL     1      -8.103  15.331  69.415  1.00  0.00    -0.230 C  
HETATM   10  C   UNL     1      -7.327  14.293  68.531  1.00  0.00    -0.117 C  
HETATM   11  C   UNL     1      -5.990  14.909  68.078  1.00  0.00    -0.158 C  
HETATM   12  C   UNL     1      -8.170  13.861  67.314  1.00  0.00    -0.176 C  
HETATM   13  N   UNL     1      -7.052  13.112  69.390  1.00  0.00    -0.321 NA 
HETATM   14  H   UNL     1      -7.924  12.756  69.783  1.00  0.00     0.000 HD 
BRANCH  13  15
HETATM   15  C   UNL     1      -6.303  12.010  68.745  1.00  0.00    -0.071 C  
BRANCH  15  16
HETATM   16  C   UNL     1      -6.833  10.603  69.112  1.00  0.00    -0.079 C  
HETATM   17  H   UNL     1      -6.213   8.738  68.933  1.00  0.00     0.000 HD 
HETATM   18  O   UNL     1      -5.888   9.602  68.707  1.00  0.00    -0.039 OA 
BRANCH  16  19
HETATM   19  C   UNL     1      -8.209  10.335  68.542  1.00  0.00    -0.111 A  
HETATM   20  C   UNL     1      -8.413  10.259  67.154  1.00  0.00    -0.125 A  
HETATM   21  O   UNL     1      -7.331  10.491  66.341  1.00  0.00    -0.115 OA 
HETATM   22  C   UNL     1      -7.503  10.024  65.009  1.00  0.00    -0.139 C  
HETATM   23  C   UNL     1      -8.878  10.212  64.382  1.00  0.00    -0.211 C  
HETATM   24  O   UNL     1      -9.064  10.388  63.181  1.00  0.00    -0.204 OA 
HETATM   25  N   UNL     1      -9.917  10.063  65.261  1.00  0.00    -0.324 N  
HETATM   26  H   UNL     1     -10.869   9.984  64.903  1.00  0.00     0.000 HD 
HETATM   27  C   UNL     1      -9.698  10.017  66.642  1.00  0.00    -0.194 A  
HETATM   28  C   UNL     1     -10.774   9.789  67.498  1.00  0.00    -0.327 A  
HETATM   29  C   UNL     1     -10.561   9.820  68.870  1.00  0.00    -0.218 A  
HETATM   30  O   UNL     1     -11.566   9.594  69.760  1.00  0.00    -0.428 OA 
HETATM   31  C   UNL     1      -9.300  10.096  69.392  1.00  0.00    -0.235 A  
HETATM   32  H   UNL     1     -11.421   9.615  70.698  1.00  0.00     0.000 HD 
ENDBRANCH  16  19
ENDBRANCH  15  16
ENDBRANCH  13  15
ENDBRANCH   6   9
ENDBRANCH   2   3
TORSDOF 5
ENDMDL
MODEL      142
REMARK 921   NORMALIZED FREE ENERGY PREDICTED BY IDOCK:   -5.09 KCAL/MOL
REMARK 922        TOTAL FREE ENERGY PREDICTED BY IDOCK:   -6.82 KCAL/MOL
REMARK 923 INTER-LIGAND FREE ENERGY PREDICTED BY IDOCK:   -6.84 KCAL/MOL
REMARK 924 INTRA-LIGAND FREE ENERGY PREDICTED BY IDOCK:    0.02 KCAL/MOL
REMARK 927      BINDING AFFINITY PREDICTED BY RF-SCORE:    0.00 PKD
ROOT
HETATM    1  C   UNL     1     -10.206  17.411  65.998  1.00  0.00    -0.300 C  
HETATM    2  O   UNL     1     -10.635  16.388  65.104  1.00  0.00    -0.610 OA 
ENDROOT
BRANCH   2   3
HETATM    3  C   UNL     1     -10.919  15.172  65.670  1.00  0.00    -0.355 A  
HETATM    4  C   UNL     1     -12.016  14.376  65.357  1.00  0.00    -0.369 A  
HETATM    5  C   UNL     1     -12.214  13.162  66.017  1.00  0.00    -0.478 A  
HETATM    6  C   UNL     1     -11.311  12.710  66.991  1.00  0.00    -0.377 A  
HETATM    7  C   UNL     1     -10.007  14.727  66.630  1.00  0.00    -0.272 A  
HETATM    8  C   UNL     1     -10.199  13.507  67.287  1.00  0.00    -0.242 A  
BRANCH   6   9
HETATM    9  C   UNL     1     -11.562  11.390  67.703  1.00  0.00    -0.315 C  
HETATM   10  C   UNL     1     -10.547  10.224  67.439  1.00  0.00    -0.270 C  
HETATM   11  C   UNL     1      -9.182  10.588  68.055  1.00  0.00    -0.143 C  
HETATM   12  C   UNL     1     -10.406   9.942  65.930  1.00  0.00    -0.184 C  
HETATM   13  N   UNL     1     -11.082   9.018  68.124  1.00  0.00    -0.470 NA 
HETATM   14  H   UNL     1     -12.031   8.827  67.800  1.00  0.00     0.000 HD 
BRANCH  13  15
HETATM   15  C   UNL     1     -10.255   7.797  68.012  1.00  0.00    -0.201 C  
BRANCH  15  16
HETATM   16  C   UNL     1     -11.078   6.487  68.038  1.00  0.00    -0.238 C  
HETATM   17  H   UNL     1     -12.160   5.491  69.354  1.00  0.00     0.000 HD 
HETATM   18  O   UNL     1     -11.654   6.295  69.338  1.00  0.00    -0.403 OA 
BRANCH  16  19
HETATM   19  C   UNL     1     -10.268   5.284  67.604  1.00  0.00    -0.223 A  
HETATM   20  C   UNL     1      -9.384   4.650  68.493  1.00  0.00    -0.138 A  
HETATM   21  O   UNL     1      -9.246   5.195  69.745  1.00  0.00    -0.111 OA 
HETATM   22  C   UNL     1      -8.664   4.311  70.696  1.00  0.00    -0.083 C  
HETATM   23  C   UNL     1      -7.525   3.425  70.209  1.00  0.00    -0.041 C  
HETATM   24  O   UNL     1      -6.600   3.047  70.922  1.00  0.00    -0.030 OA 
HETATM   25  N   UNL     1      -7.670   2.988  68.919  1.00  0.00    -0.047 N  
HETATM   26  H   UNL     1      -7.062   2.247  68.571  1.00  0.00     0.000 HD 
HETATM   27  C   UNL     1      -8.634   3.540  68.070  1.00  0.00    -0.098 A  
HETATM   28  C   UNL     1      -8.799   3.015  66.790  1.00  0.00    -0.159 A  
HETATM   29  C   UNL     1      -9.706   3.617  65.928  1.00  0.00    -0.086 A  
HETATM   30  O   UNL     1      -9.923   3.148  64.668  1.00  0.00    -0.287 OA 
HETATM   31  C   UNL     1     -10.429   4.741  66.320  1.00  0.00    -0.311 A  
HETATM   32  H   UNL     1     -10.543   3.559  64.078  1.00  0.00     0.000 HD 
ENDBRANCH  16  19
ENDBRANCH  15  16
ENDBRANCH  13  15
ENDBRANCH   6   9
ENDBRANCH   2   3
TORSDOF 5
ENDMDL
MODEL      143
REMARK 921   NORMALIZED FREE ENERGY PREDICTED BY IDOCK:   -5.06 KCAL/MOL
REMARK 922        TOTAL FREE ENERGY PREDICTED BY IDOCK:   -6.79 KCAL/MOL
REMARK 923 INTER-LIGAND FREE ENERGY PREDICTED BY IDOCK:   -6.48 KCAL/MOL
REMARK 924 INTRA-LIGAND FREE ENERGY PREDICTED BY IDOCK:   -0.30 KCAL/MOL
REMARK 927      BINDING AFFINITY PREDICTED BY RF-SCORE:    0.00 PKD
ROOT
HETATM    1  C   UNL     1      -8.254  16.185  67.058  1.00  0.00    -0.216 C  
HETATM    2  O   UNL     1      -9.216  15.641  66.158  1.00  0.00    -0.298 OA 
ENDROOT
BRANCH   2   3
HETATM    3  C   UNL     1      -9.734  14.417  66.496  1.00  0.00    -0.290 A  
HETATM    4  C   UNL     1     -10.768  13.769  65.828  1.00  0.00    -0.281 A  
HETATM    5  C   UNL     1     -11.228  12.531  66.279  1.00  0.00    -0.359 A  
HETATM    6  C   UNL     1     -10.654  11.906  67.395  1.00  0.00    -0.257 A  
HETATM    7  C   UNL     1      -9.146  13.799  67.603  1.00  0.00    -0.196 A  
HETATM    8  C   UNL     1      -9.601  12.555  68.051  1.00  0.00    -0.212 A  
BRANCH   6   9
HETATM    9  C   UNL     1     -11.187  10.563  67.870  1.00  0.00    -0.358 C  
HETATM   10  C   UNL     1     -10.233   9.324  67.746  1.00  0.00    -0.218 C  
HETATM   11  C   UNL     1      -9.055   9.489  68.725  1.00  0.00    -0.133 C  
HETATM   12  C   UNL     1      -9.723   9.159  66.301  1.00  0.00    -0.344 C  
HETATM   13  N   UNL     1     -11.024   8.127  68.135  1.00  0.00    -0.443 NA 
HETATM   14  H   UNL     1     -11.866   8.065  67.562  1.00  0.00     0.000 HD 
BRANCH  13  15
HETATM   15  C   UNL     1     -10.296   6.840  68.104  1.00  0.00    -0.188 C  
BRANCH  15  16
HETATM   16  C   UNL     1     -10.761   5.839  69.189  1.00  0.00    -0.300 C  
HETATM   17  H   UNL     1     -12.173   5.760  70.566  1.00  0.00     0.000 HD 
HETATM   18  O   UNL     1     -11.887   6.374  69.901  1.00  0.00    -0.384 OA 
BRANCH  16  19
HETATM   19  C   UNL     1      -9.644   5.442  70.130  1.00  0.00    -0.235 A  
HETATM   20  C   UNL     1      -9.268   6.276  71.197  1.00  0.00    -0.153 A  
HETATM   21  O   UNL     1      -9.915   7.481  71.317  1.00  0.00    -0.186 OA 
HETATM   22  C   UNL     1      -9.778   8.081  72.599  1.00  0.00    -0.264 C  
HETATM   23  C   UNL     1      -8.417   7.969  73.273  1.00  0.00    -0.224 C  
HETATM   24  O   UNL     1      -7.960   8.814  74.037  1.00  0.00    -0.392 OA 
HETATM   25  N   UNL     1      -7.775   6.782  73.040  1.00  0.00    -0.093 N  
HETATM   26  H   UNL     1      -6.954   6.539  73.594  1.00  0.00     0.000 HD 
HETATM   27  C   UNL     1      -8.224   5.896  72.055  1.00  0.00    -0.112 A  
HETATM   28  C   UNL     1      -7.588   4.665  71.901  1.00  0.00    -0.088 A  
HETATM   29  C   UNL     1      -7.991   3.824  70.872  1.00  0.00    -0.065 A  
HETATM   30  O   UNL     1      -7.419   2.604  70.674  1.00  0.00    -0.036 OA 
HETATM   31  C   UNL     1      -9.000   4.204  69.990  1.00  0.00    -0.158 A  
HETATM   32  H   UNL     1      -7.695   2.028  69.971  1.00  0.00     0.000 HD 
ENDBRANCH  16  19
ENDBRANCH  15  16
ENDBRANCH  13  15
ENDBRANCH   6   9
ENDBRANCH   2   3
TORSDOF 5
ENDMDL
MODEL      144
REMARK 921   NORMALIZED FREE ENERGY PREDICTED BY IDOCK:   -5.06 KCAL/MOL
REMARK 922        TOTAL FREE ENERGY PREDICTED BY IDOCK:   -6.78 KCAL/MOL
REMARK 923 INTER-LIGAND FREE ENERGY PREDICTED BY IDOCK:   -6.63 KCAL/MOL
REMARK 924 INTRA-LIGAND FREE ENERGY PREDICTED BY IDOCK:   -0.15 KCAL/MOL
REMARK 927      BINDING AFFINITY PREDICTED BY RF-SCORE:    0.00 PKD
ROOT
HETATM    1  C   UNL     1     -14.411  15.255  72.057  1.00  0.00    -0.589 C  
HETATM    2  O   UNL     1     -13.143  15.091  71.429  1.00  0.00    -0.331 OA 
ENDROOT
BRANCH   2   3
HETATM    3  C   UNL     1     -12.820  13.815  71.044  1.00  0.00    -0.305 A  
HETATM    4  C   UNL     1     -12.126  13.476  69.887  1.00  0.00    -0.408 A  
HETATM    5  C   UNL     1     -11.874  12.137  69.586  1.00  0.00    -0.391 A  
HETATM    6  C   UNL     1     -12.292  11.109  70.445  1.00  0.00    -0.430 A  
HETATM    7  C   UNL     1     -13.231  12.802  71.913  1.00  0.00    -0.511 A  
HETATM    8  C   UNL     1     -12.972  11.459  71.618  1.00  0.00    -0.523 A  
BRANCH   6   9
HETATM    9  C   UNL     1     -12.014   9.659  70.083  1.00  0.00    -0.019 C  
HETATM   10  C   UNL     1     -12.166   8.590  71.221  1.00  0.00    -0.277 C  
HETATM   11  C   UNL     1     -13.650   8.472  71.614  1.00  0.00    -0.393 C  
HETATM   12  C   UNL     1     -11.304   8.958  72.446  1.00  0.00    -0.173 C  
HETATM   13  N   UNL     1     -11.707   7.291  70.661  1.00  0.00    -0.410 NA 
HETATM   14  H   UNL     1     -10.758   7.384  70.300  1.00  0.00     0.000 HD 
BRANCH  13  15
HETATM   15  C   UNL     1     -11.787   6.134  71.579  1.00  0.00    -0.139 C  
BRANCH  15  16
HETATM   16  C   UNL     1     -10.448   5.373  71.734  1.00  0.00    -0.226 C  
HETATM   17  H   UNL     1      -9.479   4.441  73.179  1.00  0.00     0.000 HD 
HETATM   18  O   UNL     1     -10.300   4.908  73.084  1.00  0.00    -0.166 OA 
BRANCH  16  19
HETATM   19  C   UNL     1      -9.258   6.199  71.295  1.00  0.00    -0.157 A  
HETATM   20  C   UNL     1      -8.836   6.203  69.955  1.00  0.00    -0.144 A  
HETATM   21  O   UNL     1      -9.510   5.391  69.077  1.00  0.00    -0.121 OA 
HETATM   22  C   UNL     1      -9.304   5.727  67.710  1.00  0.00    -0.105 C  
HETATM   23  C   UNL     1      -7.897   6.149  67.306  1.00  0.00    -0.102 C  
HETATM   24  O   UNL     1      -7.416   5.947  66.195  1.00  0.00    -0.082 OA 
HETATM   25  N   UNL     1      -7.237   6.876  68.260  1.00  0.00    -0.088 N  
HETATM   26  H   UNL     1      -6.373   7.358  68.013  1.00  0.00     0.000 HD 
HETATM   27  C   UNL     1      -7.725   6.969  69.568  1.00  0.00    -0.107 A  
HETATM   28  C   UNL     1      -7.063   7.780  70.488  1.00  0.00    -0.047 A  
HETATM   29  C   UNL     1      -7.510   7.808  71.803  1.00  0.00    -0.072 A  
HETATM   30  O   UNL     1      -6.916   8.588  72.749  1.00  0.00    -0.186 OA 
HETATM   31  C   UNL     1      -8.587   7.025  72.210  1.00  0.00    -0.129 A  
HETATM   32  H   UNL     1      -7.221   8.607  73.648  1.00  0.00     0.000 HD 
ENDBRANCH  16  19
ENDBRANCH  15  16
ENDBRANCH  13  15
ENDBRANCH   6   9
ENDBRANCH   2   3
TORSDOF 5
ENDMDL
MODEL      145
REMARK 921   NORMALIZED FREE ENERGY PREDICTED BY IDOCK:   -5.06 KCAL/MOL
REMARK 922        TOTAL FREE ENERGY PREDICTED BY IDOCK:   -6.78 KCAL/MOL
REMARK 923 INTER-LIGAND FREE ENERGY PREDICTED BY IDOCK:   -5.73 KCAL/MOL
REMARK 924 INTRA-LIGAND FREE ENERGY PREDICTED BY IDOCK:   -1.05 KCAL/MOL
REMARK 927      BINDING AFFINITY PREDICTED BY RF-SCORE:    0.00 PKD
ROOT
HETATM    1  C   UNL     1     -10.675   3.223  72.718  1.00  0.00    -0.024 C  
HETATM    2  O   UNL     1     -10.697   4.453  73.436  1.00  0.00    -0.191 OA 
ENDROOT
BRANCH   2   3
HETATM    3  C   UNL     1     -10.343   5.572  72.727  1.00  0.00    -0.194 A  
HETATM    4  C   UNL     1      -9.581   5.579  71.563  1.00  0.00    -0.188 A  
HETATM    5  C   UNL     1      -9.264   6.786  70.938  1.00  0.00    -0.157 A  
HETATM    6  C   UNL     1      -9.717   8.010  71.452  1.00  0.00    -0.205 A  
HETATM    7  C   UNL     1     -10.810   6.784  73.242  1.00  0.00    -0.302 A  
HETATM    8  C   UNL     1     -10.500   7.994  72.612  1.00  0.00    -0.408 A  
BRANCH   6   9
HETATM    9  C   UNL     1      -9.343   9.309  70.756  1.00  0.00    -0.322 C  
HETATM   10  C   UNL     1     -10.374   9.900  69.731  1.00  0.00    -0.246 C  
HETATM   11  C   UNL     1     -11.630  10.371  70.488  1.00  0.00    -0.433 C  
HETATM   12  C   UNL     1     -10.742   8.861  68.653  1.00  0.00    -0.118 C  
HETATM   13  N   UNL     1      -9.724  11.074  69.091  1.00  0.00    -0.387 NA 
HETATM   14  H   UNL     1      -8.835  10.796  68.675  1.00  0.00     0.000 HD 
BRANCH  13  15
HETATM   15  C   UNL     1     -10.545  11.795  68.093  1.00  0.00    -0.203 C  
BRANCH  15  16
HETATM   16  C   UNL     1      -9.712  12.455  66.967  1.00  0.00    -0.211 C  
HETATM   17  H   UNL     1      -9.808  14.098  65.879  1.00  0.00     0.000 HD 
HETATM   18  O   UNL     1     -10.319  13.693  66.569  1.00  0.00    -0.273 OA 
BRANCH  16  19
HETATM   19  C   UNL     1      -9.500  11.533  65.786  1.00  0.00    -0.255 A  
HETATM   20  C   UNL     1      -8.428  10.624  65.762  1.00  0.00    -0.178 A  
HETATM   21  O   UNL     1      -7.557  10.645  66.823  1.00  0.00    -0.109 OA 
HETATM   22  C   UNL     1      -6.754   9.476  66.930  1.00  0.00    -0.072 C  
HETATM   23  C   UNL     1      -6.233   8.874  65.632  1.00  0.00    -0.052 C  
HETATM   24  O   UNL     1      -5.168   8.271  65.537  1.00  0.00    -0.031 OA 
HETATM   25  N   UNL     1      -7.108   8.967  64.583  1.00  0.00    -0.087 N  
HETATM   26  H   UNL     1      -6.930   8.431  63.733  1.00  0.00     0.000 HD 
HETATM   27  C   UNL     1      -8.243   9.782  64.655  1.00  0.00    -0.150 A  
HETATM   28  C   UNL     1      -9.147   9.790  63.594  1.00  0.00    -0.269 A  
HETATM   29  C   UNL     1     -10.230  10.657  63.641  1.00  0.00    -0.167 A  
HETATM   30  O   UNL     1     -11.156  10.707  62.643  1.00  0.00    -0.154 OA 
HETATM   31  C   UNL     1     -10.407  11.525  64.715  1.00  0.00    -0.341 A  
HETATM   32  H   UNL     1     -11.897  11.300  62.675  1.00  0.00     0.000 HD 
ENDBRANCH  16  19
ENDBRANCH  15  16
ENDBRANCH  13  15
ENDBRANCH   6   9
ENDBRANCH   2   3
TORSDOF 5
ENDMDL
MODEL      146
REMARK 921   NORMALIZED FREE ENERGY PREDICTED BY IDOCK:   -5.05 KCAL/MOL
REMARK 922        TOTAL FREE ENERGY PREDICTED BY IDOCK:   -6.77 KCAL/MOL
REMARK 923 INTER-LIGAND FREE ENERGY PREDICTED BY IDOCK:   -6.10 KCAL/MOL
REMARK 924 INTRA-LIGAND FREE ENERGY PREDICTED BY IDOCK:   -0.67 KCAL/MOL
REMARK 927      BINDING AFFINITY PREDICTED BY RF-SCORE:    0.00 PKD
ROOT
HETATM    1  C   UNL     1     -10.242  18.248  66.493  1.00  0.00    -0.394 C  
HETATM    2  O   UNL     1     -10.579  17.275  65.508  1.00  0.00    -0.580 OA 
ENDROOT
BRANCH   2   3
HETATM    3  C   UNL     1     -10.862  16.017  65.975  1.00  0.00    -0.190 A  
HETATM    4  C   UNL     1     -10.738  15.604  67.297  1.00  0.00    -0.305 A  
HETATM    5  C   UNL     1     -11.034  14.287  67.652  1.00  0.00    -0.286 A  
HETATM    6  C   UNL     1     -11.476  13.359  66.697  1.00  0.00    -0.376 A  
HETATM    7  C   UNL     1     -11.313  15.106  65.016  1.00  0.00    -0.381 A  
HETATM    8  C   UNL     1     -11.617  13.788  65.371  1.00  0.00    -0.330 A  
BRANCH   6   9
HETATM    9  C   UNL     1     -11.778  11.928  67.112  1.00  0.00    -0.311 C  
HETATM   10  C   UNL     1     -10.557  10.968  67.330  1.00  0.00    -0.237 C  
HETATM   11  C   UNL     1      -9.762  11.429  68.567  1.00  0.00    -0.199 C  
HETATM   12  C   UNL     1      -9.652  10.930  66.083  1.00  0.00    -0.239 C  
HETATM   13  N   UNL     1     -11.110   9.613  67.586  1.00  0.00    -0.459 NA 
HETATM   14  H   UNL     1     -11.726   9.338  66.820  1.00  0.00     0.000 HD 
BRANCH  13  15
HETATM   15  C   UNL     1     -10.112   8.550  67.838  1.00  0.00    -0.207 C  
BRANCH  15  16
HETATM   16  C   UNL     1     -10.239   7.342  66.878  1.00  0.00    -0.269 C  
HETATM   17  H   UNL     1     -11.344   5.712  66.752  1.00  0.00     0.000 HD 
HETATM   18  O   UNL     1     -11.267   6.453  67.341  1.00  0.00    -0.352 OA 
BRANCH  16  19
HETATM   19  C   UNL     1      -8.924   6.619  66.680  1.00  0.00    -0.150 A  
HETATM   20  C   UNL     1      -8.054   6.975  65.636  1.00  0.00    -0.129 A  
HETATM   21  O   UNL     1      -8.468   7.961  64.776  1.00  0.00    -0.108 OA 
HETATM   22  C   UNL     1      -7.416   8.534  64.009  1.00  0.00    -0.116 C  
HETATM   23  C   UNL     1      -6.343   7.585  63.491  1.00  0.00    -0.054 C  
HETATM   24  O   UNL     1      -5.727   7.756  62.443  1.00  0.00    -0.064 OA 
HETATM   25  N   UNL     1      -6.039   6.564  64.351  1.00  0.00    -0.033 N  
HETATM   26  H   UNL     1      -5.210   5.994  64.179  1.00  0.00     0.000 HD 
HETATM   27  C   UNL     1      -6.842   6.287  65.462  1.00  0.00    -0.052 A  
HETATM   28  C   UNL     1      -6.456   5.288  66.354  1.00  0.00    -0.044 A  
HETATM   29  C   UNL     1      -7.297   4.969  67.412  1.00  0.00    -0.082 A  
HETATM   30  O   UNL     1      -6.974   4.012  68.325  1.00  0.00    -0.047 OA 
HETATM   31  C   UNL     1      -8.519   5.616  67.575  1.00  0.00    -0.102 A  
HETATM   32  H   UNL     1      -7.549   3.793  69.048  1.00  0.00     0.000 HD 
ENDBRANCH  16  19
ENDBRANCH  15  16
ENDBRANCH  13  15
ENDBRANCH   6   9
ENDBRANCH   2   3
TORSDOF 5
ENDMDL
MODEL      147
REMARK 921   NORMALIZED FREE ENERGY PREDICTED BY IDOCK:   -5.05 KCAL/MOL
REMARK 922        TOTAL FREE ENERGY PREDICTED BY IDOCK:   -6.77 KCAL/MOL
REMARK 923 INTER-LIGAND FREE ENERGY PREDICTED BY IDOCK:   -6.46 KCAL/MOL
REMARK 924 INTRA-LIGAND FREE ENERGY PREDICTED BY IDOCK:   -0.31 KCAL/MOL
REMARK 927      BINDING AFFINITY PREDICTED BY RF-SCORE:    0.00 PKD
ROOT
HETATM    1  C   UNL     1     -12.325  15.652  63.754  1.00  0.00     0.629 C  
HETATM    2  O   UNL     1     -12.289  14.240  63.938  1.00  0.00    -0.697 OA 
ENDROOT
BRANCH   2   3
HETATM    3  C   UNL     1     -11.705  13.797  65.097  1.00  0.00    -0.343 A  
HETATM    4  C   UNL     1     -10.600  14.375  65.712  1.00  0.00    -0.326 A  
HETATM    5  C   UNL     1     -10.076  13.821  66.881  1.00  0.00    -0.260 A  
HETATM    6  C   UNL     1     -10.657  12.689  67.471  1.00  0.00    -0.236 A  
HETATM    7  C   UNL     1     -12.299  12.676  65.681  1.00  0.00    -0.390 A  
HETATM    8  C   UNL     1     -11.781  12.123  66.857  1.00  0.00    -0.374 A  
BRANCH   6   9
HETATM    9  C   UNL     1     -10.056  12.101  68.737  1.00  0.00    -0.098 C  
HETATM   10  C   UNL     1      -8.860  11.099  68.570  1.00  0.00    -0.161 C  
HETATM   11  C   UNL     1      -7.631  11.859  68.035  1.00  0.00    -0.122 C  
HETATM   12  C   UNL     1      -9.236   9.938  67.629  1.00  0.00    -0.146 C  
HETATM   13  N   UNL     1      -8.550  10.564  69.922  1.00  0.00    -0.338 NA 
HETATM   14  H   UNL     1      -9.386  10.150  70.333  1.00  0.00     0.000 HD 
BRANCH  13  15
HETATM   15  C   UNL     1      -7.426   9.604  69.989  1.00  0.00    -0.141 C  
BRANCH  15  16
HETATM   16  C   UNL     1      -7.681   8.419  70.952  1.00  0.00    -0.088 C  
HETATM   17  H   UNL     1      -6.899   6.637  71.282  1.00  0.00     0.000 HD 
HETATM   18  O   UNL     1      -6.743   7.364  70.691  1.00  0.00    -0.046 OA 
BRANCH  16  19
HETATM   19  C   UNL     1      -9.109   7.922  70.894  1.00  0.00    -0.157 A  
HETATM   20  C   UNL     1      -9.579   7.202  69.782  1.00  0.00    -0.155 A  
HETATM   21  O   UNL     1      -8.711   7.018  68.735  1.00  0.00    -0.127 OA 
HETATM   22  C   UNL     1      -9.098   5.979  67.843  1.00  0.00    -0.117 C  
HETATM   23  C   UNL     1     -10.583   5.858  67.527  1.00  0.00    -0.273 C  
HETATM   24  O   UNL     1     -11.023   5.448  66.456  1.00  0.00    -0.239 OA 
HETATM   25  N   UNL     1     -11.404   6.147  68.584  1.00  0.00    -0.379 N  
HETATM   26  H   UNL     1     -12.396   5.914  68.526  1.00  0.00     0.000 HD 
HETATM   27  C   UNL     1     -10.909   6.756  69.742  1.00  0.00    -0.272 A  
HETATM   28  C   UNL     1     -11.764   6.964  70.823  1.00  0.00    -0.417 A  
HETATM   29  C   UNL     1     -11.284   7.637  71.939  1.00  0.00    -0.257 A  
HETATM   30  O   UNL     1     -12.062   7.863  73.034  1.00  0.00    -0.626 OA 
HETATM   31  C   UNL     1      -9.978   8.118  71.978  1.00  0.00    -0.299 A  
HETATM   32  H   UNL     1     -11.734   8.323  73.797  1.00  0.00     0.000 HD 
ENDBRANCH  16  19
ENDBRANCH  15  16
ENDBRANCH  13  15
ENDBRANCH   6   9
ENDBRANCH   2   3
TORSDOF 5
ENDMDL
MODEL      148
REMARK 921   NORMALIZED FREE ENERGY PREDICTED BY IDOCK:   -5.04 KCAL/MOL
REMARK 922        TOTAL FREE ENERGY PREDICTED BY IDOCK:   -6.75 KCAL/MOL
REMARK 923 INTER-LIGAND FREE ENERGY PREDICTED BY IDOCK:   -6.23 KCAL/MOL
REMARK 924 INTRA-LIGAND FREE ENERGY PREDICTED BY IDOCK:   -0.53 KCAL/MOL
REMARK 927      BINDING AFFINITY PREDICTED BY RF-SCORE:    0.00 PKD
ROOT
HETATM    1  C   UNL     1      -9.348  17.756  66.103  1.00  0.00    -0.132 C  
HETATM    2  O   UNL     1     -10.320  17.079  65.312  1.00  0.00    -0.626 OA 
ENDROOT
BRANCH   2   3
HETATM    3  C   UNL     1     -10.470  15.738  65.556  1.00  0.00    -0.403 A  
HETATM    4  C   UNL     1     -11.315  14.883  64.856  1.00  0.00    -0.415 A  
HETATM    5  C   UNL     1     -11.401  13.536  65.211  1.00  0.00    -0.304 A  
HETATM    6  C   UNL     1     -10.632  13.011  66.260  1.00  0.00    -0.283 A  
HETATM    7  C   UNL     1      -9.691  15.225  66.595  1.00  0.00    -0.268 A  
HETATM    8  C   UNL     1      -9.770  13.873  66.947  1.00  0.00    -0.268 A  
BRANCH   6   9
HETATM    9  C   UNL     1     -10.759  11.542  66.631  1.00  0.00    -0.311 C  
HETATM   10  C   UNL     1      -9.669  10.560  66.074  1.00  0.00    -0.205 C  
HETATM   11  C   UNL     1      -8.315  10.874  66.738  1.00  0.00    -0.138 C  
HETATM   12  C   UNL     1      -9.562  10.665  64.540  1.00  0.00    -0.341 C  
HETATM   13  N   UNL     1     -10.089   9.186  66.452  1.00  0.00    -0.289 NA 
HETATM   14  H   UNL     1     -11.031   9.002  66.107  1.00  0.00     0.000 HD 
BRANCH  13  15
HETATM   15  C   UNL     1      -9.177   8.099  66.032  1.00  0.00    -0.147 C  
BRANCH  15  16
HETATM   16  C   UNL     1      -8.380   7.473  67.202  1.00  0.00    -0.121 C  
HETATM   17  H   UNL     1      -6.484   7.140  67.638  1.00  0.00     0.000 HD 
HETATM   18  O   UNL     1      -6.973   7.524  66.920  1.00  0.00    -0.074 OA 
BRANCH  16  19
HETATM   19  C   UNL     1      -8.833   6.066  67.524  1.00  0.00    -0.109 A  
HETATM   20  C   UNL     1      -9.231   5.715  68.825  1.00  0.00    -0.118 A  
HETATM   21  O   UNL     1      -9.141   6.681  69.796  1.00  0.00    -0.142 OA 
HETATM   22  C   UNL     1      -9.906   6.398  70.962  1.00  0.00    -0.180 C  
HETATM   23  C   UNL     1      -9.928   4.952  71.439  1.00  0.00    -0.197 C  
HETATM   24  O   UNL     1     -10.039   4.622  72.617  1.00  0.00    -0.160 OA 
HETATM   25  N   UNL     1      -9.921   4.030  70.427  1.00  0.00    -0.128 N  
HETATM   26  H   UNL     1     -10.122   3.052  70.638  1.00  0.00     0.000 HD 
HETATM   27  C   UNL     1      -9.641   4.402  69.108  1.00  0.00    -0.181 A  
HETATM   28  C   UNL     1      -9.717   3.446  68.097  1.00  0.00    -0.052 A  
HETATM   29  C   UNL     1      -9.365   3.807  66.803  1.00  0.00    -0.190 A  
HETATM   30  O   UNL     1      -9.428   2.925  65.767  1.00  0.00    -0.323 OA 
HETATM   31  C   UNL     1      -8.921   5.095  66.514  1.00  0.00    -0.118 A  
HETATM   32  H   UNL     1      -9.188   3.172  64.881  1.00  0.00     0.000 HD 
ENDBRANCH  16  19
ENDBRANCH  15  16
ENDBRANCH  13  15
ENDBRANCH   6   9
ENDBRANCH   2   3
TORSDOF 5
ENDMDL
MODEL      149
REMARK 921   NORMALIZED FREE ENERGY PREDICTED BY IDOCK:   -5.02 KCAL/MOL
REMARK 922        TOTAL FREE ENERGY PREDICTED BY IDOCK:   -6.73 KCAL/MOL
REMARK 923 INTER-LIGAND FREE ENERGY PREDICTED BY IDOCK:   -6.31 KCAL/MOL
REMARK 924 INTRA-LIGAND FREE ENERGY PREDICTED BY IDOCK:   -0.42 KCAL/MOL
REMARK 927      BINDING AFFINITY PREDICTED BY RF-SCORE:    0.00 PKD
ROOT
HETATM    1  C   UNL     1      -6.535   5.038  64.946  1.00  0.00    -0.035 C  
HETATM    2  O   UNL     1      -7.444   4.955  66.039  1.00  0.00    -0.080 OA 
ENDROOT
BRANCH   2   3
HETATM    3  C   UNL     1      -8.209   6.069  66.275  1.00  0.00    -0.118 A  
HETATM    4  C   UNL     1      -9.177   6.184  67.267  1.00  0.00    -0.117 A  
HETATM    5  C   UNL     1      -9.911   7.364  67.398  1.00  0.00    -0.239 A  
HETATM    6  C   UNL     1      -9.681   8.460  66.553  1.00  0.00    -0.330 A  
HETATM    7  C   UNL     1      -7.962   7.157  65.435  1.00  0.00    -0.125 A  
HETATM    8  C   UNL     1      -8.691   8.343  65.570  1.00  0.00    -0.196 A  
BRANCH   6   9
HETATM    9  C   UNL     1     -10.506   9.727  66.712  1.00  0.00    -0.259 C  
HETATM   10  C   UNL     1      -9.931  10.850  67.643  1.00  0.00    -0.173 C  
HETATM   11  C   UNL     1      -8.668  11.450  66.995  1.00  0.00    -0.160 C  
HETATM   12  C   UNL     1      -9.614  10.299  69.048  1.00  0.00    -0.210 C  
HETATM   13  N   UNL     1     -10.973  11.905  67.745  1.00  0.00    -0.215 NA 
HETATM   14  H   UNL     1     -11.849  11.499  68.074  1.00  0.00     0.000 HD 
BRANCH  13  15
HETATM   15  C   UNL     1     -10.618  13.079  68.574  1.00  0.00    -0.258 C  
BRANCH  15  16
HETATM   16  C   UNL     1     -10.857  14.433  67.864  1.00  0.00    -0.251 C  
HETATM   17  H   UNL     1     -11.789  15.065  66.243  1.00  0.00     0.000 HD 
HETATM   18  O   UNL     1     -11.641  14.234  66.678  1.00  0.00    -0.352 OA 
BRANCH  16  19
HETATM   19  C   UNL     1      -9.568  15.166  67.563  1.00  0.00    -0.207 A  
HETATM   20  C   UNL     1      -9.570  16.540  67.267  1.00  0.00    -0.242 A  
HETATM   21  O   UNL     1     -10.786  17.173  67.210  1.00  0.00    -0.251 OA 
HETATM   22  C   UNL     1     -10.701  18.590  67.298  1.00  0.00    -0.374 C  
HETATM   23  C   UNL     1      -9.549  19.261  66.563  1.00  0.00    -0.363 C  
HETATM   24  O   UNL     1      -9.608  20.388  66.081  1.00  0.00    -0.313 OA 
HETATM   25  N   UNL     1      -8.385  18.538  66.572  1.00  0.00    -0.277 N  
HETATM   26  H   UNL     1      -7.517  18.983  66.273  1.00  0.00     0.000 HD 
HETATM   27  C   UNL     1      -8.365  17.201  66.982  1.00  0.00    -0.207 A  
HETATM   28  C   UNL     1      -7.148  16.525  67.048  1.00  0.00    -0.247 A  
HETATM   29  C   UNL     1      -7.145  15.178  67.384  1.00  0.00    -0.187 A  
HETATM   30  O   UNL     1      -5.990  14.461  67.477  1.00  0.00    -0.337 OA 
HETATM   31  C   UNL     1      -8.335  14.499  67.632  1.00  0.00    -0.188 A  
HETATM   32  H   UNL     1      -5.988  13.540  67.707  1.00  0.00     0.000 HD 
ENDBRANCH  16  19
ENDBRANCH  15  16
ENDBRANCH  13  15
ENDBRANCH   6   9
ENDBRANCH   2   3
TORSDOF 5
ENDMDL
MODEL      150
REMARK 921   NORMALIZED FREE ENERGY PREDICTED BY IDOCK:   -5.02 KCAL/MOL
REMARK 922        TOTAL FREE ENERGY PREDICTED BY IDOCK:   -6.73 KCAL/MOL
REMARK 923 INTER-LIGAND FREE ENERGY PREDICTED BY IDOCK:   -6.51 KCAL/MOL
REMARK 924 INTRA-LIGAND FREE ENERGY PREDICTED BY IDOCK:   -0.22 KCAL/MOL
REMARK 927      BINDING AFFINITY PREDICTED BY RF-SCORE:    0.00 PKD
ROOT
HETATM    1  C   UNL     1      -7.909   1.878  67.157  1.00  0.00    -0.065 C  
HETATM    2  O   UNL     1      -9.131   2.207  67.812  1.00  0.00    -0.141 OA 
ENDROOT
BRANCH   2   3
HETATM    3  C   UNL     1      -9.547   3.509  67.693  1.00  0.00    -0.127 A  
HETATM    4  C   UNL     1      -9.690   4.201  66.495  1.00  0.00    -0.228 A  
HETATM    5  C   UNL     1     -10.100   5.535  66.499  1.00  0.00    -0.241 A  
HETATM    6  C   UNL     1     -10.395   6.200  67.699  1.00  0.00    -0.250 A  
HETATM    7  C   UNL     1      -9.848   4.157  68.893  1.00  0.00    -0.092 A  
HETATM    8  C   UNL     1     -10.268   5.491  68.899  1.00  0.00    -0.284 A  
BRANCH   6   9
HETATM    9  C   UNL     1     -10.827   7.657  67.671  1.00  0.00    -0.171 C  
HETATM   10  C   UNL     1      -9.743   8.738  68.012  1.00  0.00    -0.157 C  
HETATM   11  C   UNL     1      -8.683   8.767  66.894  1.00  0.00    -0.136 C  
HETATM   12  C   UNL     1      -9.088   8.453  69.379  1.00  0.00    -0.154 C  
HETATM   13  N   UNL     1     -10.438  10.051  68.057  1.00  0.00    -0.203 NA 
HETATM   14  H   UNL     1     -11.212  10.013  68.720  1.00  0.00     0.000 HD 
BRANCH  13  15
HETATM   15  C   UNL     1      -9.580  11.220  68.350  1.00  0.00    -0.195 C  
BRANCH  15  16
HETATM   16  C   UNL     1     -10.337  12.391  69.022  1.00  0.00     0.052 C  
HETATM   17  H   UNL     1     -12.093  12.667  69.881  1.00  0.00     0.000 HD 
HETATM   18  O   UNL     1     -11.628  11.949  69.468  1.00  0.00    -0.290 OA 
BRANCH  16  19
HETATM   19  C   UNL     1     -10.443  13.604  68.124  1.00  0.00    -0.250 A  
HETATM   20  C   UNL     1     -10.963  13.497  66.822  1.00  0.00    -0.292 A  
HETATM   21  O   UNL     1     -11.316  12.245  66.384  1.00  0.00    -0.315 OA 
HETATM   22  C   UNL     1     -12.175  12.255  65.250  1.00  0.00    -0.244 C  
HETATM   23  C   UNL     1     -11.891  13.298  64.177  1.00  0.00    -0.443 C  
HETATM   24  O   UNL     1     -12.121  13.131  62.982  1.00  0.00    -0.442 OA 
HETATM   25  N   UNL     1     -11.450  14.498  64.668  1.00  0.00    -0.490 N  
HETATM   26  H   UNL     1     -11.414  15.309  64.050  1.00  0.00     0.000 HD 
HETATM   27  C   UNL     1     -11.046  14.632  66.000  1.00  0.00    -0.332 A  
HETATM   28  C   UNL     1     -10.675  15.887  66.479  1.00  0.00    -0.258 A  
HETATM   29  C   UNL     1     -10.204  15.998  67.781  1.00  0.00    -0.260 A  
HETATM   30  O   UNL     1      -9.836  17.196  68.314  1.00  0.00    -0.263 OA 
HETATM   31  C   UNL     1     -10.080  14.875  68.595  1.00  0.00    -0.237 A  
HETATM   32  H   UNL     1      -9.514  17.272  69.204  1.00  0.00     0.000 HD 
ENDBRANCH  16  19
ENDBRANCH  15  16
ENDBRANCH  13  15
ENDBRANCH   6   9
ENDBRANCH   2   3
TORSDOF 5
ENDMDL
MODEL      151
REMARK 921   NORMALIZED FREE ENERGY PREDICTED BY IDOCK:   -5.01 KCAL/MOL
REMARK 922        TOTAL FREE ENERGY PREDICTED BY IDOCK:   -6.72 KCAL/MOL
REMARK 923 INTER-LIGAND FREE ENERGY PREDICTED BY IDOCK:   -6.14 KCAL/MOL
REMARK 924 INTRA-LIGAND FREE ENERGY PREDICTED BY IDOCK:   -0.58 KCAL/MOL
REMARK 927      BINDING AFFINITY PREDICTED BY RF-SCORE:    0.00 PKD
ROOT
HETATM    1  C   UNL     1      -8.700   2.844  65.470  1.00  0.00    -0.125 C  
HETATM    2  O   UNL     1      -8.708   3.457  66.756  1.00  0.00    -0.109 OA 
ENDROOT
BRANCH   2   3
HETATM    3  C   UNL     1      -8.497   4.812  66.780  1.00  0.00    -0.105 A  
HETATM    4  C   UNL     1      -8.059   5.576  65.703  1.00  0.00    -0.118 A  
HETATM    5  C   UNL     1      -7.857   6.949  65.852  1.00  0.00    -0.106 A  
HETATM    6  C   UNL     1      -8.107   7.591  67.074  1.00  0.00    -0.117 A  
HETATM    7  C   UNL     1      -8.760   5.442  67.998  1.00  0.00    -0.106 A  
HETATM    8  C   UNL     1      -8.567   6.819  68.147  1.00  0.00    -0.120 A  
BRANCH   6   9
HETATM    9  C   UNL     1      -7.865   9.086  67.208  1.00  0.00    -0.099 C  
HETATM   10  C   UNL     1      -9.045  10.045  66.821  1.00  0.00    -0.139 C  
HETATM   11  C   UNL     1     -10.189   9.881  67.839  1.00  0.00    -0.234 C  
HETATM   12  C   UNL     1      -9.543   9.762  65.390  1.00  0.00    -0.359 C  
HETATM   13  N   UNL     1      -8.519  11.433  66.900  1.00  0.00    -0.152 NA 
HETATM   14  H   UNL     1      -7.694  11.528  66.309  1.00  0.00     0.000 HD 
BRANCH  13  15
HETATM   15  C   UNL     1      -9.490  12.505  66.586  1.00  0.00    -0.242 C  
BRANCH  15  16
HETATM   16  C   UNL     1      -8.926  13.931  66.793  1.00  0.00    -0.188 C  
HETATM   17  H   UNL     1      -7.198  14.737  67.305  1.00  0.00     0.000 HD 
HETATM   18  O   UNL     1      -7.545  13.862  67.179  1.00  0.00    -0.116 OA 
BRANCH  16  19
HETATM   19  C   UNL     1      -9.740  14.740  67.778  1.00  0.00    -0.213 A  
HETATM   20  C   UNL     1     -10.001  16.103  67.554  1.00  0.00    -0.243 A  
HETATM   21  O   UNL     1      -9.445  16.678  66.438  1.00  0.00    -0.250 OA 
HETATM   22  C   UNL     1     -10.049  17.910  66.065  1.00  0.00    -0.253 C  
HETATM   23  C   UNL     1     -10.448  18.854  67.192  1.00  0.00    -0.438 C  
HETATM   24  O   UNL     1     -10.455  20.078  67.089  1.00  0.00    -0.427 OA 
HETATM   25  N   UNL     1     -10.906  18.220  68.315  1.00  0.00    -0.267 N  
HETATM   26  H   UNL     1     -11.369  18.764  69.044  1.00  0.00     0.000 HD 
HETATM   27  C   UNL     1     -10.752  16.840  68.483  1.00  0.00    -0.358 A  
HETATM   28  C   UNL     1     -11.299  16.222  69.606  1.00  0.00    -0.266 A  
HETATM   29  C   UNL     1     -11.077  14.866  69.803  1.00  0.00    -0.274 A  
HETATM   30  O   UNL     1     -11.593  14.199  70.873  1.00  0.00    -0.509 OA 
HETATM   31  C   UNL     1     -10.303  14.130  68.910  1.00  0.00    -0.204 A  
HETATM   32  H   UNL     1     -11.441  13.271  71.008  1.00  0.00     0.000 HD 
ENDBRANCH  16  19
ENDBRANCH  15  16
ENDBRANCH  13  15
ENDBRANCH   6   9
ENDBRANCH   2   3
TORSDOF 5
ENDMDL
MODEL      152
REMARK 921   NORMALIZED FREE ENERGY PREDICTED BY IDOCK:   -5.00 KCAL/MOL
REMARK 922        TOTAL FREE ENERGY PREDICTED BY IDOCK:   -6.70 KCAL/MOL
REMARK 923 INTER-LIGAND FREE ENERGY PREDICTED BY IDOCK:   -7.83 KCAL/MOL
REMARK 924 INTRA-LIGAND FREE ENERGY PREDICTED BY IDOCK:    1.13 KCAL/MOL
REMARK 927      BINDING AFFINITY PREDICTED BY RF-SCORE:    0.00 PKD
ROOT
HETATM    1  C   UNL     1      -5.878  21.354  67.287  1.00  0.00    -0.352 C  
HETATM    2  O   UNL     1      -6.308  20.906  68.569  1.00  0.00    -0.305 OA 
ENDROOT
BRANCH   2   3
HETATM    3  C   UNL     1      -6.906  19.673  68.609  1.00  0.00    -0.314 A  
HETATM    4  C   UNL     1      -8.164  19.373  68.095  1.00  0.00    -0.359 A  
HETATM    5  C   UNL     1      -8.681  18.082  68.213  1.00  0.00    -0.289 A  
HETATM    6  C   UNL     1      -7.946  17.059  68.831  1.00  0.00    -0.217 A  
HETATM    7  C   UNL     1      -6.160  18.660  69.215  1.00  0.00    -0.263 A  
HETATM    8  C   UNL     1      -6.673  17.364  69.328  1.00  0.00    -0.222 A  
BRANCH   6   9
HETATM    9  C   UNL     1      -8.543  15.666  68.957  1.00  0.00    -0.232 C  
HETATM   10  C   UNL     1     -10.079  15.512  68.681  1.00  0.00    -0.210 C  
HETATM   11  C   UNL     1     -10.357  15.773  67.188  1.00  0.00    -0.291 C  
HETATM   12  C   UNL     1     -10.900  16.472  69.564  1.00  0.00    -0.315 C  
HETATM   13  N   UNL     1     -10.439  14.107  69.003  1.00  0.00    -0.349 NA 
HETATM   14  H   UNL     1     -10.163  13.888  69.961  1.00  0.00     0.000 HD 
BRANCH  13  15
HETATM   15  C   UNL     1     -11.858  13.744  68.791  1.00  0.00    -0.363 C  
BRANCH  15  16
HETATM   16  C   UNL     1     -12.457  12.892  69.936  1.00  0.00     0.031 C  
HETATM   17  H   UNL     1     -12.620  13.027  71.899  1.00  0.00     0.000 HD 
HETATM   18  O   UNL     1     -12.252  13.550  71.196  1.00  0.00    -0.330 OA 
BRANCH  16  19
HETATM   19  C   UNL     1     -11.916  11.479  69.951  1.00  0.00    -0.426 A  
HETATM   20  C   UNL     1     -11.303  10.928  68.813  1.00  0.00    -0.292 A  
HETATM   21  O   UNL     1     -11.264  11.700  67.679  1.00  0.00    -0.242 OA 
HETATM   22  C   UNL     1     -10.313  11.260  66.717  1.00  0.00    -0.238 C  
HETATM   23  C   UNL     1     -10.171   9.756  66.522  1.00  0.00    -0.219 C  
HETATM   24  O   UNL     1      -9.863   9.231  65.457  1.00  0.00    -0.265 OA 
HETATM   25  N   UNL     1     -10.315   9.029  67.674  1.00  0.00    -0.242 N  
HETATM   26  H   UNL     1     -10.053   8.043  67.679  1.00  0.00     0.000 HD 
HETATM   27  C   UNL     1     -10.814   9.612  68.843  1.00  0.00    -0.174 A  
HETATM   28  C   UNL     1     -10.874   8.856  70.012  1.00  0.00    -0.239 A  
HETATM   29  C   UNL     1     -11.440   9.419  71.148  1.00  0.00    -0.352 A  
HETATM   30  O   UNL     1     -11.519   8.739  72.326  1.00  0.00    -0.362 OA 
HETATM   31  C   UNL     1     -11.963  10.709  71.124  1.00  0.00    -0.401 A  
HETATM   32  H   UNL     1     -11.906   9.123  73.103  1.00  0.00     0.000 HD 
ENDBRANCH  16  19
ENDBRANCH  15  16
ENDBRANCH  13  15
ENDBRANCH   6   9
ENDBRANCH   2   3
TORSDOF 5
ENDMDL
MODEL      153
REMARK 921   NORMALIZED FREE ENERGY PREDICTED BY IDOCK:   -4.99 KCAL/MOL
REMARK 922        TOTAL FREE ENERGY PREDICTED BY IDOCK:   -6.70 KCAL/MOL
REMARK 923 INTER-LIGAND FREE ENERGY PREDICTED BY IDOCK:   -6.29 KCAL/MOL
REMARK 924 INTRA-LIGAND FREE ENERGY PREDICTED BY IDOCK:   -0.41 KCAL/MOL
REMARK 927      BINDING AFFINITY PREDICTED BY RF-SCORE:    0.00 PKD
ROOT
HETATM    1  C   UNL     1      -6.854  20.828  68.334  1.00  0.00    -0.059 C  
HETATM    2  O   UNL     1      -7.082  19.540  68.898  1.00  0.00    -0.333 OA 
ENDROOT
BRANCH   2   3
HETATM    3  C   UNL     1      -7.805  18.664  68.129  1.00  0.00    -0.287 A  
HETATM    4  C   UNL     1      -9.194  18.598  68.077  1.00  0.00    -0.329 A  
HETATM    5  C   UNL     1      -9.822  17.647  67.273  1.00  0.00    -0.303 A  
HETATM    6  C   UNL     1      -9.077  16.753  66.489  1.00  0.00    -0.302 A  
HETATM    7  C   UNL     1      -7.052  17.788  67.345  1.00  0.00    -0.201 A  
HETATM    8  C   UNL     1      -7.680  16.839  66.531  1.00  0.00    -0.334 A  
BRANCH   6   9
HETATM    9  C   UNL     1      -9.790  15.719  65.633  1.00  0.00    -0.357 C  
HETATM   10  C   UNL     1     -10.016  14.298  66.256  1.00  0.00    -0.306 C  
HETATM   11  C   UNL     1     -11.024  14.405  67.416  1.00  0.00    -0.303 C  
HETATM   12  C   UNL     1      -8.686  13.689  66.743  1.00  0.00    -0.101 C  
HETATM   13  N   UNL     1     -10.594  13.441  65.188  1.00  0.00    -0.326 NA 
HETATM   14  H   UNL     1      -9.985  13.446  64.370  1.00  0.00     0.000 HD 
BRANCH  13  15
HETATM   15  C   UNL     1     -10.903  12.048  65.580  1.00  0.00    -0.292 C  
BRANCH  15  16
HETATM   16  C   UNL     1      -9.858  11.020  65.083  1.00  0.00    -0.268 C  
HETATM   17  H   UNL     1      -9.611   9.867  63.501  1.00  0.00     0.000 HD 
HETATM   18  O   UNL     1     -10.252  10.498  63.806  1.00  0.00    -0.281 OA 
BRANCH  16  19
HETATM   19  C   UNL     1      -9.611   9.914  66.086  1.00  0.00    -0.275 A  
HETATM   20  C   UNL     1      -8.531   9.028  65.933  1.00  0.00    -0.140 A  
HETATM   21  O   UNL     1      -7.747   9.173  64.816  1.00  0.00    -0.105 OA 
HETATM   22  C   UNL     1      -6.481   8.531  64.915  1.00  0.00    -0.064 C  
HETATM   23  C   UNL     1      -6.447   7.171  65.599  1.00  0.00    -0.047 C  
HETATM   24  O   UNL     1      -5.651   6.281  65.313  1.00  0.00    -0.017 OA 
HETATM   25  N   UNL     1      -7.320   7.053  66.648  1.00  0.00    -0.079 N  
HETATM   26  H   UNL     1      -7.238   6.256  67.279  1.00  0.00     0.000 HD 
HETATM   27  C   UNL     1      -8.322   8.003  66.869  1.00  0.00    -0.116 A  
HETATM   28  C   UNL     1      -9.141   7.884  67.991  1.00  0.00    -0.132 A  
HETATM   29  C   UNL     1     -10.181   8.789  68.162  1.00  0.00    -0.205 A  
HETATM   30  O   UNL     1     -11.010   8.736  69.242  1.00  0.00    -0.404 OA 
HETATM   31  C   UNL     1     -10.423   9.788  67.223  1.00  0.00    -0.324 A  
HETATM   32  H   UNL     1     -11.721   9.354  69.360  1.00  0.00     0.000 HD 
ENDBRANCH  16  19
ENDBRANCH  15  16
ENDBRANCH  13  15
ENDBRANCH   6   9
ENDBRANCH   2   3
TORSDOF 5
ENDMDL
MODEL      154
REMARK 921   NORMALIZED FREE ENERGY PREDICTED BY IDOCK:   -4.98 KCAL/MOL
REMARK 922        TOTAL FREE ENERGY PREDICTED BY IDOCK:   -6.68 KCAL/MOL
REMARK 923 INTER-LIGAND FREE ENERGY PREDICTED BY IDOCK:   -6.77 KCAL/MOL
REMARK 924 INTRA-LIGAND FREE ENERGY PREDICTED BY IDOCK:    0.10 KCAL/MOL
REMARK 927      BINDING AFFINITY PREDICTED BY RF-SCORE:    0.00 PKD
ROOT
HETATM    1  C   UNL     1      -6.934   4.027  68.529  1.00  0.00    -0.048 C  
HETATM    2  O   UNL     1      -8.299   4.206  68.897  1.00  0.00    -0.077 OA 
ENDROOT
BRANCH   2   3
HETATM    3  C   UNL     1      -8.843   5.435  68.620  1.00  0.00    -0.103 A  
HETATM    4  C   UNL     1      -8.134   6.629  68.546  1.00  0.00    -0.119 A  
HETATM    5  C   UNL     1      -8.800   7.826  68.278  1.00  0.00    -0.129 A  
HETATM    6  C   UNL     1     -10.186   7.852  68.060  1.00  0.00    -0.256 A  
HETATM    7  C   UNL     1     -10.221   5.446  68.393  1.00  0.00    -0.229 A  
HETATM    8  C   UNL     1     -10.889   6.643  68.116  1.00  0.00    -0.334 A  
BRANCH   6   9
HETATM    9  C   UNL     1     -10.885   9.173  67.784  1.00  0.00    -0.159 C  
HETATM   10  C   UNL     1     -11.067  10.159  68.990  1.00  0.00    -0.205 C  
HETATM   11  C   UNL     1      -9.688  10.689  69.427  1.00  0.00    -0.141 C  
HETATM   12  C   UNL     1     -11.785   9.469  70.167  1.00  0.00    -0.096 C  
HETATM   13  N   UNL     1     -11.892  11.295  68.501  1.00  0.00    -0.516 NA 
HETATM   14  H   UNL     1     -12.768  10.948  68.111  1.00  0.00     0.000 HD 
BRANCH  13  15
HETATM   15  C   UNL     1     -12.168  12.359  69.492  1.00  0.00    -0.086 C  
BRANCH  15  16
HETATM   16  C   UNL     1     -11.269  13.608  69.325  1.00  0.00    -0.233 C  
HETATM   17  H   UNL     1     -11.142  15.409  70.123  1.00  0.00     0.000 HD 
HETATM   18  O   UNL     1     -11.694  14.643  70.225  1.00  0.00    -0.270 OA 
BRANCH  16  19
HETATM   19  C   UNL     1     -11.218  14.100  67.895  1.00  0.00    -0.299 A  
HETATM   20  C   UNL     1     -10.177  14.934  67.454  1.00  0.00    -0.234 A  
HETATM   21  O   UNL     1      -9.244  15.326  68.382  1.00  0.00    -0.184 OA 
HETATM   22  C   UNL     1      -8.040  15.823  67.811  1.00  0.00    -0.144 C  
HETATM   23  C   UNL     1      -8.171  16.693  66.568  1.00  0.00    -0.295 C  
HETATM   24  O   UNL     1      -7.394  17.599  66.281  1.00  0.00    -0.257 OA 
HETATM   25  N   UNL     1      -9.181  16.311  65.724  1.00  0.00    -0.218 N  
HETATM   26  H   UNL     1      -9.227  16.710  64.786  1.00  0.00     0.000 HD 
HETATM   27  C   UNL     1     -10.150  15.387  66.125  1.00  0.00    -0.305 A  
HETATM   28  C   UNL     1     -11.117  14.970  65.211  1.00  0.00    -0.391 A  
HETATM   29  C   UNL     1     -12.119  14.110  65.638  1.00  0.00    -0.415 A  
HETATM   30  O   UNL     1     -13.087  13.655  64.794  1.00  0.00    -0.658 OA 
HETATM   31  C   UNL     1     -12.180  13.682  66.962  1.00  0.00    -0.373 A  
HETATM   32  H   UNL     1     -13.773  13.067  65.086  1.00  0.00     0.000 HD 
ENDBRANCH  16  19
ENDBRANCH  15  16
ENDBRANCH  13  15
ENDBRANCH   6   9
ENDBRANCH   2   3
TORSDOF 5
ENDMDL
MODEL      155
REMARK 921   NORMALIZED FREE ENERGY PREDICTED BY IDOCK:   -4.97 KCAL/MOL
REMARK 922        TOTAL FREE ENERGY PREDICTED BY IDOCK:   -6.67 KCAL/MOL
REMARK 923 INTER-LIGAND FREE ENERGY PREDICTED BY IDOCK:   -6.62 KCAL/MOL
REMARK 924 INTRA-LIGAND FREE ENERGY PREDICTED BY IDOCK:   -0.05 KCAL/MOL
REMARK 927      BINDING AFFINITY PREDICTED BY RF-SCORE:    0.00 PKD
ROOT
HETATM    1  C   UNL     1      -9.749  19.421  68.271  1.00  0.00    -0.397 C  
HETATM    2  O   UNL     1      -9.289  18.636  67.175  1.00  0.00    -0.282 OA 
ENDROOT
BRANCH   2   3
HETATM    3  C   UNL     1      -9.804  17.369  67.083  1.00  0.00    -0.278 A  
HETATM    4  C   UNL     1     -10.820  16.853  67.882  1.00  0.00    -0.310 A  
HETATM    5  C   UNL     1     -11.248  15.536  67.710  1.00  0.00    -0.302 A  
HETATM    6  C   UNL     1     -10.685  14.712  66.724  1.00  0.00    -0.301 A  
HETATM    7  C   UNL     1      -9.243  16.562  66.090  1.00  0.00    -0.338 A  
HETATM    8  C   UNL     1      -9.678  15.244  65.910  1.00  0.00    -0.390 A  
BRANCH   6   9
HETATM    9  C   UNL     1     -11.165  13.278  66.570  1.00  0.00    -0.329 C  
HETATM   10  C   UNL     1     -10.797  12.268  67.712  1.00  0.00    -0.221 C  
HETATM   11  C   UNL     1     -11.556  12.652  68.996  1.00  0.00    -0.367 C  
HETATM   12  C   UNL     1      -9.275  12.245  67.963  1.00  0.00    -0.195 C  
HETATM   13  N   UNL     1     -11.248  10.924  67.265  1.00  0.00    -0.388 NA 
HETATM   14  H   UNL     1     -10.833  10.700  66.361  1.00  0.00     0.000 HD 
BRANCH  13  15
HETATM   15  C   UNL     1     -11.007   9.817  68.218  1.00  0.00    -0.164 C  
BRANCH  15  16
HETATM   16  C   UNL     1     -10.000   8.763  67.700  1.00  0.00    -0.193 C  
HETATM   17  H   UNL     1     -10.065   7.130  66.594  1.00  0.00     0.000 HD 
HETATM   18  O   UNL     1     -10.683   7.777  66.912  1.00  0.00    -0.345 OA 
BRANCH  16  19
HETATM   19  C   UNL     1      -9.201   8.127  68.817  1.00  0.00    -0.144 A  
HETATM   20  C   UNL     1      -9.838   7.413  69.846  1.00  0.00    -0.178 A  
HETATM   21  O   UNL     1     -11.210   7.364  69.826  1.00  0.00    -0.202 OA 
HETATM   22  C   UNL     1     -11.759   6.331  70.636  1.00  0.00    -0.215 C  
HETATM   23  C   UNL     1     -11.088   6.075  71.979  1.00  0.00    -0.274 C  
HETATM   24  O   UNL     1     -11.682   5.671  72.974  1.00  0.00    -0.205 OA 
HETATM   25  N   UNL     1      -9.728   6.233  71.962  1.00  0.00    -0.152 N  
HETATM   26  H   UNL     1      -9.176   5.904  72.754  1.00  0.00     0.000 HD 
HETATM   27  C   UNL     1      -9.081   6.838  70.879  1.00  0.00    -0.153 A  
HETATM   28  C   UNL     1      -7.689   6.911  70.868  1.00  0.00    -0.092 A  
HETATM   29  C   UNL     1      -7.059   7.579  69.826  1.00  0.00    -0.068 A  
HETATM   30  O   UNL     1      -5.703   7.677  69.749  1.00  0.00    -0.023 OA 
HETATM   31  C   UNL     1      -7.799   8.187  68.815  1.00  0.00    -0.113 A  
HETATM   32  H   UNL     1      -5.272   8.134  69.037  1.00  0.00     0.000 HD 
ENDBRANCH  16  19
ENDBRANCH  15  16
ENDBRANCH  13  15
ENDBRANCH   6   9
ENDBRANCH   2   3
TORSDOF 5
ENDMDL
MODEL      156
REMARK 921   NORMALIZED FREE ENERGY PREDICTED BY IDOCK:   -4.97 KCAL/MOL
REMARK 922        TOTAL FREE ENERGY PREDICTED BY IDOCK:   -6.67 KCAL/MOL
REMARK 923 INTER-LIGAND FREE ENERGY PREDICTED BY IDOCK:   -7.01 KCAL/MOL
REMARK 924 INTRA-LIGAND FREE ENERGY PREDICTED BY IDOCK:    0.34 KCAL/MOL
REMARK 927      BINDING AFFINITY PREDICTED BY RF-SCORE:    0.00 PKD
ROOT
HETATM    1  C   UNL     1     -13.983  15.130  72.231  1.00  0.00    -0.530 C  
HETATM    2  O   UNL     1     -13.681  13.831  72.733  1.00  0.00    -0.699 OA 
ENDROOT
BRANCH   2   3
HETATM    3  C   UNL     1     -13.158  12.942  71.829  1.00  0.00    -0.360 A  
HETATM    4  C   UNL     1     -13.210  11.556  71.943  1.00  0.00    -0.479 A  
HETATM    5  C   UNL     1     -12.621  10.749  70.969  1.00  0.00    -0.520 A  
HETATM    6  C   UNL     1     -11.982  11.308  69.852  1.00  0.00    -0.440 A  
HETATM    7  C   UNL     1     -12.535  13.510  70.716  1.00  0.00    -0.428 A  
HETATM    8  C   UNL     1     -11.951  12.703  69.735  1.00  0.00    -0.365 A  
BRANCH   6   9
HETATM    9  C   UNL     1     -11.337  10.402  68.815  1.00  0.00    -0.275 C  
HETATM   10  C   UNL     1      -9.774  10.282  68.835  1.00  0.00    -0.189 C  
HETATM   11  C   UNL     1      -9.336   9.550  70.118  1.00  0.00    -0.286 C  
HETATM   12  C   UNL     1      -9.109  11.670  68.745  1.00  0.00    -0.029 C  
HETATM   13  N   UNL     1      -9.386   9.467  67.654  1.00  0.00    -0.128 NA 
HETATM   14  H   UNL     1      -9.761   9.886  66.803  1.00  0.00     0.000 HD 
BRANCH  13  15
HETATM   15  C   UNL     1      -7.936   9.216  67.496  1.00  0.00    -0.100 C  
BRANCH  15  16
HETATM   16  C   UNL     1      -7.614   7.945  66.674  1.00  0.00    -0.093 C  
HETATM   17  H   UNL     1      -7.733   7.382  64.786  1.00  0.00     0.000 HD 
HETATM   18  O   UNL     1      -7.931   8.161  65.291  1.00  0.00    -0.110 OA 
BRANCH  16  19
HETATM   19  C   UNL     1      -8.303   6.712  67.218  1.00  0.00    -0.120 A  
HETATM   20  C   UNL     1      -8.842   5.745  66.352  1.00  0.00    -0.131 A  
HETATM   21  O   UNL     1      -8.765   5.989  65.004  1.00  0.00    -0.091 OA 
HETATM   22  C   UNL     1      -8.960   4.833  64.198  1.00  0.00    -0.093 C  
HETATM   23  C   UNL     1     -10.027   3.846  64.652  1.00  0.00    -0.204 C  
HETATM   24  O   UNL     1     -10.687   3.151  63.885  1.00  0.00    -0.218 OA 
HETATM   25  N   UNL     1     -10.123   3.715  66.012  1.00  0.00    -0.404 N  
HETATM   26  H   UNL     1     -10.671   2.948  66.403  1.00  0.00     0.000 HD 
HETATM   27  C   UNL     1      -9.485   4.612  66.875  1.00  0.00    -0.163 A  
HETATM   28  C   UNL     1      -9.546   4.398  68.250  1.00  0.00    -0.199 A  
HETATM   29  C   UNL     1      -8.974   5.334  69.102  1.00  0.00    -0.103 A  
HETATM   30  O   UNL     1      -8.989   5.179  70.455  1.00  0.00    -0.128 OA 
HETATM   31  C   UNL     1      -8.366   6.481  68.600  1.00  0.00    -0.122 A  
HETATM   32  H   UNL     1      -8.598   5.819  71.038  1.00  0.00     0.000 HD 
ENDBRANCH  16  19
ENDBRANCH  15  16
ENDBRANCH  13  15
ENDBRANCH   6   9
ENDBRANCH   2   3
TORSDOF 5
ENDMDL
MODEL      157
REMARK 921   NORMALIZED FREE ENERGY PREDICTED BY IDOCK:   -4.94 KCAL/MOL
REMARK 922        TOTAL FREE ENERGY PREDICTED BY IDOCK:   -6.63 KCAL/MOL
REMARK 923 INTER-LIGAND FREE ENERGY PREDICTED BY IDOCK:   -5.95 KCAL/MOL
REMARK 924 INTRA-LIGAND FREE ENERGY PREDICTED BY IDOCK:   -0.67 KCAL/MOL
REMARK 927      BINDING AFFINITY PREDICTED BY RF-SCORE:    0.00 PKD
ROOT
HETATM    1  C   UNL     1      -9.368  17.765  66.572  1.00  0.00    -0.279 C  
HETATM    2  O   UNL     1     -10.416  17.218  65.776  1.00  0.00    -0.502 OA 
ENDROOT
BRANCH   2   3
HETATM    3  C   UNL     1     -10.447  15.850  65.678  1.00  0.00    -0.392 A  
HETATM    4  C   UNL     1     -11.334  15.121  64.892  1.00  0.00    -0.402 A  
HETATM    5  C   UNL     1     -11.285  13.726  64.889  1.00  0.00    -0.352 A  
HETATM    6  C   UNL     1     -10.338  13.031  65.656  1.00  0.00    -0.294 A  
HETATM    7  C   UNL     1      -9.492  15.170  66.436  1.00  0.00    -0.325 A  
HETATM    8  C   UNL     1      -9.436  13.772  66.428  1.00  0.00    -0.259 A  
BRANCH   6   9
HETATM    9  C   UNL     1     -10.320  11.510  65.642  1.00  0.00    -0.308 C  
HETATM   10  C   UNL     1      -9.022  10.810  65.107  1.00  0.00    -0.198 C  
HETATM   11  C   UNL     1      -7.863  11.068  66.089  1.00  0.00    -0.117 C  
HETATM   12  C   UNL     1      -8.662  11.312  63.695  1.00  0.00     0.218 C  
HETATM   13  N   UNL     1      -9.303   9.351  65.061  1.00  0.00    -0.410 NA 
HETATM   14  H   UNL     1     -10.135   9.175  64.497  1.00  0.00     0.000 HD 
BRANCH  13  15
HETATM   15  C   UNL     1      -8.188   8.498  64.596  1.00  0.00    -0.160 C  
BRANCH  15  16
HETATM   16  C   UNL     1      -7.632   7.555  65.691  1.00  0.00    -0.091 C  
HETATM   17  H   UNL     1      -6.274   6.128  65.809  1.00  0.00     0.000 HD 
HETATM   18  O   UNL     1      -6.616   6.706  65.138  1.00  0.00    -0.044 OA 
BRANCH  16  19
HETATM   19  C   UNL     1      -8.720   6.752  66.371  1.00  0.00    -0.142 A  
HETATM   20  C   UNL     1      -9.026   6.955  67.728  1.00  0.00    -0.117 A  
HETATM   21  O   UNL     1      -8.266   7.866  68.419  1.00  0.00    -0.121 OA 
HETATM   22  C   UNL     1      -8.859   8.304  69.635  1.00  0.00    -0.139 C  
HETATM   23  C   UNL     1      -9.588   7.255  70.465  1.00  0.00    -0.168 C  
HETATM   24  O   UNL     1      -9.667   7.286  71.690  1.00  0.00    -0.156 OA 
HETATM   25  N   UNL     1     -10.250   6.316  69.721  1.00  0.00    -0.177 N  
HETATM   26  H   UNL     1     -10.914   5.691  70.179  1.00  0.00     0.000 HD 
HETATM   27  C   UNL     1     -10.032   6.195  68.345  1.00  0.00    -0.140 A  
HETATM   28  C   UNL     1     -10.782   5.277  67.612  1.00  0.00    -0.038 A  
HETATM   29  C   UNL     1     -10.507   5.110  66.261  1.00  0.00    -0.289 A  
HETATM   30  O   UNL     1     -11.209   4.238  65.485  1.00  0.00    -0.619 OA 
HETATM   31  C   UNL     1      -9.486   5.829  65.644  1.00  0.00     0.067 A  
HETATM   32  H   UNL     1     -11.022   4.124  64.561  1.00  0.00     0.000 HD 
ENDBRANCH  16  19
ENDBRANCH  15  16
ENDBRANCH  13  15
ENDBRANCH   6   9
ENDBRANCH   2   3
TORSDOF 5
ENDMDL
MODEL      158
REMARK 921   NORMALIZED FREE ENERGY PREDICTED BY IDOCK:   -4.93 KCAL/MOL
REMARK 922        TOTAL FREE ENERGY PREDICTED BY IDOCK:   -6.61 KCAL/MOL
REMARK 923 INTER-LIGAND FREE ENERGY PREDICTED BY IDOCK:   -7.24 KCAL/MOL
REMARK 924 INTRA-LIGAND FREE ENERGY PREDICTED BY IDOCK:    0.62 KCAL/MOL
REMARK 927      BINDING AFFINITY PREDICTED BY RF-SCORE:    0.00 PKD
ROOT
HETATM    1  C   UNL     1      -6.638  21.141  66.966  1.00  0.00    -0.335 C  
HETATM    2  O   UNL     1      -7.414  20.346  67.858  1.00  0.00    -0.284 OA 
ENDROOT
BRANCH   2   3
HETATM    3  C   UNL     1      -8.076  19.283  67.298  1.00  0.00    -0.265 A  
HETATM    4  C   UNL     1      -9.426  19.263  66.963  1.00  0.00    -0.385 A  
HETATM    5  C   UNL     1      -9.997  18.113  66.418  1.00  0.00    -0.376 A  
HETATM    6  C   UNL     1      -9.228  16.964  66.177  1.00  0.00    -0.270 A  
HETATM    7  C   UNL     1      -7.297  18.150  67.052  1.00  0.00    -0.226 A  
HETATM    8  C   UNL     1      -7.866  16.999  66.498  1.00  0.00    -0.331 A  
BRANCH   6   9
HETATM    9  C   UNL     1      -9.883  15.722  65.594  1.00  0.00    -0.357 C  
HETATM   10  C   UNL     1     -10.030  14.475  66.535  1.00  0.00    -0.280 C  
HETATM   11  C   UNL     1     -11.044  14.796  67.650  1.00  0.00    -0.311 C  
HETATM   12  C   UNL     1      -8.669  14.069  67.134  1.00  0.00    -0.234 C  
HETATM   13  N   UNL     1     -10.559  13.363  65.702  1.00  0.00    -0.277 NA 
HETATM   14  H   UNL     1      -9.950  13.210  64.898  1.00  0.00     0.000 HD 
BRANCH  13  15
HETATM   15  C   UNL     1     -10.790  12.086  66.411  1.00  0.00    -0.278 C  
BRANCH  15  16
HETATM   16  C   UNL     1      -9.679  11.035  66.173  1.00  0.00    -0.217 C  
HETATM   17  H   UNL     1      -9.444   9.409  65.080  1.00  0.00     0.000 HD 
HETATM   18  O   UNL     1     -10.126  10.053  65.227  1.00  0.00    -0.321 OA 
BRANCH  16  19
HETATM   19  C   UNL     1      -9.201  10.394  67.458  1.00  0.00    -0.156 A  
HETATM   20  C   UNL     1      -9.611   9.098  67.815  1.00  0.00    -0.146 A  
HETATM   21  O   UNL     1     -10.499   8.464  66.982  1.00  0.00    -0.307 OA 
HETATM   22  C   UNL     1     -10.564   7.056  67.177  1.00  0.00    -0.341 C  
HETATM   23  C   UNL     1     -10.498   6.553  68.612  1.00  0.00    -0.218 C  
HETATM   24  O   UNL     1     -11.055   5.532  69.006  1.00  0.00    -0.115 OA 
HETATM   25  N   UNL     1      -9.670   7.284  69.422  1.00  0.00    -0.161 N  
HETATM   26  H   UNL     1      -9.416   6.917  70.340  1.00  0.00     0.000 HD 
HETATM   27  C   UNL     1      -9.165   8.523  69.015  1.00  0.00    -0.146 A  
HETATM   28  C   UNL     1      -8.265   9.198  69.838  1.00  0.00    -0.137 A  
HETATM   29  C   UNL     1      -7.827  10.461  69.461  1.00  0.00    -0.155 A  
HETATM   30  O   UNL     1      -6.940  11.170  70.213  1.00  0.00    -0.473 OA 
HETATM   31  C   UNL     1      -8.290  11.060  68.292  1.00  0.00    -0.133 A  
HETATM   32  H   UNL     1      -6.640  12.033  69.956  1.00  0.00     0.000 HD 
ENDBRANCH  16  19
ENDBRANCH  15  16
ENDBRANCH  13  15
ENDBRANCH   6   9
ENDBRANCH   2   3
TORSDOF 5
ENDMDL
MODEL      159
REMARK 921   NORMALIZED FREE ENERGY PREDICTED BY IDOCK:   -4.93 KCAL/MOL
REMARK 922        TOTAL FREE ENERGY PREDICTED BY IDOCK:   -6.61 KCAL/MOL
REMARK 923 INTER-LIGAND FREE ENERGY PREDICTED BY IDOCK:   -6.05 KCAL/MOL
REMARK 924 INTRA-LIGAND FREE ENERGY PREDICTED BY IDOCK:   -0.56 KCAL/MOL
REMARK 927      BINDING AFFINITY PREDICTED BY RF-SCORE:    0.00 PKD
ROOT
HETATM    1  C   UNL     1     -10.727  17.018  68.161  1.00  0.00    -0.374 C  
HETATM    2  O   UNL     1     -10.797  16.143  67.039  1.00  0.00    -0.292 OA 
ENDROOT
BRANCH   2   3
HETATM    3  C   UNL     1     -11.038  14.822  67.318  1.00  0.00    -0.332 A  
HETATM    4  C   UNL     1     -11.440  13.865  66.392  1.00  0.00    -0.354 A  
HETATM    5  C   UNL     1     -11.678  12.551  66.798  1.00  0.00    -0.453 A  
HETATM    6  C   UNL     1     -11.502  12.161  68.134  1.00  0.00    -0.375 A  
HETATM    7  C   UNL     1     -10.848  14.444  68.649  1.00  0.00    -0.260 A  
HETATM    8  C   UNL     1     -11.079  13.125  69.057  1.00  0.00    -0.282 A  
BRANCH   6   9
HETATM    9  C   UNL     1     -11.783  10.725  68.548  1.00  0.00    -0.259 C  
HETATM   10  C   UNL     1     -10.599   9.701  68.446  1.00  0.00    -0.225 C  
HETATM   11  C   UNL     1      -9.524  10.060  69.489  1.00  0.00    -0.245 C  
HETATM   12  C   UNL     1      -9.999   9.687  67.025  1.00  0.00    -0.263 C  
HETATM   13  N   UNL     1     -11.157   8.360  68.764  1.00  0.00    -0.379 NA 
HETATM   14  H   UNL     1     -11.942   8.154  68.146  1.00  0.00     0.000 HD 
BRANCH  13  15
HETATM   15  C   UNL     1     -10.189   7.242  68.741  1.00  0.00    -0.182 C  
BRANCH  15  16
HETATM   16  C   UNL     1     -10.672   5.989  69.510  1.00  0.00    -0.335 C  
HETATM   17  H   UNL     1     -12.186   5.514  70.684  1.00  0.00     0.000 HD 
HETATM   18  O   UNL     1     -11.889   6.283  70.213  1.00  0.00    -0.344 OA 
BRANCH  16  19
HETATM   19  C   UNL     1      -9.613   5.434  70.438  1.00  0.00    -0.233 A  
HETATM   20  C   UNL     1      -8.649   4.525  69.972  1.00  0.00    -0.076 A  
HETATM   21  O   UNL     1      -8.740   4.122  68.663  1.00  0.00    -0.091 OA 
HETATM   22  C   UNL     1      -7.546   3.534  68.159  1.00  0.00    -0.061 C  
HETATM   23  C   UNL     1      -6.774   2.620  69.101  1.00  0.00    -0.033 C  
HETATM   24  O   UNL     1      -6.105   1.661  68.728  1.00  0.00    -0.023 OA 
HETATM   25  N   UNL     1      -6.798   3.020  70.410  1.00  0.00    -0.033 N  
HETATM   26  H   UNL     1      -6.162   2.584  71.079  1.00  0.00     0.000 HD 
HETATM   27  C   UNL     1      -7.679   4.014  70.849  1.00  0.00    -0.051 A  
HETATM   28  C   UNL     1      -7.619   4.444  72.174  1.00  0.00    -0.080 A  
HETATM   29  C   UNL     1      -8.546   5.377  72.620  1.00  0.00    -0.120 A  
HETATM   30  O   UNL     1      -8.536   5.847  73.898  1.00  0.00    -0.117 OA 
HETATM   31  C   UNL     1      -9.537   5.864  71.772  1.00  0.00    -0.171 A  
HETATM   32  H   UNL     1      -9.170   6.485  74.204  1.00  0.00     0.000 HD 
ENDBRANCH  16  19
ENDBRANCH  15  16
ENDBRANCH  13  15
ENDBRANCH   6   9
ENDBRANCH   2   3
TORSDOF 5
ENDMDL
MODEL      160
REMARK 921   NORMALIZED FREE ENERGY PREDICTED BY IDOCK:   -4.92 KCAL/MOL
REMARK 922        TOTAL FREE ENERGY PREDICTED BY IDOCK:   -6.60 KCAL/MOL
REMARK 923 INTER-LIGAND FREE ENERGY PREDICTED BY IDOCK:   -6.07 KCAL/MOL
REMARK 924 INTRA-LIGAND FREE ENERGY PREDICTED BY IDOCK:   -0.53 KCAL/MOL
REMARK 927      BINDING AFFINITY PREDICTED BY RF-SCORE:    0.00 PKD
ROOT
HETATM    1  C   UNL     1     -10.995  16.550  64.721  1.00  0.00    -0.177 C  
HETATM    2  O   UNL     1     -11.738  15.423  64.267  1.00  0.00    -0.362 OA 
ENDROOT
BRANCH   2   3
HETATM    3  C   UNL     1     -11.639  14.287  65.030  1.00  0.00    -0.367 A  
HETATM    4  C   UNL     1     -12.294  14.070  66.238  1.00  0.00    -0.482 A  
HETATM    5  C   UNL     1     -12.097  12.880  66.939  1.00  0.00    -0.313 A  
HETATM    6  C   UNL     1     -11.257  11.874  66.440  1.00  0.00    -0.387 A  
HETATM    7  C   UNL     1     -10.808  13.288  64.517  1.00  0.00    -0.409 A  
HETATM    8  C   UNL     1     -10.616  12.091  65.214  1.00  0.00    -0.328 A  
BRANCH   6   9
HETATM    9  C   UNL     1     -11.053  10.594  67.235  1.00  0.00    -0.313 C  
HETATM   10  C   UNL     1     -10.457  10.728  68.680  1.00  0.00    -0.192 C  
HETATM   11  C   UNL     1     -11.483  11.430  69.590  1.00  0.00    -0.380 C  
HETATM   12  C   UNL     1      -9.125  11.504  68.660  1.00  0.00    -0.124 C  
HETATM   13  N   UNL     1     -10.224   9.350  69.184  1.00  0.00    -0.194 NA 
HETATM   14  H   UNL     1      -9.628   8.837  68.533  1.00  0.00     0.000 HD 
BRANCH  13  15
HETATM   15  C   UNL     1      -9.675   9.253  70.554  1.00  0.00    -0.260 C  
BRANCH  15  16
HETATM   16  C   UNL     1      -8.303   8.540  70.622  1.00  0.00    -0.133 C  
HETATM   17  H   UNL     1      -6.475   8.989  71.216  1.00  0.00     0.000 HD 
HETATM   18  O   UNL     1      -7.317   9.426  71.174  1.00  0.00    -0.283 OA 
BRANCH  16  19
HETATM   19  C   UNL     1      -7.869   7.988  69.282  1.00  0.00    -0.114 A  
HETATM   20  C   UNL     1      -8.394   6.780  68.794  1.00  0.00    -0.121 A  
HETATM   21  O   UNL     1      -9.269   6.098  69.602  1.00  0.00    -0.141 OA 
HETATM   22  C   UNL     1     -10.045   5.123  68.916  1.00  0.00    -0.167 C  
HETATM   23  C   UNL     1      -9.339   4.311  67.839  1.00  0.00    -0.156 C  
HETATM   24  O   UNL     1      -9.630   3.152  67.554  1.00  0.00    -0.194 OA 
HETATM   25  N   UNL     1      -8.407   5.019  67.127  1.00  0.00    -0.107 N  
HETATM   26  H   UNL     1      -8.022   4.619  66.271  1.00  0.00     0.000 HD 
HETATM   27  C   UNL     1      -7.974   6.279  67.552  1.00  0.00    -0.109 A  
HETATM   28  C   UNL     1      -7.081   6.997  66.759  1.00  0.00    -0.082 A  
HETATM   29  C   UNL     1      -6.598   8.214  67.223  1.00  0.00    -0.058 A  
HETATM   30  O   UNL     1      -5.732   8.971  66.493  1.00  0.00    -0.048 OA 
HETATM   31  C   UNL     1      -6.976   8.705  68.470  1.00  0.00    -0.065 A  
HETATM   32  H   UNL     1      -5.402   9.803  66.811  1.00  0.00     0.000 HD 
ENDBRANCH  16  19
ENDBRANCH  15  16
ENDBRANCH  13  15
ENDBRANCH   6   9
ENDBRANCH   2   3
TORSDOF 5
ENDMDL
MODEL      161
REMARK 921   NORMALIZED FREE ENERGY PREDICTED BY IDOCK:   -4.91 KCAL/MOL
REMARK 922        TOTAL FREE ENERGY PREDICTED BY IDOCK:   -6.58 KCAL/MOL
REMARK 923 INTER-LIGAND FREE ENERGY PREDICTED BY IDOCK:   -6.91 KCAL/MOL
REMARK 924 INTRA-LIGAND FREE ENERGY PREDICTED BY IDOCK:    0.32 KCAL/MOL
REMARK 927      BINDING AFFINITY PREDICTED BY RF-SCORE:    0.00 PKD
ROOT
HETATM    1  C   UNL     1      -9.904  20.574  67.305  1.00  0.00    -0.441 C  
HETATM    2  O   UNL     1     -10.868  19.568  67.009  1.00  0.00    -0.487 OA 
ENDROOT
BRANCH   2   3
HETATM    3  C   UNL     1     -10.419  18.272  67.045  1.00  0.00    -0.385 A  
HETATM    4  C   UNL     1      -9.832  17.655  68.145  1.00  0.00    -0.318 A  
HETATM    5  C   UNL     1      -9.391  16.334  68.057  1.00  0.00    -0.214 A  
HETATM    6  C   UNL     1      -9.544  15.595  66.875  1.00  0.00    -0.244 A  
HETATM    7  C   UNL     1     -10.587  17.544  65.866  1.00  0.00    -0.203 A  
HETATM    8  C   UNL     1     -10.153  16.217  65.778  1.00  0.00    -0.390 A  
BRANCH   6   9
HETATM    9  C   UNL     1      -9.041  14.162  66.806  1.00  0.00    -0.266 C  
HETATM   10  C   UNL     1     -10.117  13.022  66.749  1.00  0.00    -0.247 C  
HETATM   11  C   UNL     1     -10.863  13.094  65.403  1.00  0.00    -0.299 C  
HETATM   12  C   UNL     1     -11.105  13.133  67.928  1.00  0.00    -0.288 C  
HETATM   13  N   UNL     1      -9.386  11.731  66.831  1.00  0.00    -0.187 NA 
HETATM   14  H   UNL     1      -8.804  11.713  67.669  1.00  0.00     0.000 HD 
BRANCH  13  15
HETATM   15  C   UNL     1     -10.227  10.514  66.775  1.00  0.00    -0.234 C  
BRANCH  15  16
HETATM   16  C   UNL     1      -9.450   9.211  67.080  1.00  0.00    -0.154 C  
HETATM   17  H   UNL     1      -9.549   7.315  66.540  1.00  0.00     0.000 HD 
HETATM   18  O   UNL     1     -10.026   8.115  66.354  1.00  0.00    -0.240 OA 
BRANCH  16  19
HETATM   19  C   UNL     1      -9.369   8.916  68.562  1.00  0.00    -0.141 A  
HETATM   20  C   UNL     1     -10.360   9.377  69.445  1.00  0.00    -0.212 A  
HETATM   21  O   UNL     1     -11.368  10.146  68.919  1.00  0.00    -0.204 OA 
HETATM   22  C   UNL     1     -12.513  10.245  69.757  1.00  0.00     0.100 C  
HETATM   23  C   UNL     1     -12.265  10.378  71.253  1.00  0.00    -0.389 C  
HETATM   24  O   UNL     1     -13.007  10.989  72.018  1.00  0.00    -0.452 OA 
HETATM   25  N   UNL     1     -11.188   9.664  71.706  1.00  0.00    -0.227 N  
HETATM   26  H   UNL     1     -11.056   9.540  72.710  1.00  0.00     0.000 HD 
HETATM   27  C   UNL     1     -10.265   9.102  70.818  1.00  0.00    -0.260 A  
HETATM   28  C   UNL     1      -9.225   8.320  71.317  1.00  0.00    -0.207 A  
HETATM   29  C   UNL     1      -8.271   7.828  70.436  1.00  0.00    -0.121 A  
HETATM   30  O   UNL     1      -7.237   7.048  70.857  1.00  0.00    -0.069 OA 
HETATM   31  C   UNL     1      -8.332   8.124  69.077  1.00  0.00    -0.128 A  
HETATM   32  H   UNL     1      -6.584   6.712  70.254  1.00  0.00     0.000 HD 
ENDBRANCH  16  19
ENDBRANCH  15  16
ENDBRANCH  13  15
ENDBRANCH   6   9
ENDBRANCH   2   3
TORSDOF 5
ENDMDL
MODEL      162
REMARK 921   NORMALIZED FREE ENERGY PREDICTED BY IDOCK:   -4.89 KCAL/MOL
REMARK 922        TOTAL FREE ENERGY PREDICTED BY IDOCK:   -6.56 KCAL/MOL
REMARK 923 INTER-LIGAND FREE ENERGY PREDICTED BY IDOCK:   -6.26 KCAL/MOL
REMARK 924 INTRA-LIGAND FREE ENERGY PREDICTED BY IDOCK:   -0.31 KCAL/MOL
REMARK 927      BINDING AFFINITY PREDICTED BY RF-SCORE:    0.00 PKD
ROOT
HETATM    1  C   UNL     1      -7.489  20.747  67.144  1.00  0.00    -0.312 C  
HETATM    2  O   UNL     1      -6.733  19.656  66.625  1.00  0.00    -0.190 OA 
ENDROOT
BRANCH   2   3
HETATM    3  C   UNL     1      -7.000  18.425  67.167  1.00  0.00    -0.198 A  
HETATM    4  C   UNL     1      -6.294  17.257  66.896  1.00  0.00    -0.225 A  
HETATM    5  C   UNL     1      -6.674  16.053  67.491  1.00  0.00    -0.205 A  
HETATM    6  C   UNL     1      -7.755  15.994  68.383  1.00  0.00    -0.147 A  
HETATM    7  C   UNL     1      -8.071  18.381  68.062  1.00  0.00    -0.288 A  
HETATM    8  C   UNL     1      -8.448  17.177  68.666  1.00  0.00    -0.258 A  
BRANCH   6   9
HETATM    9  C   UNL     1      -8.152  14.664  69.005  1.00  0.00    -0.115 C  
HETATM   10  C   UNL     1      -8.495  13.485  68.029  1.00  0.00    -0.176 C  
HETATM   11  C   UNL     1      -7.216  13.047  67.291  1.00  0.00    -0.060 C  
HETATM   12  C   UNL     1      -9.591  13.897  67.025  1.00  0.00    -0.254 C  
HETATM   13  N   UNL     1      -8.984  12.357  68.865  1.00  0.00    -0.364 NA 
HETATM   14  H   UNL     1      -9.768  12.665  69.440  1.00  0.00     0.000 HD 
BRANCH  13  15
HETATM   15  C   UNL     1      -9.348  11.126  68.130  1.00  0.00    -0.176 C  
BRANCH  15  16
HETATM   16  C   UNL     1     -10.818  10.690  68.344  1.00  0.00    -0.237 C  
HETATM   17  H   UNL     1     -12.478  11.508  69.027  1.00  0.00     0.000 HD 
HETATM   18  O   UNL     1     -11.576  11.776  68.896  1.00  0.00    -0.256 OA 
BRANCH  16  19
HETATM   19  C   UNL     1     -10.935   9.441  69.189  1.00  0.00    -0.114 A  
HETATM   20  C   UNL     1     -10.645   8.175  68.653  1.00  0.00    -0.109 A  
HETATM   21  O   UNL     1     -10.306   8.114  67.324  1.00  0.00    -0.249 OA 
HETATM   22  C   UNL     1      -9.659   6.903  66.951  1.00  0.00    -0.162 C  
HETATM   23  C   UNL     1     -10.180   5.618  67.581  1.00  0.00    -0.199 C  
HETATM   24  O   UNL     1     -10.153   4.523  67.025  1.00  0.00    -0.199 OA 
HETATM   25  N   UNL     1     -10.594   5.761  68.879  1.00  0.00    -0.261 N  
HETATM   26  H   UNL     1     -10.780   4.929  69.439  1.00  0.00     0.000 HD 
HETATM   27  C   UNL     1     -10.767   7.026  69.450  1.00  0.00    -0.238 A  
HETATM   28  C   UNL     1     -11.116   7.126  70.795  1.00  0.00    -0.296 A  
HETATM   29  C   UNL     1     -11.359   8.382  71.335  1.00  0.00    -0.264 A  
HETATM   30  O   UNL     1     -11.693   8.551  72.645  1.00  0.00    -0.363 OA 
HETATM   31  C   UNL     1     -11.278   9.528  70.547  1.00  0.00    -0.345 A  
HETATM   32  H   UNL     1     -11.859   9.410  73.014  1.00  0.00     0.000 HD 
ENDBRANCH  16  19
ENDBRANCH  15  16
ENDBRANCH  13  15
ENDBRANCH   6   9
ENDBRANCH   2   3
TORSDOF 5
ENDMDL
MODEL      163
REMARK 921   NORMALIZED FREE ENERGY PREDICTED BY IDOCK:   -4.89 KCAL/MOL
REMARK 922        TOTAL FREE ENERGY PREDICTED BY IDOCK:   -6.56 KCAL/MOL
REMARK 923 INTER-LIGAND FREE ENERGY PREDICTED BY IDOCK:   -6.54 KCAL/MOL
REMARK 924 INTRA-LIGAND FREE ENERGY PREDICTED BY IDOCK:   -0.02 KCAL/MOL
REMARK 927      BINDING AFFINITY PREDICTED BY RF-SCORE:    0.00 PKD
ROOT
HETATM    1  C   UNL     1     -10.331  20.114  68.917  1.00  0.00    -0.075 C  
HETATM    2  O   UNL     1      -9.564  19.977  67.724  1.00  0.00    -0.356 OA 
ENDROOT
BRANCH   2   3
HETATM    3  C   UNL     1      -9.761  18.823  67.010  1.00  0.00    -0.311 A  
HETATM    4  C   UNL     1     -10.620  18.686  65.924  1.00  0.00    -0.365 A  
HETATM    5  C   UNL     1     -10.755  17.451  65.288  1.00  0.00     0.029 A  
HETATM    6  C   UNL     1     -10.022  16.332  65.710  1.00  0.00    -0.353 A  
HETATM    7  C   UNL     1      -9.017  17.719  67.433  1.00  0.00    -0.240 A  
HETATM    8  C   UNL     1      -9.145  16.483  66.791  1.00  0.00    -0.262 A  
BRANCH   6   9
HETATM    9  C   UNL     1     -10.202  14.998  65.004  1.00  0.00    -0.349 C  
HETATM   10  C   UNL     1     -10.425  13.731  65.902  1.00  0.00    -0.297 C  
HETATM   11  C   UNL     1     -11.795  13.836  66.598  1.00  0.00    -0.445 C  
HETATM   12  C   UNL     1      -9.295  13.582  66.940  1.00  0.00    -0.255 C  
HETATM   13  N   UNL     1     -10.429  12.552  64.996  1.00  0.00    -0.290 NA 
HETATM   14  H   UNL     1      -9.567  12.530  64.450  1.00  0.00     0.000 HD 
BRANCH  13  15
HETATM   15  C   UNL     1     -10.646  11.243  65.650  1.00  0.00    -0.244 C  
BRANCH  15  16
HETATM   16  C   UNL     1      -9.334  10.502  66.003  1.00  0.00    -0.178 C  
HETATM   17  H   UNL     1      -7.864   9.628  65.018  1.00  0.00     0.000 HD 
HETATM   18  O   UNL     1      -8.669  10.082  64.802  1.00  0.00    -0.160 OA 
BRANCH  16  19
HETATM   19  C   UNL     1      -9.559   9.343  66.950  1.00  0.00    -0.217 A  
HETATM   20  C   UNL     1      -8.947   9.314  68.214  1.00  0.00    -0.129 A  
HETATM   21  O   UNL     1      -8.099  10.346  68.531  1.00  0.00    -0.106 OA 
HETATM   22  C   UNL     1      -7.832  10.464  69.923  1.00  0.00    -0.034 C  
HETATM   23  C   UNL     1      -7.650   9.169  70.704  1.00  0.00    -0.133 C  
HETATM   24  O   UNL     1      -6.923   9.059  71.687  1.00  0.00    -0.215 OA 
HETATM   25  N   UNL     1      -8.455   8.145  70.281  1.00  0.00    -0.124 N  
HETATM   26  H   UNL     1      -8.541   7.306  70.856  1.00  0.00     0.000 HD 
HETATM   27  C   UNL     1      -9.161   8.226  69.076  1.00  0.00    -0.147 A  
HETATM   28  C   UNL     1     -10.026   7.194  68.720  1.00  0.00    -0.163 A  
HETATM   29  C   UNL     1     -10.665   7.248  67.488  1.00  0.00    -0.256 A  
HETATM   30  O   UNL     1     -11.532   6.278  67.083  1.00  0.00    -0.652 OA 
HETATM   31  C   UNL     1     -10.434   8.301  66.606  1.00  0.00    -0.217 A  
HETATM   32  H   UNL     1     -11.969   6.314  66.241  1.00  0.00     0.000 HD 
ENDBRANCH  16  19
ENDBRANCH  15  16
ENDBRANCH  13  15
ENDBRANCH   6   9
ENDBRANCH   2   3
TORSDOF 5
ENDMDL
MODEL      164
REMARK 921   NORMALIZED FREE ENERGY PREDICTED BY IDOCK:   -4.88 KCAL/MOL
REMARK 922        TOTAL FREE ENERGY PREDICTED BY IDOCK:   -6.55 KCAL/MOL
REMARK 923 INTER-LIGAND FREE ENERGY PREDICTED BY IDOCK:   -6.03 KCAL/MOL
REMARK 924 INTRA-LIGAND FREE ENERGY PREDICTED BY IDOCK:   -0.52 KCAL/MOL
REMARK 927      BINDING AFFINITY PREDICTED BY RF-SCORE:    0.00 PKD
ROOT
HETATM    1  C   UNL     1     -12.986  15.908  72.760  1.00  0.00    -0.483 C  
HETATM    2  O   UNL     1     -12.542  16.021  71.410  1.00  0.00    -0.443 OA 
ENDROOT
BRANCH   2   3
HETATM    3  C   UNL     1     -12.369  14.842  70.732  1.00  0.00    -0.330 A  
HETATM    4  C   UNL     1     -11.878  14.725  69.435  1.00  0.00    -0.360 A  
HETATM    5  C   UNL     1     -11.767  13.469  68.837  1.00  0.00    -0.379 A  
HETATM    6  C   UNL     1     -12.127  12.302  69.527  1.00  0.00    -0.260 A  
HETATM    7  C   UNL     1     -12.720  13.686  71.433  1.00  0.00    -0.437 A  
HETATM    8  C   UNL     1     -12.602  12.426  70.838  1.00  0.00    -0.337 A  
BRANCH   6   9
HETATM    9  C   UNL     1     -12.007  10.949  68.843  1.00  0.00    -0.277 C  
HETATM   10  C   UNL     1     -11.028   9.903  69.481  1.00  0.00    -0.242 C  
HETATM   11  C   UNL     1     -11.586   9.449  70.843  1.00  0.00    -0.380 C  
HETATM   12  C   UNL     1      -9.612  10.492  69.640  1.00  0.00    -0.062 C  
HETATM   13  N   UNL     1     -10.981   8.735  68.562  1.00  0.00    -0.449 NA 
HETATM   14  H   UNL     1     -10.714   9.040  67.626  1.00  0.00     0.000 HD 
BRANCH  13  15
HETATM   15  C   UNL     1     -10.118   7.614  68.994  1.00  0.00    -0.198 C  
BRANCH  15  16
HETATM   16  C   UNL     1     -10.291   6.335  68.139  1.00  0.00    -0.195 C  
HETATM   17  H   UNL     1     -10.949   4.495  68.416  1.00  0.00     0.000 HD 
HETATM   18  O   UNL     1     -10.842   5.280  68.941  1.00  0.00    -0.081 OA 
BRANCH  16  19
HETATM   19  C   UNL     1      -9.005   5.910  67.465  1.00  0.00    -0.107 A  
HETATM   20  C   UNL     1      -8.460   6.660  66.409  1.00  0.00    -0.125 A  
HETATM   21  O   UNL     1      -9.167   7.756  65.981  1.00  0.00    -0.161 OA 
HETATM   22  C   UNL     1      -8.398   8.670  65.208  1.00  0.00    -0.168 C  
HETATM   23  C   UNL     1      -7.402   8.074  64.222  1.00  0.00    -0.095 C  
HETATM   24  O   UNL     1      -7.086   8.608  63.163  1.00  0.00    -0.090 OA 
HETATM   25  N   UNL     1      -6.798   6.928  64.664  1.00  0.00    -0.045 N  
HETATM   26  H   UNL     1      -5.988   6.563  64.161  1.00  0.00     0.000 HD 
HETATM   27  C   UNL     1      -7.270   6.246  65.790  1.00  0.00    -0.074 A  
HETATM   28  C   UNL     1      -6.580   5.126  66.250  1.00  0.00    -0.049 A  
HETATM   29  C   UNL     1      -7.097   4.411  67.323  1.00  0.00    -0.068 A  
HETATM   30  O   UNL     1      -6.468   3.315  67.828  1.00  0.00    -0.035 OA 
HETATM   31  C   UNL     1      -8.296   4.788  67.923  1.00  0.00    -0.103 A  
HETATM   32  H   UNL     1      -6.821   2.826  68.562  1.00  0.00     0.000 HD 
ENDBRANCH  16  19
ENDBRANCH  15  16
ENDBRANCH  13  15
ENDBRANCH   6   9
ENDBRANCH   2   3
TORSDOF 5
ENDMDL
MODEL      165
REMARK 921   NORMALIZED FREE ENERGY PREDICTED BY IDOCK:   -4.86 KCAL/MOL
REMARK 922        TOTAL FREE ENERGY PREDICTED BY IDOCK:   -6.53 KCAL/MOL
REMARK 923 INTER-LIGAND FREE ENERGY PREDICTED BY IDOCK:   -6.44 KCAL/MOL
REMARK 924 INTRA-LIGAND FREE ENERGY PREDICTED BY IDOCK:   -0.09 KCAL/MOL
REMARK 927      BINDING AFFINITY PREDICTED BY RF-SCORE:    0.00 PKD
ROOT
HETATM    1  C   UNL     1     -10.879  16.585  65.108  1.00  0.00    -0.233 C  
HETATM    2  O   UNL     1     -11.452  15.442  64.478  1.00  0.00    -0.394 OA 
ENDROOT
BRANCH   2   3
HETATM    3  C   UNL     1     -11.438  14.281  65.207  1.00  0.00    -0.344 A  
HETATM    4  C   UNL     1     -12.135  14.066  66.391  1.00  0.00    -0.483 A  
HETATM    5  C   UNL     1     -12.026  12.846  67.059  1.00  0.00    -0.390 A  
HETATM    6  C   UNL     1     -11.232  11.808  66.549  1.00  0.00    -0.380 A  
HETATM    7  C   UNL     1     -10.654  13.251  64.683  1.00  0.00    -0.421 A  
HETATM    8  C   UNL     1     -10.549  12.024  65.346  1.00  0.00    -0.319 A  
BRANCH   6   9
HETATM    9  C   UNL     1     -11.123  10.494  67.307  1.00  0.00    -0.284 C  
HETATM   10  C   UNL     1     -10.467  10.536  68.732  1.00  0.00    -0.196 C  
HETATM   11  C   UNL     1     -11.390  11.308  69.694  1.00  0.00    -0.359 C  
HETATM   12  C   UNL     1      -9.069  11.183  68.680  1.00  0.00    -0.166 C  
HETATM   13  N   UNL     1     -10.348   9.129  69.197  1.00  0.00    -0.208 NA 
HETATM   14  H   UNL     1      -9.827   8.580  68.513  1.00  0.00     0.000 HD 
BRANCH  13  15
HETATM   15  C   UNL     1      -9.764   8.947  70.544  1.00  0.00    -0.203 C  
BRANCH  15  16
HETATM   16  C   UNL     1      -8.564   7.968  70.570  1.00  0.00    -0.134 C  
HETATM   17  H   UNL     1      -6.801   7.827  69.695  1.00  0.00     0.000 HD 
HETATM   18  O   UNL     1      -7.537   8.427  69.678  1.00  0.00    -0.084 OA 
BRANCH  16  19
HETATM   19  C   UNL     1      -8.972   6.543  70.266  1.00  0.00    -0.155 A  
HETATM   20  C   UNL     1      -8.943   6.048  68.951  1.00  0.00    -0.123 A  
HETATM   21  O   UNL     1      -8.585   6.922  67.954  1.00  0.00    -0.122 OA 
HETATM   22  C   UNL     1      -8.201   6.284  66.742  1.00  0.00    -0.110 C  
HETATM   23  C   UNL     1      -9.004   5.061  66.320  1.00  0.00    -0.127 C  
HETATM   24  O   UNL     1      -9.194   4.737  65.151  1.00  0.00    -0.154 OA 
HETATM   25  N   UNL     1      -9.417   4.277  67.364  1.00  0.00    -0.167 N  
HETATM   26  H   UNL     1      -9.793   3.348  67.174  1.00  0.00     0.000 HD 
HETATM   27  C   UNL     1      -9.332   4.726  68.686  1.00  0.00    -0.137 A  
HETATM   28  C   UNL     1      -9.693   3.868  69.724  1.00  0.00    -0.227 A  
HETATM   29  C   UNL     1      -9.678   4.347  71.028  1.00  0.00    -0.190 A  
HETATM   30  O   UNL     1     -10.008   3.558  72.088  1.00  0.00    -0.160 OA 
HETATM   31  C   UNL     1      -9.331   5.667  71.302  1.00  0.00    -0.171 A  
HETATM   32  H   UNL     1      -9.998   3.885  72.980  1.00  0.00     0.000 HD 
ENDBRANCH  16  19
ENDBRANCH  15  16
ENDBRANCH  13  15
ENDBRANCH   6   9
ENDBRANCH   2   3
TORSDOF 5
ENDMDL
MODEL      166
REMARK 921   NORMALIZED FREE ENERGY PREDICTED BY IDOCK:   -4.84 KCAL/MOL
REMARK 922        TOTAL FREE ENERGY PREDICTED BY IDOCK:   -6.50 KCAL/MOL
REMARK 923 INTER-LIGAND FREE ENERGY PREDICTED BY IDOCK:   -5.72 KCAL/MOL
REMARK 924 INTRA-LIGAND FREE ENERGY PREDICTED BY IDOCK:   -0.79 KCAL/MOL
REMARK 927      BINDING AFFINITY PREDICTED BY RF-SCORE:    0.00 PKD
ROOT
HETATM    1  C   UNL     1     -12.327  14.559  64.578  1.00  0.00    -0.414 C  
HETATM    2  O   UNL     1     -12.661  13.728  65.686  1.00  0.00    -0.509 OA 
ENDROOT
BRANCH   2   3
HETATM    3  C   UNL     1     -11.702  12.830  66.077  1.00  0.00    -0.418 A  
HETATM    4  C   UNL     1     -10.682  12.340  65.268  1.00  0.00    -0.329 A  
HETATM    5  C   UNL     1      -9.774  11.407  65.771  1.00  0.00    -0.263 A  
HETATM    6  C   UNL     1      -9.854  10.958  67.097  1.00  0.00    -0.213 A  
HETATM    7  C   UNL     1     -11.785  12.399  67.403  1.00  0.00    -0.417 A  
HETATM    8  C   UNL     1     -10.871  11.470  67.911  1.00  0.00    -0.257 A  
BRANCH   6   9
HETATM    9  C   UNL     1      -8.857   9.931  67.612  1.00  0.00    -0.126 C  
HETATM   10  C   UNL     1      -9.076   8.437  67.187  1.00  0.00    -0.138 C  
HETATM   11  C   UNL     1      -8.827   8.297  65.673  1.00  0.00    -0.172 C  
HETATM   12  C   UNL     1     -10.496   7.960  67.553  1.00  0.00    -0.332 C  
HETATM   13  N   UNL     1      -8.072   7.625  67.923  1.00  0.00    -0.121 NA 
HETATM   14  H   UNL     1      -8.158   7.791  68.926  1.00  0.00     0.000 HD 
BRANCH  13  15
HETATM   15  C   UNL     1      -8.098   6.172  67.647  1.00  0.00    -0.113 C  
BRANCH  15  16
HETATM   16  C   UNL     1      -7.278   5.335  68.659  1.00  0.00    -0.062 C  
HETATM   17  H   UNL     1      -6.301   3.620  68.654  1.00  0.00     0.000 HD 
HETATM   18  O   UNL     1      -6.804   4.133  68.033  1.00  0.00    -0.046 OA 
BRANCH  16  19
HETATM   19  C   UNL     1      -8.051   5.037  69.925  1.00  0.00    -0.074 A  
HETATM   20  C   UNL     1      -8.217   6.017  70.919  1.00  0.00    -0.125 A  
HETATM   21  O   UNL     1      -7.606   7.230  70.718  1.00  0.00    -0.082 OA 
HETATM   22  C   UNL     1      -8.121   8.275  71.535  1.00  0.00    -0.130 C  
HETATM   23  C   UNL     1      -8.472   7.918  72.974  1.00  0.00    -0.178 C  
HETATM   24  O   UNL     1      -8.396   8.706  73.912  1.00  0.00    -0.349 OA 
HETATM   25  N   UNL     1      -8.989   6.659  73.126  1.00  0.00    -0.127 N  
HETATM   26  H   UNL     1      -9.425   6.400  74.011  1.00  0.00     0.000 HD 
HETATM   27  C   UNL     1      -8.930   5.720  72.091  1.00  0.00    -0.136 A  
HETATM   28  C   UNL     1      -9.534   4.476  72.261  1.00  0.00    -0.179 A  
HETATM   29  C   UNL     1      -9.407   3.524  71.258  1.00  0.00    -0.139 A  
HETATM   30  O   UNL     1      -9.982   2.293  71.356  1.00  0.00    -0.145 OA 
HETATM   31  C   UNL     1      -8.670   3.791  70.107  1.00  0.00    -0.119 A  
HETATM   32  H   UNL     1      -9.895   1.642  70.670  1.00  0.00     0.000 HD 
ENDBRANCH  16  19
ENDBRANCH  15  16
ENDBRANCH  13  15
ENDBRANCH   6   9
ENDBRANCH   2   3
TORSDOF 5
ENDMDL
MODEL      167
REMARK 921   NORMALIZED FREE ENERGY PREDICTED BY IDOCK:   -4.83 KCAL/MOL
REMARK 922        TOTAL FREE ENERGY PREDICTED BY IDOCK:   -6.49 KCAL/MOL
REMARK 923 INTER-LIGAND FREE ENERGY PREDICTED BY IDOCK:   -6.53 KCAL/MOL
REMARK 924 INTRA-LIGAND FREE ENERGY PREDICTED BY IDOCK:    0.04 KCAL/MOL
REMARK 927      BINDING AFFINITY PREDICTED BY RF-SCORE:    0.00 PKD
ROOT
HETATM    1  C   UNL     1      -5.641   4.580  63.380  1.00  0.00    -0.013 C  
HETATM    2  O   UNL     1      -6.733   4.128  64.176  1.00  0.00    -0.042 OA 
ENDROOT
BRANCH   2   3
HETATM    3  C   UNL     1      -7.165   4.987  65.153  1.00  0.00    -0.067 A  
HETATM    4  C   UNL     1      -7.135   6.376  65.073  1.00  0.00    -0.060 A  
HETATM    5  C   UNL     1      -7.581   7.151  66.145  1.00  0.00    -0.092 A  
HETATM    6  C   UNL     1      -8.085   6.555  67.311  1.00  0.00    -0.113 A  
HETATM    7  C   UNL     1      -7.674   4.383  66.305  1.00  0.00    -0.094 A  
HETATM    8  C   UNL     1      -8.130   5.158  67.376  1.00  0.00    -0.100 A  
BRANCH   6   9
HETATM    9  C   UNL     1      -8.551   7.427  68.466  1.00  0.00    -0.128 C  
HETATM   10  C   UNL     1     -10.073   7.806  68.515  1.00  0.00    -0.199 C  
HETATM   11  C   UNL     1     -10.903   6.540  68.801  1.00  0.00    -0.357 C  
HETATM   12  C   UNL     1     -10.522   8.467  67.197  1.00  0.00    -0.370 C  
HETATM   13  N   UNL     1     -10.246   8.764  69.638  1.00  0.00    -0.204 NA 
HETATM   14  H   UNL     1      -9.621   9.561  69.515  1.00  0.00     0.000 HD 
BRANCH  13  15
HETATM   15  C   UNL     1     -11.628   9.237  69.870  1.00  0.00     0.107 C  
BRANCH  15  16
HETATM   16  C   UNL     1     -11.809   9.986  71.212  1.00  0.00    -0.385 C  
HETATM   17  H   UNL     1     -12.866   9.751  72.862  1.00  0.00     0.000 HD 
HETATM   18  O   UNL     1     -12.755   9.291  72.038  1.00  0.00    -0.359 OA 
BRANCH  16  19
HETATM   19  C   UNL     1     -12.198  11.436  71.019  1.00  0.00    -0.391 A  
HETATM   20  C   UNL     1     -11.769  12.155  69.890  1.00  0.00    -0.287 A  
HETATM   21  O   UNL     1     -10.945  11.507  69.003  1.00  0.00    -0.214 OA 
HETATM   22  C   UNL     1     -10.872  12.130  67.726  1.00  0.00    -0.224 C  
HETATM   23  C   UNL     1     -10.838  13.652  67.701  1.00  0.00    -0.256 C  
HETATM   24  O   UNL     1     -10.259  14.309  66.840  1.00  0.00    -0.260 OA 
HETATM   25  N   UNL     1     -11.604  14.244  68.669  1.00  0.00    -0.298 N  
HETATM   26  H   UNL     1     -11.794  15.245  68.616  1.00  0.00     0.000 HD 
HETATM   27  C   UNL     1     -12.132  13.501  69.731  1.00  0.00    -0.318 A  
HETATM   28  C   UNL     1     -12.968  14.127  70.654  1.00  0.00    -0.290 A  
HETATM   29  C   UNL     1     -13.427  13.402  71.746  1.00  0.00    -0.370 A  
HETATM   30  O   UNL     1     -14.256  13.950  72.677  1.00  0.00    -0.672 OA 
HETATM   31  C   UNL     1     -13.045  12.076  71.936  1.00  0.00    -0.475 A  
HETATM   32  H   UNL     1     -14.569  13.454  73.424  1.00  0.00     0.000 HD 
ENDBRANCH  16  19
ENDBRANCH  15  16
ENDBRANCH  13  15
ENDBRANCH   6   9
ENDBRANCH   2   3
TORSDOF 5
ENDMDL
MODEL      168
REMARK 921   NORMALIZED FREE ENERGY PREDICTED BY IDOCK:   -4.81 KCAL/MOL
REMARK 922        TOTAL FREE ENERGY PREDICTED BY IDOCK:   -6.46 KCAL/MOL
REMARK 923 INTER-LIGAND FREE ENERGY PREDICTED BY IDOCK:   -5.27 KCAL/MOL
REMARK 924 INTRA-LIGAND FREE ENERGY PREDICTED BY IDOCK:   -1.19 KCAL/MOL
REMARK 927      BINDING AFFINITY PREDICTED BY RF-SCORE:    0.00 PKD
ROOT
HETATM    1  C   UNL     1     -12.954  13.896  65.211  1.00  0.00    -0.297 C  
HETATM    2  O   UNL     1     -12.381  14.424  66.404  1.00  0.00    -0.409 OA 
ENDROOT
BRANCH   2   3
HETATM    3  C   UNL     1     -11.475  13.619  67.046  1.00  0.00    -0.343 A  
HETATM    4  C   UNL     1     -11.778  12.713  68.057  1.00  0.00    -0.402 A  
HETATM    5  C   UNL     1     -10.765  11.962  68.654  1.00  0.00    -0.266 A  
HETATM    6  C   UNL     1      -9.430  12.086  68.241  1.00  0.00    -0.199 A  
HETATM    7  C   UNL     1     -10.151  13.744  66.618  1.00  0.00    -0.277 A  
HETATM    8  C   UNL     1      -9.135  12.986  67.210  1.00  0.00    -0.209 A  
BRANCH   6   9
HETATM    9  C   UNL     1      -8.347  11.263  68.921  1.00  0.00    -0.074 C  
HETATM   10  C   UNL     1      -7.867   9.960  68.192  1.00  0.00    -0.085 C  
HETATM   11  C   UNL     1      -7.120  10.346  66.901  1.00  0.00    -0.094 C  
HETATM   12  C   UNL     1      -9.056   9.031  67.878  1.00  0.00    -0.141 C  
HETATM   13  N   UNL     1      -6.924   9.271  69.111  1.00  0.00    -0.057 NA 
HETATM   14  H   UNL     1      -7.375   9.103  70.011  1.00  0.00     0.000 HD 
BRANCH  13  15
HETATM   15  C   UNL     1      -6.335   8.013  68.600  1.00  0.00    -0.052 C  
BRANCH  15  16
HETATM   16  C   UNL     1      -6.357   6.857  69.628  1.00  0.00    -0.039 C  
HETATM   17  H   UNL     1      -5.337   5.199  69.953  1.00  0.00     0.000 HD 
HETATM   18  O   UNL     1      -5.324   5.908  69.322  1.00  0.00    -0.004 OA 
BRANCH  16  19
HETATM   19  C   UNL     1      -7.713   6.192  69.725  1.00  0.00    -0.097 A  
HETATM   20  C   UNL     1      -8.732   6.742  70.521  1.00  0.00    -0.147 A  
HETATM   21  O   UNL     1      -8.430   7.868  71.246  1.00  0.00    -0.111 OA 
HETATM   22  C   UNL     1      -9.574   8.580  71.703  1.00  0.00    -0.249 C  
HETATM   23  C   UNL     1     -10.755   7.752  72.192  1.00  0.00    -0.248 C  
HETATM   24  O   UNL     1     -11.531   8.119  73.069  1.00  0.00    -0.328 OA 
HETATM   25  N   UNL     1     -10.949   6.591  71.492  1.00  0.00    -0.246 N  
HETATM   26  H   UNL     1     -11.816   6.069  71.619  1.00  0.00     0.000 HD 
HETATM   27  C   UNL     1      -9.981   6.107  70.605  1.00  0.00    -0.188 A  
HETATM   28  C   UNL     1     -10.251   4.963  69.857  1.00  0.00    -0.299 A  
HETATM   29  C   UNL     1      -9.257   4.447  69.036  1.00  0.00    -0.140 A  
HETATM   30  O   UNL     1      -9.459   3.338  68.270  1.00  0.00    -0.188 OA 
HETATM   31  C   UNL     1      -8.000   5.044  68.971  1.00  0.00    -0.080 A  
HETATM   32  H   UNL     1      -8.779   2.985  67.709  1.00  0.00     0.000 HD 
ENDBRANCH  16  19
ENDBRANCH  15  16
ENDBRANCH  13  15
ENDBRANCH   6   9
ENDBRANCH   2   3
TORSDOF 5
ENDMDL
MODEL      169
REMARK 921   NORMALIZED FREE ENERGY PREDICTED BY IDOCK:   -4.81 KCAL/MOL
REMARK 922        TOTAL FREE ENERGY PREDICTED BY IDOCK:   -6.46 KCAL/MOL
REMARK 923 INTER-LIGAND FREE ENERGY PREDICTED BY IDOCK:   -5.93 KCAL/MOL
REMARK 924 INTRA-LIGAND FREE ENERGY PREDICTED BY IDOCK:   -0.53 KCAL/MOL
REMARK 927      BINDING AFFINITY PREDICTED BY RF-SCORE:    0.00 PKD
ROOT
HETATM    1  C   UNL     1      -7.800   3.465  63.344  1.00  0.00    -0.068 C  
HETATM    2  O   UNL     1      -8.422   4.538  62.642  1.00  0.00    -0.086 OA 
ENDROOT
BRANCH   2   3
HETATM    3  C   UNL     1      -8.198   5.796  63.142  1.00  0.00    -0.084 A  
HETATM    4  C   UNL     1      -7.894   6.920  62.381  1.00  0.00    -0.118 A  
HETATM    5  C   UNL     1      -7.663   8.148  63.004  1.00  0.00    -0.135 A  
HETATM    6  C   UNL     1      -7.748   8.282  64.397  1.00  0.00    -0.125 A  
HETATM    7  C   UNL     1      -8.297   5.919  64.529  1.00  0.00    -0.069 A  
HETATM    8  C   UNL     1      -8.074   7.150  65.155  1.00  0.00    -0.127 A  
BRANCH   6   9
HETATM    9  C   UNL     1      -7.478   9.630  65.047  1.00  0.00    -0.116 C  
HETATM   10  C   UNL     1      -8.715  10.434  65.580  1.00  0.00    -0.171 C  
HETATM   11  C   UNL     1      -9.325   9.691  66.784  1.00  0.00    -0.193 C  
HETATM   12  C   UNL     1      -9.766  10.634  64.471  1.00  0.00    -0.367 C  
HETATM   13  N   UNL     1      -8.210  11.757  66.032  1.00  0.00    -0.370 NA 
HETATM   14  H   UNL     1      -7.709  12.217  65.271  1.00  0.00     0.000 HD 
BRANCH  13  15
HETATM   15  C   UNL     1      -9.227  12.674  66.593  1.00  0.00    -0.218 C  
BRANCH  15  16
HETATM   16  C   UNL     1      -8.622  13.863  67.379  1.00  0.00    -0.200 C  
HETATM   17  H   UNL     1      -7.240  14.120  68.764  1.00  0.00     0.000 HD 
HETATM   18  O   UNL     1      -7.611  13.391  68.282  1.00  0.00    -0.116 OA 
BRANCH  16  19
HETATM   19  C   UNL     1      -9.675  14.678  68.098  1.00  0.00    -0.220 A  
HETATM   20  C   UNL     1      -9.743  16.072  67.938  1.00  0.00    -0.220 A  
HETATM   21  O   UNL     1      -8.787  16.666  67.152  1.00  0.00    -0.185 OA 
HETATM   22  C   UNL     1      -9.131  17.977  66.720  1.00  0.00    -0.273 C  
HETATM   23  C   UNL     1      -9.836  18.874  67.729  1.00  0.00    -0.337 C  
HETATM   24  O   UNL     1      -9.720  20.096  67.757  1.00  0.00    -0.372 OA 
HETATM   25  N   UNL     1     -10.708  18.211  68.551  1.00  0.00    -0.306 N  
HETATM   26  H   UNL     1     -11.360  18.746  69.125  1.00  0.00     0.000 HD 
HETATM   27  C   UNL     1     -10.721  16.814  68.619  1.00  0.00    -0.352 A  
HETATM   28  C   UNL     1     -11.674  16.177  69.412  1.00  0.00    -0.213 A  
HETATM   29  C   UNL     1     -11.633  14.794  69.532  1.00  0.00    -0.304 A  
HETATM   30  O   UNL     1     -12.541  14.109  70.281  1.00  0.00    -0.346 OA 
HETATM   31  C   UNL     1     -10.645  14.049  68.893  1.00  0.00    -0.241 A  
HETATM   32  H   UNL     1     -12.513  13.163  70.364  1.00  0.00     0.000 HD 
ENDBRANCH  16  19
ENDBRANCH  15  16
ENDBRANCH  13  15
ENDBRANCH   6   9
ENDBRANCH   2   3
TORSDOF 5
ENDMDL
MODEL      170
REMARK 921   NORMALIZED FREE ENERGY PREDICTED BY IDOCK:   -4.81 KCAL/MOL
REMARK 922        TOTAL FREE ENERGY PREDICTED BY IDOCK:   -6.46 KCAL/MOL
REMARK 923 INTER-LIGAND FREE ENERGY PREDICTED BY IDOCK:   -6.77 KCAL/MOL
REMARK 924 INTRA-LIGAND FREE ENERGY PREDICTED BY IDOCK:    0.31 KCAL/MOL
REMARK 927      BINDING AFFINITY PREDICTED BY RF-SCORE:    0.00 PKD
ROOT
HETATM    1  C   UNL     1      -7.839  18.860  66.273  1.00  0.00    -0.279 C  
HETATM    2  O   UNL     1      -9.235  18.838  65.987  1.00  0.00    -0.476 OA 
ENDROOT
BRANCH   2   3
HETATM    3  C   UNL     1      -9.926  17.743  66.438  1.00  0.00    -0.344 A  
HETATM    4  C   UNL     1     -10.346  17.542  67.748  1.00  0.00    -0.367 A  
HETATM    5  C   UNL     1     -11.026  16.373  68.096  1.00  0.00    -0.339 A  
HETATM    6  C   UNL     1     -11.316  15.390  67.139  1.00  0.00    -0.203 A  
HETATM    7  C   UNL     1     -10.220  16.777  65.473  1.00  0.00    -0.188 A  
HETATM    8  C   UNL     1     -10.908  15.609  65.818  1.00  0.00    -0.312 A  
BRANCH   6   9
HETATM    9  C   UNL     1     -12.046  14.122  67.552  1.00  0.00    -0.363 C  
HETATM   10  C   UNL     1     -11.175  12.923  68.065  1.00  0.00    -0.268 C  
HETATM   11  C   UNL     1     -10.536  13.299  69.416  1.00  0.00     0.190 C  
HETATM   12  C   UNL     1     -10.091  12.544  67.035  1.00  0.00    -0.222 C  
HETATM   13  N   UNL     1     -12.094  11.772  68.266  1.00  0.00    -0.506 NA 
HETATM   14  H   UNL     1     -12.604  11.579  67.403  1.00  0.00     0.000 HD 
BRANCH  13  15
HETATM   15  C   UNL     1     -11.467  10.531  68.771  1.00  0.00    -0.224 C  
BRANCH  15  16
HETATM   16  C   UNL     1     -12.107  10.001  70.077  1.00  0.00    -0.021 C  
HETATM   17  H   UNL     1     -12.612  10.739  71.836  1.00  0.00     0.000 HD 
HETATM   18  O   UNL     1     -12.219  11.064  71.035  1.00  0.00    -0.354 OA 
BRANCH  16  19
HETATM   19  C   UNL     1     -11.364   8.813  70.646  1.00  0.00    -0.289 A  
HETATM   20  C   UNL     1      -9.966   8.713  70.533  1.00  0.00    -0.189 A  
HETATM   21  O   UNL     1      -9.315   9.703  69.841  1.00  0.00    -0.199 OA 
HETATM   22  C   UNL     1      -7.916   9.756  70.093  1.00  0.00    -0.186 C  
HETATM   23  C   UNL     1      -7.187   8.426  70.225  1.00  0.00    -0.044 C  
HETATM   24  O   UNL     1      -6.015   8.253  69.904  1.00  0.00    -0.025 OA 
HETATM   25  N   UNL     1      -7.921   7.446  70.839  1.00  0.00    -0.096 N  
HETATM   26  H   UNL     1      -7.459   6.588  71.139  1.00  0.00     0.000 HD 
HETATM   27  C   UNL     1      -9.294   7.599  71.060  1.00  0.00    -0.152 A  
HETATM   28  C   UNL     1      -9.989   6.610  71.754  1.00  0.00    -0.188 A  
HETATM   29  C   UNL     1     -11.364   6.734  71.904  1.00  0.00    -0.271 A  
HETATM   30  O   UNL     1     -12.101   5.809  72.580  1.00  0.00    -0.518 OA 
HETATM   31  C   UNL     1     -12.050   7.814  71.354  1.00  0.00    -0.335 A  
HETATM   32  H   UNL     1     -13.041   5.894  72.683  1.00  0.00     0.000 HD 
ENDBRANCH  16  19
ENDBRANCH  15  16
ENDBRANCH  13  15
ENDBRANCH   6   9
ENDBRANCH   2   3
TORSDOF 5
ENDMDL
MODEL      171
REMARK 921   NORMALIZED FREE ENERGY PREDICTED BY IDOCK:   -4.80 KCAL/MOL
REMARK 922        TOTAL FREE ENERGY PREDICTED BY IDOCK:   -6.44 KCAL/MOL
REMARK 923 INTER-LIGAND FREE ENERGY PREDICTED BY IDOCK:   -6.07 KCAL/MOL
REMARK 924 INTRA-LIGAND FREE ENERGY PREDICTED BY IDOCK:   -0.37 KCAL/MOL
REMARK 927      BINDING AFFINITY PREDICTED BY RF-SCORE:    0.00 PKD
ROOT
HETATM    1  C   UNL     1      -6.904  19.369  69.263  1.00  0.00    -0.332 C  
HETATM    2  O   UNL     1      -8.169  19.579  68.643  1.00  0.00    -0.354 OA 
ENDROOT
BRANCH   2   3
HETATM    3  C   UNL     1      -8.752  18.477  68.072  1.00  0.00    -0.295 A  
HETATM    4  C   UNL     1     -10.088  18.113  68.208  1.00  0.00    -0.398 A  
HETATM    5  C   UNL     1     -10.565  16.952  67.597  1.00  0.00    -0.325 A  
HETATM    6  C   UNL     1      -9.723  16.142  66.821  1.00  0.00    -0.255 A  
HETATM    7  C   UNL     1      -7.907  17.684  67.292  1.00  0.00    -0.222 A  
HETATM    8  C   UNL     1      -8.385  16.526  66.672  1.00  0.00    -0.297 A  
BRANCH   6   9
HETATM    9  C   UNL     1     -10.270  14.877  66.179  1.00  0.00    -0.314 C  
HETATM   10  C   UNL     1     -10.394  13.603  67.086  1.00  0.00    -0.250 C  
HETATM   11  C   UNL     1     -11.485  13.839  68.148  1.00  0.00    -0.348 C  
HETATM   12  C   UNL     1      -9.047  13.264  67.753  1.00  0.00    -0.202 C  
HETATM   13  N   UNL     1     -10.810  12.481  66.204  1.00  0.00    -0.266 NA 
HETATM   14  H   UNL     1     -10.150  12.381  65.433  1.00  0.00     0.000 HD 
BRANCH  13  15
HETATM   15  C   UNL     1     -11.004  11.177  66.874  1.00  0.00    -0.273 C  
BRANCH  15  16
HETATM   16  C   UNL     1     -10.206  10.021  66.223  1.00  0.00    -0.215 C  
HETATM   17  H   UNL     1     -10.216   8.049  66.287  1.00  0.00     0.000 HD 
HETATM   18  O   UNL     1     -10.705   8.758  66.687  1.00  0.00    -0.171 OA 
BRANCH  16  19
HETATM   19  C   UNL     1      -8.715  10.148  66.449  1.00  0.00    -0.140 A  
HETATM   20  C   UNL     1      -8.145   9.854  67.699  1.00  0.00    -0.110 A  
HETATM   21  O   UNL     1      -8.998   9.502  68.716  1.00  0.00    -0.129 OA 
HETATM   22  C   UNL     1      -8.356   8.853  69.806  1.00  0.00    -0.125 C  
HETATM   23  C   UNL     1      -6.988   9.382  70.217  1.00  0.00    -0.087 C  
HETATM   24  O   UNL     1      -6.559   9.350  71.367  1.00  0.00    -0.224 OA 
HETATM   25  N   UNL     1      -6.217   9.808  69.168  1.00  0.00    -0.040 N  
HETATM   26  H   UNL     1      -5.226  10.000  69.321  1.00  0.00     0.000 HD 
HETATM   27  C   UNL     1      -6.761   9.985  67.892  1.00  0.00    -0.067 A  
HETATM   28  C   UNL     1      -5.926  10.347  66.837  1.00  0.00    -0.057 A  
HETATM   29  C   UNL     1      -6.486  10.594  65.590  1.00  0.00    -0.090 A  
HETATM   30  O   UNL     1      -5.725  10.940  64.515  1.00  0.00    -0.366 OA 
HETATM   31  C   UNL     1      -7.861  10.505  65.393  1.00  0.00    -0.119 A  
HETATM   32  H   UNL     1      -6.108  11.109  63.662  1.00  0.00     0.000 HD 
ENDBRANCH  16  19
ENDBRANCH  15  16
ENDBRANCH  13  15
ENDBRANCH   6   9
ENDBRANCH   2   3
TORSDOF 5
ENDMDL
MODEL      172
REMARK 921   NORMALIZED FREE ENERGY PREDICTED BY IDOCK:   -4.79 KCAL/MOL
REMARK 922        TOTAL FREE ENERGY PREDICTED BY IDOCK:   -6.43 KCAL/MOL
REMARK 923 INTER-LIGAND FREE ENERGY PREDICTED BY IDOCK:   -6.32 KCAL/MOL
REMARK 924 INTRA-LIGAND FREE ENERGY PREDICTED BY IDOCK:   -0.12 KCAL/MOL
REMARK 927      BINDING AFFINITY PREDICTED BY RF-SCORE:    0.00 PKD
ROOT
HETATM    1  C   UNL     1     -13.097  14.834  70.805  1.00  0.00    -0.336 C  
HETATM    2  O   UNL     1     -12.279  15.038  69.656  1.00  0.00    -0.300 OA 
ENDROOT
BRANCH   2   3
HETATM    3  C   UNL     1     -11.952  13.914  68.942  1.00  0.00    -0.358 A  
HETATM    4  C   UNL     1     -11.994  13.802  67.556  1.00  0.00    -0.411 A  
HETATM    5  C   UNL     1     -11.659  12.597  66.938  1.00  0.00    -0.438 A  
HETATM    6  C   UNL     1     -11.256  11.483  67.690  1.00  0.00    -0.343 A  
HETATM    7  C   UNL     1     -11.541  12.816  69.701  1.00  0.00    -0.322 A  
HETATM    8  C   UNL     1     -11.197  11.609  69.083  1.00  0.00    -0.325 A  
BRANCH   6   9
HETATM    9  C   UNL     1     -10.910  10.179  66.988  1.00  0.00    -0.221 C  
HETATM   10  C   UNL     1      -9.501  10.079  66.306  1.00  0.00    -0.191 C  
HETATM   11  C   UNL     1      -8.409  10.080  67.393  1.00  0.00    -0.118 C  
HETATM   12  C   UNL     1      -9.283  11.237  65.312  1.00  0.00    -0.191 C  
HETATM   13  N   UNL     1      -9.462   8.783  65.579  1.00  0.00    -0.452 NA 
HETATM   14  H   UNL     1     -10.246   8.726  64.928  1.00  0.00     0.000 HD 
BRANCH  13  15
HETATM   15  C   UNL     1      -8.197   8.482  64.873  1.00  0.00    -0.165 C  
BRANCH  15  16
HETATM   16  C   UNL     1      -7.411   7.300  65.489  1.00  0.00    -0.085 C  
HETATM   17  H   UNL     1      -6.022   6.029  64.896  1.00  0.00     0.000 HD 
HETATM   18  O   UNL     1      -6.504   6.755  64.519  1.00  0.00    -0.040 OA 
BRANCH  16  19
HETATM   19  C   UNL     1      -8.321   6.234  66.061  1.00  0.00    -0.138 A  
HETATM   20  C   UNL     1      -8.901   5.258  65.233  1.00  0.00    -0.143 A  
HETATM   21  O   UNL     1      -8.652   5.343  63.886  1.00  0.00    -0.111 OA 
HETATM   22  C   UNL     1      -8.926   4.142  63.174  1.00  0.00    -0.119 C  
HETATM   23  C   UNL     1     -10.164   3.358  63.591  1.00  0.00    -0.210 C  
HETATM   24  O   UNL     1     -10.834   2.677  62.820  1.00  0.00    -0.167 OA 
HETATM   25  N   UNL     1     -10.417   3.389  64.936  1.00  0.00    -0.411 N  
HETATM   26  H   UNL     1     -11.105   2.748  65.331  1.00  0.00     0.000 HD 
HETATM   27  C   UNL     1      -9.749   4.282  65.780  1.00  0.00    -0.207 A  
HETATM   28  C   UNL     1      -9.981   4.229  67.154  1.00  0.00    -0.152 A  
HETATM   29  C   UNL     1      -9.371   5.168  67.975  1.00  0.00    -0.121 A  
HETATM   30  O   UNL     1      -9.547   5.165  69.326  1.00  0.00    -0.135 OA 
HETATM   31  C   UNL     1      -8.558   6.165  67.443  1.00  0.00    -0.106 A  
HETATM   32  H   UNL     1      -9.130   5.807  69.888  1.00  0.00     0.000 HD 
ENDBRANCH  16  19
ENDBRANCH  15  16
ENDBRANCH  13  15
ENDBRANCH   6   9
ENDBRANCH   2   3
TORSDOF 5
ENDMDL
MODEL      173
REMARK 921   NORMALIZED FREE ENERGY PREDICTED BY IDOCK:   -4.78 KCAL/MOL
REMARK 922        TOTAL FREE ENERGY PREDICTED BY IDOCK:   -6.42 KCAL/MOL
REMARK 923 INTER-LIGAND FREE ENERGY PREDICTED BY IDOCK:   -6.58 KCAL/MOL
REMARK 924 INTRA-LIGAND FREE ENERGY PREDICTED BY IDOCK:    0.16 KCAL/MOL
REMARK 927      BINDING AFFINITY PREDICTED BY RF-SCORE:    0.00 PKD
ROOT
HETATM    1  C   UNL     1     -10.778  16.270  67.092  1.00  0.00    -0.247 C  
HETATM    2  O   UNL     1     -10.775  15.569  65.851  1.00  0.00    -0.321 OA 
ENDROOT
BRANCH   2   3
HETATM    3  C   UNL     1     -10.278  14.291  65.881  1.00  0.00    -0.324 A  
HETATM    4  C   UNL     1     -10.686  13.250  65.054  1.00  0.00    -0.346 A  
HETATM    5  C   UNL     1     -10.122  11.981  65.192  1.00  0.00    -0.295 A  
HETATM    6  C   UNL     1      -9.125  11.729  66.146  1.00  0.00    -0.189 A  
HETATM    7  C   UNL     1      -9.278  14.056  66.828  1.00  0.00    -0.280 A  
HETATM    8  C   UNL     1      -8.705  12.787  66.962  1.00  0.00    -0.197 A  
BRANCH   6   9
HETATM    9  C   UNL     1      -8.539  10.333  66.281  1.00  0.00    -0.144 C  
HETATM   10  C   UNL     1      -9.178   9.383  67.354  1.00  0.00    -0.126 C  
HETATM   11  C   UNL     1     -10.610   9.017  66.922  1.00  0.00    -0.243 C  
HETATM   12  C   UNL     1      -9.180  10.044  68.747  1.00  0.00    -0.159 C  
HETATM   13  N   UNL     1      -8.350   8.149  67.389  1.00  0.00    -0.121 NA 
HETATM   14  H   UNL     1      -7.375   8.389  67.571  1.00  0.00     0.000 HD 
BRANCH  13  15
HETATM   15  C   UNL     1      -8.798   7.104  68.336  1.00  0.00    -0.127 C  
BRANCH  15  16
HETATM   16  C   UNL     1      -8.553   7.467  69.820  1.00  0.00    -0.140 C  
HETATM   17  H   UNL     1      -7.041   7.405  71.088  1.00  0.00     0.000 HD 
HETATM   18  O   UNL     1      -7.192   7.182  70.177  1.00  0.00    -0.074 OA 
BRANCH  16  19
HETATM   19  C   UNL     1      -9.529   6.784  70.753  1.00  0.00    -0.167 A  
HETATM   20  C   UNL     1     -10.710   7.427  71.161  1.00  0.00    -0.231 A  
HETATM   21  O   UNL     1     -10.913   8.713  70.724  1.00  0.00    -0.231 OA 
HETATM   22  C   UNL     1     -12.262   9.151  70.836  1.00  0.00    -0.183 C  
HETATM   23  C   UNL     1     -13.025   8.727  72.084  1.00  0.00    -0.406 C  
HETATM   24  O   UNL     1     -13.914   9.397  72.602  1.00  0.00    -0.395 OA 
HETATM   25  N   UNL     1     -12.711   7.471  72.529  1.00  0.00    -0.493 N  
HETATM   26  H   UNL     1     -13.298   7.030  73.237  1.00  0.00     0.000 HD 
HETATM   27  C   UNL     1     -11.600   6.781  72.033  1.00  0.00    -0.291 A  
HETATM   28  C   UNL     1     -11.359   5.476  72.459  1.00  0.00    -0.323 A  
HETATM   29  C   UNL     1     -10.214   4.826  72.019  1.00  0.00    -0.195 A  
HETATM   30  O   UNL     1      -9.925   3.547  72.387  1.00  0.00    -0.152 OA 
HETATM   31  C   UNL     1      -9.302   5.468  71.184  1.00  0.00    -0.181 A  
HETATM   32  H   UNL     1      -9.142   3.102  72.087  1.00  0.00     0.000 HD 
ENDBRANCH  16  19
ENDBRANCH  15  16
ENDBRANCH  13  15
ENDBRANCH   6   9
ENDBRANCH   2   3
TORSDOF 5
ENDMDL
MODEL      174
REMARK 921   NORMALIZED FREE ENERGY PREDICTED BY IDOCK:   -4.76 KCAL/MOL
REMARK 922        TOTAL FREE ENERGY PREDICTED BY IDOCK:   -6.40 KCAL/MOL
REMARK 923 INTER-LIGAND FREE ENERGY PREDICTED BY IDOCK:   -6.09 KCAL/MOL
REMARK 924 INTRA-LIGAND FREE ENERGY PREDICTED BY IDOCK:   -0.31 KCAL/MOL
REMARK 927      BINDING AFFINITY PREDICTED BY RF-SCORE:    0.00 PKD
ROOT
HETATM    1  C   UNL     1      -6.620   4.152  63.619  1.00  0.00    -0.041 C  
HETATM    2  O   UNL     1      -6.626   4.310  65.035  1.00  0.00    -0.041 OA 
ENDROOT
BRANCH   2   3
HETATM    3  C   UNL     1      -7.043   5.529  65.504  1.00  0.00    -0.066 A  
HETATM    4  C   UNL     1      -6.225   6.484  66.100  1.00  0.00    -0.038 A  
HETATM    5  C   UNL     1      -6.768   7.684  66.562  1.00  0.00    -0.058 A  
HETATM    6  C   UNL     1      -8.135   7.964  66.421  1.00  0.00    -0.108 A  
HETATM    7  C   UNL     1      -8.404   5.801  65.348  1.00  0.00    -0.142 A  
HETATM    8  C   UNL     1      -8.949   7.007  65.803  1.00  0.00    -0.037 A  
BRANCH   6   9
HETATM    9  C   UNL     1      -8.698   9.275  66.946  1.00  0.00    -0.136 C  
HETATM   10  C   UNL     1      -9.332   9.265  68.381  1.00  0.00    -0.138 C  
HETATM   11  C   UNL     1      -8.224   9.029  69.425  1.00  0.00    -0.117 C  
HETATM   12  C   UNL     1     -10.428   8.187  68.496  1.00  0.00    -0.199 C  
HETATM   13  N   UNL     1      -9.929  10.608  68.602  1.00  0.00    -0.173 NA 
HETATM   14  H   UNL     1     -10.591  10.822  67.855  1.00  0.00     0.000 HD 
BRANCH  13  15
HETATM   15  C   UNL     1     -10.570  10.816  69.919  1.00  0.00    -0.076 C  
BRANCH  15  16
HETATM   16  C   UNL     1     -11.968  11.474  69.830  1.00  0.00    -0.346 C  
HETATM   17  H   UNL     1     -13.609  11.232  68.759  1.00  0.00     0.000 HD 
HETATM   18  O   UNL     1     -12.751  10.829  68.814  1.00  0.00    -0.054 OA 
BRANCH  16  19
HETATM   19  C   UNL     1     -11.892  12.969  69.610  1.00  0.00    -0.385 A  
HETATM   20  C   UNL     1     -11.640  13.500  68.333  1.00  0.00    -0.343 A  
HETATM   21  O   UNL     1     -11.413  12.611  67.312  1.00  0.00    -0.301 OA 
HETATM   22  C   UNL     1     -11.556  13.177  66.015  1.00  0.00    -0.353 C  
HETATM   23  C   UNL     1     -11.028  14.592  65.817  1.00  0.00    -0.319 C  
HETATM   24  O   UNL     1     -10.575  15.011  64.755  1.00  0.00    -0.402 OA 
HETATM   25  N   UNL     1     -11.195  15.408  66.904  1.00  0.00    -0.269 N  
HETATM   26  H   UNL     1     -11.048  16.412  66.804  1.00  0.00     0.000 HD 
HETATM   27  C   UNL     1     -11.565  14.890  68.150  1.00  0.00    -0.334 A  
HETATM   28  C   UNL     1     -11.798  15.762  69.211  1.00  0.00    -0.358 A  
HETATM   29  C   UNL     1     -12.091  15.236  70.462  1.00  0.00    -0.354 A  
HETATM   30  O   UNL     1     -12.341  16.033  71.538  1.00  0.00    -0.486 OA 
HETATM   31  C   UNL     1     -12.132  13.859  70.668  1.00  0.00    -0.417 A  
HETATM   32  H   UNL     1     -12.541  15.673  72.394  1.00  0.00     0.000 HD 
ENDBRANCH  16  19
ENDBRANCH  15  16
ENDBRANCH  13  15
ENDBRANCH   6   9
ENDBRANCH   2   3
TORSDOF 5
ENDMDL
MODEL      175
REMARK 921   NORMALIZED FREE ENERGY PREDICTED BY IDOCK:   -4.75 KCAL/MOL
REMARK 922        TOTAL FREE ENERGY PREDICTED BY IDOCK:   -6.38 KCAL/MOL
REMARK 923 INTER-LIGAND FREE ENERGY PREDICTED BY IDOCK:   -6.13 KCAL/MOL
REMARK 924 INTRA-LIGAND FREE ENERGY PREDICTED BY IDOCK:   -0.26 KCAL/MOL
REMARK 927      BINDING AFFINITY PREDICTED BY RF-SCORE:    0.00 PKD
ROOT
HETATM    1  C   UNL     1     -11.096  16.343  64.778  1.00  0.00    -0.235 C  
HETATM    2  O   UNL     1     -12.033  15.295  64.547  1.00  0.00    -0.389 OA 
ENDROOT
BRANCH   2   3
HETATM    3  C   UNL     1     -11.925  14.198  65.363  1.00  0.00    -0.381 A  
HETATM    4  C   UNL     1     -12.013  12.874  64.945  1.00  0.00    -0.437 A  
HETATM    5  C   UNL     1     -11.911  11.837  65.873  1.00  0.00     0.040 A  
HETATM    6  C   UNL     1     -11.699  12.099  67.234  1.00  0.00    -0.369 A  
HETATM    7  C   UNL     1     -11.703  14.472  66.714  1.00  0.00    -0.393 A  
HETATM    8  C   UNL     1     -11.591  13.433  67.644  1.00  0.00    -0.377 A  
BRANCH   6   9
HETATM    9  C   UNL     1     -11.605  10.947  68.223  1.00  0.00    -0.335 C  
HETATM   10  C   UNL     1     -10.249  10.162  68.287  1.00  0.00    -0.166 C  
HETATM   11  C   UNL     1      -9.155  11.081  68.864  1.00  0.00    -0.132 C  
HETATM   12  C   UNL     1      -9.844   9.639  66.895  1.00  0.00    -0.257 C  
HETATM   13  N   UNL     1     -10.455   9.014  69.210  1.00  0.00    -0.226 NA 
HETATM   14  H   UNL     1     -11.247   8.454  68.896  1.00  0.00     0.000 HD 
BRANCH  13  15
HETATM   15  C   UNL     1      -9.277   8.146  69.426  1.00  0.00    -0.155 C  
BRANCH  15  16
HETATM   16  C   UNL     1      -9.642   6.679  69.759  1.00  0.00    -0.149 C  
HETATM   17  H   UNL     1     -11.126   5.439  69.365  1.00  0.00     0.000 HD 
HETATM   18  O   UNL     1     -10.902   6.339  69.162  1.00  0.00    -0.268 OA 
BRANCH  16  19
HETATM   19  C   UNL     1      -9.637   6.404  71.247  1.00  0.00    -0.182 A  
HETATM   20  C   UNL     1      -9.864   5.109  71.742  1.00  0.00    -0.174 A  
HETATM   21  O   UNL     1     -10.142   4.122  70.830  1.00  0.00    -0.164 OA 
HETATM   22  C   UNL     1      -9.973   2.804  71.339  1.00  0.00     0.004 C  
HETATM   23  C   UNL     1     -10.424   2.554  72.772  1.00  0.00    -0.141 C  
HETATM   24  O   UNL     1     -10.856   1.477  73.175  1.00  0.00    -0.119 OA 
HETATM   25  N   UNL     1     -10.209   3.609  73.617  1.00  0.00    -0.130 N  
HETATM   26  H   UNL     1     -10.303   3.472  74.623  1.00  0.00     0.000 HD 
HETATM   27  C   UNL     1      -9.865   4.873  73.126  1.00  0.00    -0.150 A  
HETATM   28  C   UNL     1      -9.581   5.901  74.024  1.00  0.00    -0.161 A  
HETATM   29  C   UNL     1      -9.313   7.171  73.529  1.00  0.00    -0.191 A  
HETATM   30  O   UNL     1      -9.018   8.216  74.351  1.00  0.00    -0.327 OA 
HETATM   31  C   UNL     1      -9.347   7.428  72.161  1.00  0.00    -0.164 A  
HETATM   32  H   UNL     1      -8.835   9.085  74.013  1.00  0.00     0.000 HD 
ENDBRANCH  16  19
ENDBRANCH  15  16
ENDBRANCH  13  15
ENDBRANCH   6   9
ENDBRANCH   2   3
TORSDOF 5
ENDMDL
MODEL      176
REMARK 921   NORMALIZED FREE ENERGY PREDICTED BY IDOCK:   -4.75 KCAL/MOL
REMARK 922        TOTAL FREE ENERGY PREDICTED BY IDOCK:   -6.38 KCAL/MOL
REMARK 923 INTER-LIGAND FREE ENERGY PREDICTED BY IDOCK:   -5.78 KCAL/MOL
REMARK 924 INTRA-LIGAND FREE ENERGY PREDICTED BY IDOCK:   -0.60 KCAL/MOL
REMARK 927      BINDING AFFINITY PREDICTED BY RF-SCORE:    0.00 PKD
ROOT
HETATM    1  C   UNL     1      -8.577  17.905  67.175  1.00  0.00    -0.235 C  
HETATM    2  O   UNL     1      -9.937  17.515  67.341  1.00  0.00    -0.294 OA 
ENDROOT
BRANCH   2   3
HETATM    3  C   UNL     1     -10.196  16.172  67.238  1.00  0.00    -0.277 A  
HETATM    4  C   UNL     1      -9.681  15.326  66.261  1.00  0.00    -0.325 A  
HETATM    5  C   UNL     1     -10.034  13.977  66.243  1.00  0.00    -0.317 A  
HETATM    6  C   UNL     1     -10.895  13.438  67.210  1.00  0.00    -0.278 A  
HETATM    7  C   UNL     1     -11.046  15.645  68.214  1.00  0.00    -0.336 A  
HETATM    8  C   UNL     1     -11.395  14.291  68.202  1.00  0.00    -0.313 A  
BRANCH   6   9
HETATM    9  C   UNL     1     -11.272  11.966  67.156  1.00  0.00    -0.377 C  
HETATM   10  C   UNL     1     -10.686  11.030  68.269  1.00  0.00    -0.196 C  
HETATM   11  C   UNL     1     -11.310  11.401  69.627  1.00  0.00    -0.347 C  
HETATM   12  C   UNL     1      -9.149  11.134  68.328  1.00  0.00    -0.162 C  
HETATM   13  N   UNL     1     -11.077   9.640  67.917  1.00  0.00    -0.508 NA 
HETATM   14  H   UNL     1     -10.760   9.416  66.974  1.00  0.00     0.000 HD 
BRANCH  13  15
HETATM   15  C   UNL     1     -10.633   8.591  68.861  1.00  0.00    -0.144 C  
BRANCH  15  16
HETATM   16  C   UNL     1     -10.710   7.159  68.277  1.00  0.00    -0.153 C  
HETATM   17  H   UNL     1     -11.519   5.434  68.793  1.00  0.00     0.000 HD 
HETATM   18  O   UNL     1     -11.471   6.313  69.151  1.00  0.00    -0.394 OA 
BRANCH  16  19
HETATM   19  C   UNL     1      -9.344   6.577  67.987  1.00  0.00    -0.108 A  
HETATM   20  C   UNL     1      -9.161   5.643  66.953  1.00  0.00    -0.116 A  
HETATM   21  O   UNL     1     -10.275   5.242  66.259  1.00  0.00    -0.205 OA 
HETATM   22  C   UNL     1      -9.983   4.623  65.012  1.00  0.00    -0.020 C  
HETATM   23  C   UNL     1      -8.780   3.689  64.969  1.00  0.00    -0.115 C  
HETATM   24  O   UNL     1      -8.699   2.712  64.229  1.00  0.00    -0.090 OA 
HETATM   25  N   UNL     1      -7.734   4.090  65.756  1.00  0.00    -0.089 N  
HETATM   26  H   UNL     1      -6.826   3.638  65.650  1.00  0.00     0.000 HD 
HETATM   27  C   UNL     1      -7.888   5.107  66.704  1.00  0.00    -0.100 A  
HETATM   28  C   UNL     1      -6.779   5.536  67.432  1.00  0.00    -0.059 A  
HETATM   29  C   UNL     1      -6.955   6.493  68.423  1.00  0.00    -0.080 A  
HETATM   30  O   UNL     1      -5.912   6.963  69.163  1.00  0.00    -0.018 OA 
HETATM   31  C   UNL     1      -8.218   7.005  68.707  1.00  0.00    -0.122 A  
HETATM   32  H   UNL     1      -6.032   7.618  69.841  1.00  0.00     0.000 HD 
ENDBRANCH  16  19
ENDBRANCH  15  16
ENDBRANCH  13  15
ENDBRANCH   6   9
ENDBRANCH   2   3
TORSDOF 5
ENDMDL
MODEL      177
REMARK 921   NORMALIZED FREE ENERGY PREDICTED BY IDOCK:   -4.74 KCAL/MOL
REMARK 922        TOTAL FREE ENERGY PREDICTED BY IDOCK:   -6.38 KCAL/MOL
REMARK 923 INTER-LIGAND FREE ENERGY PREDICTED BY IDOCK:   -6.33 KCAL/MOL
REMARK 924 INTRA-LIGAND FREE ENERGY PREDICTED BY IDOCK:   -0.05 KCAL/MOL
REMARK 927      BINDING AFFINITY PREDICTED BY RF-SCORE:    0.00 PKD
ROOT
HETATM    1  C   UNL     1     -10.189  17.427  66.139  1.00  0.00    -0.328 C  
HETATM    2  O   UNL     1     -10.474  16.450  65.141  1.00  0.00    -0.622 OA 
ENDROOT
BRANCH   2   3
HETATM    3  C   UNL     1     -10.737  15.183  65.595  1.00  0.00    -0.363 A  
HETATM    4  C   UNL     1     -10.884  14.056  64.793  1.00  0.00    -0.430 A  
HETATM    5  C   UNL     1     -11.174  12.818  65.368  1.00  0.00    -0.327 A  
HETATM    6  C   UNL     1     -11.306  12.676  66.757  1.00  0.00    -0.373 A  
HETATM    7  C   UNL     1     -10.854  15.052  66.981  1.00  0.00    -0.311 A  
HETATM    8  C   UNL     1     -11.137  13.811  67.560  1.00  0.00    -0.295 A  
BRANCH   6   9
HETATM    9  C   UNL     1     -11.636  11.316  67.352  1.00  0.00    -0.214 C  
HETATM   10  C   UNL     1     -10.434  10.417  67.807  1.00  0.00    -0.226 C  
HETATM   11  C   UNL     1      -9.745  11.065  69.024  1.00  0.00    -0.151 C  
HETATM   12  C   UNL     1      -9.428  10.211  66.657  1.00  0.00    -0.211 C  
HETATM   13  N   UNL     1     -11.002   9.105  68.213  1.00  0.00    -0.477 NA 
HETATM   14  H   UNL     1     -11.551   8.712  67.448  1.00  0.00     0.000 HD 
BRANCH  13  15
HETATM   15  C   UNL     1     -10.025   8.106  68.699  1.00  0.00    -0.190 C  
BRANCH  15  16
HETATM   16  C   UNL     1     -10.547   6.650  68.640  1.00  0.00    -0.234 C  
HETATM   17  H   UNL     1     -12.048   5.626  69.409  1.00  0.00     0.000 HD 
HETATM   18  O   UNL     1     -11.728   6.519  69.445  1.00  0.00    -0.295 OA 
BRANCH  16  19
HETATM   19  C   UNL     1      -9.491   5.639  69.030  1.00  0.00    -0.159 A  
HETATM   20  C   UNL     1      -9.140   5.444  70.377  1.00  0.00    -0.141 A  
HETATM   21  O   UNL     1      -9.752   6.241  71.312  1.00  0.00    -0.173 OA 
HETATM   22  C   UNL     1      -9.657   5.744  72.641  1.00  0.00    -0.153 C  
HETATM   23  C   UNL     1      -8.335   5.108  73.049  1.00  0.00    -0.112 C  
HETATM   24  O   UNL     1      -7.888   5.132  74.192  1.00  0.00    -0.096 OA 
HETATM   25  N   UNL     1      -7.722   4.404  72.047  1.00  0.00    -0.079 N  
HETATM   26  H   UNL     1      -6.937   3.793  72.272  1.00  0.00     0.000 HD 
HETATM   27  C   UNL     1      -8.152   4.508  70.720  1.00  0.00    -0.068 A  
HETATM   28  C   UNL     1      -7.550   3.717  69.743  1.00  0.00    -0.052 A  
HETATM   29  C   UNL     1      -7.930   3.881  68.417  1.00  0.00    -0.075 A  
HETATM   30  O   UNL     1      -7.390   3.133  67.415  1.00  0.00    -0.057 OA 
HETATM   31  C   UNL     1      -8.881   4.832  68.057  1.00  0.00    -0.115 A  
HETATM   32  H   UNL     1      -7.650   3.244  66.509  1.00  0.00     0.000 HD 
ENDBRANCH  16  19
ENDBRANCH  15  16
ENDBRANCH  13  15
ENDBRANCH   6   9
ENDBRANCH   2   3
TORSDOF 5
ENDMDL
MODEL      178
REMARK 921   NORMALIZED FREE ENERGY PREDICTED BY IDOCK:   -4.72 KCAL/MOL
REMARK 922        TOTAL FREE ENERGY PREDICTED BY IDOCK:   -6.34 KCAL/MOL
REMARK 923 INTER-LIGAND FREE ENERGY PREDICTED BY IDOCK:   -5.60 KCAL/MOL
REMARK 924 INTRA-LIGAND FREE ENERGY PREDICTED BY IDOCK:   -0.74 KCAL/MOL
REMARK 927      BINDING AFFINITY PREDICTED BY RF-SCORE:    0.00 PKD
ROOT
HETATM    1  C   UNL     1      -9.826   2.591  62.481  1.00  0.00    -0.088 C  
HETATM    2  O   UNL     1     -10.518   3.722  63.002  1.00  0.00    -0.192 OA 
ENDROOT
BRANCH   2   3
HETATM    3  C   UNL     1     -10.077   4.195  64.212  1.00  0.00    -0.122 A  
HETATM    4  C   UNL     1     -10.847   4.293  65.366  1.00  0.00     0.019 A  
HETATM    5  C   UNL     1     -10.295   4.812  66.537  1.00  0.00    -0.284 A  
HETATM    6  C   UNL     1      -8.956   5.229  66.586  1.00  0.00    -0.117 A  
HETATM    7  C   UNL     1      -8.739   4.595  64.251  1.00  0.00    -0.148 A  
HETATM    8  C   UNL     1      -8.181   5.109  65.426  1.00  0.00    -0.124 A  
BRANCH   6   9
HETATM    9  C   UNL     1      -8.387   5.803  67.873  1.00  0.00    -0.104 C  
HETATM   10  C   UNL     1      -8.553   7.345  68.111  1.00  0.00    -0.123 C  
HETATM   11  C   UNL     1     -10.043   7.669  68.326  1.00  0.00    -0.214 C  
HETATM   12  C   UNL     1      -7.983   8.152  66.927  1.00  0.00    -0.104 C  
HETATM   13  N   UNL     1      -7.799   7.677  69.348  1.00  0.00    -0.120 NA 
HETATM   14  H   UNL     1      -6.831   7.371  69.259  1.00  0.00     0.000 HD 
BRANCH  13  15
HETATM   15  C   UNL     1      -7.844   9.097  69.764  1.00  0.00    -0.088 C  
BRANCH  15  16
HETATM   16  C   UNL     1      -8.075   9.290  71.282  1.00  0.00     0.105 C  
HETATM   17  H   UNL     1      -6.962   9.376  72.909  1.00  0.00     0.000 HD 
HETATM   18  O   UNL     1      -6.820   9.257  71.978  1.00  0.00    -0.309 OA 
BRANCH  16  19
HETATM   19  C   UNL     1      -9.055   8.288  71.851  1.00  0.00    -0.259 A  
HETATM   20  C   UNL     1     -10.428   8.581  71.925  1.00  0.00    -0.317 A  
HETATM   21  O   UNL     1     -10.831   9.827  71.513  1.00  0.00    -0.262 OA 
HETATM   22  C   UNL     1     -12.226   9.920  71.246  1.00  0.00    -0.387 C  
HETATM   23  C   UNL     1     -13.162   9.178  72.192  1.00  0.00    -0.458 C  
HETATM   24  O   UNL     1     -14.300   9.552  72.460  1.00  0.00    -0.299 OA 
HETATM   25  N   UNL     1     -12.665   7.986  72.646  1.00  0.00    -0.576 N  
HETATM   26  H   UNL     1     -13.287   7.336  73.128  1.00  0.00     0.000 HD 
HETATM   27  C   UNL     1     -11.322   7.643  72.464  1.00  0.00    -0.355 A  
HETATM   28  C   UNL     1     -10.875   6.388  72.876  1.00  0.00    -0.286 A  
HETATM   29  C   UNL     1      -9.525   6.084  72.760  1.00  0.00    -0.151 A  
HETATM   30  O   UNL     1      -9.025   4.873  73.132  1.00  0.00    -0.112 OA 
HETATM   31  C   UNL     1      -8.620   7.019  72.262  1.00  0.00    -0.129 A  
HETATM   32  H   UNL     1      -8.102   4.664  73.053  1.00  0.00     0.000 HD 
ENDBRANCH  16  19
ENDBRANCH  15  16
ENDBRANCH  13  15
ENDBRANCH   6   9
ENDBRANCH   2   3
TORSDOF 5
ENDMDL
MODEL      179
REMARK 921   NORMALIZED FREE ENERGY PREDICTED BY IDOCK:   -4.69 KCAL/MOL
REMARK 922        TOTAL FREE ENERGY PREDICTED BY IDOCK:   -6.31 KCAL/MOL
REMARK 923 INTER-LIGAND FREE ENERGY PREDICTED BY IDOCK:   -5.87 KCAL/MOL
REMARK 924 INTRA-LIGAND FREE ENERGY PREDICTED BY IDOCK:   -0.44 KCAL/MOL
REMARK 927      BINDING AFFINITY PREDICTED BY RF-SCORE:    0.00 PKD
ROOT
HETATM    1  C   UNL     1      -5.974  10.480  62.918  1.00  0.00    -0.134 C  
HETATM    2  O   UNL     1      -7.387  10.302  62.934  1.00  0.00    -0.140 OA 
ENDROOT
BRANCH   2   3
HETATM    3  C   UNL     1      -7.954  10.078  64.163  1.00  0.00    -0.152 A  
HETATM    4  C   UNL     1      -7.256   9.757  65.323  1.00  0.00    -0.120 A  
HETATM    5  C   UNL     1      -7.944   9.528  66.516  1.00  0.00    -0.112 A  
HETATM    6  C   UNL     1      -9.342   9.635  66.579  1.00  0.00    -0.212 A  
HETATM    7  C   UNL     1      -9.344  10.198  64.216  1.00  0.00    -0.349 A  
HETATM    8  C   UNL     1     -10.035   9.978  65.413  1.00  0.00    -0.364 A  
BRANCH   6   9
HETATM    9  C   UNL     1     -10.063   9.367  67.891  1.00  0.00    -0.239 C  
HETATM   10  C   UNL     1     -10.283   7.869  68.300  1.00  0.00    -0.203 C  
HETATM   11  C   UNL     1      -8.922   7.225  68.624  1.00  0.00    -0.128 C  
HETATM   12  C   UNL     1     -11.004   7.089  67.182  1.00  0.00    -0.393 C  
HETATM   13  N   UNL     1     -11.123   7.873  69.526  1.00  0.00    -0.446 NA 
HETATM   14  H   UNL     1     -11.986   8.390  69.356  1.00  0.00     0.000 HD 
BRANCH  13  15
HETATM   15  C   UNL     1     -11.436   6.542  70.093  1.00  0.00    -0.415 C  
BRANCH  15  16
HETATM   16  C   UNL     1     -11.840   6.586  71.587  1.00  0.00    -0.333 C  
HETATM   17  H   UNL     1     -12.232   7.974  72.934  1.00  0.00     0.000 HD 
HETATM   18  O   UNL     1     -11.983   7.947  72.017  1.00  0.00    -0.292 OA 
BRANCH  16  19
HETATM   19  C   UNL     1     -10.879   5.820  72.470  1.00  0.00    -0.294 A  
HETATM   20  C   UNL     1      -9.593   6.319  72.741  1.00  0.00    -0.154 A  
HETATM   21  O   UNL     1      -9.229   7.494  72.132  1.00  0.00    -0.132 OA 
HETATM   22  C   UNL     1      -8.109   8.131  72.736  1.00  0.00    -0.165 C  
HETATM   23  C   UNL     1      -6.977   7.232  73.214  1.00  0.00    -0.072 C  
HETATM   24  O   UNL     1      -5.797   7.571  73.236  1.00  0.00    -0.048 OA 
HETATM   25  N   UNL     1      -7.395   6.032  73.724  1.00  0.00    -0.092 N  
HETATM   26  H   UNL     1      -6.734   5.448  74.237  1.00  0.00     0.000 HD 
HETATM   27  C   UNL     1      -8.712   5.591  73.556  1.00  0.00    -0.117 A  
HETATM   28  C   UNL     1      -9.116   4.399  74.156  1.00  0.00    -0.109 A  
HETATM   29  C   UNL     1     -10.402   3.931  73.922  1.00  0.00    -0.176 A  
HETATM   30  O   UNL     1     -10.863   2.780  74.486  1.00  0.00    -0.116 OA 
HETATM   31  C   UNL     1     -11.275   4.623  73.086  1.00  0.00    -0.367 A  
HETATM   32  H   UNL     1     -11.743   2.460  74.327  1.00  0.00     0.000 HD 
ENDBRANCH  16  19
ENDBRANCH  15  16
ENDBRANCH  13  15
ENDBRANCH   6   9
ENDBRANCH   2   3
TORSDOF 5
ENDMDL
MODEL      180
REMARK 921   NORMALIZED FREE ENERGY PREDICTED BY IDOCK:   -4.69 KCAL/MOL
REMARK 922        TOTAL FREE ENERGY PREDICTED BY IDOCK:   -6.30 KCAL/MOL
REMARK 923 INTER-LIGAND FREE ENERGY PREDICTED BY IDOCK:   -7.47 KCAL/MOL
REMARK 924 INTRA-LIGAND FREE ENERGY PREDICTED BY IDOCK:    1.16 KCAL/MOL
REMARK 927      BINDING AFFINITY PREDICTED BY RF-SCORE:    0.00 PKD
ROOT
HETATM    1  C   UNL     1      -8.400   1.542  68.258  1.00  0.00    -0.058 C  
HETATM    2  O   UNL     1      -8.499   2.226  69.504  1.00  0.00    -0.048 OA 
ENDROOT
BRANCH   2   3
HETATM    3  C   UNL     1      -9.233   3.385  69.499  1.00  0.00    -0.155 A  
HETATM    4  C   UNL     1      -9.595   4.103  68.364  1.00  0.00    -0.190 A  
HETATM    5  C   UNL     1     -10.327   5.284  68.485  1.00  0.00    -0.182 A  
HETATM    6  C   UNL     1     -10.729   5.765  69.740  1.00  0.00    -0.418 A  
HETATM    7  C   UNL     1      -9.637   3.846  70.754  1.00  0.00    -0.259 A  
HETATM    8  C   UNL     1     -10.378   5.026  70.876  1.00  0.00    -0.260 A  
BRANCH   6   9
HETATM    9  C   UNL     1     -11.514   7.063  69.839  1.00  0.00    -0.223 C  
HETATM   10  C   UNL     1     -10.726   8.401  69.620  1.00  0.00    -0.198 C  
HETATM   11  C   UNL     1     -10.274   8.491  68.150  1.00  0.00    -0.254 C  
HETATM   12  C   UNL     1      -9.516   8.494  70.571  1.00  0.00    -0.193 C  
HETATM   13  N   UNL     1     -11.671   9.513  69.907  1.00  0.00    -0.448 NA 
HETATM   14  H   UNL     1     -12.060   9.406  70.843  1.00  0.00     0.000 HD 
BRANCH  13  15
HETATM   15  C   UNL     1     -11.124  10.877  69.739  1.00  0.00    -0.262 C  
BRANCH  15  16
HETATM   16  C   UNL     1     -10.388  11.088  68.394  1.00  0.00    -0.183 C  
HETATM   17  H   UNL     1      -8.543  11.471  67.806  1.00  0.00     0.000 HD 
HETATM   18  O   UNL     1      -8.995  11.342  68.631  1.00  0.00    -0.168 OA 
BRANCH  16  19
HETATM   19  C   UNL     1     -11.018  12.178  67.554  1.00  0.00    -0.304 A  
HETATM   20  C   UNL     1     -10.813  13.535  67.858  1.00  0.00    -0.247 A  
HETATM   21  O   UNL     1     -10.069  13.827  68.974  1.00  0.00    -0.128 OA 
HETATM   22  C   UNL     1      -9.579  15.162  69.004  1.00  0.00    -0.229 C  
HETATM   23  C   UNL     1     -10.516  16.254  68.505  1.00  0.00    -0.278 C  
HETATM   24  O   UNL     1     -10.515  17.405  68.933  1.00  0.00    -0.345 OA 
HETATM   25  N   UNL     1     -11.304  15.874  67.451  1.00  0.00    -0.132 N  
HETATM   26  H   UNL     1     -11.822  16.584  66.932  1.00  0.00     0.000 HD 
HETATM   27  C   UNL     1     -11.412  14.532  67.072  1.00  0.00    -0.370 A  
HETATM   28  C   UNL     1     -12.164  14.197  65.948  1.00  0.00    -0.458 A  
HETATM   29  C   UNL     1     -12.328  12.857  65.623  1.00  0.00    -0.423 A  
HETATM   30  O   UNL     1     -13.040  12.462  64.532  1.00  0.00    -0.823 OA 
HETATM   31  C   UNL     1     -11.771  11.855  66.415  1.00  0.00    -0.232 A  
HETATM   32  H   UNL     1     -13.153  11.546  64.309  1.00  0.00     0.000 HD 
ENDBRANCH  16  19
ENDBRANCH  15  16
ENDBRANCH  13  15
ENDBRANCH   6   9
ENDBRANCH   2   3
TORSDOF 5
ENDMDL
MODEL      181
REMARK 921   NORMALIZED FREE ENERGY PREDICTED BY IDOCK:   -4.69 KCAL/MOL
REMARK 922        TOTAL FREE ENERGY PREDICTED BY IDOCK:   -6.30 KCAL/MOL
REMARK 923 INTER-LIGAND FREE ENERGY PREDICTED BY IDOCK:   -6.20 KCAL/MOL
REMARK 924 INTRA-LIGAND FREE ENERGY PREDICTED BY IDOCK:   -0.10 KCAL/MOL
REMARK 927      BINDING AFFINITY PREDICTED BY RF-SCORE:    0.00 PKD
ROOT
HETATM    1  C   UNL     1     -12.723  12.535  63.251  1.00  0.00    -0.091 C  
HETATM    2  O   UNL     1     -11.453  12.872  63.802  1.00  0.00    -0.416 OA 
ENDROOT
BRANCH   2   3
HETATM    3  C   UNL     1     -10.983  12.042  64.788  1.00  0.00    -0.311 A  
HETATM    4  C   UNL     1     -11.350  12.098  66.128  1.00  0.00    -0.414 A  
HETATM    5  C   UNL     1     -10.787  11.213  67.048  1.00  0.00    -0.338 A  
HETATM    6  C   UNL     1      -9.859  10.241  66.646  1.00  0.00    -0.256 A  
HETATM    7  C   UNL     1     -10.069  11.071  64.373  1.00  0.00    -0.393 A  
HETATM    8  C   UNL     1      -9.509  10.178  65.292  1.00  0.00    -0.306 A  
BRANCH   6   9
HETATM    9  C   UNL     1      -9.252   9.300  67.675  1.00  0.00    -0.139 C  
HETATM   10  C   UNL     1      -8.605   9.945  68.949  1.00  0.00    -0.135 C  
HETATM   11  C   UNL     1      -9.708  10.586  69.812  1.00  0.00    -0.010 C  
HETATM   12  C   UNL     1      -7.539  10.989  68.561  1.00  0.00    -0.114 C  
HETATM   13  N   UNL     1      -7.967   8.844  69.717  1.00  0.00    -0.095 NA 
HETATM   14  H   UNL     1      -7.307   8.341  69.122  1.00  0.00     0.000 HD 
BRANCH  13  15
HETATM   15  C   UNL     1      -7.306   9.241  70.980  1.00  0.00    -0.069 C  
BRANCH  15  16
HETATM   16  C   UNL     1      -7.750   8.401  72.201  1.00  0.00    -0.115 C  
HETATM   17  H   UNL     1      -7.000   6.936  73.291  1.00  0.00     0.000 HD 
HETATM   18  O   UNL     1      -6.728   7.452  72.541  1.00  0.00    -0.058 OA 
BRANCH  16  19
HETATM   19  C   UNL     1      -9.088   7.727  71.987  1.00  0.00    -0.180 A  
HETATM   20  C   UNL     1      -9.180   6.507  71.295  1.00  0.00    -0.155 A  
HETATM   21  O   UNL     1      -8.020   5.984  70.779  1.00  0.00    -0.109 OA 
HETATM   22  C   UNL     1      -8.111   4.603  70.450  1.00  0.00    -0.071 C  
HETATM   23  C   UNL     1      -9.413   4.125  69.821  1.00  0.00    -0.195 C  
HETATM   24  O   UNL     1      -9.486   3.199  69.019  1.00  0.00    -0.163 OA 
HETATM   25  N   UNL     1     -10.529   4.752  70.307  1.00  0.00    -0.112 N  
HETATM   26  H   UNL     1     -11.451   4.373  70.088  1.00  0.00     0.000 HD 
HETATM   27  C   UNL     1     -10.430   5.901  71.098  1.00  0.00    -0.233 A  
HETATM   28  C   UNL     1     -11.587   6.464  71.635  1.00  0.00    -0.363 A  
HETATM   29  C   UNL     1     -11.488   7.646  72.356  1.00  0.00    -0.340 A  
HETATM   30  O   UNL     1     -12.577   8.242  72.916  1.00  0.00    -0.634 OA 
HETATM   31  C   UNL     1     -10.259   8.279  72.527  1.00  0.00    -0.386 A  
HETATM   32  H   UNL     1     -12.510   9.051  73.409  1.00  0.00     0.000 HD 
ENDBRANCH  16  19
ENDBRANCH  15  16
ENDBRANCH  13  15
ENDBRANCH   6   9
ENDBRANCH   2   3
TORSDOF 5
ENDMDL
MODEL      182
REMARK 921   NORMALIZED FREE ENERGY PREDICTED BY IDOCK:   -4.65 KCAL/MOL
REMARK 922        TOTAL FREE ENERGY PREDICTED BY IDOCK:   -6.25 KCAL/MOL
REMARK 923 INTER-LIGAND FREE ENERGY PREDICTED BY IDOCK:   -5.80 KCAL/MOL
REMARK 924 INTRA-LIGAND FREE ENERGY PREDICTED BY IDOCK:   -0.45 KCAL/MOL
REMARK 927      BINDING AFFINITY PREDICTED BY RF-SCORE:    0.00 PKD
ROOT
HETATM    1  C   UNL     1     -10.683   2.219  62.883  1.00  0.00    -0.190 C  
HETATM    2  O   UNL     1      -9.746   2.032  63.940  1.00  0.00    -0.128 OA 
ENDROOT
BRANCH   2   3
HETATM    3  C   UNL     1      -9.430   3.148  64.671  1.00  0.00    -0.148 A  
HETATM    4  C   UNL     1      -8.140   3.572  64.975  1.00  0.00    -0.090 A  
HETATM    5  C   UNL     1      -7.940   4.715  65.749  1.00  0.00    -0.099 A  
HETATM    6  C   UNL     1      -9.024   5.471  66.221  1.00  0.00    -0.140 A  
HETATM    7  C   UNL     1     -10.517   3.898  65.126  1.00  0.00    -0.030 A  
HETATM    8  C   UNL     1     -10.319   5.049  65.895  1.00  0.00    -0.223 A  
BRANCH   6   9
HETATM    9  C   UNL     1      -8.775   6.704  67.073  1.00  0.00    -0.113 C  
HETATM   10  C   UNL     1      -8.384   6.477  68.575  1.00  0.00    -0.121 C  
HETATM   11  C   UNL     1      -6.986   5.833  68.646  1.00  0.00    -0.071 C  
HETATM   12  C   UNL     1      -9.428   5.596  69.292  1.00  0.00    -0.167 C  
HETATM   13  N   UNL     1      -8.336   7.815  69.219  1.00  0.00    -0.135 NA 
HETATM   14  H   UNL     1      -9.225   8.298  69.088  1.00  0.00     0.000 HD 
BRANCH  13  15
HETATM   15  C   UNL     1      -7.963   7.825  70.651  1.00  0.00    -0.098 C  
BRANCH  15  16
HETATM   16  C   UNL     1      -8.819   8.789  71.507  1.00  0.00    -0.225 C  
HETATM   17  H   UNL     1      -8.785   9.497  73.349  1.00  0.00     0.000 HD 
HETATM   18  O   UNL     1      -8.260   8.905  72.824  1.00  0.00    -0.387 OA 
BRANCH  16  19
HETATM   19  C   UNL     1     -10.277   8.385  71.553  1.00  0.00    -0.294 A  
HETATM   20  C   UNL     1     -10.674   7.185  72.167  1.00  0.00    -0.215 A  
HETATM   21  O   UNL     1      -9.688   6.375  72.670  1.00  0.00    -0.162 OA 
HETATM   22  C   UNL     1     -10.158   5.405  73.598  1.00  0.00    -0.196 C  
HETATM   23  C   UNL     1     -11.493   4.740  73.286  1.00  0.00    -0.273 C  
HETATM   24  O   UNL     1     -11.777   3.591  73.611  1.00  0.00    -0.097 OA 
HETATM   25  N   UNL     1     -12.406   5.573  72.697  1.00  0.00    -0.350 N  
HETATM   26  H   UNL     1     -13.380   5.276  72.624  1.00  0.00     0.000 HD 
HETATM   27  C   UNL     1     -12.030   6.822  72.193  1.00  0.00    -0.273 A  
HETATM   28  C   UNL     1     -13.005   7.670  71.669  1.00  0.00    -0.385 A  
HETATM   29  C   UNL     1     -12.613   8.876  71.104  1.00  0.00    -0.185 A  
HETATM   30  O   UNL     1     -13.516   9.755  70.585  1.00  0.00    -0.619 OA 
HETATM   31  C   UNL     1     -11.269   9.232  71.036  1.00  0.00    -0.392 A  
HETATM   32  H   UNL     1     -13.248  10.580  70.198  1.00  0.00     0.000 HD 
ENDBRANCH  16  19
ENDBRANCH  15  16
ENDBRANCH  13  15
ENDBRANCH   6   9
ENDBRANCH   2   3
TORSDOF 5
ENDMDL
MODEL      183
REMARK 921   NORMALIZED FREE ENERGY PREDICTED BY IDOCK:   -4.64 KCAL/MOL
REMARK 922        TOTAL FREE ENERGY PREDICTED BY IDOCK:   -6.24 KCAL/MOL
REMARK 923 INTER-LIGAND FREE ENERGY PREDICTED BY IDOCK:   -6.93 KCAL/MOL
REMARK 924 INTRA-LIGAND FREE ENERGY PREDICTED BY IDOCK:    0.69 KCAL/MOL
REMARK 927      BINDING AFFINITY PREDICTED BY RF-SCORE:    0.00 PKD
ROOT
HETATM    1  C   UNL     1      -5.547   6.176  64.744  1.00  0.00    -0.021 C  
HETATM    2  O   UNL     1      -6.601   6.593  63.880  1.00  0.00    -0.039 OA 
ENDROOT
BRANCH   2   3
HETATM    3  C   UNL     1      -7.564   7.390  64.444  1.00  0.00    -0.115 A  
HETATM    4  C   UNL     1      -8.396   7.022  65.496  1.00  0.00    -0.135 A  
HETATM    5  C   UNL     1      -9.359   7.913  65.974  1.00  0.00    -0.129 A  
HETATM    6  C   UNL     1      -9.498   9.196  65.423  1.00  0.00    -0.231 A  
HETATM    7  C   UNL     1      -7.685   8.669  63.895  1.00  0.00    -0.135 A  
HETATM    8  C   UNL     1      -8.643   9.566  64.378  1.00  0.00    -0.213 A  
BRANCH   6   9
HETATM    9  C   UNL     1     -10.565  10.138  65.957  1.00  0.00    -0.071 C  
HETATM   10  C   UNL     1     -10.521  10.487  67.486  1.00  0.00    -0.239 C  
HETATM   11  C   UNL     1      -9.266  11.332  67.779  1.00  0.00    -0.156 C  
HETATM   12  C   UNL     1     -10.530   9.207  68.346  1.00  0.00    -0.241 C  
HETATM   13  N   UNL     1     -11.732  11.295  67.782  1.00  0.00    -0.599 NA 
HETATM   14  H   UNL     1     -12.569  10.788  67.494  1.00  0.00     0.000 HD 
BRANCH  13  15
HETATM   15  C   UNL     1     -11.873  11.747  69.184  1.00  0.00    -0.326 C  
BRANCH  15  16
HETATM   16  C   UNL     1     -11.522  13.240  69.391  1.00  0.00    -0.263 C  
HETATM   17  H   UNL     1     -12.306  14.788  70.332  1.00  0.00     0.000 HD 
HETATM   18  O   UNL     1     -12.522  13.872  70.205  1.00  0.00    -0.333 OA 
BRANCH  16  19
HETATM   19  C   UNL     1     -11.321  13.976  68.084  1.00  0.00    -0.320 A  
HETATM   20  C   UNL     1     -10.299  14.930  67.941  1.00  0.00    -0.237 A  
HETATM   21  O   UNL     1      -9.532  15.205  69.046  1.00  0.00    -0.202 OA 
HETATM   22  C   UNL     1      -8.305  15.859  68.745  1.00  0.00    -0.206 C  
HETATM   23  C   UNL     1      -8.338  16.923  67.656  1.00  0.00    -0.184 C  
HETATM   24  O   UNL     1      -7.603  17.907  67.638  1.00  0.00    -0.207 OA 
HETATM   25  N   UNL     1      -9.194  16.640  66.625  1.00  0.00    -0.238 N  
HETATM   26  H   UNL     1      -9.146  17.193  65.769  1.00  0.00     0.000 HD 
HETATM   27  C   UNL     1     -10.132  15.608  66.724  1.00  0.00    -0.272 A  
HETATM   28  C   UNL     1     -10.933  15.305  65.624  1.00  0.00    -0.348 A  
HETATM   29  C   UNL     1     -11.913  14.329  65.754  1.00  0.00    -0.393 A  
HETATM   30  O   UNL     1     -12.721  13.977  64.716  1.00  0.00    -0.651 OA 
HETATM   31  C   UNL     1     -12.115  13.675  66.967  1.00  0.00    -0.423 A  
HETATM   32  H   UNL     1     -13.391  13.310  64.804  1.00  0.00     0.000 HD 
ENDBRANCH  16  19
ENDBRANCH  15  16
ENDBRANCH  13  15
ENDBRANCH   6   9
ENDBRANCH   2   3
TORSDOF 5
ENDMDL
MODEL      184
REMARK 921   NORMALIZED FREE ENERGY PREDICTED BY IDOCK:   -4.61 KCAL/MOL
REMARK 922        TOTAL FREE ENERGY PREDICTED BY IDOCK:   -6.21 KCAL/MOL
REMARK 923 INTER-LIGAND FREE ENERGY PREDICTED BY IDOCK:   -5.98 KCAL/MOL
REMARK 924 INTRA-LIGAND FREE ENERGY PREDICTED BY IDOCK:   -0.22 KCAL/MOL
REMARK 927      BINDING AFFINITY PREDICTED BY RF-SCORE:    0.00 PKD
ROOT
HETATM    1  C   UNL     1     -10.606   4.379  73.972  1.00  0.00    -0.270 C  
HETATM    2  O   UNL     1     -10.605   4.053  72.585  1.00  0.00    -0.172 OA 
ENDROOT
BRANCH   2   3
HETATM    3  C   UNL     1      -9.892   4.894  71.768  1.00  0.00    -0.180 A  
HETATM    4  C   UNL     1      -9.476   4.596  70.475  1.00  0.00    -0.247 A  
HETATM    5  C   UNL     1      -8.734   5.525  69.744  1.00  0.00    -0.118 A  
HETATM    6  C   UNL     1      -8.407   6.778  70.284  1.00  0.00    -0.134 A  
HETATM    7  C   UNL     1      -9.584   6.142  72.312  1.00  0.00    -0.162 A  
HETATM    8  C   UNL     1      -8.847   7.078  71.579  1.00  0.00    -0.128 A  
BRANCH   6   9
HETATM    9  C   UNL     1      -7.586   7.764  69.468  1.00  0.00    -0.100 C  
HETATM   10  C   UNL     1      -8.351   8.649  68.423  1.00  0.00    -0.127 C  
HETATM   11  C   UNL     1      -9.267   9.638  69.168  1.00  0.00    -0.168 C  
HETATM   12  C   UNL     1      -9.167   7.776  67.449  1.00  0.00    -0.156 C  
HETATM   13  N   UNL     1      -7.324   9.412  67.667  1.00  0.00    -0.083 NA 
HETATM   14  H   UNL     1      -6.647   8.771  67.254  1.00  0.00     0.000 HD 
BRANCH  13  15
HETATM   15  C   UNL     1      -7.844  10.333  66.631  1.00  0.00    -0.116 C  
BRANCH  15  16
HETATM   16  C   UNL     1      -7.311  11.780  66.766  1.00  0.00    -0.052 C  
HETATM   17  H   UNL     1      -5.824  12.687  67.694  1.00  0.00     0.000 HD 
HETATM   18  O   UNL     1      -6.152  11.799  67.612  1.00  0.00    -0.055 OA 
BRANCH  16  19
HETATM   19  C   UNL     1      -8.371  12.745  67.251  1.00  0.00    -0.187 A  
HETATM   20  C   UNL     1      -9.662  12.739  66.695  1.00  0.00    -0.252 A  
HETATM   21  O   UNL     1      -9.903  11.865  65.665  1.00  0.00    -0.235 OA 
HETATM   22  C   UNL     1     -11.285  11.631  65.421  1.00  0.00    -0.199 C  
HETATM   23  C   UNL     1     -12.219  12.830  65.531  1.00  0.00    -0.463 C  
HETATM   24  O   UNL     1     -13.246  12.959  64.871  1.00  0.00    -0.782 OA 
HETATM   25  N   UNL     1     -11.873  13.718  66.514  1.00  0.00    -0.383 N  
HETATM   26  H   UNL     1     -12.535  14.445  66.786  1.00  0.00     0.000 HD 
HETATM   27  C   UNL     1     -10.630  13.647  67.152  1.00  0.00    -0.272 A  
HETATM   28  C   UNL     1     -10.348  14.523  68.199  1.00  0.00    -0.232 A  
HETATM   29  C   UNL     1      -9.086  14.496  68.776  1.00  0.00    -0.158 A  
HETATM   30  O   UNL     1      -8.749  15.317  69.809  1.00  0.00    -0.397 OA 
HETATM   31  C   UNL     1      -8.103  13.627  68.309  1.00  0.00    -0.155 A  
HETATM   32  H   UNL     1      -7.885  15.299  70.205  1.00  0.00     0.000 HD 
ENDBRANCH  16  19
ENDBRANCH  15  16
ENDBRANCH  13  15
ENDBRANCH   6   9
ENDBRANCH   2   3
TORSDOF 5
ENDMDL
MODEL      185
REMARK 921   NORMALIZED FREE ENERGY PREDICTED BY IDOCK:   -4.59 KCAL/MOL
REMARK 922        TOTAL FREE ENERGY PREDICTED BY IDOCK:   -6.17 KCAL/MOL
REMARK 923 INTER-LIGAND FREE ENERGY PREDICTED BY IDOCK:   -5.50 KCAL/MOL
REMARK 924 INTRA-LIGAND FREE ENERGY PREDICTED BY IDOCK:   -0.67 KCAL/MOL
REMARK 927      BINDING AFFINITY PREDICTED BY RF-SCORE:    0.00 PKD
ROOT
HETATM    1  C   UNL     1      -6.674  17.638  67.587  1.00  0.00    -0.171 C  
HETATM    2  O   UNL     1      -7.922  17.017  67.291  1.00  0.00    -0.166 OA 
ENDROOT
BRANCH   2   3
HETATM    3  C   UNL     1      -7.929  15.645  67.296  1.00  0.00    -0.197 A  
HETATM    4  C   UNL     1      -6.835  14.836  67.585  1.00  0.00    -0.205 A  
HETATM    5  C   UNL     1      -6.957  13.447  67.536  1.00  0.00    -0.153 A  
HETATM    6  C   UNL     1      -8.178  12.836  67.216  1.00  0.00    -0.181 A  
HETATM    7  C   UNL     1      -9.154  15.049  66.987  1.00  0.00    -0.249 A  
HETATM    8  C   UNL     1      -9.280  13.657  66.945  1.00  0.00    -0.257 A  
BRANCH   6   9
HETATM    9  C   UNL     1      -8.275  11.320  67.158  1.00  0.00    -0.149 C  
HETATM   10  C   UNL     1      -8.425  10.554  68.519  1.00  0.00    -0.131 C  
HETATM   11  C   UNL     1      -9.801  10.873  69.134  1.00  0.00    -0.164 C  
HETATM   12  C   UNL     1      -7.291  10.930  69.493  1.00  0.00    -0.095 C  
HETATM   13  N   UNL     1      -8.355   9.102  68.209  1.00  0.00    -0.119 NA 
HETATM   14  H   UNL     1      -7.493   8.894  67.706  1.00  0.00     0.000 HD 
BRANCH  13  15
HETATM   15  C   UNL     1      -8.495   8.193  69.368  1.00  0.00    -0.127 C  
BRANCH  15  16
HETATM   16  C   UNL     1      -9.571   7.097  69.169  1.00  0.00    -0.154 C  
HETATM   17  H   UNL     1     -10.805   6.534  67.736  1.00  0.00     0.000 HD 
HETATM   18  O   UNL     1     -10.146   7.206  67.858  1.00  0.00    -0.158 OA 
BRANCH  16  19
HETATM   19  C   UNL     1     -10.632   7.124  70.247  1.00  0.00    -0.245 A  
HETATM   20  C   UNL     1     -10.596   6.216  71.319  1.00  0.00    -0.243 A  
HETATM   21  O   UNL     1      -9.597   5.275  71.318  1.00  0.00    -0.150 OA 
HETATM   22  C   UNL     1      -9.383   4.663  72.584  1.00  0.00    -0.130 C  
HETATM   23  C   UNL     1     -10.618   4.344  73.415  1.00  0.00    -0.214 C  
HETATM   24  O   UNL     1     -10.692   3.398  74.195  1.00  0.00    -0.190 OA 
HETATM   25  N   UNL     1     -11.621   5.269  73.303  1.00  0.00    -0.521 N  
HETATM   26  H   UNL     1     -12.403   5.242  73.957  1.00  0.00     0.000 HD 
HETATM   27  C   UNL     1     -11.594   6.251  72.306  1.00  0.00    -0.309 A  
HETATM   28  C   UNL     1     -12.596   7.219  72.273  1.00  0.00    -0.062 A  
HETATM   29  C   UNL     1     -12.603   8.144  71.237  1.00  0.00    -0.229 A  
HETATM   30  O   UNL     1     -13.546   9.123  71.152  1.00  0.00    -0.546 OA 
HETATM   31  C   UNL     1     -11.642   8.099  70.230  1.00  0.00     0.011 A  
HETATM   32  H   UNL     1     -13.552   9.755  70.444  1.00  0.00     0.000 HD 
ENDBRANCH  16  19
ENDBRANCH  15  16
ENDBRANCH  13  15
ENDBRANCH   6   9
ENDBRANCH   2   3
TORSDOF 5
ENDMDL
MODEL      186
REMARK 921   NORMALIZED FREE ENERGY PREDICTED BY IDOCK:   -4.58 KCAL/MOL
REMARK 922        TOTAL FREE ENERGY PREDICTED BY IDOCK:   -6.16 KCAL/MOL
REMARK 923 INTER-LIGAND FREE ENERGY PREDICTED BY IDOCK:   -5.99 KCAL/MOL
REMARK 924 INTRA-LIGAND FREE ENERGY PREDICTED BY IDOCK:   -0.17 KCAL/MOL
REMARK 927      BINDING AFFINITY PREDICTED BY RF-SCORE:    0.00 PKD
ROOT
HETATM    1  C   UNL     1      -8.104  19.517  67.171  1.00  0.00    -0.271 C  
HETATM    2  O   UNL     1      -9.494  19.322  67.419  1.00  0.00    -0.299 OA 
ENDROOT
BRANCH   2   3
HETATM    3  C   UNL     1      -9.953  18.035  67.303  1.00  0.00    -0.323 A  
HETATM    4  C   UNL     1     -10.577  17.311  68.314  1.00  0.00    -0.383 A  
HETATM    5  C   UNL     1     -10.983  15.995  68.086  1.00  0.00    -0.339 A  
HETATM    6  C   UNL     1     -10.792  15.382  66.839  1.00  0.00    -0.313 A  
HETATM    7  C   UNL     1      -9.767  17.439  66.054  1.00  0.00    -0.172 A  
HETATM    8  C   UNL     1     -10.181  16.124  65.821  1.00  0.00    -0.397 A  
BRANCH   6   9
HETATM    9  C   UNL     1     -11.234  13.942  66.626  1.00  0.00    -0.328 C  
HETATM   10  C   UNL     1     -10.821  12.893  67.716  1.00  0.00    -0.229 C  
HETATM   11  C   UNL     1     -11.572  13.197  69.026  1.00  0.00    -0.360 C  
HETATM   12  C   UNL     1      -9.296  12.902  67.946  1.00  0.00    -0.208 C  
HETATM   13  N   UNL     1     -11.241  11.558  67.214  1.00  0.00    -0.293 NA 
HETATM   14  H   UNL     1     -10.833  11.387  66.295  1.00  0.00     0.000 HD 
BRANCH  13  15
HETATM   15  C   UNL     1     -10.956  10.417  68.113  1.00  0.00    -0.281 C  
BRANCH  15  16
HETATM   16  C   UNL     1      -9.985   9.377  67.503  1.00  0.00    -0.199 C  
HETATM   17  H   UNL     1     -10.131   7.703  66.469  1.00  0.00     0.000 HD 
HETATM   18  O   UNL     1     -10.726   8.341  66.843  1.00  0.00    -0.299 OA 
BRANCH  16  19
HETATM   19  C   UNL     1      -9.026   8.810  68.527  1.00  0.00    -0.138 A  
HETATM   20  C   UNL     1      -7.964   7.976  68.139  1.00  0.00    -0.128 A  
HETATM   21  O   UNL     1      -7.867   7.654  66.808  1.00  0.00    -0.103 OA 
HETATM   22  C   UNL     1      -6.590   7.152  66.430  1.00  0.00    -0.052 C  
HETATM   23  C   UNL     1      -5.898   6.214  67.410  1.00  0.00    -0.017 C  
HETATM   24  O   UNL     1      -5.139   5.310  67.071  1.00  0.00    -0.004 OA 
HETATM   25  N   UNL     1      -6.110   6.528  68.726  1.00  0.00    -0.024 N  
HETATM   26  H   UNL     1      -5.542   6.078  69.445  1.00  0.00     0.000 HD 
HETATM   27  C   UNL     1      -7.089   7.452  69.103  1.00  0.00    -0.079 A  
HETATM   28  C   UNL     1      -7.220   7.798  70.447  1.00  0.00    -0.058 A  
HETATM   29  C   UNL     1      -8.243   8.659  70.823  1.00  0.00    -0.142 A  
HETATM   30  O   UNL     1      -8.420   9.047  72.117  1.00  0.00    -0.365 OA 
HETATM   31  C   UNL     1      -9.142   9.156  69.882  1.00  0.00    -0.188 A  
HETATM   32  H   UNL     1      -9.119   9.635  72.374  1.00  0.00     0.000 HD 
ENDBRANCH  16  19
ENDBRANCH  15  16
ENDBRANCH  13  15
ENDBRANCH   6   9
ENDBRANCH   2   3
TORSDOF 5
ENDMDL
MODEL      187
REMARK 921   NORMALIZED FREE ENERGY PREDICTED BY IDOCK:   -4.53 KCAL/MOL
REMARK 922        TOTAL FREE ENERGY PREDICTED BY IDOCK:   -6.10 KCAL/MOL
REMARK 923 INTER-LIGAND FREE ENERGY PREDICTED BY IDOCK:   -6.29 KCAL/MOL
REMARK 924 INTRA-LIGAND FREE ENERGY PREDICTED BY IDOCK:    0.19 KCAL/MOL
REMARK 927      BINDING AFFINITY PREDICTED BY RF-SCORE:    0.00 PKD
ROOT
HETATM    1  C   UNL     1      -5.656   3.981  63.436  1.00  0.00    -0.013 C  
HETATM    2  O   UNL     1      -7.065   3.959  63.641  1.00  0.00    -0.047 OA 
ENDROOT
BRANCH   2   3
HETATM    3  C   UNL     1      -7.587   5.000  64.365  1.00  0.00    -0.077 A  
HETATM    4  C   UNL     1      -6.928   6.193  64.646  1.00  0.00    -0.051 A  
HETATM    5  C   UNL     1      -7.553   7.175  65.416  1.00  0.00    -0.100 A  
HETATM    6  C   UNL     1      -8.855   6.995  65.906  1.00  0.00    -0.126 A  
HETATM    7  C   UNL     1      -8.888   4.813  64.838  1.00  0.00    -0.153 A  
HETATM    8  C   UNL     1      -9.519   5.800  65.602  1.00  0.00     0.067 A  
BRANCH   6   9
HETATM    9  C   UNL     1      -9.504   8.078  66.753  1.00  0.00    -0.259 C  
HETATM   10  C   UNL     1      -9.168   9.569  66.398  1.00  0.00    -0.166 C  
HETATM   11  C   UNL     1      -9.782   9.916  65.029  1.00  0.00    -0.359 C  
HETATM   12  C   UNL     1      -7.645   9.807  66.390  1.00  0.00    -0.099 C  
HETATM   13  N   UNL     1      -9.800  10.416  67.443  1.00  0.00    -0.174 NA 
HETATM   14  H   UNL     1      -9.480  10.126  68.367  1.00  0.00     0.000 HD 
BRANCH  13  15
HETATM   15  C   UNL     1      -9.616  11.876  67.282  1.00  0.00    -0.177 C  
BRANCH  15  16
HETATM   16  C   UNL     1     -10.910  12.621  66.875  1.00  0.00    -0.254 C  
HETATM   17  H   UNL     1     -11.605  13.526  65.264  1.00  0.00     0.000 HD 
HETATM   18  O   UNL     1     -10.811  13.069  65.514  1.00  0.00    -0.273 OA 
BRANCH  16  19
HETATM   19  C   UNL     1     -11.242  13.760  67.814  1.00  0.00    -0.312 A  
HETATM   20  C   UNL     1     -11.789  13.513  69.084  1.00  0.00    -0.340 A  
HETATM   21  O   UNL     1     -12.058  12.208  69.414  1.00  0.00    -0.268 OA 
HETATM   22  C   UNL     1     -12.230  11.992  70.810  1.00  0.00    -0.286 C  
HETATM   23  C   UNL     1     -12.987  13.060  71.587  1.00  0.00    -0.321 C  
HETATM   24  O   UNL     1     -13.674  12.828  72.577  1.00  0.00    -0.523 OA 
HETATM   25  N   UNL     1     -12.754  14.338  71.151  1.00  0.00    -0.339 N  
HETATM   26  H   UNL     1     -13.063  15.125  71.720  1.00  0.00     0.000 HD 
HETATM   27  C   UNL     1     -12.100  14.582  69.939  1.00  0.00    -0.336 A  
HETATM   28  C   UNL     1     -11.815  15.896  69.569  1.00  0.00    -0.310 A  
HETATM   29  C   UNL     1     -11.234  16.134  68.330  1.00  0.00    -0.358 A  
HETATM   30  O   UNL     1     -10.920  17.392  67.913  1.00  0.00    -0.332 OA 
HETATM   31  C   UNL     1     -10.955  15.087  67.456  1.00  0.00    -0.307 A  
HETATM   32  H   UNL     1     -10.522  17.556  67.066  1.00  0.00     0.000 HD 
ENDBRANCH  16  19
ENDBRANCH  15  16
ENDBRANCH  13  15
ENDBRANCH   6   9
ENDBRANCH   2   3
TORSDOF 5
ENDMDL
MODEL      188
REMARK 921   NORMALIZED FREE ENERGY PREDICTED BY IDOCK:   -4.53 KCAL/MOL
REMARK 922        TOTAL FREE ENERGY PREDICTED BY IDOCK:   -6.10 KCAL/MOL
REMARK 923 INTER-LIGAND FREE ENERGY PREDICTED BY IDOCK:   -5.56 KCAL/MOL
REMARK 924 INTRA-LIGAND FREE ENERGY PREDICTED BY IDOCK:   -0.53 KCAL/MOL
REMARK 927      BINDING AFFINITY PREDICTED BY RF-SCORE:    0.00 PKD
ROOT
HETATM    1  C   UNL     1     -10.675   3.222  72.718  1.00  0.00    -0.024 C  
HETATM    2  O   UNL     1     -10.687   4.457  73.429  1.00  0.00    -0.191 OA 
ENDROOT
BRANCH   2   3
HETATM    3  C   UNL     1     -10.338   5.571  72.709  1.00  0.00    -0.194 A  
HETATM    4  C   UNL     1      -9.588   5.569  71.538  1.00  0.00    -0.188 A  
HETATM    5  C   UNL     1      -9.274   6.771  70.903  1.00  0.00    -0.157 A  
HETATM    6  C   UNL     1      -9.719   8.000  71.414  1.00  0.00    -0.205 A  
HETATM    7  C   UNL     1     -10.797   6.787  73.222  1.00  0.00    -0.302 A  
HETATM    8  C   UNL     1     -10.491   7.993  72.582  1.00  0.00    -0.408 A  
BRANCH   6   9
HETATM    9  C   UNL     1      -9.350   9.294  70.706  1.00  0.00    -0.322 C  
HETATM   10  C   UNL     1     -10.389   9.882  69.689  1.00  0.00    -0.241 C  
HETATM   11  C   UNL     1     -11.637  10.360  70.455  1.00  0.00    -0.433 C  
HETATM   12  C   UNL     1     -10.771   8.837  68.621  1.00  0.00    -0.109 C  
HETATM   13  N   UNL     1      -9.744  11.050  69.035  1.00  0.00    -0.342 NA 
HETATM   14  H   UNL     1      -8.860  10.767  68.611  1.00  0.00     0.000 HD 
BRANCH  13  15
HETATM   15  C   UNL     1     -10.573  11.767  68.041  1.00  0.00    -0.206 C  
BRANCH  15  16
HETATM   16  C   UNL     1      -9.750  12.417  66.902  1.00  0.00    -0.215 C  
HETATM   17  H   UNL     1      -9.429  12.080  64.984  1.00  0.00     0.000 HD 
HETATM   18  O   UNL     1      -9.933  11.681  65.683  1.00  0.00    -0.223 OA 
BRANCH  16  19
HETATM   19  C   UNL     1      -8.285  12.559  67.253  1.00  0.00    -0.184 A  
HETATM   20  C   UNL     1      -7.815  13.683  67.953  1.00  0.00    -0.159 A  
HETATM   21  O   UNL     1      -8.725  14.666  68.254  1.00  0.00    -0.160 OA 
HETATM   22  C   UNL     1      -8.290  15.558  69.273  1.00  0.00    -0.257 C  
HETATM   23  C   UNL     1      -6.824  15.970  69.252  1.00  0.00    -0.201 C  
HETATM   24  O   UNL     1      -6.413  17.058  69.645  1.00  0.00    -0.238 OA 
HETATM   25  N   UNL     1      -5.971  14.976  68.851  1.00  0.00    -0.088 N  
HETATM   26  H   UNL     1      -4.967  15.095  68.984  1.00  0.00     0.000 HD 
HETATM   27  C   UNL     1      -6.451  13.802  68.263  1.00  0.00    -0.110 A  
HETATM   28  C   UNL     1      -5.556  12.784  67.938  1.00  0.00    -0.110 A  
HETATM   29  C   UNL     1      -6.031  11.654  67.286  1.00  0.00    -0.112 A  
HETATM   30  O   UNL     1      -5.211  10.618  66.951  1.00  0.00    -0.040 OA 
HETATM   31  C   UNL     1      -7.374  11.539  66.939  1.00  0.00    -0.140 A  
HETATM   32  H   UNL     1      -5.535   9.845  66.506  1.00  0.00     0.000 HD 
ENDBRANCH  16  19
ENDBRANCH  15  16
ENDBRANCH  13  15
ENDBRANCH   6   9
ENDBRANCH   2   3
TORSDOF 5
ENDMDL
MODEL      189
REMARK 921   NORMALIZED FREE ENERGY PREDICTED BY IDOCK:   -4.51 KCAL/MOL
REMARK 922        TOTAL FREE ENERGY PREDICTED BY IDOCK:   -6.08 KCAL/MOL
REMARK 923 INTER-LIGAND FREE ENERGY PREDICTED BY IDOCK:   -6.05 KCAL/MOL
REMARK 924 INTRA-LIGAND FREE ENERGY PREDICTED BY IDOCK:   -0.03 KCAL/MOL
REMARK 927      BINDING AFFINITY PREDICTED BY RF-SCORE:    0.00 PKD
ROOT
HETATM    1  C   UNL     1      -8.887  18.834  67.766  1.00  0.00    -0.290 C  
HETATM    2  O   UNL     1     -10.207  18.541  68.216  1.00  0.00    -0.361 OA 
ENDROOT
BRANCH   2   3
HETATM    3  C   UNL     1     -10.633  17.250  68.033  1.00  0.00    -0.394 A  
HETATM    4  C   UNL     1     -11.254  16.464  68.999  1.00  0.00    -0.291 A  
HETATM    5  C   UNL     1     -11.625  15.152  68.704  1.00  0.00    -0.358 A  
HETATM    6  C   UNL     1     -11.401  14.602  67.433  1.00  0.00    -0.368 A  
HETATM    7  C   UNL     1     -10.415  16.718  66.760  1.00  0.00    -0.258 A  
HETATM    8  C   UNL     1     -10.794  15.406  66.460  1.00  0.00    -0.298 A  
BRANCH   6   9
HETATM    9  C   UNL     1     -11.805  13.165  67.147  1.00  0.00    -0.424 C  
HETATM   10  C   UNL     1     -11.079  12.036  67.959  1.00  0.00    -0.241 C  
HETATM   11  C   UNL     1     -11.496  12.126  69.439  1.00  0.00    -0.355 C  
HETATM   12  C   UNL     1      -9.548  12.147  67.815  1.00  0.00    -0.195 C  
HETATM   13  N   UNL     1     -11.539  10.737  67.403  1.00  0.00    -0.489 NA 
HETATM   14  H   UNL     1     -11.364  10.706  66.399  1.00  0.00     0.000 HD 
BRANCH  13  15
HETATM   15  C   UNL     1     -10.980   9.529  68.050  1.00  0.00    -0.096 C  
BRANCH  15  16
HETATM   16  C   UNL     1     -10.418   8.493  67.046  1.00  0.00    -0.292 C  
HETATM   17  H   UNL     1     -10.653   6.568  66.680  1.00  0.00     0.000 HD 
HETATM   18  O   UNL     1     -10.998   7.204  67.296  1.00  0.00    -0.310 OA 
BRANCH  16  19
HETATM   19  C   UNL     1      -8.906   8.437  67.057  1.00  0.00    -0.146 A  
HETATM   20  C   UNL     1      -8.194   8.361  68.266  1.00  0.00    -0.124 A  
HETATM   21  O   UNL     1      -8.920   8.394  69.431  1.00  0.00    -0.150 OA 
HETATM   22  C   UNL     1      -8.204   7.928  70.568  1.00  0.00    -0.118 C  
HETATM   23  C   UNL     1      -6.736   8.321  70.669  1.00  0.00    -0.037 C  
HETATM   24  O   UNL     1      -6.146   8.494  71.731  1.00  0.00    -0.047 OA 
HETATM   25  N   UNL     1      -6.086   8.363  69.464  1.00  0.00    -0.036 N  
HETATM   26  H   UNL     1      -5.068   8.430  69.447  1.00  0.00     0.000 HD 
HETATM   27  C   UNL     1      -6.791   8.317  68.257  1.00  0.00    -0.065 A  
HETATM   28  C   UNL     1      -6.087   8.287  67.055  1.00  0.00    -0.054 A  
HETATM   29  C   UNL     1      -6.795   8.317  65.860  1.00  0.00    -0.064 A  
HETATM   30  O   UNL     1      -6.169   8.279  64.651  1.00  0.00    -0.062 OA 
HETATM   31  C   UNL     1      -8.185   8.399  65.853  1.00  0.00    -0.123 A  
HETATM   32  H   UNL     1      -6.653   8.300  63.834  1.00  0.00     0.000 HD 
ENDBRANCH  16  19
ENDBRANCH  15  16
ENDBRANCH  13  15
ENDBRANCH   6   9
ENDBRANCH   2   3
TORSDOF 5
ENDMDL
MODEL      190
REMARK 921   NORMALIZED FREE ENERGY PREDICTED BY IDOCK:   -4.49 KCAL/MOL
REMARK 922        TOTAL FREE ENERGY PREDICTED BY IDOCK:   -6.05 KCAL/MOL
REMARK 923 INTER-LIGAND FREE ENERGY PREDICTED BY IDOCK:   -5.36 KCAL/MOL
REMARK 924 INTRA-LIGAND FREE ENERGY PREDICTED BY IDOCK:   -0.69 KCAL/MOL
REMARK 927      BINDING AFFINITY PREDICTED BY RF-SCORE:    0.00 PKD
ROOT
HETATM    1  C   UNL     1     -10.460  19.757  65.857  1.00  0.00    -0.486 C  
HETATM    2  O   UNL     1      -9.743  19.554  67.071  1.00  0.00    -0.316 OA 
ENDROOT
BRANCH   2   3
HETATM    3  C   UNL     1      -9.525  18.249  67.432  1.00  0.00    -0.266 A  
HETATM    4  C   UNL     1     -10.102  17.611  68.526  1.00  0.00    -0.375 A  
HETATM    5  C   UNL     1      -9.787  16.281  68.809  1.00  0.00    -0.238 A  
HETATM    6  C   UNL     1      -8.904  15.555  67.996  1.00  0.00    -0.165 A  
HETATM    7  C   UNL     1      -8.654  17.533  66.608  1.00  0.00    -0.284 A  
HETATM    8  C   UNL     1      -8.343  16.198  66.885  1.00  0.00    -0.271 A  
BRANCH   6   9
HETATM    9  C   UNL     1      -8.571  14.112  68.338  1.00  0.00    -0.176 C  
HETATM   10  C   UNL     1      -9.614  13.014  67.930  1.00  0.00    -0.215 C  
HETATM   11  C   UNL     1      -9.663  12.905  66.394  1.00  0.00    -0.263 C  
HETATM   12  C   UNL     1     -11.010  13.337  68.499  1.00  0.00    -0.291 C  
HETATM   13  N   UNL     1      -9.131  11.726  68.493  1.00  0.00    -0.302 NA 
HETATM   14  H   UNL     1      -8.993  11.816  69.500  1.00  0.00     0.000 HD 
BRANCH  13  15
HETATM   15  C   UNL     1      -9.973  10.544  68.203  1.00  0.00    -0.153 C  
BRANCH  15  16
HETATM   16  C   UNL     1      -9.164   9.302  67.759  1.00  0.00    -0.129 C  
HETATM   17  H   UNL     1      -9.226   7.995  66.281  1.00  0.00     0.000 HD 
HETATM   18  O   UNL     1      -9.722   8.757  66.554  1.00  0.00    -0.214 OA 
BRANCH  16  19
HETATM   19  C   UNL     1      -9.064   8.256  68.849  1.00  0.00    -0.147 A  
HETATM   20  C   UNL     1      -8.147   8.398  69.904  1.00  0.00    -0.119 A  
HETATM   21  O   UNL     1      -7.315   9.489  69.877  1.00  0.00    -0.076 OA 
HETATM   22  C   UNL     1      -6.707   9.780  71.130  1.00  0.00     0.114 C  
HETATM   23  C   UNL     1      -6.249   8.594  71.968  1.00  0.00    -0.072 C  
HETATM   24  O   UNL     1      -5.288   8.627  72.732  1.00  0.00    -0.044 OA 
HETATM   25  N   UNL     1      -7.067   7.500  71.881  1.00  0.00    -0.062 N  
HETATM   26  H   UNL     1      -6.949   6.733  72.543  1.00  0.00     0.000 HD 
HETATM   27  C   UNL     1      -8.062   7.414  70.902  1.00  0.00    -0.105 A  
HETATM   28  C   UNL     1      -8.922   6.317  70.896  1.00  0.00    -0.147 A  
HETATM   29  C   UNL     1      -9.858   6.202  69.876  1.00  0.00    -0.168 A  
HETATM   30  O   UNL     1     -10.735   5.162  69.817  1.00  0.00    -0.225 OA 
HETATM   31  C   UNL     1      -9.929   7.151  68.859  1.00  0.00    -0.163 A  
HETATM   32  H   UNL     1     -11.375   5.083  69.120  1.00  0.00     0.000 HD 
ENDBRANCH  16  19
ENDBRANCH  15  16
ENDBRANCH  13  15
ENDBRANCH   6   9
ENDBRANCH   2   3
TORSDOF 5
ENDMDL
MODEL      191
REMARK 921   NORMALIZED FREE ENERGY PREDICTED BY IDOCK:   -4.49 KCAL/MOL
REMARK 922        TOTAL FREE ENERGY PREDICTED BY IDOCK:   -6.05 KCAL/MOL
REMARK 923 INTER-LIGAND FREE ENERGY PREDICTED BY IDOCK:   -5.69 KCAL/MOL
REMARK 924 INTRA-LIGAND FREE ENERGY PREDICTED BY IDOCK:   -0.36 KCAL/MOL
REMARK 927      BINDING AFFINITY PREDICTED BY RF-SCORE:    0.00 PKD
ROOT
HETATM    1  C   UNL     1      -7.876   1.775  64.133  1.00  0.00    -0.064 C  
HETATM    2  O   UNL     1      -8.473   2.900  63.495  1.00  0.00    -0.085 OA 
ENDROOT
BRANCH   2   3
HETATM    3  C   UNL     1      -8.264   4.115  64.096  1.00  0.00    -0.093 A  
HETATM    4  C   UNL     1      -7.375   5.089  63.654  1.00  0.00    -0.051 A  
HETATM    5  C   UNL     1      -7.230   6.282  64.363  1.00  0.00    -0.061 A  
HETATM    6  C   UNL     1      -7.984   6.536  65.518  1.00  0.00    -0.117 A  
HETATM    7  C   UNL     1      -9.029   4.361  65.239  1.00  0.00    -0.140 A  
HETATM    8  C   UNL     1      -8.892   5.560  65.946  1.00  0.00    -0.150 A  
BRANCH   6   9
HETATM    9  C   UNL     1      -7.795   7.841  66.276  1.00  0.00    -0.091 C  
HETATM   10  C   UNL     1      -8.864   8.966  66.054  1.00  0.00    -0.172 C  
HETATM   11  C   UNL     1     -10.209   8.517  66.656  1.00  0.00    -0.345 C  
HETATM   12  C   UNL     1      -9.020   9.295  64.555  1.00  0.00    -0.183 C  
HETATM   13  N   UNL     1      -8.385  10.171  66.781  1.00  0.00    -0.122 NA 
HETATM   14  H   UNL     1      -7.447  10.418  66.464  1.00  0.00     0.000 HD 
BRANCH  13  15
HETATM   15  C   UNL     1      -9.269  11.355  66.712  1.00  0.00    -0.177 C  
BRANCH  15  16
HETATM   16  C   UNL     1      -8.925  12.445  67.756  1.00  0.00    -0.182 C  
HETATM   17  H   UNL     1      -7.646  12.664  69.243  1.00  0.00     0.000 HD 
HETATM   18  O   UNL     1      -7.858  11.995  68.603  1.00  0.00    -0.133 OA 
BRANCH  16  19
HETATM   19  C   UNL     1     -10.131  12.877  68.561  1.00  0.00    -0.193 A  
HETATM   20  C   UNL     1     -10.793  11.976  69.412  1.00  0.00    -0.001 A  
HETATM   21  O   UNL     1     -10.337  10.681  69.440  1.00  0.00    -0.218 OA 
HETATM   22  C   UNL     1     -10.774   9.942  70.574  1.00  0.00    -0.317 C  
HETATM   23  C   UNL     1     -12.207  10.169  71.036  1.00  0.00    -0.374 C  
HETATM   24  O   UNL     1     -12.896   9.309  71.576  1.00  0.00    -0.323 OA 
HETATM   25  N   UNL     1     -12.641  11.461  70.896  1.00  0.00    -0.371 N  
HETATM   26  H   UNL     1     -13.510  11.749  71.346  1.00  0.00     0.000 HD 
HETATM   27  C   UNL     1     -11.915  12.392  70.145  1.00  0.00    -0.298 A  
HETATM   28  C   UNL     1     -12.352  13.714  70.090  1.00  0.00    -0.372 A  
HETATM   29  C   UNL     1     -11.669  14.615  69.283  1.00  0.00    -0.312 A  
HETATM   30  O   UNL     1     -12.037  15.923  69.192  1.00  0.00    -0.487 OA 
HETATM   31  C   UNL     1     -10.577  14.207  68.520  1.00  0.00    -0.257 A  
HETATM   32  H   UNL     1     -11.570  16.539  68.640  1.00  0.00     0.000 HD 
ENDBRANCH  16  19
ENDBRANCH  15  16
ENDBRANCH  13  15
ENDBRANCH   6   9
ENDBRANCH   2   3
TORSDOF 5
ENDMDL
MODEL      192
REMARK 921   NORMALIZED FREE ENERGY PREDICTED BY IDOCK:   -4.49 KCAL/MOL
REMARK 922        TOTAL FREE ENERGY PREDICTED BY IDOCK:   -6.05 KCAL/MOL
REMARK 923 INTER-LIGAND FREE ENERGY PREDICTED BY IDOCK:   -6.00 KCAL/MOL
REMARK 924 INTRA-LIGAND FREE ENERGY PREDICTED BY IDOCK:   -0.05 KCAL/MOL
REMARK 927      BINDING AFFINITY PREDICTED BY RF-SCORE:    0.00 PKD
ROOT
HETATM    1  C   UNL     1      -6.217   3.546  62.880  1.00  0.00    -0.014 C  
HETATM    2  O   UNL     1      -6.533   3.751  64.254  1.00  0.00    -0.035 OA 
ENDROOT
BRANCH   2   3
HETATM    3  C   UNL     1      -6.898   5.025  64.606  1.00  0.00    -0.049 A  
HETATM    4  C   UNL     1      -6.117   5.911  65.341  1.00  0.00    -0.029 A  
HETATM    5  C   UNL     1      -6.604   7.179  65.659  1.00  0.00    -0.051 A  
HETATM    6  C   UNL     1      -7.875   7.596  65.235  1.00  0.00    -0.122 A  
HETATM    7  C   UNL     1      -8.160   5.433  64.167  1.00  0.00    -0.123 A  
HETATM    8  C   UNL     1      -8.647   6.707  64.478  1.00  0.00     0.273 A  
BRANCH   6   9
HETATM    9  C   UNL     1      -8.383   8.979  65.609  1.00  0.00    -0.137 C  
HETATM   10  C   UNL     1      -9.023   9.152  67.031  1.00  0.00    -0.123 C  
HETATM   11  C   UNL     1      -7.931   8.984  68.104  1.00  0.00    -0.101 C  
HETATM   12  C   UNL     1     -10.166   8.141  67.251  1.00  0.00    -0.348 C  
HETATM   13  N   UNL     1      -9.562  10.536  67.098  1.00  0.00    -0.166 NA 
HETATM   14  H   UNL     1     -10.210  10.695  66.327  1.00  0.00     0.000 HD 
BRANCH  13  15
HETATM   15  C   UNL     1     -10.200  10.913  68.379  1.00  0.00    -0.178 C  
BRANCH  15  16
HETATM   16  C   UNL     1     -11.627  11.490  68.214  1.00  0.00    -0.308 C  
HETATM   17  H   UNL     1     -12.770  12.101  66.725  1.00  0.00     0.000 HD 
HETATM   18  O   UNL     1     -11.895  11.747  66.827  1.00  0.00    -0.586 OA 
BRANCH  16  19
HETATM   19  C   UNL     1     -11.856  12.722  69.063  1.00  0.00    -0.344 A  
HETATM   20  C   UNL     1     -11.457  13.993  68.615  1.00  0.00    -0.302 A  
HETATM   21  O   UNL     1     -10.806  14.062  67.408  1.00  0.00    -0.276 OA 
HETATM   22  C   UNL     1     -10.784  15.367  66.842  1.00  0.00    -0.314 C  
HETATM   23  C   UNL     1     -10.571  16.533  67.800  1.00  0.00    -0.332 C  
HETATM   24  O   UNL     1     -10.004  17.577  67.491  1.00  0.00    -0.294 OA 
HETATM   25  N   UNL     1     -11.163  16.365  69.023  1.00  0.00    -0.317 N  
HETATM   26  H   UNL     1     -11.236  17.161  69.657  1.00  0.00     0.000 HD 
HETATM   27  C   UNL     1     -11.670  15.123  69.420  1.00  0.00    -0.332 A  
HETATM   28  C   UNL     1     -12.331  15.013  70.642  1.00  0.00    -0.404 A  
HETATM   29  C   UNL     1     -12.765  13.762  71.061  1.00  0.00    -0.343 A  
HETATM   30  O   UNL     1     -13.427  13.588  72.239  1.00  0.00    -0.479 OA 
HETATM   31  C   UNL     1     -12.527  12.627  70.292  1.00  0.00    -0.163 A  
HETATM   32  H   UNL     1     -13.724  12.732  72.526  1.00  0.00     0.000 HD 
ENDBRANCH  16  19
ENDBRANCH  15  16
ENDBRANCH  13  15
ENDBRANCH   6   9
ENDBRANCH   2   3
TORSDOF 5
ENDMDL
MODEL      193
REMARK 921   NORMALIZED FREE ENERGY PREDICTED BY IDOCK:   -4.47 KCAL/MOL
REMARK 922        TOTAL FREE ENERGY PREDICTED BY IDOCK:   -6.02 KCAL/MOL
REMARK 923 INTER-LIGAND FREE ENERGY PREDICTED BY IDOCK:   -5.80 KCAL/MOL
REMARK 924 INTRA-LIGAND FREE ENERGY PREDICTED BY IDOCK:   -0.22 KCAL/MOL
REMARK 927      BINDING AFFINITY PREDICTED BY RF-SCORE:    0.00 PKD
ROOT
HETATM    1  C   UNL     1     -11.017  15.524  64.968  1.00  0.00    -0.440 C  
HETATM    2  O   UNL     1     -11.302  14.326  64.252  1.00  0.00    -0.306 OA 
ENDROOT
BRANCH   2   3
HETATM    3  C   UNL     1     -11.129  13.154  64.944  1.00  0.00    -0.314 A  
HETATM    4  C   UNL     1     -11.491  12.943  66.270  1.00  0.00    -0.395 A  
HETATM    5  C   UNL     1     -11.243  11.711  66.878  1.00  0.00    -0.376 A  
HETATM    6  C   UNL     1     -10.646  10.658  66.168  1.00  0.00    -0.211 A  
HETATM    7  C   UNL     1     -10.544  12.110  64.223  1.00  0.00    -0.385 A  
HETATM    8  C   UNL     1     -10.303  10.872  64.827  1.00  0.00    -0.391 A  
BRANCH   6   9
HETATM    9  C   UNL     1     -10.378   9.332  66.861  1.00  0.00    -0.316 C  
HETATM   10  C   UNL     1      -9.108   9.241  67.777  1.00  0.00    -0.126 C  
HETATM   11  C   UNL     1      -9.306  10.138  69.014  1.00  0.00    -0.192 C  
HETATM   12  C   UNL     1      -7.837   9.650  67.005  1.00  0.00    -0.098 C  
HETATM   13  N   UNL     1      -8.990   7.826  68.217  1.00  0.00    -0.132 NA 
HETATM   14  H   UNL     1      -8.963   7.210  67.405  1.00  0.00     0.000 HD 
BRANCH  13  15
HETATM   15  C   UNL     1      -7.853   7.527  69.115  1.00  0.00    -0.119 C  
BRANCH  15  16
HETATM   16  C   UNL     1      -7.021   6.299  68.672  1.00  0.00    -0.080 C  
HETATM   17  H   UNL     1      -5.840   5.828  67.162  1.00  0.00     0.000 HD 
HETATM   18  O   UNL     1      -6.351   6.581  67.434  1.00  0.00    -0.034 OA 
BRANCH  16  19
HETATM   19  C   UNL     1      -7.852   5.038  68.582  1.00  0.00    -0.078 A  
HETATM   20  C   UNL     1      -8.493   4.679  67.383  1.00  0.00    -0.104 A  
HETATM   21  O   UNL     1      -8.378   5.542  66.322  1.00  0.00    -0.109 OA 
HETATM   22  C   UNL     1      -8.699   4.955  65.067  1.00  0.00    -0.149 C  
HETATM   23  C   UNL     1      -9.877   3.990  65.036  1.00  0.00    -0.202 C  
HETATM   24  O   UNL     1     -10.607   3.832  64.062  1.00  0.00    -0.257 OA 
HETATM   25  N   UNL     1      -9.998   3.221  66.163  1.00  0.00    -0.352 N  
HETATM   26  H   UNL     1     -10.634   2.423  66.159  1.00  0.00     0.000 HD 
HETATM   27  C   UNL     1      -9.267   3.510  67.320  1.00  0.00    -0.193 A  
HETATM   28  C   UNL     1      -9.363   2.658  68.419  1.00  0.00    -0.256 A  
HETATM   29  C   UNL     1      -8.692   2.993  69.589  1.00  0.00    -0.075 A  
HETATM   30  O   UNL     1      -8.735   2.199  70.695  1.00  0.00    -0.051 OA 
HETATM   31  C   UNL     1      -7.952   4.168  69.679  1.00  0.00    -0.056 A  
HETATM   32  H   UNL     1      -8.277   2.427  71.495  1.00  0.00     0.000 HD 
ENDBRANCH  16  19
ENDBRANCH  15  16
ENDBRANCH  13  15
ENDBRANCH   6   9
ENDBRANCH   2   3
TORSDOF 5
ENDMDL
MODEL      194
REMARK 921   NORMALIZED FREE ENERGY PREDICTED BY IDOCK:   -4.44 KCAL/MOL
REMARK 922        TOTAL FREE ENERGY PREDICTED BY IDOCK:   -5.99 KCAL/MOL
REMARK 923 INTER-LIGAND FREE ENERGY PREDICTED BY IDOCK:   -6.79 KCAL/MOL
REMARK 924 INTRA-LIGAND FREE ENERGY PREDICTED BY IDOCK:    0.80 KCAL/MOL
REMARK 927      BINDING AFFINITY PREDICTED BY RF-SCORE:    0.00 PKD
ROOT
HETATM    1  C   UNL     1     -14.246   6.485  72.019  1.00  0.00     0.157 C  
HETATM    2  O   UNL     1     -12.958   6.800  72.541  1.00  0.00     0.200 OA 
ENDROOT
BRANCH   2   3
HETATM    3  C   UNL     1     -12.007   7.165  71.623  1.00  0.00    -0.318 A  
HETATM    4  C   UNL     1     -11.745   6.499  70.430  1.00  0.00    -0.439 A  
HETATM    5  C   UNL     1     -10.734   6.952  69.581  1.00  0.00    -0.276 A  
HETATM    6  C   UNL     1      -9.975   8.088  69.897  1.00  0.00    -0.189 A  
HETATM    7  C   UNL     1     -11.266   8.305  71.943  1.00  0.00    -0.365 A  
HETATM    8  C   UNL     1     -10.258   8.764  71.090  1.00  0.00    -0.316 A  
BRANCH   6   9
HETATM    9  C   UNL     1      -8.871   8.548  68.959  1.00  0.00    -0.145 C  
HETATM   10  C   UNL     1      -9.168   9.792  68.050  1.00  0.00    -0.124 C  
HETATM   11  C   UNL     1      -9.290  11.049  68.932  1.00  0.00    -0.155 C  
HETATM   12  C   UNL     1     -10.451   9.579  67.221  1.00  0.00    -0.328 C  
HETATM   13  N   UNL     1      -8.006   9.950  67.137  1.00  0.00    -0.109 NA 
HETATM   14  H   UNL     1      -7.848   9.084  66.621  1.00  0.00     0.000 HD 
BRANCH  13  15
HETATM   15  C   UNL     1      -8.079  11.091  66.198  1.00  0.00    -0.141 C  
BRANCH  15  16
HETATM   16  C   UNL     1      -8.813  10.759  64.876  1.00  0.00    -0.163 C  
HETATM   17  H   UNL     1      -8.349  10.637  62.962  1.00  0.00     0.000 HD 
HETATM   18  O   UNL     1      -7.899  10.842  63.773  1.00  0.00     0.048 OA 
BRANCH  16  19
HETATM   19  C   UNL     1     -10.032  11.628  64.656  1.00  0.00    -0.291 A  
HETATM   20  C   UNL     1     -10.164  12.866  65.307  1.00  0.00    -0.278 A  
HETATM   21  O   UNL     1      -9.174  13.227  66.186  1.00  0.00    -0.131 OA 
HETATM   22  C   UNL     1      -9.161  14.615  66.499  1.00  0.00    -0.266 C  
HETATM   23  C   UNL     1     -10.512  15.296  66.678  1.00  0.00    -0.290 C  
HETATM   24  O   UNL     1     -10.705  16.244  67.432  1.00  0.00    -0.319 OA 
HETATM   25  N   UNL     1     -11.487  14.827  65.838  1.00  0.00    -0.344 N  
HETATM   26  H   UNL     1     -12.363  15.343  65.752  1.00  0.00     0.000 HD 
HETATM   27  C   UNL     1     -11.306  13.655  65.098  1.00  0.00    -0.309 A  
HETATM   28  C   UNL     1     -12.294  13.254  64.199  1.00  0.00    -0.408 A  
HETATM   29  C   UNL     1     -12.140  12.051  63.524  1.00  0.00    -0.526 A  
HETATM   30  O   UNL     1     -13.061  11.607  62.624  1.00  0.00    -0.582 OA 
HETATM   31  C   UNL     1     -11.031  11.240  63.750  1.00  0.00    -0.381 A  
HETATM   32  H   UNL     1     -12.956  10.784  62.162  1.00  0.00     0.000 HD 
ENDBRANCH  16  19
ENDBRANCH  15  16
ENDBRANCH  13  15
ENDBRANCH   6   9
ENDBRANCH   2   3
TORSDOF 5
ENDMDL
MODEL      195
REMARK 921   NORMALIZED FREE ENERGY PREDICTED BY IDOCK:   -4.39 KCAL/MOL
REMARK 922        TOTAL FREE ENERGY PREDICTED BY IDOCK:   -5.92 KCAL/MOL
REMARK 923 INTER-LIGAND FREE ENERGY PREDICTED BY IDOCK:   -5.27 KCAL/MOL
REMARK 924 INTRA-LIGAND FREE ENERGY PREDICTED BY IDOCK:   -0.65 KCAL/MOL
REMARK 927      BINDING AFFINITY PREDICTED BY RF-SCORE:    0.00 PKD
ROOT
HETATM    1  C   UNL     1      -5.679   3.627  62.681  1.00  0.00    -0.013 C  
HETATM    2  O   UNL     1      -6.824   3.821  63.508  1.00  0.00    -0.041 OA 
ENDROOT
BRANCH   2   3
HETATM    3  C   UNL     1      -6.761   4.870  64.389  1.00  0.00    -0.044 A  
HETATM    4  C   UNL     1      -7.202   4.840  65.708  1.00  0.00    -0.076 A  
HETATM    5  C   UNL     1      -7.107   5.981  66.506  1.00  0.00    -0.072 A  
HETATM    6  C   UNL     1      -6.553   7.170  66.011  1.00  0.00    -0.052 A  
HETATM    7  C   UNL     1      -6.196   6.045  63.887  1.00  0.00    -0.029 A  
HETATM    8  C   UNL     1      -6.092   7.187  64.688  1.00  0.00    -0.037 A  
BRANCH   6   9
HETATM    9  C   UNL     1      -6.475   8.399  66.902  1.00  0.00    -0.057 C  
HETATM   10  C   UNL     1      -7.804   9.196  67.149  1.00  0.00    -0.102 C  
HETATM   11  C   UNL     1      -8.764   8.333  67.990  1.00  0.00    -0.135 C  
HETATM   12  C   UNL     1      -8.462   9.604  65.816  1.00  0.00    -0.142 C  
HETATM   13  N   UNL     1      -7.443  10.414  67.920  1.00  0.00    -0.087 NA 
HETATM   14  H   UNL     1      -6.726  10.942  67.422  1.00  0.00     0.000 HD 
BRANCH  13  15
HETATM   15  C   UNL     1      -8.570  11.304  68.278  1.00  0.00    -0.153 C  
BRANCH  15  16
HETATM   16  C   UNL     1      -8.481  12.706  67.627  1.00  0.00    -0.173 C  
HETATM   17  H   UNL     1      -7.439  14.359  67.905  1.00  0.00     0.000 HD 
HETATM   18  O   UNL     1      -7.494  13.499  68.304  1.00  0.00    -0.101 OA 
BRANCH  16  19
HETATM   19  C   UNL     1      -9.821  13.407  67.577  1.00  0.00    -0.227 A  
HETATM   20  C   UNL     1     -10.625  13.348  66.426  1.00  0.00    -0.285 A  
HETATM   21  O   UNL     1     -10.122  12.679  65.338  1.00  0.00    -0.280 OA 
HETATM   22  C   UNL     1     -11.109  12.324  64.376  1.00  0.00    -0.330 C  
HETATM   23  C   UNL     1     -12.206  13.344  64.102  1.00  0.00    -0.398 C  
HETATM   24  O   UNL     1     -12.765  13.472  63.016  1.00  0.00    -0.668 OA 
HETATM   25  N   UNL     1     -12.600  14.050  65.207  1.00  0.00    -0.591 N  
HETATM   26  H   UNL     1     -13.448  14.615  65.164  1.00  0.00     0.000 HD 
HETATM   27  C   UNL     1     -11.861  14.012  66.394  1.00  0.00    -0.418 A  
HETATM   28  C   UNL     1     -12.338  14.684  67.518  1.00  0.00     0.104 A  
HETATM   29  C   UNL     1     -11.562  14.703  68.669  1.00  0.00    -0.314 A  
HETATM   30  O   UNL     1     -11.974  15.332  69.805  1.00  0.00    -0.313 OA 
HETATM   31  C   UNL     1     -10.316  14.082  68.704  1.00  0.00    -0.238 A  
HETATM   32  H   UNL     1     -11.443  15.345  70.593  1.00  0.00     0.000 HD 
ENDBRANCH  16  19
ENDBRANCH  15  16
ENDBRANCH  13  15
ENDBRANCH   6   9
ENDBRANCH   2   3
TORSDOF 5
ENDMDL
MODEL      196
REMARK 921   NORMALIZED FREE ENERGY PREDICTED BY IDOCK:   -4.38 KCAL/MOL
REMARK 922        TOTAL FREE ENERGY PREDICTED BY IDOCK:   -5.90 KCAL/MOL
REMARK 923 INTER-LIGAND FREE ENERGY PREDICTED BY IDOCK:   -5.65 KCAL/MOL
REMARK 924 INTRA-LIGAND FREE ENERGY PREDICTED BY IDOCK:   -0.25 KCAL/MOL
REMARK 927      BINDING AFFINITY PREDICTED BY RF-SCORE:    0.00 PKD
ROOT
HETATM    1  C   UNL     1     -11.462  12.822  63.942  1.00  0.00    -0.444 C  
HETATM    2  O   UNL     1     -12.137  13.189  65.142  1.00  0.00    -0.370 OA 
ENDROOT
BRANCH   2   3
HETATM    3  C   UNL     1     -11.669  12.616  66.297  1.00  0.00    -0.402 A  
HETATM    4  C   UNL     1     -11.760  13.177  67.567  1.00  0.00    -0.414 A  
HETATM    5  C   UNL     1     -11.226  12.510  68.670  1.00  0.00    -0.319 A  
HETATM    6  C   UNL     1     -10.604  11.260  68.531  1.00  0.00    -0.227 A  
HETATM    7  C   UNL     1     -11.063  11.367  66.147  1.00  0.00    -0.259 A  
HETATM    8  C   UNL     1     -10.534  10.693  67.253  1.00  0.00    -0.293 A  
BRANCH   6   9
HETATM    9  C   UNL     1     -10.020  10.564  69.749  1.00  0.00    -0.090 C  
HETATM   10  C   UNL     1     -10.934   9.533  70.499  1.00  0.00    -0.288 C  
HETATM   11  C   UNL     1     -11.166   8.307  69.595  1.00  0.00     0.085 C  
HETATM   12  C   UNL     1     -12.276  10.174  70.905  1.00  0.00    -0.455 C  
HETATM   13  N   UNL     1     -10.197   9.105  71.717  1.00  0.00    -0.316 NA 
HETATM   14  H   UNL     1      -9.944   9.921  72.275  1.00  0.00     0.000 HD 
BRANCH  13  15
HETATM   15  C   UNL     1     -10.886   8.108  72.565  1.00  0.00    -0.361 C  
BRANCH  15  16
HETATM   16  C   UNL     1      -9.928   7.084  73.219  1.00  0.00    -0.229 C  
HETATM   17  H   UNL     1      -8.438   7.128  74.513  1.00  0.00     0.000 HD 
HETATM   18  O   UNL     1      -9.026   7.756  74.111  1.00  0.00    -0.251 OA 
BRANCH  16  19
HETATM   19  C   UNL     1      -9.184   6.251  72.198  1.00  0.00    -0.144 A  
HETATM   20  C   UNL     1      -8.097   6.783  71.485  1.00  0.00    -0.110 A  
HETATM   21  O   UNL     1      -7.774   8.098  71.712  1.00  0.00    -0.086 OA 
HETATM   22  C   UNL     1      -6.467   8.453  71.277  1.00  0.00    -0.051 C  
HETATM   23  C   UNL     1      -5.990   7.852  69.961  1.00  0.00    -0.023 C  
HETATM   24  O   UNL     1      -5.211   8.413  69.195  1.00  0.00    -0.030 OA 
HETATM   25  N   UNL     1      -6.422   6.571  69.744  1.00  0.00    -0.042 N  
HETATM   26  H   UNL     1      -6.006   6.023  68.990  1.00  0.00     0.000 HD 
HETATM   27  C   UNL     1      -7.424   5.999  70.535  1.00  0.00    -0.090 A  
HETATM   28  C   UNL     1      -7.781   4.668  70.328  1.00  0.00    -0.057 A  
HETATM   29  C   UNL     1      -8.828   4.130  71.066  1.00  0.00    -0.094 A  
HETATM   30  O   UNL     1      -9.220   2.834  70.922  1.00  0.00    -0.110 OA 
HETATM   31  C   UNL     1      -9.529   4.907  71.985  1.00  0.00    -0.185 A  
HETATM   32  H   UNL     1      -9.935   2.466  71.427  1.00  0.00     0.000 HD 
ENDBRANCH  16  19
ENDBRANCH  15  16
ENDBRANCH  13  15
ENDBRANCH   6   9
ENDBRANCH   2   3
TORSDOF 5
ENDMDL
MODEL      197
REMARK 921   NORMALIZED FREE ENERGY PREDICTED BY IDOCK:   -4.34 KCAL/MOL
REMARK 922        TOTAL FREE ENERGY PREDICTED BY IDOCK:   -5.85 KCAL/MOL
REMARK 923 INTER-LIGAND FREE ENERGY PREDICTED BY IDOCK:   -5.17 KCAL/MOL
REMARK 924 INTRA-LIGAND FREE ENERGY PREDICTED BY IDOCK:   -0.68 KCAL/MOL
REMARK 927      BINDING AFFINITY PREDICTED BY RF-SCORE:    0.00 PKD
ROOT
HETATM    1  C   UNL     1     -12.285  13.105  63.672  1.00  0.00    -0.479 C  
HETATM    2  O   UNL     1     -11.477  13.254  64.836  1.00  0.00    -0.304 OA 
ENDROOT
BRANCH   2   3
HETATM    3  C   UNL     1     -11.060  12.092  65.433  1.00  0.00    -0.320 A  
HETATM    4  C   UNL     1     -11.274  11.751  66.765  1.00  0.00    -0.388 A  
HETATM    5  C   UNL     1     -10.780  10.547  67.269  1.00  0.00    -0.333 A  
HETATM    6  C   UNL     1     -10.079   9.650  66.450  1.00  0.00    -0.317 A  
HETATM    7  C   UNL     1     -10.372  11.202  64.605  1.00  0.00    -0.393 A  
HETATM    8  C   UNL     1      -9.884   9.991  65.106  1.00  0.00    -0.388 A  
BRANCH   6   9
HETATM    9  C   UNL     1      -9.542   8.352  67.032  1.00  0.00    -0.248 C  
HETATM   10  C   UNL     1      -8.089   8.372  67.623  1.00  0.00    -0.118 C  
HETATM   11  C   UNL     1      -8.068   9.247  68.891  1.00  0.00    -0.103 C  
HETATM   12  C   UNL     1      -7.076   8.892  66.584  1.00  0.00    -0.084 C  
HETATM   13  N   UNL     1      -7.751   6.973  67.992  1.00  0.00    -0.111 NA 
HETATM   14  H   UNL     1      -7.863   6.362  67.183  1.00  0.00     0.000 HD 
BRANCH  13  15
HETATM   15  C   UNL     1      -6.413   6.774  68.592  1.00  0.00    -0.040 C  
BRANCH  15  16
HETATM   16  C   UNL     1      -6.457   6.398  70.093  1.00  0.00    -0.040 C  
HETATM   17  H   UNL     1      -5.157   6.174  71.561  1.00  0.00     0.000 HD 
HETATM   18  O   UNL     1      -5.130   6.404  70.640  1.00  0.00    -0.013 OA 
BRANCH  16  19
HETATM   19  C   UNL     1      -7.157   5.079  70.340  1.00  0.00    -0.053 A  
HETATM   20  C   UNL     1      -8.369   5.026  71.049  1.00  0.00    -0.118 A  
HETATM   21  O   UNL     1      -8.861   6.205  71.551  1.00  0.00    -0.135 OA 
HETATM   22  C   UNL     1     -10.239   6.150  71.900  1.00  0.00    -0.200 C  
HETATM   23  C   UNL     1     -10.735   4.869  72.557  1.00  0.00    -0.196 C  
HETATM   24  O   UNL     1     -11.653   4.830  73.373  1.00  0.00    -0.323 OA 
HETATM   25  N   UNL     1     -10.140   3.731  72.083  1.00  0.00    -0.169 N  
HETATM   26  H   UNL     1     -10.535   2.822  72.323  1.00  0.00     0.000 HD 
HETATM   27  C   UNL     1      -8.999   3.792  71.275  1.00  0.00    -0.104 A  
HETATM   28  C   UNL     1      -8.469   2.614  70.752  1.00  0.00    -0.091 A  
HETATM   29  C   UNL     1      -7.294   2.676  70.014  1.00  0.00    -0.043 A  
HETATM   30  O   UNL     1      -6.729   1.564  69.465  1.00  0.00    -0.029 OA 
HETATM   31  C   UNL     1      -6.637   3.887  69.813  1.00  0.00    -0.033 A  
HETATM   32  H   UNL     1      -5.926   1.606  68.961  1.00  0.00     0.000 HD 
ENDBRANCH  16  19
ENDBRANCH  15  16
ENDBRANCH  13  15
ENDBRANCH   6   9
ENDBRANCH   2   3
TORSDOF 5
ENDMDL
MODEL      198
REMARK 921   NORMALIZED FREE ENERGY PREDICTED BY IDOCK:   -4.33 KCAL/MOL
REMARK 922        TOTAL FREE ENERGY PREDICTED BY IDOCK:   -5.83 KCAL/MOL
REMARK 923 INTER-LIGAND FREE ENERGY PREDICTED BY IDOCK:   -6.08 KCAL/MOL
REMARK 924 INTRA-LIGAND FREE ENERGY PREDICTED BY IDOCK:    0.25 KCAL/MOL
REMARK 927      BINDING AFFINITY PREDICTED BY RF-SCORE:    0.00 PKD
ROOT
HETATM    1  C   UNL     1     -10.041  16.961  66.237  1.00  0.00    -0.324 C  
HETATM    2  O   UNL     1     -10.958  16.110  65.556  1.00  0.00    -0.275 OA 
ENDROOT
BRANCH   2   3
HETATM    3  C   UNL     1     -10.629  14.779  65.515  1.00  0.00    -0.359 A  
HETATM    4  C   UNL     1     -11.085  13.867  64.568  1.00  0.00    -0.374 A  
HETATM    5  C   UNL     1     -10.700  12.528  64.641  1.00  0.00    -0.341 A  
HETATM    6  C   UNL     1      -9.836  12.075  65.649  1.00  0.00    -0.265 A  
HETATM    7  C   UNL     1      -9.759  14.342  66.516  1.00  0.00    -0.305 A  
HETATM    8  C   UNL     1      -9.365  13.002  66.586  1.00  0.00    -0.242 A  
BRANCH   6   9
HETATM    9  C   UNL     1      -9.445  10.607  65.709  1.00  0.00    -0.244 C  
HETATM   10  C   UNL     1      -8.137  10.240  66.494  1.00  0.00    -0.121 C  
HETATM   11  C   UNL     1      -8.354  10.506  67.995  1.00  0.00    -0.116 C  
HETATM   12  C   UNL     1      -6.931  11.041  65.965  1.00  0.00    -0.014 C  
HETATM   13  N   UNL     1      -7.900   8.787  66.287  1.00  0.00    -0.101 NA 
HETATM   14  H   UNL     1      -7.860   8.579  65.289  1.00  0.00     0.000 HD 
BRANCH  13  15
HETATM   15  C   UNL     1      -6.710   8.229  66.967  1.00  0.00    -0.062 C  
BRANCH  15  16
HETATM   16  C   UNL     1      -7.050   7.150  68.023  1.00  0.00    -0.085 C  
HETATM   17  H   UNL     1      -6.455   5.318  68.454  1.00  0.00     0.000 HD 
HETATM   18  O   UNL     1      -6.247   5.981  67.806  1.00  0.00    -0.026 OA 
BRANCH  16  19
HETATM   19  C   UNL     1      -8.526   6.815  68.055  1.00  0.00    -0.120 A  
HETATM   20  C   UNL     1      -9.102   5.996  67.069  1.00  0.00    -0.117 A  
HETATM   21  O   UNL     1      -8.288   5.561  66.052  1.00  0.00    -0.114 OA 
HETATM   22  C   UNL     1      -8.812   4.453  65.331  1.00  0.00    -0.133 C  
HETATM   23  C   UNL     1     -10.309   4.455  65.052  1.00  0.00    -0.142 C  
HETATM   24  O   UNL     1     -10.820   3.944  64.060  1.00  0.00    -0.280 OA 
HETATM   25  N   UNL     1     -11.064   4.988  66.062  1.00  0.00    -0.776 N  
HETATM   26  H   UNL     1     -12.077   4.863  66.049  1.00  0.00     0.000 HD 
HETATM   27  C   UNL     1     -10.474   5.703  67.110  1.00  0.00    -0.270 A  
HETATM   28  C   UNL     1     -11.271   6.164  68.156  1.00  0.00    -0.166 A  
HETATM   29  C   UNL     1     -10.689   6.936  69.154  1.00  0.00    -0.234 A  
HETATM   30  O   UNL     1     -11.408   7.409  70.209  1.00  0.00    -0.330 OA 
HETATM   31  C   UNL     1      -9.338   7.267  69.106  1.00  0.00    -0.146 A  
HETATM   32  H   UNL     1     -11.011   7.937  70.892  1.00  0.00     0.000 HD 
ENDBRANCH  16  19
ENDBRANCH  15  16
ENDBRANCH  13  15
ENDBRANCH   6   9
ENDBRANCH   2   3
TORSDOF 5
ENDMDL
MODEL      199
REMARK 921   NORMALIZED FREE ENERGY PREDICTED BY IDOCK:   -4.31 KCAL/MOL
REMARK 922        TOTAL FREE ENERGY PREDICTED BY IDOCK:   -5.81 KCAL/MOL
REMARK 923 INTER-LIGAND FREE ENERGY PREDICTED BY IDOCK:   -5.10 KCAL/MOL
REMARK 924 INTRA-LIGAND FREE ENERGY PREDICTED BY IDOCK:   -0.72 KCAL/MOL
REMARK 927      BINDING AFFINITY PREDICTED BY RF-SCORE:    0.00 PKD
ROOT
HETATM    1  C   UNL     1     -12.403  14.306  66.495  1.00  0.00    -0.314 C  
HETATM    2  O   UNL     1     -11.853  13.868  67.734  1.00  0.00    -0.344 OA 
ENDROOT
BRANCH   2   3
HETATM    3  C   UNL     1     -10.819  12.970  67.651  1.00  0.00    -0.239 A  
HETATM    4  C   UNL     1      -9.552  13.247  67.147  1.00  0.00    -0.240 A  
HETATM    5  C   UNL     1      -8.584  12.243  67.092  1.00  0.00    -0.187 A  
HETATM    6  C   UNL     1      -8.855  10.947  67.554  1.00  0.00    -0.133 A  
HETATM    7  C   UNL     1     -11.097  11.686  68.126  1.00  0.00    -0.298 A  
HETATM    8  C   UNL     1     -10.126  10.681  68.078  1.00  0.00    -0.181 A  
BRANCH   6   9
HETATM    9  C   UNL     1      -7.783   9.872  67.468  1.00  0.00    -0.091 C  
HETATM   10  C   UNL     1      -7.726   9.014  66.156  1.00  0.00    -0.099 C  
HETATM   11  C   UNL     1      -7.284   9.908  64.982  1.00  0.00    -0.135 C  
HETATM   12  C   UNL     1      -9.092   8.361  65.861  1.00  0.00    -0.225 C  
HETATM   13  N   UNL     1      -6.705   7.956  66.373  1.00  0.00    -0.054 NA 
HETATM   14  H   UNL     1      -6.930   7.421  67.212  1.00  0.00     0.000 HD 
BRANCH  13  15
HETATM   15  C   UNL     1      -6.481   7.038  65.234  1.00  0.00    -0.043 C  
BRANCH  15  16
HETATM   16  C   UNL     1      -6.715   5.549  65.584  1.00  0.00    -0.045 C  
HETATM   17  H   UNL     1      -6.664   3.820  64.633  1.00  0.00     0.000 HD 
HETATM   18  O   UNL     1      -6.520   4.734  64.419  1.00  0.00    -0.036 OA 
BRANCH  16  19
HETATM   19  C   UNL     1      -8.070   5.307  66.213  1.00  0.00    -0.109 A  
HETATM   20  C   UNL     1      -8.260   5.451  67.598  1.00  0.00    -0.100 A  
HETATM   21  O   UNL     1      -7.161   5.764  68.358  1.00  0.00    -0.075 OA 
HETATM   22  C   UNL     1      -7.480   6.271  69.648  1.00  0.00    -0.085 C  
HETATM   23  C   UNL     1      -8.649   5.621  70.376  1.00  0.00    -0.132 C  
HETATM   24  O   UNL     1      -8.725   5.522  71.598  1.00  0.00    -0.133 OA 
HETATM   25  N   UNL     1      -9.677   5.242  69.555  1.00  0.00    -0.161 N  
HETATM   26  H   UNL     1     -10.572   4.973  69.964  1.00  0.00     0.000 HD 
HETATM   27  C   UNL     1      -9.523   5.215  68.165  1.00  0.00    -0.127 A  
HETATM   28  C   UNL     1     -10.616   4.896  67.361  1.00  0.00     0.030 A  
HETATM   29  C   UNL     1     -10.436   4.798  65.988  1.00  0.00    -0.292 A  
HETATM   30  O   UNL     1     -11.464   4.501  65.146  1.00  0.00    -1.105 OA 
HETATM   31  C   UNL     1      -9.181   4.992  65.415  1.00  0.00    -0.144 A  
HETATM   32  H   UNL     1     -11.341   4.434  64.206  1.00  0.00     0.000 HD 
ENDBRANCH  16  19
ENDBRANCH  15  16
ENDBRANCH  13  15
ENDBRANCH   6   9
ENDBRANCH   2   3
TORSDOF 5
ENDMDL
MODEL      200
REMARK 921   NORMALIZED FREE ENERGY PREDICTED BY IDOCK:   -4.30 KCAL/MOL
REMARK 922        TOTAL FREE ENERGY PREDICTED BY IDOCK:   -5.80 KCAL/MOL
REMARK 923 INTER-LIGAND FREE ENERGY PREDICTED BY IDOCK:   -5.11 KCAL/MOL
REMARK 924 INTRA-LIGAND FREE ENERGY PREDICTED BY IDOCK:   -0.70 KCAL/MOL
REMARK 927      BINDING AFFINITY PREDICTED BY RF-SCORE:    0.00 PKD
ROOT
HETATM    1  C   UNL     1      -8.417   3.594  62.332  1.00  0.00    -0.077 C  
HETATM    2  O   UNL     1      -7.364   4.285  62.998  1.00  0.00    -0.047 OA 
ENDROOT
BRANCH   2   3
HETATM    3  C   UNL     1      -7.614   4.664  64.292  1.00  0.00    -0.072 A  
HETATM    4  C   UNL     1      -8.213   5.859  64.678  1.00  0.00    -0.120 A  
HETATM    5  C   UNL     1      -8.396   6.147  66.031  1.00  0.00    -0.136 A  
HETATM    6  C   UNL     1      -8.002   5.240  67.027  1.00  0.00    -0.101 A  
HETATM    7  C   UNL     1      -7.227   3.748  65.273  1.00  0.00    -0.067 A  
HETATM    8  C   UNL     1      -7.417   4.031  66.629  1.00  0.00    -0.084 A  
BRANCH   6   9
HETATM    9  C   UNL     1      -8.202   5.589  68.493  1.00  0.00    -0.098 C  
HETATM   10  C   UNL     1      -7.143   6.532  69.162  1.00  0.00    -0.088 C  
HETATM   11  C   UNL     1      -7.256   7.941  68.548  1.00  0.00    -0.085 C  
HETATM   12  C   UNL     1      -5.716   5.974  68.988  1.00  0.00    -0.015 C  
HETATM   13  N   UNL     1      -7.477   6.604  70.608  1.00  0.00    -0.082 NA 
HETATM   14  H   UNL     1      -7.509   5.665  71.005  1.00  0.00     0.000 HD 
BRANCH  13  15
HETATM   15  C   UNL     1      -6.598   7.468  71.427  1.00  0.00    -0.042 C  
BRANCH  15  16
HETATM   16  C   UNL     1      -7.347   8.630  72.123  1.00  0.00    -0.020 C  
HETATM   17  H   UNL     1      -7.238   9.589  73.844  1.00  0.00     0.000 HD 
HETATM   18  O   UNL     1      -6.778   8.876  73.417  1.00  0.00    -0.326 OA 
BRANCH  16  19
HETATM   19  C   UNL     1      -8.839   8.391  72.205  1.00  0.00    -0.289 A  
HETATM   20  C   UNL     1      -9.725   9.036  71.325  1.00  0.00    -0.301 A  
HETATM   21  O   UNL     1      -9.188   9.927  70.429  1.00  0.00    -0.180 OA 
HETATM   22  C   UNL     1     -10.050  10.235  69.340  1.00  0.00    -0.235 C  
HETATM   23  C   UNL     1     -11.532  10.393  69.654  1.00  0.00    -0.262 C  
HETATM   24  O   UNL     1     -12.285  11.142  69.039  1.00  0.00    -0.469 OA 
HETATM   25  N   UNL     1     -11.990   9.542  70.624  1.00  0.00    -0.407 N  
HETATM   26  H   UNL     1     -12.995   9.443  70.769  1.00  0.00     0.000 HD 
HETATM   27  C   UNL     1     -11.106   8.808  71.422  1.00  0.00    -0.291 A  
HETATM   28  C   UNL     1     -11.615   7.898  72.346  1.00  0.00    -0.436 A  
HETATM   29  C   UNL     1     -10.734   7.228  73.186  1.00  0.00    -0.365 A  
HETATM   30  O   UNL     1     -11.165   6.318  74.103  1.00  0.00    -0.156 OA 
HETATM   31  C   UNL     1      -9.365   7.472  73.127  1.00  0.00    -0.258 A  
HETATM   32  H   UNL     1     -10.563   5.860  74.677  1.00  0.00     0.000 HD 
ENDBRANCH  16  19
ENDBRANCH  15  16
ENDBRANCH  13  15
ENDBRANCH   6   9
ENDBRANCH   2   3
TORSDOF 5
ENDMDL
MODEL      201
REMARK 921   NORMALIZED FREE ENERGY PREDICTED BY IDOCK:   -4.29 KCAL/MOL
REMARK 922        TOTAL FREE ENERGY PREDICTED BY IDOCK:   -5.79 KCAL/MOL
REMARK 923 INTER-LIGAND FREE ENERGY PREDICTED BY IDOCK:   -6.42 KCAL/MOL
REMARK 924 INTRA-LIGAND FREE ENERGY PREDICTED BY IDOCK:    0.62 KCAL/MOL
REMARK 927      BINDING AFFINITY PREDICTED BY RF-SCORE:    0.00 PKD
ROOT
HETATM    1  C   UNL     1      -9.287  17.966  68.241  1.00  0.00    -0.286 C  
HETATM    2  O   UNL     1     -10.619  17.569  68.554  1.00  0.00    -0.357 OA 
ENDROOT
BRANCH   2   3
HETATM    3  C   UNL     1     -10.912  16.242  68.375  1.00  0.00    -0.351 A  
HETATM    4  C   UNL     1     -11.895  15.535  69.060  1.00  0.00    -0.373 A  
HETATM    5  C   UNL     1     -12.087  14.176  68.808  1.00  0.00    -0.326 A  
HETATM    6  C   UNL     1     -11.315  13.498  67.854  1.00  0.00    -0.320 A  
HETATM    7  C   UNL     1     -10.144  15.580  67.413  1.00  0.00    -0.246 A  
HETATM    8  C   UNL     1     -10.341  14.220  67.154  1.00  0.00    -0.262 A  
BRANCH   6   9
HETATM    9  C   UNL     1     -11.539  12.014  67.612  1.00  0.00    -0.392 C  
HETATM   10  C   UNL     1     -11.073  11.021  68.733  1.00  0.00    -0.239 C  
HETATM   11  C   UNL     1     -11.957  11.211  69.981  1.00  0.00    -0.447 C  
HETATM   12  C   UNL     1      -9.586  11.236  69.080  1.00  0.00    -0.048 C  
HETATM   13  N   UNL     1     -11.268   9.646  68.204  1.00  0.00    -0.514 NA 
HETATM   14  H   UNL     1     -10.771   9.539  67.320  1.00  0.00     0.000 HD 
BRANCH  13  15
HETATM   15  C   UNL     1     -10.901   8.548  69.125  1.00  0.00    -0.029 C  
BRANCH  15  16
HETATM   16  C   UNL     1     -10.227   7.347  68.418  1.00  0.00    -0.183 C  
HETATM   17  H   UNL     1     -10.770   5.558  67.784  1.00  0.00     0.000 HD 
HETATM   18  O   UNL     1     -11.183   6.295  68.218  1.00  0.00    -0.328 OA 
BRANCH  16  19
HETATM   19  C   UNL     1      -9.001   6.853  69.156  1.00  0.00    -0.133 A  
HETATM   20  C   UNL     1      -8.731   7.272  70.470  1.00  0.00    -0.148 A  
HETATM   21  O   UNL     1      -9.590   8.184  71.032  1.00  0.00    -0.155 OA 
HETATM   22  C   UNL     1      -9.496   8.264  72.449  1.00  0.00    -0.287 C  
HETATM   23  C   UNL     1      -8.102   8.177  73.056  1.00  0.00    -0.173 C  
HETATM   24  O   UNL     1      -7.772   8.739  74.096  1.00  0.00    -0.419 OA 
HETATM   25  N   UNL     1      -7.258   7.324  72.395  1.00  0.00    -0.071 N  
HETATM   26  H   UNL     1      -6.374   7.058  72.830  1.00  0.00     0.000 HD 
HETATM   27  C   UNL     1      -7.585   6.811  71.136  1.00  0.00    -0.088 A  
HETATM   28  C   UNL     1      -6.734   5.887  70.532  1.00  0.00    -0.052 A  
HETATM   29  C   UNL     1      -7.027   5.440  69.251  1.00  0.00    -0.056 A  
HETATM   30  O   UNL     1      -6.243   4.530  68.608  1.00  0.00    -0.030 OA 
HETATM   31  C   UNL     1      -8.140   5.918  68.563  1.00  0.00    -0.106 A  
HETATM   32  H   UNL     1      -6.444   4.224  67.732  1.00  0.00     0.000 HD 
ENDBRANCH  16  19
ENDBRANCH  15  16
ENDBRANCH  13  15
ENDBRANCH   6   9
ENDBRANCH   2   3
TORSDOF 5
ENDMDL
MODEL      202
REMARK 921   NORMALIZED FREE ENERGY PREDICTED BY IDOCK:   -4.27 KCAL/MOL
REMARK 922        TOTAL FREE ENERGY PREDICTED BY IDOCK:   -5.76 KCAL/MOL
REMARK 923 INTER-LIGAND FREE ENERGY PREDICTED BY IDOCK:   -5.58 KCAL/MOL
REMARK 924 INTRA-LIGAND FREE ENERGY PREDICTED BY IDOCK:   -0.17 KCAL/MOL
REMARK 927      BINDING AFFINITY PREDICTED BY RF-SCORE:    0.00 PKD
ROOT
HETATM    1  C   UNL     1      -8.636   3.081  66.862  1.00  0.00    -0.113 C  
HETATM    2  O   UNL     1      -9.535   3.630  67.822  1.00  0.00    -0.189 OA 
ENDROOT
BRANCH   2   3
HETATM    3  C   UNL     1      -9.584   4.999  67.889  1.00  0.00    -0.140 A  
HETATM    4  C   UNL     1     -10.182   5.828  66.945  1.00  0.00    -0.265 A  
HETATM    5  C   UNL     1     -10.151   7.214  67.108  1.00  0.00    -0.293 A  
HETATM    6  C   UNL     1      -9.537   7.799  68.226  1.00  0.00    -0.162 A  
HETATM    7  C   UNL     1      -8.981   5.569  69.012  1.00  0.00    -0.118 A  
HETATM    8  C   UNL     1      -8.955   6.957  69.181  1.00  0.00    -0.133 A  
BRANCH   6   9
HETATM    9  C   UNL     1      -9.508   9.313  68.368  1.00  0.00    -0.145 C  
HETATM   10  C   UNL     1      -8.461  10.098  67.503  1.00  0.00    -0.118 C  
HETATM   11  C   UNL     1      -8.848   9.991  66.016  1.00  0.00    -0.164 C  
HETATM   12  C   UNL     1      -7.035   9.562  67.737  1.00  0.00    -0.080 C  
HETATM   13  N   UNL     1      -8.533  11.523  67.923  1.00  0.00    -0.136 NA 
HETATM   14  H   UNL     1      -8.383  11.597  68.929  1.00  0.00     0.000 HD 
BRANCH  13  15
HETATM   15  C   UNL     1      -7.627  12.448  67.207  1.00  0.00    -0.141 C  
BRANCH  15  16
HETATM   16  C   UNL     1      -7.439  13.807  67.923  1.00  0.00    -0.152 C  
HETATM   17  H   UNL     1      -7.836  14.566  69.701  1.00  0.00     0.000 HD 
HETATM   18  O   UNL     1      -7.951  13.732  69.262  1.00  0.00     0.150 OA 
BRANCH  16  19
HETATM   19  C   UNL     1      -8.053  14.957  67.155  1.00  0.00    -0.239 A  
HETATM   20  C   UNL     1      -9.346  14.856  66.614  1.00  0.00    -0.268 A  
HETATM   21  O   UNL     1     -10.003  13.660  66.764  1.00  0.00    -0.256 OA 
HETATM   22  C   UNL     1     -11.407  13.745  66.555  1.00  0.00    -0.325 C  
HETATM   23  C   UNL     1     -11.885  14.647  65.424  1.00  0.00    -0.304 C  
HETATM   24  O   UNL     1     -12.903  14.443  64.770  1.00  0.00    -0.647 OA 
HETATM   25  N   UNL     1     -11.133  15.780  65.260  1.00  0.00    -0.309 N  
HETATM   26  H   UNL     1     -11.481  16.529  64.661  1.00  0.00     0.000 HD 
HETATM   27  C   UNL     1      -9.897  15.930  65.897  1.00  0.00    -0.351 A  
HETATM   28  C   UNL     1      -9.200  17.129  65.762  1.00  0.00     0.108 A  
HETATM   29  C   UNL     1      -7.940  17.242  66.336  1.00  0.00    -0.303 A  
HETATM   30  O   UNL     1      -7.210  18.389  66.252  1.00  0.00    -0.224 OA 
HETATM   31  C   UNL     1      -7.365  16.172  67.018  1.00  0.00    -0.266 A  
HETATM   32  H   UNL     1      -6.349  18.467  66.644  1.00  0.00     0.000 HD 
ENDBRANCH  16  19
ENDBRANCH  15  16
ENDBRANCH  13  15
ENDBRANCH   6   9
ENDBRANCH   2   3
TORSDOF 5
ENDMDL
MODEL      203
REMARK 921   NORMALIZED FREE ENERGY PREDICTED BY IDOCK:   -4.26 KCAL/MOL
REMARK 922        TOTAL FREE ENERGY PREDICTED BY IDOCK:   -5.75 KCAL/MOL
REMARK 923 INTER-LIGAND FREE ENERGY PREDICTED BY IDOCK:   -4.87 KCAL/MOL
REMARK 924 INTRA-LIGAND FREE ENERGY PREDICTED BY IDOCK:   -0.87 KCAL/MOL
REMARK 927      BINDING AFFINITY PREDICTED BY RF-SCORE:    0.00 PKD
ROOT
HETATM    1  C   UNL     1     -14.237   7.630  71.800  1.00  0.00    -0.426 C  
HETATM    2  O   UNL     1     -13.009   7.086  72.273  1.00  0.00    -0.075 OA 
ENDROOT
BRANCH   2   3
HETATM    3  C   UNL     1     -11.914   7.277  71.469  1.00  0.00    -0.316 A  
HETATM    4  C   UNL     1     -11.734   6.713  70.210  1.00  0.00    -0.432 A  
HETATM    5  C   UNL     1     -10.564   6.963  69.491  1.00  0.00    -0.261 A  
HETATM    6  C   UNL     1      -9.559   7.795  70.005  1.00  0.00    -0.161 A  
HETATM    7  C   UNL     1     -10.926   8.117  71.987  1.00  0.00    -0.350 A  
HETATM    8  C   UNL     1      -9.757   8.375  71.264  1.00  0.00    -0.245 A  
BRANCH   6   9
HETATM    9  C   UNL     1      -8.290   8.036  69.202  1.00  0.00    -0.132 C  
HETATM   10  C   UNL     1      -8.239   9.321  68.303  1.00  0.00    -0.115 C  
HETATM   11  C   UNL     1      -8.211  10.571  69.203  1.00  0.00    -0.152 C  
HETATM   12  C   UNL     1      -9.440   9.370  67.338  1.00  0.00    -0.163 C  
HETATM   13  N   UNL     1      -6.975   9.255  67.524  1.00  0.00    -0.077 NA 
HETATM   14  H   UNL     1      -6.932   8.379  67.003  1.00  0.00     0.000 HD 
BRANCH  13  15
HETATM   15  C   UNL     1      -6.722  10.396  66.616  1.00  0.00    -0.090 C  
BRANCH  15  16
HETATM   16  C   UNL     1      -6.001   9.996  65.306  1.00  0.00    -0.097 C  
HETATM   17  H   UNL     1      -4.825  10.870  63.984  1.00  0.00     0.000 HD 
HETATM   18  O   UNL     1      -5.268  11.115  64.788  1.00  0.00    -0.225 OA 
BRANCH  16  19
HETATM   19  C   UNL     1      -6.949   9.424  64.274  1.00  0.00    -0.102 A  
HETATM   20  C   UNL     1      -6.845   8.085  63.860  1.00  0.00    -0.067 A  
HETATM   21  O   UNL     1      -5.821   7.338  64.388  1.00  0.00    -0.036 OA 
HETATM   22  C   UNL     1      -6.001   5.934  64.244  1.00  0.00    -0.025 C  
HETATM   23  C   UNL     1      -6.595   5.445  62.929  1.00  0.00    -0.026 C  
HETATM   24  O   UNL     1      -6.331   4.359  62.422  1.00  0.00    -0.020 OA 
HETATM   25  N   UNL     1      -7.544   6.279  62.401  1.00  0.00    -0.064 N  
HETATM   26  H   UNL     1      -8.127   5.950  61.632  1.00  0.00     0.000 HD 
HETATM   27  C   UNL     1      -7.728   7.574  62.896  1.00  0.00    -0.123 A  
HETATM   28  C   UNL     1      -8.754   8.364  62.380  1.00  0.00    -0.030 A  
HETATM   29  C   UNL     1      -8.882   9.674  62.823  1.00  0.00    -0.247 A  
HETATM   30  O   UNL     1      -9.869  10.494  62.369  1.00  0.00    -0.661 OA 
HETATM   31  C   UNL     1      -7.991  10.206  63.752  1.00  0.00    -0.153 A  
HETATM   32  H   UNL     1      -9.957  11.390  62.672  1.00  0.00     0.000 HD 
ENDBRANCH  16  19
ENDBRANCH  15  16
ENDBRANCH  13  15
ENDBRANCH   6   9
ENDBRANCH   2   3
TORSDOF 5
ENDMDL
MODEL      204
REMARK 921   NORMALIZED FREE ENERGY PREDICTED BY IDOCK:   -4.26 KCAL/MOL
REMARK 922        TOTAL FREE ENERGY PREDICTED BY IDOCK:   -5.74 KCAL/MOL
REMARK 923 INTER-LIGAND FREE ENERGY PREDICTED BY IDOCK:   -5.66 KCAL/MOL
REMARK 924 INTRA-LIGAND FREE ENERGY PREDICTED BY IDOCK:   -0.09 KCAL/MOL
REMARK 927      BINDING AFFINITY PREDICTED BY RF-SCORE:    0.00 PKD
ROOT
HETATM    1  C   UNL     1      -6.036   4.168  63.297  1.00  0.00    -0.018 C  
HETATM    2  O   UNL     1      -7.008   3.664  64.209  1.00  0.00    -0.044 OA 
ENDROOT
BRANCH   2   3
HETATM    3  C   UNL     1      -7.639   4.595  64.993  1.00  0.00    -0.077 A  
HETATM    4  C   UNL     1      -8.591   4.312  65.968  1.00  0.00    -0.113 A  
HETATM    5  C   UNL     1      -9.184   5.348  66.691  1.00  0.00    -0.132 A  
HETATM    6  C   UNL     1      -8.827   6.686  66.469  1.00  0.00    -0.144 A  
HETATM    7  C   UNL     1      -7.267   5.923  64.771  1.00  0.00    -0.063 A  
HETATM    8  C   UNL     1      -7.854   6.961  65.500  1.00  0.00    -0.112 A  
BRANCH   6   9
HETATM    9  C   UNL     1      -9.501   7.793  67.264  1.00  0.00    -0.187 C  
HETATM   10  C   UNL     1      -8.874   9.228  67.177  1.00  0.00    -0.127 C  
HETATM   11  C   UNL     1      -9.069   9.784  65.754  1.00  0.00    -0.221 C  
HETATM   12  C   UNL     1      -7.379   9.203  67.554  1.00  0.00    -0.084 C  
HETATM   13  N   UNL     1      -9.616  10.085  68.139  1.00  0.00    -0.138 NA 
HETATM   14  H   UNL     1      -9.584   9.671  69.071  1.00  0.00     0.000 HD 
BRANCH  13  15
HETATM   15  C   UNL     1      -9.187  11.500  68.200  1.00  0.00    -0.181 C  
BRANCH  15  16
HETATM   16  C   UNL     1     -10.316  12.471  68.622  1.00  0.00    -0.177 C  
HETATM   17  H   UNL     1     -12.137  12.326  69.369  1.00  0.00     0.000 HD 
HETATM   18  O   UNL     1     -11.445  11.730  69.109  1.00  0.00    -0.248 OA 
BRANCH  16  19
HETATM   19  C   UNL     1     -10.709  13.421  67.512  1.00  0.00    -0.263 A  
HETATM   20  C   UNL     1     -10.228  14.741  67.485  1.00  0.00    -0.233 A  
HETATM   21  O   UNL     1      -9.435  15.146  68.531  1.00  0.00    -0.191 OA 
HETATM   22  C   UNL     1      -8.680  16.320  68.257  1.00  0.00    -0.190 C  
HETATM   23  C   UNL     1      -9.373  17.418  67.462  1.00  0.00    -0.233 C  
HETATM   24  O   UNL     1      -9.132  18.615  67.595  1.00  0.00    -0.275 OA 
HETATM   25  N   UNL     1     -10.225  16.954  66.496  1.00  0.00    -0.310 N  
HETATM   26  H   UNL     1     -10.587  17.601  65.795  1.00  0.00     0.000 HD 
HETATM   27  C   UNL     1     -10.610  15.610  66.452  1.00  0.00    -0.308 A  
HETATM   28  C   UNL     1     -11.419  15.164  65.408  1.00  0.00    -0.239 A  
HETATM   29  C   UNL     1     -11.857  13.847  65.413  1.00  0.00    -0.355 A  
HETATM   30  O   UNL     1     -12.640  13.344  64.418  1.00  0.00    -0.612 OA 
HETATM   31  C   UNL     1     -11.517  12.983  66.451  1.00  0.00    -0.384 A  
HETATM   32  H   UNL     1     -12.940  12.443  64.421  1.00  0.00     0.000 HD 
ENDBRANCH  16  19
ENDBRANCH  15  16
ENDBRANCH  13  15
ENDBRANCH   6   9
ENDBRANCH   2   3
TORSDOF 5
ENDMDL
MODEL      205
REMARK 921   NORMALIZED FREE ENERGY PREDICTED BY IDOCK:   -4.24 KCAL/MOL
REMARK 922        TOTAL FREE ENERGY PREDICTED BY IDOCK:   -5.72 KCAL/MOL
REMARK 923 INTER-LIGAND FREE ENERGY PREDICTED BY IDOCK:   -6.13 KCAL/MOL
REMARK 924 INTRA-LIGAND FREE ENERGY PREDICTED BY IDOCK:    0.41 KCAL/MOL
REMARK 927      BINDING AFFINITY PREDICTED BY RF-SCORE:    0.00 PKD
ROOT
HETATM    1  C   UNL     1     -14.022  15.756  73.057  1.00  0.00    -0.284 C  
HETATM    2  O   UNL     1     -12.963  15.980  72.131  1.00  0.00    -0.447 OA 
ENDROOT
BRANCH   2   3
HETATM    3  C   UNL     1     -12.629  14.920  71.328  1.00  0.00    -0.331 A  
HETATM    4  C   UNL     1     -12.177  15.016  70.016  1.00  0.00    -0.373 A  
HETATM    5  C   UNL     1     -11.888  13.862  69.287  1.00  0.00    -0.394 A  
HETATM    6  C   UNL     1     -12.025  12.588  69.859  1.00  0.00    -0.371 A  
HETATM    7  C   UNL     1     -12.759  13.658  71.913  1.00  0.00    -0.325 A  
HETATM    8  C   UNL     1     -12.461  12.500  71.186  1.00  0.00    -0.322 A  
BRANCH   6   9
HETATM    9  C   UNL     1     -11.715  11.349  69.034  1.00  0.00    -0.409 C  
HETATM   10  C   UNL     1     -10.866  11.545  67.729  1.00  0.00    -0.221 C  
HETATM   11  C   UNL     1      -9.433  11.960  68.113  1.00  0.00    -0.195 C  
HETATM   12  C   UNL     1     -11.509  12.595  66.802  1.00  0.00    -0.410 C  
HETATM   13  N   UNL     1     -10.823  10.230  67.038  1.00  0.00    -0.223 NA 
HETATM   14  H   UNL     1     -11.771   9.892  66.872  1.00  0.00     0.000 HD 
BRANCH  13  15
HETATM   15  C   UNL     1     -10.046  10.193  65.779  1.00  0.00    -0.254 C  
BRANCH  15  16
HETATM   16  C   UNL     1      -8.729   9.388  65.888  1.00  0.00    -0.154 C  
HETATM   17  H   UNL     1      -7.695   8.156  64.745  1.00  0.00     0.000 HD 
HETATM   18  O   UNL     1      -8.503   8.650  64.678  1.00  0.00    -0.171 OA 
BRANCH  16  19
HETATM   19  C   UNL     1      -8.699   8.487  67.104  1.00  0.00    -0.134 A  
HETATM   20  C   UNL     1      -7.886   8.792  68.209  1.00  0.00    -0.101 A  
HETATM   21  O   UNL     1      -7.085   9.903  68.118  1.00  0.00    -0.076 OA 
HETATM   22  C   UNL     1      -6.603  10.368  69.373  1.00  0.00    -0.063 C  
HETATM   23  C   UNL     1      -6.189   9.312  70.389  1.00  0.00    -0.052 C  
HETATM   24  O   UNL     1      -5.304   9.475  71.224  1.00  0.00    -0.047 OA 
HETATM   25  N   UNL     1      -6.966   8.184  70.369  1.00  0.00    -0.037 N  
HETATM   26  H   UNL     1      -6.887   7.509  71.129  1.00  0.00     0.000 HD 
HETATM   27  C   UNL     1      -7.864   7.941  69.325  1.00  0.00    -0.115 A  
HETATM   28  C   UNL     1      -8.689   6.819  69.382  1.00  0.00    -0.136 A  
HETATM   29  C   UNL     1      -9.525   6.544  68.307  1.00  0.00    -0.118 A  
HETATM   30  O   UNL     1     -10.364   5.471  68.303  1.00  0.00    -0.183 OA 
HETATM   31  C   UNL     1      -9.529   7.358  67.177  1.00  0.00    -0.187 A  
HETATM   32  H   UNL     1     -10.935   5.283  67.568  1.00  0.00     0.000 HD 
ENDBRANCH  16  19
ENDBRANCH  15  16
ENDBRANCH  13  15
ENDBRANCH   6   9
ENDBRANCH   2   3
TORSDOF 5
ENDMDL
MODEL      206
REMARK 921   NORMALIZED FREE ENERGY PREDICTED BY IDOCK:   -4.21 KCAL/MOL
REMARK 922        TOTAL FREE ENERGY PREDICTED BY IDOCK:   -5.68 KCAL/MOL
REMARK 923 INTER-LIGAND FREE ENERGY PREDICTED BY IDOCK:   -5.57 KCAL/MOL
REMARK 924 INTRA-LIGAND FREE ENERGY PREDICTED BY IDOCK:   -0.11 KCAL/MOL
REMARK 927      BINDING AFFINITY PREDICTED BY RF-SCORE:    0.00 PKD
ROOT
HETATM    1  C   UNL     1     -13.862  15.847  72.871  1.00  0.00    -0.457 C  
HETATM    2  O   UNL     1     -12.565  15.605  72.333  1.00  0.00    -0.356 OA 
ENDROOT
BRANCH   2   3
HETATM    3  C   UNL     1     -12.420  14.455  71.600  1.00  0.00    -0.352 A  
HETATM    4  C   UNL     1     -11.772  14.360  70.373  1.00  0.00    -0.346 A  
HETATM    5  C   UNL     1     -11.707  13.136  69.706  1.00  0.00    -0.350 A  
HETATM    6  C   UNL     1     -12.271  11.977  70.260  1.00  0.00    -0.348 A  
HETATM    7  C   UNL     1     -12.976  13.306  72.167  1.00  0.00    -0.395 A  
HETATM    8  C   UNL     1     -12.904  12.076  71.504  1.00  0.00    -0.403 A  
BRANCH   6   9
HETATM    9  C   UNL     1     -12.195  10.661  69.502  1.00  0.00    -0.230 C  
HETATM   10  C   UNL     1     -11.063   9.656  69.915  1.00  0.00    -0.235 C  
HETATM   11  C   UNL     1     -11.350   9.118  71.329  1.00  0.00    -0.406 C  
HETATM   12  C   UNL     1      -9.677  10.329  69.857  1.00  0.00    -0.119 C  
HETATM   13  N   UNL     1     -11.110   8.528  68.947  1.00  0.00    -0.415 NA 
HETATM   14  H   UNL     1     -11.026   8.883  67.995  1.00  0.00     0.000 HD 
BRANCH  13  15
HETATM   15  C   UNL     1     -10.123   7.449  69.173  1.00  0.00    -0.189 C  
BRANCH  15  16
HETATM   16  C   UNL     1      -8.693   7.811  68.705  1.00  0.00    -0.128 C  
HETATM   17  H   UNL     1      -7.752   8.033  66.984  1.00  0.00     0.000 HD 
HETATM   18  O   UNL     1      -8.630   7.810  67.271  1.00  0.00    -0.126 OA 
BRANCH  16  19
HETATM   19  C   UNL     1      -7.639   6.908  69.310  1.00  0.00    -0.096 A  
HETATM   20  C   UNL     1      -7.181   7.111  70.623  1.00  0.00    -0.067 A  
HETATM   21  O   UNL     1      -7.685   8.188  71.309  1.00  0.00    -0.079 OA 
HETATM   22  C   UNL     1      -7.493   8.112  72.717  1.00  0.00    -0.125 C  
HETATM   23  C   UNL     1      -6.161   7.556  73.204  1.00  0.00    -0.060 C  
HETATM   24  O   UNL     1      -5.617   7.900  74.250  1.00  0.00    -0.067 OA 
HETATM   25  N   UNL     1      -5.659   6.548  72.425  1.00  0.00    -0.037 N  
HETATM   26  H   UNL     1      -4.877   5.991  72.770  1.00  0.00     0.000 HD 
HETATM   27  C   UNL     1      -6.197   6.269  71.164  1.00  0.00    -0.043 A  
HETATM   28  C   UNL     1      -5.706   5.187  70.436  1.00  0.00    -0.016 A  
HETATM   29  C   UNL     1      -6.194   4.962  69.155  1.00  0.00    -0.030 A  
HETATM   30  O   UNL     1      -5.765   3.916  68.395  1.00  0.00    -0.020 OA 
HETATM   31  C   UNL     1      -7.142   5.811  68.591  1.00  0.00    -0.077 A  
HETATM   32  H   UNL     1      -6.098   3.762  67.519  1.00  0.00     0.000 HD 
ENDBRANCH  16  19
ENDBRANCH  15  16
ENDBRANCH  13  15
ENDBRANCH   6   9
ENDBRANCH   2   3
TORSDOF 5
ENDMDL
MODEL      207
REMARK 921   NORMALIZED FREE ENERGY PREDICTED BY IDOCK:   -4.18 KCAL/MOL
REMARK 922        TOTAL FREE ENERGY PREDICTED BY IDOCK:   -5.65 KCAL/MOL
REMARK 923 INTER-LIGAND FREE ENERGY PREDICTED BY IDOCK:   -5.07 KCAL/MOL
REMARK 924 INTRA-LIGAND FREE ENERGY PREDICTED BY IDOCK:   -0.57 KCAL/MOL
REMARK 927      BINDING AFFINITY PREDICTED BY RF-SCORE:    0.00 PKD
ROOT
HETATM    1  C   UNL     1     -11.807  15.857  64.047  1.00  0.00     0.181 C  
HETATM    2  O   UNL     1     -12.619  14.727  64.351  1.00  0.00    -0.626 OA 
ENDROOT
BRANCH   2   3
HETATM    3  C   UNL     1     -12.033  13.752  65.117  1.00  0.00    -0.379 A  
HETATM    4  C   UNL     1     -11.791  13.840  66.484  1.00  0.00    -0.438 A  
HETATM    5  C   UNL     1     -11.165  12.789  67.155  1.00  0.00    -0.336 A  
HETATM    6  C   UNL     1     -10.785  11.620  66.480  1.00  0.00    -0.313 A  
HETATM    7  C   UNL     1     -11.670  12.588  64.435  1.00  0.00    -0.432 A  
HETATM    8  C   UNL     1     -11.050  11.530  65.108  1.00  0.00    -0.260 A  
BRANCH   6   9
HETATM    9  C   UNL     1     -10.093  10.497  67.237  1.00  0.00    -0.242 C  
HETATM   10  C   UNL     1      -8.834  10.874  68.094  1.00  0.00    -0.137 C  
HETATM   11  C   UNL     1      -9.272  11.750  69.283  1.00  0.00     0.569 C  
HETATM   12  C   UNL     1      -7.779  11.603  67.238  1.00  0.00    -0.154 C  
HETATM   13  N   UNL     1      -8.265   9.602  68.611  1.00  0.00    -0.104 NA 
HETATM   14  H   UNL     1      -8.067   8.968  67.836  1.00  0.00     0.000 HD 
BRANCH  13  15
HETATM   15  C   UNL     1      -7.067   9.738  69.468  1.00  0.00    -0.075 C  
BRANCH  15  16
HETATM   16  C   UNL     1      -7.159   8.941  70.792  1.00  0.00    -0.078 C  
HETATM   17  H   UNL     1      -5.899   8.148  72.087  1.00  0.00     0.000 HD 
HETATM   18  O   UNL     1      -5.842   8.637  71.275  1.00  0.00    -0.035 OA 
BRANCH  16  19
HETATM   19  C   UNL     1      -8.007   7.695  70.660  1.00  0.00    -0.099 A  
HETATM   20  C   UNL     1      -9.371   7.709  70.998  1.00  0.00    -0.152 A  
HETATM   21  O   UNL     1      -9.885   8.878  71.501  1.00  0.00    -0.266 OA 
HETATM   22  C   UNL     1     -11.305   8.949  71.451  1.00  0.00    -0.309 C  
HETATM   23  C   UNL     1     -12.073   7.673  71.771  1.00  0.00    -0.305 C  
HETATM   24  O   UNL     1     -13.184   7.656  72.293  1.00  0.00    -0.116 OA 
HETATM   25  N   UNL     1     -11.464   6.530  71.328  1.00  0.00    -0.304 N  
HETATM   26  H   UNL     1     -11.985   5.653  71.328  1.00  0.00     0.000 HD 
HETATM   27  C   UNL     1     -10.140   6.541  70.877  1.00  0.00    -0.185 A  
HETATM   28  C   UNL     1      -9.582   5.371  70.365  1.00  0.00    -0.233 A  
HETATM   29  C   UNL     1      -8.245   5.372  69.989  1.00  0.00    -0.095 A  
HETATM   30  O   UNL     1      -7.642   4.266  69.471  1.00  0.00    -0.054 OA 
HETATM   31  C   UNL     1      -7.460   6.512  70.139  1.00  0.00    -0.094 A  
HETATM   32  H   UNL     1      -6.728   4.266  69.214  1.00  0.00     0.000 HD 
ENDBRANCH  16  19
ENDBRANCH  15  16
ENDBRANCH  13  15
ENDBRANCH   6   9
ENDBRANCH   2   3
TORSDOF 5
ENDMDL
MODEL      208
REMARK 921   NORMALIZED FREE ENERGY PREDICTED BY IDOCK:   -4.18 KCAL/MOL
REMARK 922        TOTAL FREE ENERGY PREDICTED BY IDOCK:   -5.64 KCAL/MOL
REMARK 923 INTER-LIGAND FREE ENERGY PREDICTED BY IDOCK:   -5.94 KCAL/MOL
REMARK 924 INTRA-LIGAND FREE ENERGY PREDICTED BY IDOCK:    0.30 KCAL/MOL
REMARK 927      BINDING AFFINITY PREDICTED BY RF-SCORE:    0.00 PKD
ROOT
HETATM    1  C   UNL     1     -11.935  13.269  63.543  1.00  0.00    -0.474 C  
HETATM    2  O   UNL     1     -10.888  13.370  64.504  1.00  0.00    -0.365 OA 
ENDROOT
BRANCH   2   3
HETATM    3  C   UNL     1     -10.810  12.352  65.420  1.00  0.00    -0.285 A  
HETATM    4  C   UNL     1     -11.043  12.480  66.786  1.00  0.00    -0.323 A  
HETATM    5  C   UNL     1     -10.910  11.375  67.627  1.00  0.00    -0.286 A  
HETATM    6  C   UNL     1     -10.561  10.115  67.121  1.00  0.00    -0.308 A  
HETATM    7  C   UNL     1     -10.472  11.100  64.902  1.00  0.00    -0.372 A  
HETATM    8  C   UNL     1     -10.347   9.989  65.743  1.00  0.00    -0.191 A  
BRANCH   6   9
HETATM    9  C   UNL     1     -10.411   8.933  68.066  1.00  0.00    -0.263 C  
HETATM   10  C   UNL     1      -8.956   8.515  68.474  1.00  0.00    -0.139 C  
HETATM   11  C   UNL     1      -8.337   9.620  69.351  1.00  0.00    -0.145 C  
HETATM   12  C   UNL     1      -8.084   8.253  67.230  1.00  0.00    -0.109 C  
HETATM   13  N   UNL     1      -9.070   7.267  69.274  1.00  0.00    -0.139 NA 
HETATM   14  H   UNL     1      -9.574   6.558  68.741  1.00  0.00     0.000 HD 
BRANCH  13  15
HETATM   15  C   UNL     1      -7.796   6.710  69.778  1.00  0.00    -0.115 C  
BRANCH  15  16
HETATM   16  C   UNL     1      -7.961   5.366  70.527  1.00  0.00    -0.101 C  
HETATM   17  H   UNL     1      -8.713   3.583  70.138  1.00  0.00     0.000 HD 
HETATM   18  O   UNL     1      -8.611   4.408  69.678  1.00  0.00    -0.071 OA 
BRANCH  16  19
HETATM   19  C   UNL     1      -8.685   5.523  71.847  1.00  0.00    -0.135 A  
HETATM   20  C   UNL     1      -9.501   4.495  72.350  1.00  0.00    -0.135 A  
HETATM   21  O   UNL     1      -9.656   3.374  71.574  1.00  0.00    -0.142 OA 
HETATM   22  C   UNL     1     -10.151   2.246  72.287  1.00  0.00    -0.159 C  
HETATM   23  C   UNL     1     -11.228   2.507  73.332  1.00  0.00    -0.171 C  
HETATM   24  O   UNL     1     -12.107   1.702  73.623  1.00  0.00    -0.207 OA 
HETATM   25  N   UNL     1     -11.074   3.687  74.009  1.00  0.00    -0.142 N  
HETATM   26  H   UNL     1     -11.629   3.859  74.847  1.00  0.00     0.000 HD 
HETATM   27  C   UNL     1     -10.171   4.662  73.573  1.00  0.00    -0.174 A  
HETATM   28  C   UNL     1      -9.991   5.816  74.332  1.00  0.00    -0.271 A  
HETATM   29  C   UNL     1      -9.148   6.811  73.854  1.00  0.00    -0.170 A  
HETATM   30  O   UNL     1      -8.920   7.959  74.552  1.00  0.00    -0.420 OA 
HETATM   31  C   UNL     1      -8.507   6.677  72.625  1.00  0.00    -0.124 A  
HETATM   32  H   UNL     1      -8.344   8.640  74.225  1.00  0.00     0.000 HD 
ENDBRANCH  16  19
ENDBRANCH  15  16
ENDBRANCH  13  15
ENDBRANCH   6   9
ENDBRANCH   2   3
TORSDOF 5
ENDMDL
MODEL      209
REMARK 921   NORMALIZED FREE ENERGY PREDICTED BY IDOCK:   -4.15 KCAL/MOL
REMARK 922        TOTAL FREE ENERGY PREDICTED BY IDOCK:   -5.61 KCAL/MOL
REMARK 923 INTER-LIGAND FREE ENERGY PREDICTED BY IDOCK:   -5.10 KCAL/MOL
REMARK 924 INTRA-LIGAND FREE ENERGY PREDICTED BY IDOCK:   -0.51 KCAL/MOL
REMARK 927      BINDING AFFINITY PREDICTED BY RF-SCORE:    0.00 PKD
ROOT
HETATM    1  C   UNL     1     -13.931  14.264  72.192  1.00  0.00    -0.523 C  
HETATM    2  O   UNL     1     -13.796  12.965  72.761  1.00  0.00    -0.522 OA 
ENDROOT
BRANCH   2   3
HETATM    3  C   UNL     1     -13.140  12.035  71.995  1.00  0.00    -0.351 A  
HETATM    4  C   UNL     1     -13.194  10.658  72.181  1.00  0.00    -0.379 A  
HETATM    5  C   UNL     1     -12.463   9.808  71.349  1.00  0.00    -0.482 A  
HETATM    6  C   UNL     1     -11.678  10.315  70.303  1.00  0.00    -0.388 A  
HETATM    7  C   UNL     1     -12.371  12.551  70.950  1.00  0.00    -0.349 A  
HETATM    8  C   UNL     1     -11.644  11.701  70.110  1.00  0.00    -0.303 A  
BRANCH   6   9
HETATM    9  C   UNL     1     -10.883   9.363  69.423  1.00  0.00    -0.208 C  
HETATM   10  C   UNL     1      -9.433   8.990  69.890  1.00  0.00    -0.177 C  
HETATM   11  C   UNL     1      -9.514   8.140  71.172  1.00  0.00    -0.192 C  
HETATM   12  C   UNL     1      -8.584  10.255  70.126  1.00  0.00     0.241 C  
HETATM   13  N   UNL     1      -8.823   8.177  68.805  1.00  0.00    -0.138 NA 
HETATM   14  H   UNL     1      -8.859   8.689  67.924  1.00  0.00     0.000 HD 
BRANCH  13  15
HETATM   15  C   UNL     1      -7.445   7.702  69.058  1.00  0.00    -0.095 C  
BRANCH  15  16
HETATM   16  C   UNL     1      -6.870   6.833  67.913  1.00  0.00    -0.077 C  
HETATM   17  H   UNL     1      -6.617   7.004  65.963  1.00  0.00     0.000 HD 
HETATM   18  O   UNL     1      -6.970   7.536  66.665  1.00  0.00    -0.070 OA 
BRANCH  16  19
HETATM   19  C   UNL     1      -7.521   5.469  67.837  1.00  0.00    -0.080 A  
HETATM   20  C   UNL     1      -7.231   4.477  68.790  1.00  0.00    -0.053 A  
HETATM   21  O   UNL     1      -6.299   4.776  69.752  1.00  0.00    -0.028 OA 
HETATM   22  C   UNL     1      -6.341   3.912  70.881  1.00  0.00    -0.019 C  
HETATM   23  C   UNL     1      -6.591   2.434  70.611  1.00  0.00    -0.032 C  
HETATM   24  O   UNL     1      -6.142   1.526  71.306  1.00  0.00    -0.016 OA 
HETATM   25  N   UNL     1      -7.456   2.194  69.577  1.00  0.00    -0.043 N  
HETATM   26  H   UNL     1      -7.828   1.254  69.443  1.00  0.00     0.000 HD 
HETATM   27  C   UNL     1      -7.838   3.214  68.699  1.00  0.00    -0.057 A  
HETATM   28  C   UNL     1      -8.778   2.945  67.706  1.00  0.00    -0.139 A  
HETATM   29  C   UNL     1      -9.095   3.941  66.793  1.00  0.00    -0.150 A  
HETATM   30  O   UNL     1     -10.013   3.748  65.806  1.00  0.00    -0.367 OA 
HETATM   31  C   UNL     1      -8.474   5.186  66.847  1.00  0.00    -0.106 A  
HETATM   32  H   UNL     1     -10.231   4.429  65.181  1.00  0.00     0.000 HD 
ENDBRANCH  16  19
ENDBRANCH  15  16
ENDBRANCH  13  15
ENDBRANCH   6   9
ENDBRANCH   2   3
TORSDOF 5
ENDMDL
MODEL      210
REMARK 921   NORMALIZED FREE ENERGY PREDICTED BY IDOCK:   -4.14 KCAL/MOL
REMARK 922        TOTAL FREE ENERGY PREDICTED BY IDOCK:   -5.59 KCAL/MOL
REMARK 923 INTER-LIGAND FREE ENERGY PREDICTED BY IDOCK:   -6.20 KCAL/MOL
REMARK 924 INTRA-LIGAND FREE ENERGY PREDICTED BY IDOCK:    0.61 KCAL/MOL
REMARK 927      BINDING AFFINITY PREDICTED BY RF-SCORE:    0.00 PKD
ROOT
HETATM    1  C   UNL     1      -9.816  17.619  67.730  1.00  0.00    -0.292 C  
HETATM    2  O   UNL     1     -10.663  16.932  66.813  1.00  0.00    -0.240 OA 
ENDROOT
BRANCH   2   3
HETATM    3  C   UNL     1     -10.894  15.607  67.081  1.00  0.00    -0.297 A  
HETATM    4  C   UNL     1     -11.814  14.802  66.419  1.00  0.00    -0.231 A  
HETATM    5  C   UNL     1     -11.979  13.468  66.796  1.00  0.00    -0.453 A  
HETATM    6  C   UNL     1     -11.214  12.906  67.829  1.00  0.00    -0.319 A  
HETATM    7  C   UNL     1     -10.118  15.056  68.104  1.00  0.00    -0.220 A  
HETATM    8  C   UNL     1     -10.276  13.717  68.477  1.00  0.00    -0.235 A  
BRANCH   6   9
HETATM    9  C   UNL     1     -11.426  11.453  68.225  1.00  0.00    -0.369 C  
HETATM   10  C   UNL     1     -10.421  10.395  67.650  1.00  0.00    -0.233 C  
HETATM   11  C   UNL     1      -9.030  10.626  68.270  1.00  0.00    -0.143 C  
HETATM   12  C   UNL     1     -10.353  10.472  66.112  1.00  0.00    -0.276 C  
HETATM   13  N   UNL     1     -10.919   9.056  68.060  1.00  0.00    -0.492 NA 
HETATM   14  H   UNL     1     -11.882   8.931  67.745  1.00  0.00     0.000 HD 
BRANCH  13  15
HETATM   15  C   UNL     1     -10.094   7.905  67.629  1.00  0.00    -0.203 C  
BRANCH  15  16
HETATM   16  C   UNL     1     -10.922   6.642  67.290  1.00  0.00    -0.385 C  
HETATM   17  H   UNL     1     -11.660   5.097  68.271  1.00  0.00     0.000 HD 
HETATM   18  O   UNL     1     -11.152   5.872  68.479  1.00  0.00    -0.274 OA 
BRANCH  16  19
HETATM   19  C   UNL     1     -10.286   5.808  66.199  1.00  0.00    -0.044 A  
HETATM   20  C   UNL     1      -8.936   5.983  65.850  1.00  0.00    -0.133 A  
HETATM   21  O   UNL     1      -8.238   6.973  66.497  1.00  0.00    -0.107 OA 
HETATM   22  C   UNL     1      -6.826   6.843  66.392  1.00  0.00    -0.064 C  
HETATM   23  C   UNL     1      -6.271   6.384  65.050  1.00  0.00    -0.030 C  
HETATM   24  O   UNL     1      -5.175   6.722  64.612  1.00  0.00    -0.025 OA 
HETATM   25  N   UNL     1      -7.058   5.467  64.406  1.00  0.00    -0.048 N  
HETATM   26  H   UNL     1      -6.683   4.965  63.600  1.00  0.00     0.000 HD 
HETATM   27  C   UNL     1      -8.364   5.206  64.830  1.00  0.00    -0.145 A  
HETATM   28  C   UNL     1      -9.104   4.211  64.193  1.00  0.00    -0.147 A  
HETATM   29  C   UNL     1     -10.425   4.010  64.571  1.00  0.00    -0.197 A  
HETATM   30  O   UNL     1     -11.200   3.048  63.997  1.00  0.00    -0.599 OA 
HETATM   31  C   UNL     1     -11.017   4.799  65.554  1.00  0.00     0.004 A  
HETATM   32  H   UNL     1     -12.103   2.910  64.255  1.00  0.00     0.000 HD 
ENDBRANCH  16  19
ENDBRANCH  15  16
ENDBRANCH  13  15
ENDBRANCH   6   9
ENDBRANCH   2   3
TORSDOF 5
ENDMDL
MODEL      211
REMARK 921   NORMALIZED FREE ENERGY PREDICTED BY IDOCK:   -4.11 KCAL/MOL
REMARK 922        TOTAL FREE ENERGY PREDICTED BY IDOCK:   -5.55 KCAL/MOL
REMARK 923 INTER-LIGAND FREE ENERGY PREDICTED BY IDOCK:   -5.72 KCAL/MOL
REMARK 924 INTRA-LIGAND FREE ENERGY PREDICTED BY IDOCK:    0.17 KCAL/MOL
REMARK 927      BINDING AFFINITY PREDICTED BY RF-SCORE:    0.00 PKD
ROOT
HETATM    1  C   UNL     1      -6.973  21.328  66.985  1.00  0.00    -0.163 C  
HETATM    2  O   UNL     1      -7.486  20.460  67.992  1.00  0.00    -0.264 OA 
ENDROOT
BRANCH   2   3
HETATM    3  C   UNL     1      -7.714  19.162  67.612  1.00  0.00    -0.243 A  
HETATM    4  C   UNL     1      -8.453  18.768  66.501  1.00  0.00    -0.310 A  
HETATM    5  C   UNL     1      -8.637  17.412  66.226  1.00  0.00    -0.246 A  
HETATM    6  C   UNL     1      -8.071  16.422  67.043  1.00  0.00    -0.235 A  
HETATM    7  C   UNL     1      -7.136  18.186  68.426  1.00  0.00    -0.256 A  
HETATM    8  C   UNL     1      -7.312  16.827  68.147  1.00  0.00    -0.174 A  
BRANCH   6   9
HETATM    9  C   UNL     1      -8.300  14.953  66.723  1.00  0.00    -0.158 C  
HETATM   10  C   UNL     1      -9.011  14.080  67.816  1.00  0.00    -0.186 C  
HETATM   11  C   UNL     1     -10.474  14.539  67.961  1.00  0.00    -0.236 C  
HETATM   12  C   UNL     1      -8.273  14.173  69.166  1.00  0.00     0.161 C  
HETATM   13  N   UNL     1      -8.989  12.675  67.331  1.00  0.00    -0.181 NA 
HETATM   14  H   UNL     1      -8.030  12.392  67.129  1.00  0.00     0.000 HD 
BRANCH  13  15
HETATM   15  C   UNL     1      -9.633  11.681  68.217  1.00  0.00    -0.198 C  
BRANCH  15  16
HETATM   16  C   UNL     1     -10.554  10.688  67.467  1.00  0.00    -0.252 C  
HETATM   17  H   UNL     1     -11.414   8.953  67.848  1.00  0.00     0.000 HD 
HETATM   18  O   UNL     1     -10.849   9.562  68.308  1.00  0.00    -0.213 OA 
BRANCH  16  19
HETATM   19  C   UNL     1      -9.978  10.255  66.137  1.00  0.00    -0.300 A  
HETATM   20  C   UNL     1      -9.044   9.208  66.060  1.00  0.00    -0.197 A  
HETATM   21  O   UNL     1      -8.638   8.635  67.240  1.00  0.00    -0.124 OA 
HETATM   22  C   UNL     1      -8.020   7.364  67.079  1.00  0.00    -0.116 C  
HETATM   23  C   UNL     1      -7.091   7.193  65.884  1.00  0.00    -0.069 C  
HETATM   24  O   UNL     1      -6.115   6.449  65.877  1.00  0.00    -0.031 OA 
HETATM   25  N   UNL     1      -7.497   7.866  64.762  1.00  0.00    -0.089 N  
HETATM   26  H   UNL     1      -7.049   7.664  63.868  1.00  0.00     0.000 HD 
HETATM   27  C   UNL     1      -8.513   8.825  64.818  1.00  0.00    -0.160 A  
HETATM   28  C   UNL     1      -8.947   9.431  63.641  1.00  0.00    -0.151 A  
HETATM   29  C   UNL     1      -9.904  10.436  63.715  1.00  0.00    -0.243 A  
HETATM   30  O   UNL     1     -10.379  11.061  62.602  1.00  0.00    -0.713 OA 
HETATM   31  C   UNL     1     -10.411  10.852  64.943  1.00  0.00    -0.371 A  
HETATM   32  H   UNL     1     -11.033  11.748  62.652  1.00  0.00     0.000 HD 
ENDBRANCH  16  19
ENDBRANCH  15  16
ENDBRANCH  13  15
ENDBRANCH   6   9
ENDBRANCH   2   3
TORSDOF 5
ENDMDL
MODEL      212
REMARK 921   NORMALIZED FREE ENERGY PREDICTED BY IDOCK:   -4.10 KCAL/MOL
REMARK 922        TOTAL FREE ENERGY PREDICTED BY IDOCK:   -5.55 KCAL/MOL
REMARK 923 INTER-LIGAND FREE ENERGY PREDICTED BY IDOCK:   -5.01 KCAL/MOL
REMARK 924 INTRA-LIGAND FREE ENERGY PREDICTED BY IDOCK:   -0.54 KCAL/MOL
REMARK 927      BINDING AFFINITY PREDICTED BY RF-SCORE:    0.00 PKD
ROOT
HETATM    1  C   UNL     1      -8.175   2.626  63.421  1.00  0.00    -0.084 C  
HETATM    2  O   UNL     1      -8.118   3.800  62.617  1.00  0.00    -0.069 OA 
ENDROOT
BRANCH   2   3
HETATM    3  C   UNL     1      -7.995   4.988  63.292  1.00  0.00    -0.089 A  
HETATM    4  C   UNL     1      -7.355   6.125  62.808  1.00  0.00    -0.058 A  
HETATM    5  C   UNL     1      -7.272   7.273  63.597  1.00  0.00    -0.075 A  
HETATM    6  C   UNL     1      -7.842   7.317  64.878  1.00  0.00    -0.126 A  
HETATM    7  C   UNL     1      -8.576   5.023  64.561  1.00  0.00    -0.143 A  
HETATM    8  C   UNL     1      -8.501   6.175  65.350  1.00  0.00    -0.138 A  
BRANCH   6   9
HETATM    9  C   UNL     1      -7.722   8.578  65.718  1.00  0.00    -0.098 C  
HETATM   10  C   UNL     1      -8.958   9.545  65.748  1.00  0.00    -0.179 C  
HETATM   11  C   UNL     1     -10.123   8.858  66.485  1.00  0.00    -0.356 C  
HETATM   12  C   UNL     1      -9.378   9.951  64.321  1.00  0.00    -0.313 C  
HETATM   13  N   UNL     1      -8.545  10.753  66.509  1.00  0.00    -0.145 NA 
HETATM   14  H   UNL     1      -7.708  11.159  66.091  1.00  0.00     0.000 HD 
BRANCH  13  15
HETATM   15  C   UNL     1      -9.584  11.794  66.670  1.00  0.00    -0.205 C  
BRANCH  15  16
HETATM   16  C   UNL     1      -9.716  12.317  68.121  1.00  0.00    -0.213 C  
HETATM   17  H   UNL     1      -8.552  13.206  69.443  1.00  0.00     0.000 HD 
HETATM   18  O   UNL     1      -8.471  12.885  68.553  1.00  0.00    -0.136 OA 
BRANCH  16  19
HETATM   19  C   UNL     1     -10.206  11.252  69.078  1.00  0.00    -0.169 A  
HETATM   20  C   UNL     1      -9.301  10.405  69.741  1.00  0.00     0.019 A  
HETATM   21  O   UNL     1      -7.969  10.546  69.443  1.00  0.00    -0.153 OA 
HETATM   22  C   UNL     1      -7.100   9.957  70.404  1.00  0.00    -0.139 C  
HETATM   23  C   UNL     1      -7.528   8.621  70.996  1.00  0.00    -0.090 C  
HETATM   24  O   UNL     1      -6.742   7.754  71.368  1.00  0.00    -0.044 OA 
HETATM   25  N   UNL     1      -8.880   8.500  71.182  1.00  0.00    -0.162 N  
HETATM   26  H   UNL     1      -9.241   7.727  71.740  1.00  0.00     0.000 HD 
HETATM   27  C   UNL     1      -9.774   9.417  70.619  1.00  0.00    -0.273 A  
HETATM   28  C   UNL     1     -11.135   9.301  70.895  1.00  0.00    -0.374 A  
HETATM   29  C   UNL     1     -12.023  10.169  70.273  1.00  0.00    -0.233 A  
HETATM   30  O   UNL     1     -13.364  10.117  70.508  1.00  0.00    -0.573 OA 
HETATM   31  C   UNL     1     -11.573  11.129  69.371  1.00  0.00    -0.388 A  
HETATM   32  H   UNL     1     -13.972  10.711  70.083  1.00  0.00     0.000 HD 
ENDBRANCH  16  19
ENDBRANCH  15  16
ENDBRANCH  13  15
ENDBRANCH   6   9
ENDBRANCH   2   3
TORSDOF 5
ENDMDL
MODEL      213
REMARK 921   NORMALIZED FREE ENERGY PREDICTED BY IDOCK:   -4.07 KCAL/MOL
REMARK 922        TOTAL FREE ENERGY PREDICTED BY IDOCK:   -5.51 KCAL/MOL
REMARK 923 INTER-LIGAND FREE ENERGY PREDICTED BY IDOCK:   -5.41 KCAL/MOL
REMARK 924 INTRA-LIGAND FREE ENERGY PREDICTED BY IDOCK:   -0.10 KCAL/MOL
REMARK 927      BINDING AFFINITY PREDICTED BY RF-SCORE:    0.00 PKD
ROOT
HETATM    1  C   UNL     1     -14.386   7.182  72.114  1.00  0.00    -0.144 C  
HETATM    2  O   UNL     1     -13.225   6.386  72.330  1.00  0.00    -0.030 OA 
ENDROOT
BRANCH   2   3
HETATM    3  C   UNL     1     -12.148   6.657  71.524  1.00  0.00    -0.355 A  
HETATM    4  C   UNL     1     -12.111   6.477  70.145  1.00  0.00    -0.039 A  
HETATM    5  C   UNL     1     -10.948   6.767  69.431  1.00  0.00    -0.321 A  
HETATM    6  C   UNL     1      -9.804   7.261  70.075  1.00  0.00    -0.175 A  
HETATM    7  C   UNL     1     -11.020   7.159  72.176  1.00  0.00    -0.274 A  
HETATM    8  C   UNL     1      -9.856   7.458  71.460  1.00  0.00    -0.185 A  
BRANCH   6   9
HETATM    9  C   UNL     1      -8.548   7.555  69.271  1.00  0.00    -0.136 C  
HETATM   10  C   UNL     1      -8.054   9.043  69.222  1.00  0.00    -0.105 C  
HETATM   11  C   UNL     1      -7.563   9.462  70.621  1.00  0.00    -0.163 C  
HETATM   12  C   UNL     1      -9.174   9.983  68.732  1.00  0.00    -0.159 C  
HETATM   13  N   UNL     1      -6.912   9.091  68.272  1.00  0.00    -0.075 NA 
HETATM   14  H   UNL     1      -7.197   8.716  67.367  1.00  0.00     0.000 HD 
BRANCH  13  15
HETATM   15  C   UNL     1      -6.283  10.418  68.093  1.00  0.00    -0.051 C  
BRANCH  15  16
HETATM   16  C   UNL     1      -6.132  10.837  66.611  1.00  0.00    -0.090 C  
HETATM   17  H   UNL     1      -5.542  12.438  65.619  1.00  0.00     0.000 HD 
HETATM   18  O   UNL     1      -5.635  12.181  66.529  1.00  0.00    -0.277 OA 
BRANCH  16  19
HETATM   19  C   UNL     1      -7.416  10.669  65.828  1.00  0.00    -0.114 A  
HETATM   20  C   UNL     1      -8.491  11.557  66.004  1.00  0.00    -0.005 A  
HETATM   21  O   UNL     1      -8.349  12.544  66.948  1.00  0.00    -0.170 OA 
HETATM   22  C   UNL     1      -9.275  13.614  66.805  1.00  0.00    -0.241 C  
HETATM   23  C   UNL     1     -10.700  13.248  66.412  1.00  0.00    -0.285 C  
HETATM   24  O   UNL     1     -11.690  13.885  66.757  1.00  0.00    -0.356 OA 
HETATM   25  N   UNL     1     -10.785  12.194  65.541  1.00  0.00    -0.273 N  
HETATM   26  H   UNL     1     -11.672  11.998  65.078  1.00  0.00     0.000 HD 
HETATM   27  C   UNL     1      -9.678  11.382  65.275  1.00  0.00    -0.241 A  
HETATM   28  C   UNL     1      -9.787  10.367  64.326  1.00  0.00    -0.388 A  
HETATM   29  C   UNL     1      -8.707   9.518  64.122  1.00  0.00    -0.215 A  
HETATM   30  O   UNL     1      -8.744   8.514  63.202  1.00  0.00    -0.424 OA 
HETATM   31  C   UNL     1      -7.537   9.656  64.864  1.00  0.00    -0.117 A  
HETATM   32  H   UNL     1      -8.006   7.933  63.062  1.00  0.00     0.000 HD 
ENDBRANCH  16  19
ENDBRANCH  15  16
ENDBRANCH  13  15
ENDBRANCH   6   9
ENDBRANCH   2   3
TORSDOF 5
ENDMDL
MODEL      214
REMARK 921   NORMALIZED FREE ENERGY PREDICTED BY IDOCK:   -4.07 KCAL/MOL
REMARK 922        TOTAL FREE ENERGY PREDICTED BY IDOCK:   -5.50 KCAL/MOL
REMARK 923 INTER-LIGAND FREE ENERGY PREDICTED BY IDOCK:   -6.23 KCAL/MOL
REMARK 924 INTRA-LIGAND FREE ENERGY PREDICTED BY IDOCK:    0.73 KCAL/MOL
REMARK 927      BINDING AFFINITY PREDICTED BY RF-SCORE:    0.00 PKD
ROOT
HETATM    1  C   UNL     1      -8.484   5.588  65.018  1.00  0.00    -0.147 C  
HETATM    2  O   UNL     1      -9.334   5.701  66.155  1.00  0.00    -0.157 OA 
ENDROOT
BRANCH   2   3
HETATM    3  C   UNL     1      -9.384   6.936  66.751  1.00  0.00    -0.158 A  
HETATM    4  C   UNL     1     -10.522   7.518  67.301  1.00  0.00    -0.391 A  
HETATM    5  C   UNL     1     -10.456   8.794  67.862  1.00  0.00    -0.275 A  
HETATM    6  C   UNL     1      -9.249   9.508  67.904  1.00  0.00    -0.134 A  
HETATM    7  C   UNL     1      -8.174   7.631  66.797  1.00  0.00    -0.124 A  
HETATM    8  C   UNL     1      -8.104   8.907  67.367  1.00  0.00    -0.108 A  
BRANCH   6   9
HETATM    9  C   UNL     1      -9.213  10.901  68.510  1.00  0.00    -0.181 C  
HETATM   10  C   UNL     1     -10.098  12.006  67.834  1.00  0.00    -0.195 C  
HETATM   11  C   UNL     1     -11.586  11.672  68.055  1.00  0.00    -0.383 C  
HETATM   12  C   UNL     1      -9.783  12.124  66.329  1.00  0.00    -0.251 C  
HETATM   13  N   UNL     1      -9.783  13.290  68.512  1.00  0.00    -0.356 NA 
HETATM   14  H   UNL     1      -8.780  13.472  68.464  1.00  0.00     0.000 HD 
BRANCH  13  15
HETATM   15  C   UNL     1     -10.533  14.470  68.030  1.00  0.00    -0.236 C  
BRANCH  15  16
HETATM   16  C   UNL     1     -10.330  15.732  68.902  1.00  0.00    -0.224 C  
HETATM   17  H   UNL     1     -11.097  17.548  69.011  1.00  0.00     0.000 HD 
HETATM   18  O   UNL     1     -11.221  16.774  68.475  1.00  0.00    -0.319 OA 
BRANCH  16  19
HETATM   19  C   UNL     1      -8.891  16.201  68.918  1.00  0.00    -0.248 A  
HETATM   20  C   UNL     1      -8.510  17.385  68.263  1.00  0.00    -0.249 A  
HETATM   21  O   UNL     1      -9.480  18.064  67.568  1.00  0.00    -0.259 OA 
HETATM   22  C   UNL     1      -9.136  19.412  67.272  1.00  0.00    -0.298 C  
HETATM   23  C   UNL     1      -7.693  19.686  66.871  1.00  0.00    -0.262 C  
HETATM   24  O   UNL     1      -7.355  20.580  66.101  1.00  0.00    -0.211 OA 
HETATM   25  N   UNL     1      -6.775  18.911  67.528  1.00  0.00    -0.199 N  
HETATM   26  H   UNL     1      -5.784  19.148  67.468  1.00  0.00     0.000 HD 
HETATM   27  C   UNL     1      -7.169  17.800  68.281  1.00  0.00    -0.237 A  
HETATM   28  C   UNL     1      -6.210  17.083  68.995  1.00  0.00    -0.190 A  
HETATM   29  C   UNL     1      -6.599  15.938  69.678  1.00  0.00    -0.180 A  
HETATM   30  O   UNL     1      -5.715  15.198  70.404  1.00  0.00    -0.134 OA 
HETATM   31  C   UNL     1      -7.917  15.493  69.638  1.00  0.00    -0.123 A  
HETATM   32  H   UNL     1      -5.980  14.415  70.871  1.00  0.00     0.000 HD 
ENDBRANCH  16  19
ENDBRANCH  15  16
ENDBRANCH  13  15
ENDBRANCH   6   9
ENDBRANCH   2   3
TORSDOF 5
ENDMDL
MODEL      215
REMARK 921   NORMALIZED FREE ENERGY PREDICTED BY IDOCK:   -4.05 KCAL/MOL
REMARK 922        TOTAL FREE ENERGY PREDICTED BY IDOCK:   -5.48 KCAL/MOL
REMARK 923 INTER-LIGAND FREE ENERGY PREDICTED BY IDOCK:   -5.33 KCAL/MOL
REMARK 924 INTRA-LIGAND FREE ENERGY PREDICTED BY IDOCK:   -0.15 KCAL/MOL
REMARK 927      BINDING AFFINITY PREDICTED BY RF-SCORE:    0.00 PKD
ROOT
HETATM    1  C   UNL     1     -10.690  16.731  68.202  1.00  0.00    -0.361 C  
HETATM    2  O   UNL     1     -10.705  16.128  66.911  1.00  0.00    -0.314 OA 
ENDROOT
BRANCH   2   3
HETATM    3  C   UNL     1     -10.339  14.808  66.858  1.00  0.00    -0.267 A  
HETATM    4  C   UNL     1     -11.163  13.761  66.456  1.00  0.00    -0.319 A  
HETATM    5  C   UNL     1     -10.686  12.450  66.464  1.00  0.00    -0.265 A  
HETATM    6  C   UNL     1      -9.371  12.157  66.856  1.00  0.00    -0.203 A  
HETATM    7  C   UNL     1      -9.024  14.531  67.238  1.00  0.00    -0.220 A  
HETATM    8  C   UNL     1      -8.541  13.218  67.239  1.00  0.00    -0.211 A  
BRANCH   6   9
HETATM    9  C   UNL     1      -8.885  10.717  66.866  1.00  0.00    -0.143 C  
HETATM   10  C   UNL     1      -9.284   9.830  68.097  1.00  0.00    -0.128 C  
HETATM   11  C   UNL     1     -10.805   9.585  68.076  1.00  0.00    -0.225 C  
HETATM   12  C   UNL     1      -8.856  10.495  69.421  1.00  0.00    -0.091 C  
HETATM   13  N   UNL     1      -8.580   8.530  67.942  1.00  0.00    -0.133 NA 
HETATM   14  H   UNL     1      -7.576   8.687  67.849  1.00  0.00     0.000 HD 
BRANCH  13  15
HETATM   15  C   UNL     1      -8.838   7.531  69.003  1.00  0.00    -0.132 C  
BRANCH  15  16
HETATM   16  C   UNL     1      -7.613   7.260  69.909  1.00  0.00    -0.094 C  
HETATM   17  H   UNL     1      -6.238   5.856  70.090  1.00  0.00     0.000 HD 
HETATM   18  O   UNL     1      -6.990   6.022  69.534  1.00  0.00    -0.062 OA 
BRANCH  16  19
HETATM   19  C   UNL     1      -7.963   7.285  71.381  1.00  0.00    -0.097 A  
HETATM   20  C   UNL     1      -8.877   6.364  71.921  1.00  0.00    -0.138 A  
HETATM   21  O   UNL     1      -9.475   5.484  71.055  1.00  0.00    -0.156 OA 
HETATM   22  C   UNL     1     -10.065   4.358  71.695  1.00  0.00    -0.160 C  
HETATM   23  C   UNL     1     -10.784   4.611  73.014  1.00  0.00    -0.233 C  
HETATM   24  O   UNL     1     -11.750   3.960  73.402  1.00  0.00    -0.131 OA 
HETATM   25  N   UNL     1     -10.195   5.569  73.795  1.00  0.00    -0.207 N  
HETATM   26  H   UNL     1     -10.490   5.674  74.766  1.00  0.00     0.000 HD 
HETATM   27  C   UNL     1      -9.197   6.407  73.288  1.00  0.00    -0.127 A  
HETATM   28  C   UNL     1      -8.571   7.318  74.137  1.00  0.00    -0.238 A  
HETATM   29  C   UNL     1      -7.635   8.197  73.609  1.00  0.00    -0.164 A  
HETATM   30  O   UNL     1      -6.979   9.103  74.386  1.00  0.00    -0.391 OA 
HETATM   31  C   UNL     1      -7.336   8.191  72.249  1.00  0.00    -0.122 A  
HETATM   32  H   UNL     1      -6.339   9.705  74.025  1.00  0.00     0.000 HD 
ENDBRANCH  16  19
ENDBRANCH  15  16
ENDBRANCH  13  15
ENDBRANCH   6   9
ENDBRANCH   2   3
TORSDOF 5
ENDMDL
MODEL      216
REMARK 921   NORMALIZED FREE ENERGY PREDICTED BY IDOCK:   -4.04 KCAL/MOL
REMARK 922        TOTAL FREE ENERGY PREDICTED BY IDOCK:   -5.47 KCAL/MOL
REMARK 923 INTER-LIGAND FREE ENERGY PREDICTED BY IDOCK:   -5.65 KCAL/MOL
REMARK 924 INTRA-LIGAND FREE ENERGY PREDICTED BY IDOCK:    0.18 KCAL/MOL
REMARK 927      BINDING AFFINITY PREDICTED BY RF-SCORE:    0.00 PKD
ROOT
HETATM    1  C   UNL     1      -6.052   4.389  63.340  1.00  0.00    -0.018 C  
HETATM    2  O   UNL     1      -7.116   4.103  64.242  1.00  0.00    -0.045 OA 
ENDROOT
BRANCH   2   3
HETATM    3  C   UNL     1      -7.738   5.188  64.806  1.00  0.00    -0.086 A  
HETATM    4  C   UNL     1      -8.708   5.132  65.801  1.00  0.00    -0.139 A  
HETATM    5  C   UNL     1      -9.289   6.305  66.283  1.00  0.00    -0.155 A  
HETATM    6  C   UNL     1      -8.900   7.561  65.794  1.00  0.00    -0.122 A  
HETATM    7  C   UNL     1      -7.334   6.433  64.319  1.00  0.00    -0.075 A  
HETATM    8  C   UNL     1      -7.909   7.612  64.806  1.00  0.00    -0.129 A  
BRANCH   6   9
HETATM    9  C   UNL     1      -9.561   8.821  66.330  1.00  0.00    -0.316 C  
HETATM   10  C   UNL     1      -8.991  10.199  65.843  1.00  0.00    -0.157 C  
HETATM   11  C   UNL     1      -9.293  10.373  64.342  1.00  0.00    -0.321 C  
HETATM   12  C   UNL     1      -7.475  10.296  66.109  1.00  0.00    -0.121 C  
HETATM   13  N   UNL     1      -9.700  11.258  66.607  1.00  0.00    -0.193 NA 
HETATM   14  H   UNL     1      -9.595  11.094  67.609  1.00  0.00     0.000 HD 
BRANCH  13  15
HETATM   15  C   UNL     1      -9.317  12.649  66.281  1.00  0.00    -0.160 C  
BRANCH  15  16
HETATM   16  C   UNL     1      -8.536  13.358  67.414  1.00  0.00    -0.196 C  
HETATM   17  H   UNL     1      -7.797  12.870  69.178  1.00  0.00     0.000 HD 
HETATM   18  O   UNL     1      -8.277  12.436  68.483  1.00  0.00    -0.150 OA 
BRANCH  16  19
HETATM   19  C   UNL     1      -9.236  14.604  67.910  1.00  0.00    -0.197 A  
HETATM   20  C   UNL     1      -8.592  15.853  67.886  1.00  0.00    -0.163 A  
HETATM   21  O   UNL     1      -7.291  15.885  67.449  1.00  0.00    -0.155 OA 
HETATM   22  C   UNL     1      -6.841  17.184  67.084  1.00  0.00    -0.177 C  
HETATM   23  C   UNL     1      -7.295  18.345  67.958  1.00  0.00    -0.247 C  
HETATM   24  O   UNL     1      -6.631  19.361  68.145  1.00  0.00    -0.235 OA 
HETATM   25  N   UNL     1      -8.568  18.212  68.445  1.00  0.00    -0.294 N  
HETATM   26  H   UNL     1      -9.024  19.015  68.879  1.00  0.00     0.000 HD 
HETATM   27  C   UNL     1      -9.255  16.997  68.358  1.00  0.00    -0.259 A  
HETATM   28  C   UNL     1     -10.575  16.925  68.798  1.00  0.00    -0.355 A  
HETATM   29  C   UNL     1     -11.225  15.698  68.778  1.00  0.00    -0.332 A  
HETATM   30  O   UNL     1     -12.518  15.560  69.183  1.00  0.00    -0.609 OA 
HETATM   31  C   UNL     1     -10.568  14.547  68.348  1.00  0.00    -0.244 A  
HETATM   32  H   UNL     1     -12.962  14.721  69.169  1.00  0.00     0.000 HD 
ENDBRANCH  16  19
ENDBRANCH  15  16
ENDBRANCH  13  15
ENDBRANCH   6   9
ENDBRANCH   2   3
TORSDOF 5
ENDMDL
MODEL      217
REMARK 921   NORMALIZED FREE ENERGY PREDICTED BY IDOCK:   -4.02 KCAL/MOL
REMARK 922        TOTAL FREE ENERGY PREDICTED BY IDOCK:   -5.44 KCAL/MOL
REMARK 923 INTER-LIGAND FREE ENERGY PREDICTED BY IDOCK:   -5.33 KCAL/MOL
REMARK 924 INTRA-LIGAND FREE ENERGY PREDICTED BY IDOCK:   -0.11 KCAL/MOL
REMARK 927      BINDING AFFINITY PREDICTED BY RF-SCORE:    0.00 PKD
ROOT
HETATM    1  C   UNL     1     -10.019  17.369  67.880  1.00  0.00    -0.301 C  
HETATM    2  O   UNL     1     -10.498  16.659  66.742  1.00  0.00    -0.298 OA 
ENDROOT
BRANCH   2   3
HETATM    3  C   UNL     1     -10.765  15.327  66.930  1.00  0.00    -0.313 A  
HETATM    4  C   UNL     1     -11.393  14.495  66.009  1.00  0.00    -0.341 A  
HETATM    5  C   UNL     1     -11.632  13.156  66.321  1.00  0.00    -0.399 A  
HETATM    6  C   UNL     1     -11.232  12.615  67.552  1.00  0.00    -0.335 A  
HETATM    7  C   UNL     1     -10.351  14.797  68.154  1.00  0.00    -0.239 A  
HETATM    8  C   UNL     1     -10.582  13.453  68.466  1.00  0.00    -0.264 A  
BRANCH   6   9
HETATM    9  C   UNL     1     -11.518  11.155  67.867  1.00  0.00    -0.359 C  
HETATM   10  C   UNL     1     -10.336  10.137  67.708  1.00  0.00    -0.210 C  
HETATM   11  C   UNL     1      -9.269  10.424  68.781  1.00  0.00    -0.172 C  
HETATM   12  C   UNL     1      -9.724  10.216  66.295  1.00  0.00    -0.274 C  
HETATM   13  N   UNL     1     -10.899   8.780  67.932  1.00  0.00    -0.488 NA 
HETATM   14  H   UNL     1     -11.679   8.617  67.295  1.00  0.00     0.000 HD 
BRANCH  13  15
HETATM   15  C   UNL     1      -9.932   7.663  67.843  1.00  0.00    -0.169 C  
BRANCH  15  16
HETATM   16  C   UNL     1     -10.059   6.837  66.540  1.00  0.00    -0.066 C  
HETATM   17  H   UNL     1     -11.113   5.291  65.912  1.00  0.00     0.000 HD 
HETATM   18  O   UNL     1     -11.035   5.798  66.711  1.00  0.00    -0.280 OA 
BRANCH  16  19
HETATM   19  C   UNL     1      -8.731   6.283  66.074  1.00  0.00    -0.155 A  
HETATM   20  C   UNL     1      -8.078   5.267  66.793  1.00  0.00    -0.105 A  
HETATM   21  O   UNL     1      -8.666   4.840  67.958  1.00  0.00    -0.102 OA 
HETATM   22  C   UNL     1      -8.186   3.582  68.416  1.00  0.00    -0.077 C  
HETATM   23  C   UNL     1      -6.694   3.315  68.268  1.00  0.00    -0.045 C  
HETATM   24  O   UNL     1      -6.045   2.610  69.035  1.00  0.00    -0.024 OA 
HETATM   25  N   UNL     1      -6.142   3.847  67.133  1.00  0.00    -0.024 N  
HETATM   26  H   UNL     1      -5.202   3.566  66.854  1.00  0.00     0.000 HD 
HETATM   27  C   UNL     1      -6.842   4.771  66.350  1.00  0.00    -0.058 A  
HETATM   28  C   UNL     1      -6.274   5.231  65.163  1.00  0.00    -0.034 A  
HETATM   29  C   UNL     1      -6.943   6.203  64.430  1.00  0.00    -0.051 A  
HETATM   30  O   UNL     1      -6.449   6.687  63.257  1.00  0.00    -0.040 OA 
HETATM   31  C   UNL     1      -8.151   6.732  64.877  1.00  0.00    -0.112 A  
HETATM   32  H   UNL     1      -6.905   7.351  62.755  1.00  0.00     0.000 HD 
ENDBRANCH  16  19
ENDBRANCH  15  16
ENDBRANCH  13  15
ENDBRANCH   6   9
ENDBRANCH   2   3
TORSDOF 5
ENDMDL
MODEL      218
REMARK 921   NORMALIZED FREE ENERGY PREDICTED BY IDOCK:   -4.01 KCAL/MOL
REMARK 922        TOTAL FREE ENERGY PREDICTED BY IDOCK:   -5.43 KCAL/MOL
REMARK 923 INTER-LIGAND FREE ENERGY PREDICTED BY IDOCK:   -5.99 KCAL/MOL
REMARK 924 INTRA-LIGAND FREE ENERGY PREDICTED BY IDOCK:    0.55 KCAL/MOL
REMARK 927      BINDING AFFINITY PREDICTED BY RF-SCORE:    0.00 PKD
ROOT
HETATM    1  C   UNL     1      -9.985  20.570  67.769  1.00  0.00    -0.269 C  
HETATM    2  O   UNL     1     -10.250  19.957  66.510  1.00  0.00    -0.429 OA 
ENDROOT
BRANCH   2   3
HETATM    3  C   UNL     1     -10.079  18.598  66.453  1.00  0.00    -0.403 A  
HETATM    4  C   UNL     1      -9.336  17.842  67.354  1.00  0.00    -0.252 A  
HETATM    5  C   UNL     1      -9.215  16.463  67.181  1.00  0.00    -0.225 A  
HETATM    6  C   UNL     1      -9.848  15.806  66.115  1.00  0.00    -0.341 A  
HETATM    7  C   UNL     1     -10.724  17.954  65.394  1.00  0.00     0.121 A  
HETATM    8  C   UNL     1     -10.610  16.570  65.224  1.00  0.00    -0.273 A  
BRANCH   6   9
HETATM    9  C   UNL     1      -9.685  14.304  65.946  1.00  0.00    -0.289 C  
HETATM   10  C   UNL     1     -10.186  13.388  67.117  1.00  0.00    -0.247 C  
HETATM   11  C   UNL     1     -11.722  13.468  67.204  1.00  0.00    -0.419 C  
HETATM   12  C   UNL     1      -9.541  13.797  68.456  1.00  0.00    -0.176 C  
HETATM   13  N   UNL     1      -9.791  11.995  66.778  1.00  0.00    -0.201 NA 
HETATM   14  H   UNL     1      -8.785  11.949  66.613  1.00  0.00     0.000 HD 
BRANCH  13  15
HETATM   15  C   UNL     1     -10.190  10.960  67.756  1.00  0.00    -0.180 C  
BRANCH  15  16
HETATM   16  C   UNL     1      -9.156  10.746  68.888  1.00  0.00    -0.164 C  
HETATM   17  H   UNL     1      -7.257  10.225  69.023  1.00  0.00     0.000 HD 
HETATM   18  O   UNL     1      -7.892  10.356  68.330  1.00  0.00    -0.101 OA 
BRANCH  16  19
HETATM   19  C   UNL     1      -9.633   9.758  69.930  1.00  0.00    -0.269 A  
HETATM   20  C   UNL     1      -8.743   9.218  70.874  1.00  0.00    -0.173 A  
HETATM   21  O   UNL     1      -7.422   9.578  70.777  1.00  0.00    -0.197 OA 
HETATM   22  C   UNL     1      -6.669   9.325  71.957  1.00  0.00     0.282 C  
HETATM   23  C   UNL     1      -6.970   8.032  72.705  1.00  0.00    -0.088 C  
HETATM   24  O   UNL     1      -6.135   7.406  73.352  1.00  0.00    -0.059 OA 
HETATM   25  N   UNL     1      -8.291   7.672  72.687  1.00  0.00    -0.113 N  
HETATM   26  H   UNL     1      -8.616   6.933  73.310  1.00  0.00     0.000 HD 
HETATM   27  C   UNL     1      -9.202   8.296  71.829  1.00  0.00    -0.198 A  
HETATM   28  C   UNL     1     -10.551   7.951  71.896  1.00  0.00    -0.285 A  
HETATM   29  C   UNL     1     -11.436   8.521  70.990  1.00  0.00    -0.273 A  
HETATM   30  O   UNL     1     -12.768   8.236  71.008  1.00  0.00    -0.498 OA 
HETATM   31  C   UNL     1     -10.989   9.408  70.013  1.00  0.00    -0.267 A  
HETATM   32  H   UNL     1     -13.373   8.626  70.389  1.00  0.00     0.000 HD 
ENDBRANCH  16  19
ENDBRANCH  15  16
ENDBRANCH  13  15
ENDBRANCH   6   9
ENDBRANCH   2   3
TORSDOF 5
ENDMDL
MODEL      219
REMARK 921   NORMALIZED FREE ENERGY PREDICTED BY IDOCK:   -4.01 KCAL/MOL
REMARK 922        TOTAL FREE ENERGY PREDICTED BY IDOCK:   -5.43 KCAL/MOL
REMARK 923 INTER-LIGAND FREE ENERGY PREDICTED BY IDOCK:   -5.37 KCAL/MOL
REMARK 924 INTRA-LIGAND FREE ENERGY PREDICTED BY IDOCK:   -0.06 KCAL/MOL
REMARK 927      BINDING AFFINITY PREDICTED BY RF-SCORE:    0.00 PKD
ROOT
HETATM    1  C   UNL     1      -7.846  18.209  66.353  1.00  0.00    -0.262 C  
HETATM    2  O   UNL     1      -8.833  17.874  67.324  1.00  0.00    -0.238 OA 
ENDROOT
BRANCH   2   3
HETATM    3  C   UNL     1      -9.028  16.535  67.548  1.00  0.00    -0.196 A  
HETATM    4  C   UNL     1      -8.177  15.517  67.129  1.00  0.00    -0.246 A  
HETATM    5  C   UNL     1      -8.492  14.184  67.396  1.00  0.00    -0.214 A  
HETATM    6  C   UNL     1      -9.654  13.840  68.102  1.00  0.00    -0.216 A  
HETATM    7  C   UNL     1     -10.183  16.206  68.262  1.00  0.00    -0.248 A  
HETATM    8  C   UNL     1     -10.496  14.870  68.538  1.00  0.00    -0.242 A  
BRANCH   6   9
HETATM    9  C   UNL     1      -9.976  12.377  68.366  1.00  0.00    -0.210 C  
HETATM   10  C   UNL     1     -10.005  11.411  67.130  1.00  0.00    -0.192 C  
HETATM   11  C   UNL     1      -8.579  11.260  66.569  1.00  0.00    -0.170 C  
HETATM   12  C   UNL     1     -10.967  11.931  66.043  1.00  0.00    -0.355 C  
HETATM   13  N   UNL     1     -10.477  10.091  67.623  1.00  0.00    -0.228 NA 
HETATM   14  H   UNL     1     -11.377  10.195  68.092  1.00  0.00     0.000 HD 
BRANCH  13  15
HETATM   15  C   UNL     1     -10.559   9.020  66.606  1.00  0.00    -0.087 C  
BRANCH  15  16
HETATM   16  C   UNL     1      -9.448   7.951  66.741  1.00  0.00    -0.201 C  
HETATM   17  H   UNL     1      -9.245   6.027  66.351  1.00  0.00     0.000 HD 
HETATM   18  O   UNL     1      -9.927   6.683  66.268  1.00  0.00    -0.063 OA 
BRANCH  16  19
HETATM   19  C   UNL     1      -8.907   7.852  68.150  1.00  0.00    -0.125 A  
HETATM   20  C   UNL     1      -9.708   7.372  69.200  1.00  0.00    -0.165 A  
HETATM   21  O   UNL     1     -11.009   7.049  68.906  1.00  0.00    -0.194 OA 
HETATM   22  C   UNL     1     -11.631   6.223  69.883  1.00  0.00    -0.291 C  
HETATM   23  C   UNL     1     -11.316   6.521  71.343  1.00  0.00    -0.294 C  
HETATM   24  O   UNL     1     -12.102   6.328  72.265  1.00  0.00    -0.304 OA 
HETATM   25  N   UNL     1     -10.028   6.931  71.563  1.00  0.00    -0.178 N  
HETATM   26  H   UNL     1      -9.672   6.972  72.518  1.00  0.00     0.000 HD 
HETATM   27  C   UNL     1      -9.191   7.295  70.503  1.00  0.00    -0.158 A  
HETATM   28  C   UNL     1      -7.865   7.634  70.765  1.00  0.00    -0.096 A  
HETATM   29  C   UNL     1      -7.062   8.066  69.717  1.00  0.00    -0.060 A  
HETATM   30  O   UNL     1      -5.755   8.402  69.903  1.00  0.00    -0.025 OA 
HETATM   31  C   UNL     1      -7.571   8.184  68.426  1.00  0.00    -0.105 A  
HETATM   32  H   UNL     1      -5.206   8.697  69.186  1.00  0.00     0.000 HD 
ENDBRANCH  16  19
ENDBRANCH  15  16
ENDBRANCH  13  15
ENDBRANCH   6   9
ENDBRANCH   2   3
TORSDOF 5
ENDMDL
MODEL      220
REMARK 921   NORMALIZED FREE ENERGY PREDICTED BY IDOCK:   -3.91 KCAL/MOL
REMARK 922        TOTAL FREE ENERGY PREDICTED BY IDOCK:   -5.30 KCAL/MOL
REMARK 923 INTER-LIGAND FREE ENERGY PREDICTED BY IDOCK:   -5.90 KCAL/MOL
REMARK 924 INTRA-LIGAND FREE ENERGY PREDICTED BY IDOCK:    0.60 KCAL/MOL
REMARK 927      BINDING AFFINITY PREDICTED BY RF-SCORE:    0.00 PKD
ROOT
HETATM    1  C   UNL     1      -6.538   4.481  63.355  1.00  0.00    -0.034 C  
HETATM    2  O   UNL     1      -7.282   4.324  64.560  1.00  0.00    -0.066 OA 
ENDROOT
BRANCH   2   3
HETATM    3  C   UNL     1      -7.868   5.460  65.060  1.00  0.00    -0.096 A  
HETATM    4  C   UNL     1      -8.486   5.566  66.301  1.00  0.00    -0.122 A  
HETATM    5  C   UNL     1      -9.069   6.771  66.695  1.00  0.00    -0.164 A  
HETATM    6  C   UNL     1      -9.032   7.901  65.864  1.00  0.00    -0.166 A  
HETATM    7  C   UNL     1      -7.813   6.581  64.228  1.00  0.00    -0.113 A  
HETATM    8  C   UNL     1      -8.390   7.792  64.624  1.00  0.00    -0.026 A  
BRANCH   6   9
HETATM    9  C   UNL     1      -9.688   9.196  66.316  1.00  0.00    -0.344 C  
HETATM   10  C   UNL     1      -9.201  10.525  65.640  1.00  0.00    -0.186 C  
HETATM   11  C   UNL     1      -9.626  10.528  64.159  1.00  0.00    -0.369 C  
HETATM   12  C   UNL     1      -7.673  10.685  65.771  1.00  0.00    -0.130 C  
HETATM   13  N   UNL     1      -9.882  11.644  66.343  1.00  0.00    -0.202 NA 
HETATM   14  H   UNL     1      -9.694  11.591  67.345  1.00  0.00     0.000 HD 
BRANCH  13  15
HETATM   15  C   UNL     1      -9.569  13.000  65.842  1.00  0.00    -0.114 C  
BRANCH  15  16
HETATM   16  C   UNL     1      -8.797  13.874  66.859  1.00  0.00    -0.193 C  
HETATM   17  H   UNL     1      -8.126  13.682  68.705  1.00  0.00     0.000 HD 
HETATM   18  O   UNL     1      -8.600  13.146  68.081  1.00  0.00    -0.169 OA 
BRANCH  16  19
HETATM   19  C   UNL     1      -9.470  15.207  67.107  1.00  0.00    -0.224 A  
HETATM   20  C   UNL     1     -10.385  15.370  68.160  1.00  0.00    -0.239 A  
HETATM   21  O   UNL     1     -10.683  14.263  68.916  1.00  0.00    -0.248 OA 
HETATM   22  C   UNL     1     -11.286  14.568  70.168  1.00  0.00    -0.197 C  
HETATM   23  C   UNL     1     -12.304  15.701  70.188  1.00  0.00    -0.336 C  
HETATM   24  O   UNL     1     -13.263  15.745  70.953  1.00  0.00    -0.560 OA 
HETATM   25  N   UNL     1     -12.004  16.735  69.342  1.00  0.00     0.141 N  
HETATM   26  H   UNL     1     -12.518  17.612  69.422  1.00  0.00     0.000 HD 
HETATM   27  C   UNL     1     -11.006  16.611  68.370  1.00  0.00    -0.345 A  
HETATM   28  C   UNL     1     -10.681  17.713  67.580  1.00  0.00    -0.318 A  
HETATM   29  C   UNL     1      -9.742  17.560  66.568  1.00  0.00    -0.295 A  
HETATM   30  O   UNL     1      -9.371  18.598  65.768  1.00  0.00    -0.416 OA 
HETATM   31  C   UNL     1      -9.146  16.326  66.324  1.00  0.00    -0.366 A  
HETATM   32  H   UNL     1      -8.729  18.495  65.075  1.00  0.00     0.000 HD 
ENDBRANCH  16  19
ENDBRANCH  15  16
ENDBRANCH  13  15
ENDBRANCH   6   9
ENDBRANCH   2   3
TORSDOF 5
ENDMDL
MODEL      221
REMARK 921   NORMALIZED FREE ENERGY PREDICTED BY IDOCK:   -3.89 KCAL/MOL
REMARK 922        TOTAL FREE ENERGY PREDICTED BY IDOCK:   -5.27 KCAL/MOL
REMARK 923 INTER-LIGAND FREE ENERGY PREDICTED BY IDOCK:   -5.43 KCAL/MOL
REMARK 924 INTRA-LIGAND FREE ENERGY PREDICTED BY IDOCK:    0.16 KCAL/MOL
REMARK 927      BINDING AFFINITY PREDICTED BY RF-SCORE:    0.00 PKD
ROOT
HETATM    1  C   UNL     1     -12.763  15.144  63.969  1.00  0.00     0.558 C  
HETATM    2  O   UNL     1     -12.328  13.788  63.969  1.00  0.00    -0.629 OA 
ENDROOT
BRANCH   2   3
HETATM    3  C   UNL     1     -11.529  13.410  65.019  1.00  0.00    -0.311 A  
HETATM    4  C   UNL     1     -10.204  13.793  65.198  1.00  0.00    -0.367 A  
HETATM    5  C   UNL     1      -9.481  13.326  66.297  1.00  0.00    -0.196 A  
HETATM    6  C   UNL     1     -10.072  12.482  67.249  1.00  0.00    -0.216 A  
HETATM    7  C   UNL     1     -12.132  12.579  65.966  1.00  0.00    -0.390 A  
HETATM    8  C   UNL     1     -11.412  12.117  67.072  1.00  0.00    -0.415 A  
BRANCH   6   9
HETATM    9  C   UNL     1      -9.254  11.979  68.428  1.00  0.00    -0.160 C  
HETATM   10  C   UNL     1      -9.136  10.426  68.614  1.00  0.00    -0.157 C  
HETATM   11  C   UNL     1      -8.304   9.837  67.459  1.00  0.00    -0.114 C  
HETATM   12  C   UNL     1     -10.529   9.768  68.676  1.00  0.00    -0.233 C  
HETATM   13  N   UNL     1      -8.419  10.196  69.896  1.00  0.00    -0.352 NA 
HETATM   14  H   UNL     1      -8.905  10.672  70.657  1.00  0.00     0.000 HD 
BRANCH  13  15
HETATM   15  C   UNL     1      -8.186   8.780  70.254  1.00  0.00    -0.119 C  
BRANCH  15  16
HETATM   16  C   UNL     1      -8.604   8.430  71.703  1.00  0.00    -0.170 C  
HETATM   17  H   UNL     1      -7.760   8.433  73.487  1.00  0.00     0.000 HD 
HETATM   18  O   UNL     1      -7.503   8.646  72.598  1.00  0.00    -0.315 OA 
BRANCH  16  19
HETATM   19  C   UNL     1      -9.154   7.026  71.824  1.00  0.00    -0.140 A  
HETATM   20  C   UNL     1      -8.351   5.908  71.541  1.00  0.00    -0.127 A  
HETATM   21  O   UNL     1      -7.072   6.144  71.100  1.00  0.00    -0.070 OA 
HETATM   22  C   UNL     1      -6.211   5.017  71.209  1.00  0.00    -0.022 C  
HETATM   23  C   UNL     1      -6.806   3.656  70.876  1.00  0.00    -0.033 C  
HETATM   24  O   UNL     1      -6.163   2.726  70.398  1.00  0.00    -0.022 OA 
HETATM   25  N   UNL     1      -8.115   3.512  71.254  1.00  0.00    -0.059 N  
HETATM   26  H   UNL     1      -8.539   2.584  71.244  1.00  0.00     0.000 HD 
HETATM   27  C   UNL     1      -8.880   4.613  71.652  1.00  0.00    -0.125 A  
HETATM   28  C   UNL     1     -10.185   4.412  72.100  1.00  0.00    -0.247 A  
HETATM   29  C   UNL     1     -10.962   5.517  72.422  1.00  0.00    -0.255 A  
HETATM   30  O   UNL     1     -12.240   5.390  72.877  1.00  0.00    -0.508 OA 
HETATM   31  C   UNL     1     -10.463   6.809  72.282  1.00  0.00    -0.233 A  
HETATM   32  H   UNL     1     -12.772   6.145  73.097  1.00  0.00     0.000 HD 
ENDBRANCH  16  19
ENDBRANCH  15  16
ENDBRANCH  13  15
ENDBRANCH   6   9
ENDBRANCH   2   3
TORSDOF 5
ENDMDL
MODEL      222
REMARK 921   NORMALIZED FREE ENERGY PREDICTED BY IDOCK:   -3.88 KCAL/MOL
REMARK 922        TOTAL FREE ENERGY PREDICTED BY IDOCK:   -5.26 KCAL/MOL
REMARK 923 INTER-LIGAND FREE ENERGY PREDICTED BY IDOCK:   -5.40 KCAL/MOL
REMARK 924 INTRA-LIGAND FREE ENERGY PREDICTED BY IDOCK:    0.14 KCAL/MOL
REMARK 927      BINDING AFFINITY PREDICTED BY RF-SCORE:    0.00 PKD
ROOT
HETATM    1  C   UNL     1     -10.868  16.716  64.836  1.00  0.00    -0.142 C  
HETATM    2  O   UNL     1     -11.459  15.581  64.209  1.00  0.00    -0.316 OA 
ENDROOT
BRANCH   2   3
HETATM    3  C   UNL     1     -11.433  14.413  64.928  1.00  0.00    -0.386 A  
HETATM    4  C   UNL     1     -12.405  14.005  65.835  1.00  0.00    -0.515 A  
HETATM    5  C   UNL     1     -12.259  12.802  66.527  1.00  0.00    -0.198 A  
HETATM    6  C   UNL     1     -11.149  11.972  66.314  1.00  0.00    -0.363 A  
HETATM    7  C   UNL     1     -10.328  13.590  64.698  1.00  0.00    -0.406 A  
HETATM    8  C   UNL     1     -10.184  12.379  65.384  1.00  0.00    -0.302 A  
BRANCH   6   9
HETATM    9  C   UNL     1     -11.012  10.674  67.093  1.00  0.00    -0.312 C  
HETATM   10  C   UNL     1     -10.665  10.781  68.619  1.00  0.00    -0.208 C  
HETATM   11  C   UNL     1     -11.859  11.402  69.369  1.00  0.00    -0.419 C  
HETATM   12  C   UNL     1      -9.388  11.615  68.840  1.00  0.00     0.033 C  
HETATM   13  N   UNL     1     -10.448   9.396  69.114  1.00  0.00    -0.213 NA 
HETATM   14  H   UNL     1      -9.730   8.936  68.554  1.00  0.00     0.000 HD 
BRANCH  13  15
HETATM   15  C   UNL     1     -10.124   9.273  70.552  1.00  0.00    -0.255 C  
BRANCH  15  16
HETATM   16  C   UNL     1      -8.842   8.452  70.829  1.00  0.00    -0.151 C  
HETATM   17  H   UNL     1      -6.911   8.625  70.457  1.00  0.00     0.000 HD 
HETATM   18  O   UNL     1      -7.698   9.129  70.286  1.00  0.00    -0.083 OA 
BRANCH  16  19
HETATM   19  C   UNL     1      -8.942   7.031  70.320  1.00  0.00    -0.149 A  
HETATM   20  C   UNL     1      -8.240   5.987  70.946  1.00  0.00    -0.125 A  
HETATM   21  O   UNL     1      -7.423   6.317  71.998  1.00  0.00    -0.091 OA 
HETATM   22  C   UNL     1      -7.062   5.209  72.815  1.00  0.00    -0.087 C  
HETATM   23  C   UNL     1      -6.763   3.895  72.106  1.00  0.00    -0.022 C  
HETATM   24  O   UNL     1      -5.963   3.061  72.520  1.00  0.00    -0.008 OA 
HETATM   25  N   UNL     1      -7.546   3.664  71.006  1.00  0.00    -0.046 N  
HETATM   26  H   UNL     1      -7.550   2.737  70.581  1.00  0.00     0.000 HD 
HETATM   27  C   UNL     1      -8.339   4.676  70.455  1.00  0.00    -0.075 A  
HETATM   28  C   UNL     1      -9.177   4.378  69.381  1.00  0.00    -0.200 A  
HETATM   29  C   UNL     1      -9.904   5.404  68.792  1.00  0.00    -0.150 A  
HETATM   30  O   UNL     1     -10.750   5.180  67.748  1.00  0.00    -0.049 OA 
HETATM   31  C   UNL     1      -9.788   6.716  69.245  1.00  0.00    -0.157 A  
HETATM   32  H   UNL     1     -11.247   5.881  67.345  1.00  0.00     0.000 HD 
ENDBRANCH  16  19
ENDBRANCH  15  16
ENDBRANCH  13  15
ENDBRANCH   6   9
ENDBRANCH   2   3
TORSDOF 5
ENDMDL
MODEL      223
REMARK 921   NORMALIZED FREE ENERGY PREDICTED BY IDOCK:   -3.88 KCAL/MOL
REMARK 922        TOTAL FREE ENERGY PREDICTED BY IDOCK:   -5.26 KCAL/MOL
REMARK 923 INTER-LIGAND FREE ENERGY PREDICTED BY IDOCK:   -5.22 KCAL/MOL
REMARK 924 INTRA-LIGAND FREE ENERGY PREDICTED BY IDOCK:   -0.03 KCAL/MOL
REMARK 927      BINDING AFFINITY PREDICTED BY RF-SCORE:    0.00 PKD
ROOT
HETATM    1  C   UNL     1      -7.402  20.878  67.086  1.00  0.00    -0.309 C  
HETATM    2  O   UNL     1      -6.603  19.764  66.696  1.00  0.00    -0.188 OA 
ENDROOT
BRANCH   2   3
HETATM    3  C   UNL     1      -6.964  18.550  67.223  1.00  0.00    -0.203 A  
HETATM    4  C   UNL     1      -6.274  17.356  67.036  1.00  0.00    -0.203 A  
HETATM    5  C   UNL     1      -6.750  16.174  67.606  1.00  0.00    -0.177 A  
HETATM    6  C   UNL     1      -7.914  16.163  68.389  1.00  0.00    -0.162 A  
HETATM    7  C   UNL     1      -8.117  18.554  68.011  1.00  0.00    -0.288 A  
HETATM    8  C   UNL     1      -8.591  17.372  68.589  1.00  0.00    -0.259 A  
BRANCH   6   9
HETATM    9  C   UNL     1      -8.414  14.856  68.984  1.00  0.00    -0.178 C  
HETATM   10  C   UNL     1      -8.089  13.536  68.203  1.00  0.00    -0.154 C  
HETATM   11  C   UNL     1      -6.572  13.274  68.255  1.00  0.00    -0.099 C  
HETATM   12  C   UNL     1      -8.578  13.621  66.743  1.00  0.00    -0.050 C  
HETATM   13  N   UNL     1      -8.797  12.432  68.902  1.00  0.00    -0.360 NA 
HETATM   14  H   UNL     1      -9.793  12.643  68.967  1.00  0.00     0.000 HD 
BRANCH  13  15
HETATM   15  C   UNL     1      -8.605  11.082  68.327  1.00  0.00    -0.143 C  
BRANCH  15  16
HETATM   16  C   UNL     1      -9.915  10.265  68.214  1.00  0.00    -0.147 C  
HETATM   17  H   UNL     1     -11.532  10.287  67.083  1.00  0.00     0.000 HD 
HETATM   18  O   UNL     1     -10.729  10.788  67.153  1.00  0.00    -0.244 OA 
BRANCH  16  19
HETATM   19  C   UNL     1     -10.674  10.204  69.521  1.00  0.00    -0.277 A  
HETATM   20  C   UNL     1     -10.248   9.367  70.566  1.00  0.00    -0.271 A  
HETATM   21  O   UNL     1      -9.152   8.572  70.333  1.00  0.00    -0.143 OA 
HETATM   22  C   UNL     1      -8.550   8.063  71.517  1.00  0.00    -0.128 C  
HETATM   23  C   UNL     1      -9.487   7.621  72.634  1.00  0.00    -0.176 C  
HETATM   24  O   UNL     1      -9.231   6.717  73.424  1.00  0.00    -0.130 OA 
HETATM   25  N   UNL     1     -10.611   8.394  72.757  1.00  0.00    -0.247 N  
HETATM   26  H   UNL     1     -11.198   8.295  73.586  1.00  0.00     0.000 HD 
HETATM   27  C   UNL     1     -10.970   9.316  71.769  1.00  0.00    -0.313 A  
HETATM   28  C   UNL     1     -12.079  10.135  71.969  1.00  0.00     0.096 A  
HETATM   29  C   UNL     1     -12.473  10.994  70.951  1.00  0.00    -0.410 A  
HETATM   30  O   UNL     1     -13.540  11.829  71.086  1.00  0.00     0.360 OA 
HETATM   31  C   UNL     1     -11.789  11.028  69.738  1.00  0.00    -0.421 A  
HETATM   32  H   UNL     1     -13.810  12.417  70.390  1.00  0.00     0.000 HD 
ENDBRANCH  16  19
ENDBRANCH  15  16
ENDBRANCH  13  15
ENDBRANCH   6   9
ENDBRANCH   2   3
TORSDOF 5
ENDMDL
MODEL      224
REMARK 921   NORMALIZED FREE ENERGY PREDICTED BY IDOCK:   -3.87 KCAL/MOL
REMARK 922        TOTAL FREE ENERGY PREDICTED BY IDOCK:   -5.25 KCAL/MOL
REMARK 923 INTER-LIGAND FREE ENERGY PREDICTED BY IDOCK:   -5.31 KCAL/MOL
REMARK 924 INTRA-LIGAND FREE ENERGY PREDICTED BY IDOCK:    0.06 KCAL/MOL
REMARK 927      BINDING AFFINITY PREDICTED BY RF-SCORE:    0.00 PKD
ROOT
HETATM    1  C   UNL     1      -5.903  10.695  62.543  1.00  0.00    -0.148 C  
HETATM    2  O   UNL     1      -7.308  10.535  62.719  1.00  0.00    -0.140 OA 
ENDROOT
BRANCH   2   3
HETATM    3  C   UNL     1      -7.706   9.949  63.894  1.00  0.00    -0.140 A  
HETATM    4  C   UNL     1      -6.867   9.294  64.790  1.00  0.00    -0.087 A  
HETATM    5  C   UNL     1      -7.391   8.715  65.946  1.00  0.00    -0.084 A  
HETATM    6  C   UNL     1      -8.760   8.793  66.242  1.00  0.00    -0.169 A  
HETATM    7  C   UNL     1      -9.069  10.044  64.183  1.00  0.00    -0.295 A  
HETATM    8  C   UNL     1      -9.594   9.471  65.346  1.00  0.00    -0.342 A  
BRANCH   6   9
HETATM    9  C   UNL     1      -9.302   8.140  67.504  1.00  0.00    -0.165 C  
HETATM   10  C   UNL     1      -8.818   6.683  67.827  1.00  0.00    -0.114 C  
HETATM   11  C   UNL     1      -7.319   6.711  68.180  1.00  0.00    -0.090 C  
HETATM   12  C   UNL     1      -9.082   5.736  66.639  1.00  0.00    -0.133 C  
HETATM   13  N   UNL     1      -9.588   6.223  69.012  1.00  0.00    -0.127 NA 
HETATM   14  H   UNL     1     -10.589   6.300  68.828  1.00  0.00     0.000 HD 
BRANCH  13  15
HETATM   15  C   UNL     1      -9.266   4.863  69.496  1.00  0.00    -0.119 C  
BRANCH  15  16
HETATM   16  C   UNL     1      -9.239   4.746  71.039  1.00  0.00    -0.141 C  
HETATM   17  H   UNL     1     -10.261   3.789  72.430  1.00  0.00     0.000 HD 
HETATM   18  O   UNL     1     -10.278   3.861  71.483  1.00  0.00    -0.121 OA 
BRANCH  16  19
HETATM   19  C   UNL     1      -9.322   6.092  71.725  1.00  0.00    -0.159 A  
HETATM   20  C   UNL     1     -10.546   6.775  71.828  1.00  0.00    -0.213 A  
HETATM   21  O   UNL     1     -11.644   6.200  71.239  1.00  0.00    -0.290 OA 
HETATM   22  C   UNL     1     -12.884   6.719  71.703  1.00  0.00    -0.276 C  
HETATM   23  C   UNL     1     -12.954   8.219  71.955  1.00  0.00    -0.330 C  
HETATM   24  O   UNL     1     -13.975   8.888  71.820  1.00  0.00    -0.397 OA 
HETATM   25  N   UNL     1     -11.797   8.756  72.454  1.00  0.00    -0.334 N  
HETATM   26  H   UNL     1     -11.807   9.705  72.829  1.00  0.00     0.000 HD 
HETATM   27  C   UNL     1     -10.603   8.028  72.460  1.00  0.00    -0.329 A  
HETATM   28  C   UNL     1      -9.467   8.583  73.046  1.00  0.00    -0.127 A  
HETATM   29  C   UNL     1      -8.268   7.885  72.981  1.00  0.00    -0.156 A  
HETATM   30  O   UNL     1      -7.124   8.366  73.542  1.00  0.00    -0.183 OA 
HETATM   31  C   UNL     1      -8.187   6.660  72.324  1.00  0.00    -0.104 A  
HETATM   32  H   UNL     1      -6.304   7.889  73.498  1.00  0.00     0.000 HD 
ENDBRANCH  16  19
ENDBRANCH  15  16
ENDBRANCH  13  15
ENDBRANCH   6   9
ENDBRANCH   2   3
TORSDOF 5
ENDMDL
MODEL      225
REMARK 921   NORMALIZED FREE ENERGY PREDICTED BY IDOCK:   -3.84 KCAL/MOL
REMARK 922        TOTAL FREE ENERGY PREDICTED BY IDOCK:   -5.21 KCAL/MOL
REMARK 923 INTER-LIGAND FREE ENERGY PREDICTED BY IDOCK:   -4.35 KCAL/MOL
REMARK 924 INTRA-LIGAND FREE ENERGY PREDICTED BY IDOCK:   -0.86 KCAL/MOL
REMARK 927      BINDING AFFINITY PREDICTED BY RF-SCORE:    0.00 PKD
ROOT
HETATM    1  C   UNL     1     -14.298   6.692  71.974  1.00  0.00     0.005 C  
HETATM    2  O   UNL     1     -13.045   6.122  72.342  1.00  0.00     0.059 OA 
ENDROOT
BRANCH   2   3
HETATM    3  C   UNL     1     -11.968   6.488  71.577  1.00  0.00    -0.329 A  
HETATM    4  C   UNL     1     -11.980   6.647  70.195  1.00  0.00    -0.250 A  
HETATM    5  C   UNL     1     -10.812   7.002  69.519  1.00  0.00    -0.265 A  
HETATM    6  C   UNL     1      -9.611   7.222  70.210  1.00  0.00    -0.165 A  
HETATM    7  C   UNL     1     -10.781   6.716  72.278  1.00  0.00    -0.250 A  
HETATM    8  C   UNL     1      -9.611   7.079  71.603  1.00  0.00    -0.160 A  
BRANCH   6   9
HETATM    9  C   UNL     1      -8.352   7.594  69.443  1.00  0.00    -0.131 C  
HETATM   10  C   UNL     1      -7.947   9.109  69.412  1.00  0.00    -0.097 C  
HETATM   11  C   UNL     1      -7.522   9.550  70.826  1.00  0.00    -0.099 C  
HETATM   12  C   UNL     1      -9.107   9.982  68.893  1.00  0.00    -0.159 C  
HETATM   13  N   UNL     1      -6.783   9.229  68.496  1.00  0.00    -0.058 NA 
HETATM   14  H   UNL     1      -7.019   8.841  67.582  1.00  0.00     0.000 HD 
BRANCH  13  15
HETATM   15  C   UNL     1      -6.229  10.592  68.339  1.00  0.00    -0.050 C  
BRANCH  15  16
HETATM   16  C   UNL     1      -6.082  11.034  66.863  1.00  0.00    -0.089 C  
HETATM   17  H   UNL     1      -5.578  12.678  65.895  1.00  0.00     0.000 HD 
HETATM   18  O   UNL     1      -5.669  12.407  66.801  1.00  0.00    -0.301 OA 
BRANCH  16  19
HETATM   19  C   UNL     1      -7.340  10.793  66.058  1.00  0.00    -0.114 A  
HETATM   20  C   UNL     1      -7.489   9.633  65.278  1.00  0.00    -0.113 A  
HETATM   21  O   UNL     1      -6.431   8.760  65.235  1.00  0.00    -0.062 OA 
HETATM   22  C   UNL     1      -6.776   7.461  64.771  1.00  0.00    -0.047 C  
HETATM   23  C   UNL     1      -7.773   7.380  63.623  1.00  0.00    -0.125 C  
HETATM   24  O   UNL     1      -7.773   6.489  62.778  1.00  0.00    -0.084 OA 
HETATM   25  N   UNL     1      -8.753   8.336  63.665  1.00  0.00    -0.375 N  
HETATM   26  H   UNL     1      -9.564   8.249  63.054  1.00  0.00     0.000 HD 
HETATM   27  C   UNL     1      -8.660   9.431  64.531  1.00  0.00    -0.198 A  
HETATM   28  C   UNL     1      -9.714  10.341  64.597  1.00  0.00    -0.398 A  
HETATM   29  C   UNL     1      -9.582  11.464  65.403  1.00  0.00    -0.228 A  
HETATM   30  O   UNL     1     -10.578  12.386  65.521  1.00  0.00    -0.261 OA 
HETATM   31  C   UNL     1      -8.412  11.698  66.120  1.00  0.00    -0.008 A  
HETATM   32  H   UNL     1     -10.488  13.155  66.072  1.00  0.00     0.000 HD 
ENDBRANCH  16  19
ENDBRANCH  15  16
ENDBRANCH  13  15
ENDBRANCH   6   9
ENDBRANCH   2   3
TORSDOF 5
ENDMDL
MODEL      226
REMARK 921   NORMALIZED FREE ENERGY PREDICTED BY IDOCK:   -3.84 KCAL/MOL
REMARK 922        TOTAL FREE ENERGY PREDICTED BY IDOCK:   -5.21 KCAL/MOL
REMARK 923 INTER-LIGAND FREE ENERGY PREDICTED BY IDOCK:   -5.81 KCAL/MOL
REMARK 924 INTRA-LIGAND FREE ENERGY PREDICTED BY IDOCK:    0.60 KCAL/MOL
REMARK 927      BINDING AFFINITY PREDICTED BY RF-SCORE:    0.00 PKD
ROOT
HETATM    1  C   UNL     1      -8.972   1.909  65.611  1.00  0.00    -0.109 C  
HETATM    2  O   UNL     1      -9.357   2.468  66.864  1.00  0.00    -0.116 OA 
ENDROOT
BRANCH   2   3
HETATM    3  C   UNL     1      -9.114   3.808  67.027  1.00  0.00    -0.162 A  
HETATM    4  C   UNL     1      -9.679   4.825  66.265  1.00  0.00    -0.206 A  
HETATM    5  C   UNL     1      -9.339   6.157  66.509  1.00  0.00    -0.171 A  
HETATM    6  C   UNL     1      -8.442   6.501  67.531  1.00  0.00    -0.120 A  
HETATM    7  C   UNL     1      -8.229   4.139  68.055  1.00  0.00    -0.094 A  
HETATM    8  C   UNL     1      -7.892   5.473  68.306  1.00  0.00    -0.089 A  
BRANCH   6   9
HETATM    9  C   UNL     1      -8.081   7.960  67.763  1.00  0.00    -0.128 C  
HETATM   10  C   UNL     1      -9.218   9.023  67.574  1.00  0.00    -0.135 C  
HETATM   11  C   UNL     1     -10.272   8.844  68.683  1.00  0.00    -0.221 C  
HETATM   12  C   UNL     1      -9.866   8.901  66.180  1.00  0.00    -0.326 C  
HETATM   13  N   UNL     1      -8.588  10.362  67.715  1.00  0.00    -0.121 NA 
HETATM   14  H   UNL     1      -7.817  10.455  67.054  1.00  0.00     0.000 HD 
BRANCH  13  15
HETATM   15  C   UNL     1      -9.504  11.518  67.587  1.00  0.00    -0.168 C  
BRANCH  15  16
HETATM   16  C   UNL     1      -8.887  12.715  66.824  1.00  0.00    -0.168 C  
HETATM   17  H   UNL     1      -7.302  13.877  67.007  1.00  0.00     0.000 HD 
HETATM   18  O   UNL     1      -7.681  13.143  67.475  1.00  0.00    -0.148 OA 
BRANCH  16  19
HETATM   19  C   UNL     1      -9.863  13.858  66.652  1.00  0.00    -0.288 A  
HETATM   20  C   UNL     1     -10.544  14.400  67.755  1.00  0.00    -0.246 A  
HETATM   21  O   UNL     1     -10.328  13.817  68.980  1.00  0.00    -0.184 OA 
HETATM   22  C   UNL     1     -10.719  14.631  70.079  1.00  0.00    -0.000 C  
HETATM   23  C   UNL     1     -12.004  15.433  69.924  1.00  0.00    -0.359 C  
HETATM   24  O   UNL     1     -12.749  15.719  70.857  1.00  0.00    -0.460 OA 
HETATM   25  N   UNL     1     -12.214  15.909  68.657  1.00  0.00    -0.395 N  
HETATM   26  H   UNL     1     -12.941  16.607  68.499  1.00  0.00     0.000 HD 
HETATM   27  C   UNL     1     -11.452  15.455  67.575  1.00  0.00    -0.225 A  
HETATM   28  C   UNL     1     -11.648  16.019  66.316  1.00  0.00     0.629 A  
HETATM   29  C   UNL     1     -10.941  15.511  65.234  1.00  0.00    -0.380 A  
HETATM   30  O   UNL     1     -11.077  16.025  63.980  1.00  0.00    -1.031 OA 
HETATM   31  C   UNL     1     -10.065  14.440  65.391  1.00  0.00    -0.388 A  
HETATM   32  H   UNL     1     -10.594  15.677  63.240  1.00  0.00     0.000 HD 
ENDBRANCH  16  19
ENDBRANCH  15  16
ENDBRANCH  13  15
ENDBRANCH   6   9
ENDBRANCH   2   3
TORSDOF 5
ENDMDL
MODEL      227
REMARK 921   NORMALIZED FREE ENERGY PREDICTED BY IDOCK:   -3.84 KCAL/MOL
REMARK 922        TOTAL FREE ENERGY PREDICTED BY IDOCK:   -5.20 KCAL/MOL
REMARK 923 INTER-LIGAND FREE ENERGY PREDICTED BY IDOCK:   -5.02 KCAL/MOL
REMARK 924 INTRA-LIGAND FREE ENERGY PREDICTED BY IDOCK:   -0.18 KCAL/MOL
REMARK 927      BINDING AFFINITY PREDICTED BY RF-SCORE:    0.00 PKD
ROOT
HETATM    1  C   UNL     1      -6.528  19.362  69.827  1.00  0.00    -0.261 C  
HETATM    2  O   UNL     1      -5.881  18.183  69.358  1.00  0.00    -0.214 OA 
ENDROOT
BRANCH   2   3
HETATM    3  C   UNL     1      -6.685  17.256  68.746  1.00  0.00    -0.203 A  
HETATM    4  C   UNL     1      -8.076  17.260  68.767  1.00  0.00    -0.242 A  
HETATM    5  C   UNL     1      -8.791  16.248  68.125  1.00  0.00    -0.183 A  
HETATM    6  C   UNL     1      -8.132  15.220  67.433  1.00  0.00    -0.205 A  
HETATM    7  C   UNL     1      -6.018  16.245  68.051  1.00  0.00    -0.127 A  
HETATM    8  C   UNL     1      -6.732  15.234  67.400  1.00  0.00    -0.157 A  
BRANCH   6   9
HETATM    9  C   UNL     1      -8.939  14.125  66.755  1.00  0.00    -0.229 C  
HETATM   10  C   UNL     1      -8.690  12.649  67.225  1.00  0.00    -0.198 C  
HETATM   11  C   UNL     1      -9.200  12.483  68.669  1.00  0.00     0.025 C  
HETATM   12  C   UNL     1      -7.196  12.281  67.128  1.00  0.00    -0.100 C  
HETATM   13  N   UNL     1      -9.479  11.768  66.326  1.00  0.00    -0.220 NA 
HETATM   14  H   UNL     1      -9.225  11.944  65.354  1.00  0.00     0.000 HD 
BRANCH  13  15
HETATM   15  C   UNL     1      -9.396  10.319  66.614  1.00  0.00    -0.161 C  
BRANCH  15  16
HETATM   16  C   UNL     1     -10.751   9.690  67.019  1.00  0.00    -0.155 C  
HETATM   17  H   UNL     1     -12.483  10.326  67.720  1.00  0.00     0.000 HD 
HETATM   18  O   UNL     1     -11.651  10.712  67.472  1.00  0.00    -0.482 OA 
BRANCH  16  19
HETATM   19  C   UNL     1     -10.596   8.589  68.046  1.00  0.00    -0.197 A  
HETATM   20  C   UNL     1     -10.011   7.358  67.704  1.00  0.00    -0.167 A  
HETATM   21  O   UNL     1      -9.640   7.177  66.395  1.00  0.00    -0.168 OA 
HETATM   22  C   UNL     1      -8.724   6.106  66.200  1.00  0.00    -0.148 C  
HETATM   23  C   UNL     1      -8.949   4.846  67.025  1.00  0.00    -0.109 C  
HETATM   24  O   UNL     1      -8.659   3.716  66.642  1.00  0.00    -0.104 OA 
HETATM   25  N   UNL     1      -9.412   5.084  68.292  1.00  0.00    -0.127 N  
HETATM   26  H   UNL     1      -9.413   4.325  68.975  1.00  0.00     0.000 HD 
HETATM   27  C   UNL     1      -9.883   6.346  68.668  1.00  0.00    -0.142 A  
HETATM   28  C   UNL     1     -10.274   6.565  69.987  1.00  0.00    -0.219 A  
HETATM   29  C   UNL     1     -10.810   7.798  70.334  1.00  0.00    -0.244 A  
HETATM   30  O   UNL     1     -11.202   8.081  71.607  1.00  0.00    -0.242 OA 
HETATM   31  C   UNL     1     -10.979   8.799  69.380  1.00  0.00    -0.046 A  
HETATM   32  H   UNL     1     -11.568   8.924  71.845  1.00  0.00     0.000 HD 
ENDBRANCH  16  19
ENDBRANCH  15  16
ENDBRANCH  13  15
ENDBRANCH   6   9
ENDBRANCH   2   3
TORSDOF 5
ENDMDL
MODEL      228
REMARK 921   NORMALIZED FREE ENERGY PREDICTED BY IDOCK:   -3.82 KCAL/MOL
REMARK 922        TOTAL FREE ENERGY PREDICTED BY IDOCK:   -5.18 KCAL/MOL
REMARK 923 INTER-LIGAND FREE ENERGY PREDICTED BY IDOCK:   -5.66 KCAL/MOL
REMARK 924 INTRA-LIGAND FREE ENERGY PREDICTED BY IDOCK:    0.48 KCAL/MOL
REMARK 927      BINDING AFFINITY PREDICTED BY RF-SCORE:    0.00 PKD
ROOT
HETATM    1  C   UNL     1     -11.014  15.776  66.886  1.00  0.00    -0.207 C  
HETATM    2  O   UNL     1     -10.813  14.997  65.710  1.00  0.00    -0.325 OA 
ENDROOT
BRANCH   2   3
HETATM    3  C   UNL     1     -10.279  13.747  65.898  1.00  0.00    -0.313 A  
HETATM    4  C   UNL     1     -10.561  12.628  65.122  1.00  0.00    -0.324 A  
HETATM    5  C   UNL     1      -9.973  11.399  65.423  1.00  0.00    -0.289 A  
HETATM    6  C   UNL     1      -9.076  11.266  66.494  1.00  0.00    -0.193 A  
HETATM    7  C   UNL     1      -9.380  13.631  66.960  1.00  0.00    -0.249 A  
HETATM    8  C   UNL     1      -8.782  12.401  67.258  1.00  0.00    -0.191 A  
BRANCH   6   9
HETATM    9  C   UNL     1      -8.462   9.910  66.805  1.00  0.00    -0.125 C  
HETATM   10  C   UNL     1      -9.274   8.947  67.739  1.00  0.00    -0.141 C  
HETATM   11  C   UNL     1     -10.550   8.486  67.008  1.00  0.00    -0.305 C  
HETATM   12  C   UNL     1      -9.628   9.636  69.072  1.00  0.00    -0.168 C  
HETATM   13  N   UNL     1      -8.411   7.766  68.002  1.00  0.00    -0.123 NA 
HETATM   14  H   UNL     1      -7.517   8.068  68.390  1.00  0.00     0.000 HD 
BRANCH  13  15
HETATM   15  C   UNL     1      -9.004   6.716  68.859  1.00  0.00    -0.130 C  
BRANCH  15  16
HETATM   16  C   UNL     1      -8.485   6.740  70.316  1.00  0.00    -0.135 C  
HETATM   17  H   UNL     1      -6.873   6.136  71.281  1.00  0.00     0.000 HD 
HETATM   18  O   UNL     1      -7.192   6.121  70.387  1.00  0.00    -0.080 OA 
BRANCH  16  19
HETATM   19  C   UNL     1      -9.458   6.110  71.289  1.00  0.00    -0.177 A  
HETATM   20  C   UNL     1      -9.039   5.114  72.188  1.00  0.00    -0.136 A  
HETATM   21  O   UNL     1      -7.733   4.701  72.109  1.00  0.00    -0.087 OA 
HETATM   22  C   UNL     1      -7.280   4.005  73.265  1.00  0.00    -0.068 C  
HETATM   23  C   UNL     1      -8.261   3.042  73.920  1.00  0.00    -0.073 C  
HETATM   24  O   UNL     1      -7.925   2.023  74.517  1.00  0.00    -0.044 OA 
HETATM   25  N   UNL     1      -9.564   3.463  73.884  1.00  0.00    -0.095 N  
HETATM   26  H   UNL     1     -10.261   2.984  74.455  1.00  0.00     0.000 HD 
HETATM   27  C   UNL     1      -9.958   4.535  73.077  1.00  0.00    -0.148 A  
HETATM   28  C   UNL     1     -11.278   4.979  73.126  1.00  0.00    -0.408 A  
HETATM   29  C   UNL     1     -11.679   5.994  72.268  1.00  0.00    -0.284 A  
HETATM   30  O   UNL     1     -12.951   6.482  72.273  1.00  0.00    -0.554 OA 
HETATM   31  C   UNL     1     -10.789   6.552  71.354  1.00  0.00    -0.289 A  
HETATM   32  H   UNL     1     -13.225   7.176  71.686  1.00  0.00     0.000 HD 
ENDBRANCH  16  19
ENDBRANCH  15  16
ENDBRANCH  13  15
ENDBRANCH   6   9
ENDBRANCH   2   3
TORSDOF 5
ENDMDL
MODEL      229
REMARK 921   NORMALIZED FREE ENERGY PREDICTED BY IDOCK:   -3.80 KCAL/MOL
REMARK 922        TOTAL FREE ENERGY PREDICTED BY IDOCK:   -5.15 KCAL/MOL
REMARK 923 INTER-LIGAND FREE ENERGY PREDICTED BY IDOCK:   -6.27 KCAL/MOL
REMARK 924 INTRA-LIGAND FREE ENERGY PREDICTED BY IDOCK:    1.11 KCAL/MOL
REMARK 927      BINDING AFFINITY PREDICTED BY RF-SCORE:    0.00 PKD
ROOT
HETATM    1  C   UNL     1      -5.240  20.693  67.790  1.00  0.00    -0.202 C  
HETATM    2  O   UNL     1      -5.816  19.992  68.889  1.00  0.00    -0.238 OA 
ENDROOT
BRANCH   2   3
HETATM    3  C   UNL     1      -6.459  18.819  68.586  1.00  0.00    -0.241 A  
HETATM    4  C   UNL     1      -7.710  18.720  67.985  1.00  0.00    -0.286 A  
HETATM    5  C   UNL     1      -8.276  17.467  67.745  1.00  0.00    -0.219 A  
HETATM    6  C   UNL     1      -7.598  16.287  68.083  1.00  0.00    -0.151 A  
HETATM    7  C   UNL     1      -5.768  17.651  68.916  1.00  0.00    -0.178 A  
HETATM    8  C   UNL     1      -6.331  16.394  68.669  1.00  0.00    -0.133 A  
BRANCH   6   9
HETATM    9  C   UNL     1      -8.247  14.937  67.821  1.00  0.00    -0.164 C  
HETATM   10  C   UNL     1      -9.809  14.903  67.684  1.00  0.00    -0.217 C  
HETATM   11  C   UNL     1     -10.223  15.638  66.395  1.00  0.00    -0.300 C  
HETATM   12  C   UNL     1     -10.488  15.536  68.915  1.00  0.00    -0.223 C  
HETATM   13  N   UNL     1     -10.205  13.474  67.577  1.00  0.00    -0.232 NA 
HETATM   14  H   UNL     1      -9.845  12.952  68.376  1.00  0.00     0.000 HD 
BRANCH  13  15
HETATM   15  C   UNL     1     -11.654  13.220  67.420  1.00  0.00    -0.353 C  
BRANCH  15  16
HETATM   16  C   UNL     1     -12.023  11.717  67.430  1.00  0.00     0.026 C  
HETATM   17  H   UNL     1     -12.486  10.356  68.782  1.00  0.00     0.000 HD 
HETATM   18  O   UNL     1     -12.259  11.278  68.776  1.00  0.00    -0.532 OA 
BRANCH  16  19
HETATM   19  C   UNL     1     -10.986  10.860  66.737  1.00  0.00    -0.248 A  
HETATM   20  C   UNL     1     -10.408   9.758  67.389  1.00  0.00    -0.240 A  
HETATM   21  O   UNL     1     -10.781   9.524  68.689  1.00  0.00    -0.220 OA 
HETATM   22  C   UNL     1     -10.478   8.212  69.147  1.00  0.00    -0.206 C  
HETATM   23  C   UNL     1      -9.151   7.613  68.701  1.00  0.00    -0.135 C  
HETATM   24  O   UNL     1      -8.501   6.816  69.371  1.00  0.00    -0.130 OA 
HETATM   25  N   UNL     1      -8.783   7.958  67.428  1.00  0.00    -0.127 N  
HETATM   26  H   UNL     1      -8.014   7.462  66.977  1.00  0.00     0.000 HD 
HETATM   27  C   UNL     1      -9.440   8.979  66.734  1.00  0.00    -0.182 A  
HETATM   28  C   UNL     1      -9.084   9.248  65.414  1.00  0.00    -0.277 A  
HETATM   29  C   UNL     1      -9.690  10.311  64.757  1.00  0.00    -0.332 A  
HETATM   30  O   UNL     1      -9.396  10.620  63.463  1.00  0.00    -0.234 OA 
HETATM   31  C   UNL     1     -10.623  11.115  65.406  1.00  0.00    -0.291 A  
HETATM   32  H   UNL     1      -9.809  11.347  63.014  1.00  0.00     0.000 HD 
ENDBRANCH  16  19
ENDBRANCH  15  16
ENDBRANCH  13  15
ENDBRANCH   6   9
ENDBRANCH   2   3
TORSDOF 5
ENDMDL
MODEL      230
REMARK 921   NORMALIZED FREE ENERGY PREDICTED BY IDOCK:   -3.80 KCAL/MOL
REMARK 922        TOTAL FREE ENERGY PREDICTED BY IDOCK:   -5.15 KCAL/MOL
REMARK 923 INTER-LIGAND FREE ENERGY PREDICTED BY IDOCK:   -5.35 KCAL/MOL
REMARK 924 INTRA-LIGAND FREE ENERGY PREDICTED BY IDOCK:    0.20 KCAL/MOL
REMARK 927      BINDING AFFINITY PREDICTED BY RF-SCORE:    0.00 PKD
ROOT
HETATM    1  C   UNL     1      -6.103   1.845  68.869  1.00  0.00    -0.024 C  
HETATM    2  O   UNL     1      -7.526   1.865  68.940  1.00  0.00    -0.043 OA 
ENDROOT
BRANCH   2   3
HETATM    3  C   UNL     1      -8.144   2.940  68.354  1.00  0.00    -0.060 A  
HETATM    4  C   UNL     1      -8.274   3.144  66.984  1.00  0.00    -0.084 A  
HETATM    5  C   UNL     1      -8.905   4.291  66.502  1.00  0.00    -0.116 A  
HETATM    6  C   UNL     1      -9.438   5.249  67.377  1.00  0.00    -0.137 A  
HETATM    7  C   UNL     1      -8.680   3.881  69.236  1.00  0.00    -0.127 A  
HETATM    8  C   UNL     1      -9.321   5.027  68.755  1.00  0.00    -0.175 A  
BRANCH   6   9
HETATM    9  C   UNL     1     -10.108   6.495  66.821  1.00  0.00    -0.239 C  
HETATM   10  C   UNL     1      -9.182   7.696  66.420  1.00  0.00    -0.175 C  
HETATM   11  C   UNL     1      -8.333   7.297  65.198  1.00  0.00    -0.081 C  
HETATM   12  C   UNL     1      -8.279   8.116  67.598  1.00  0.00    -0.127 C  
HETATM   13  N   UNL     1     -10.072   8.825  66.046  1.00  0.00    -0.422 NA 
HETATM   14  H   UNL     1     -10.714   9.031  66.812  1.00  0.00     0.000 HD 
BRANCH  13  15
HETATM   15  C   UNL     1      -9.388  10.064  65.614  1.00  0.00    -0.204 C  
BRANCH  15  16
HETATM   16  C   UNL     1     -10.345  11.267  65.429  1.00  0.00    -0.272 C  
HETATM   17  H   UNL     1     -10.665  12.656  64.063  1.00  0.00     0.000 HD 
HETATM   18  O   UNL     1     -10.078  11.918  64.178  1.00  0.00    -0.285 OA 
BRANCH  16  19
HETATM   19  C   UNL     1     -10.285  12.239  66.587  1.00  0.00    -0.235 A  
HETATM   20  C   UNL     1      -9.069  12.522  67.231  1.00  0.00    -0.189 A  
HETATM   21  O   UNL     1      -7.954  11.844  66.803  1.00  0.00    -0.153 OA 
HETATM   22  C   UNL     1      -6.728  12.442  67.206  1.00  0.00    -0.133 C  
HETATM   23  C   UNL     1      -6.673  13.027  68.612  1.00  0.00    -0.096 C  
HETATM   24  O   UNL     1      -5.654  13.069  69.295  1.00  0.00    -0.074 OA 
HETATM   25  N   UNL     1      -7.844  13.606  69.021  1.00  0.00    -0.332 N  
HETATM   26  H   UNL     1      -7.850  14.184  69.862  1.00  0.00     0.000 HD 
HETATM   27  C   UNL     1      -9.034  13.420  68.309  1.00  0.00    -0.176 A  
HETATM   28  C   UNL     1     -10.187  14.089  68.717  1.00  0.00    -0.200 A  
HETATM   29  C   UNL     1     -11.379  13.840  68.050  1.00  0.00    -0.288 A  
HETATM   30  O   UNL     1     -12.539  14.468  68.391  1.00  0.00    -0.508 OA 
HETATM   31  C   UNL     1     -11.437  12.924  67.004  1.00  0.00    -0.390 A  
HETATM   32  H   UNL     1     -13.355  14.299  67.936  1.00  0.00     0.000 HD 
ENDBRANCH  16  19
ENDBRANCH  15  16
ENDBRANCH  13  15
ENDBRANCH   6   9
ENDBRANCH   2   3
TORSDOF 5
ENDMDL
MODEL      231
REMARK 921   NORMALIZED FREE ENERGY PREDICTED BY IDOCK:   -3.79 KCAL/MOL
REMARK 922        TOTAL FREE ENERGY PREDICTED BY IDOCK:   -5.14 KCAL/MOL
REMARK 923 INTER-LIGAND FREE ENERGY PREDICTED BY IDOCK:   -4.98 KCAL/MOL
REMARK 924 INTRA-LIGAND FREE ENERGY PREDICTED BY IDOCK:   -0.16 KCAL/MOL
REMARK 927      BINDING AFFINITY PREDICTED BY RF-SCORE:    0.00 PKD
ROOT
HETATM    1  C   UNL     1      -9.347   1.648  68.069  1.00  0.00    -0.174 C  
HETATM    2  O   UNL     1      -8.989   2.365  69.247  1.00  0.00    -0.085 OA 
ENDROOT
BRANCH   2   3
HETATM    3  C   UNL     1      -8.798   3.715  69.097  1.00  0.00    -0.102 A  
HETATM    4  C   UNL     1      -7.885   4.482  69.813  1.00  0.00    -0.057 A  
HETATM    5  C   UNL     1      -7.795   5.857  69.589  1.00  0.00    -0.097 A  
HETATM    6  C   UNL     1      -8.602   6.491  68.633  1.00  0.00    -0.124 A  
HETATM    7  C   UNL     1      -9.599   4.333  68.134  1.00  0.00    -0.196 A  
HETATM    8  C   UNL     1      -9.504   5.709  67.902  1.00  0.00    -0.120 A  
BRANCH   6   9
HETATM    9  C   UNL     1      -8.489   7.993  68.422  1.00  0.00    -0.127 C  
HETATM   10  C   UNL     1      -9.506   8.907  69.191  1.00  0.00    -0.157 C  
HETATM   11  C   UNL     1      -9.208   8.840  70.702  1.00  0.00    -0.233 C  
HETATM   12  C   UNL     1     -10.960   8.485  68.902  1.00  0.00     0.106 C  
HETATM   13  N   UNL     1      -9.286  10.298  68.714  1.00  0.00    -0.158 NA 
HETATM   14  H   UNL     1      -9.376  10.335  67.698  1.00  0.00     0.000 HD 
BRANCH  13  15
HETATM   15  C   UNL     1     -10.142  11.331  69.336  1.00  0.00     0.103 C  
BRANCH  15  16
HETATM   16  C   UNL     1     -10.866  12.235  68.309  1.00  0.00    -0.225 C  
HETATM   17  H   UNL     1     -11.756  12.005  66.562  1.00  0.00     0.000 HD 
HETATM   18  O   UNL     1     -11.312  11.451  67.192  1.00  0.00    -0.354 OA 
BRANCH  16  19
HETATM   19  C   UNL     1     -10.015  13.404  67.864  1.00  0.00    -0.236 A  
HETATM   20  C   UNL     1     -10.466  14.291  66.871  1.00  0.00    -0.272 A  
HETATM   21  O   UNL     1     -11.679  14.022  66.288  1.00  0.00    -0.354 OA 
HETATM   22  C   UNL     1     -12.245  15.133  65.602  1.00  0.00     0.326 C  
HETATM   23  C   UNL     1     -11.290  16.017  64.812  1.00  0.00    -0.280 C  
HETATM   24  O   UNL     1     -11.604  16.622  63.791  1.00  0.00    -1.045 OA 
HETATM   25  N   UNL     1     -10.061  16.172  65.395  1.00  0.00    -0.263 N  
HETATM   26  H   UNL     1      -9.426  16.888  65.042  1.00  0.00     0.000 HD 
HETATM   27  C   UNL     1      -9.659  15.365  66.465  1.00  0.00    -0.275 A  
HETATM   28  C   UNL     1      -8.431  15.605  67.079  1.00  0.00    -0.257 A  
HETATM   29  C   UNL     1      -8.007  14.754  68.090  1.00  0.00    -0.129 A  
HETATM   30  O   UNL     1      -6.823  14.939  68.738  1.00  0.00    -0.094 OA 
HETATM   31  C   UNL     1      -8.779  13.662  68.478  1.00  0.00    -0.102 A  
HETATM   32  H   UNL     1      -6.533  14.357  69.430  1.00  0.00     0.000 HD 
ENDBRANCH  16  19
ENDBRANCH  15  16
ENDBRANCH  13  15
ENDBRANCH   6   9
ENDBRANCH   2   3
TORSDOF 5
ENDMDL
MODEL      232
REMARK 921   NORMALIZED FREE ENERGY PREDICTED BY IDOCK:   -3.78 KCAL/MOL
REMARK 922        TOTAL FREE ENERGY PREDICTED BY IDOCK:   -5.13 KCAL/MOL
REMARK 923 INTER-LIGAND FREE ENERGY PREDICTED BY IDOCK:   -4.70 KCAL/MOL
REMARK 924 INTRA-LIGAND FREE ENERGY PREDICTED BY IDOCK:   -0.42 KCAL/MOL
REMARK 927      BINDING AFFINITY PREDICTED BY RF-SCORE:    0.00 PKD
ROOT
HETATM    1  C   UNL     1      -9.370   2.499  68.034  1.00  0.00    -0.202 C  
HETATM    2  O   UNL     1      -8.005   2.780  68.329  1.00  0.00    -0.058 OA 
ENDROOT
BRANCH   2   3
HETATM    3  C   UNL     1      -7.647   4.104  68.327  1.00  0.00    -0.067 A  
HETATM    4  C   UNL     1      -6.471   4.618  67.790  1.00  0.00    -0.045 A  
HETATM    5  C   UNL     1      -6.203   5.985  67.867  1.00  0.00    -0.028 A  
HETATM    6  C   UNL     1      -7.112   6.871  68.464  1.00  0.00    -0.082 A  
HETATM    7  C   UNL     1      -8.566   4.977  68.914  1.00  0.00    -0.091 A  
HETATM    8  C   UNL     1      -8.303   6.349  68.984  1.00  0.00    -0.118 A  
BRANCH   6   9
HETATM    9  C   UNL     1      -6.785   8.354  68.544  1.00  0.00    -0.063 C  
HETATM   10  C   UNL     1      -7.286   9.267  67.371  1.00  0.00    -0.080 C  
HETATM   11  C   UNL     1      -8.824   9.344  67.407  1.00  0.00    -0.135 C  
HETATM   12  C   UNL     1      -6.798   8.736  66.008  1.00  0.00    -0.073 C  
HETATM   13  N   UNL     1      -6.725  10.623  67.607  1.00  0.00    -0.071 NA 
HETATM   14  H   UNL     1      -5.710  10.571  67.690  1.00  0.00     0.000 HD 
BRANCH  13  15
HETATM   15  C   UNL     1      -7.097  11.652  66.611  1.00  0.00    -0.025 C  
BRANCH  15  16
HETATM   16  C   UNL     1      -7.350  13.049  67.229  1.00  0.00    -0.057 C  
HETATM   17  H   UNL     1      -6.955  13.963  68.933  1.00  0.00     0.000 HD 
HETATM   18  O   UNL     1      -6.800  13.107  68.553  1.00  0.00    -0.085 OA 
BRANCH  16  19
HETATM   19  C   UNL     1      -8.815  13.431  67.217  1.00  0.00    -0.220 A  
HETATM   20  C   UNL     1      -9.233  14.702  67.647  1.00  0.00    -0.193 A  
HETATM   21  O   UNL     1      -8.271  15.556  68.127  1.00  0.00    -0.140 OA 
HETATM   22  C   UNL     1      -8.682  16.917  68.172  1.00  0.00    -0.226 C  
HETATM   23  C   UNL     1     -10.116  17.192  68.606  1.00  0.00    -0.329 C  
HETATM   24  O   UNL     1     -10.467  18.206  69.203  1.00  0.00    -0.205 OA 
HETATM   25  N   UNL     1     -11.018  16.255  68.178  1.00  0.00    -0.343 N  
HETATM   26  H   UNL     1     -12.016  16.449  68.256  1.00  0.00     0.000 HD 
HETATM   27  C   UNL     1     -10.596  15.036  67.637  1.00  0.00    -0.267 A  
HETATM   28  C   UNL     1     -11.546  14.142  67.145  1.00  0.00    -0.400 A  
HETATM   29  C   UNL     1     -11.124  12.904  66.679  1.00  0.00    -0.284 A  
HETATM   30  O   UNL     1     -11.998  11.989  66.174  1.00  0.00    -0.581 OA 
HETATM   31  C   UNL     1      -9.780  12.543  66.718  1.00  0.00    -0.234 A  
HETATM   32  H   UNL     1     -11.711  11.142  65.855  1.00  0.00     0.000 HD 
ENDBRANCH  16  19
ENDBRANCH  15  16
ENDBRANCH  13  15
ENDBRANCH   6   9
ENDBRANCH   2   3
TORSDOF 5
ENDMDL
MODEL      233
REMARK 921   NORMALIZED FREE ENERGY PREDICTED BY IDOCK:   -3.77 KCAL/MOL
REMARK 922        TOTAL FREE ENERGY PREDICTED BY IDOCK:   -5.11 KCAL/MOL
REMARK 923 INTER-LIGAND FREE ENERGY PREDICTED BY IDOCK:   -4.95 KCAL/MOL
REMARK 924 INTRA-LIGAND FREE ENERGY PREDICTED BY IDOCK:   -0.16 KCAL/MOL
REMARK 927      BINDING AFFINITY PREDICTED BY RF-SCORE:    0.00 PKD
ROOT
HETATM    1  C   UNL     1      -7.027  10.256  62.385  1.00  0.00    -0.133 C  
HETATM    2  O   UNL     1      -8.389   9.869  62.543  1.00  0.00    -0.125 OA 
ENDROOT
BRANCH   2   3
HETATM    3  C   UNL     1      -8.786   9.568  63.821  1.00  0.00    -0.210 A  
HETATM    4  C   UNL     1      -9.795  10.220  64.523  1.00  0.00    -0.384 A  
HETATM    5  C   UNL     1     -10.098   9.840  65.832  1.00  0.00    -0.314 A  
HETATM    6  C   UNL     1      -9.413   8.789  66.460  1.00  0.00    -0.281 A  
HETATM    7  C   UNL     1      -8.105   8.513  64.431  1.00  0.00    -0.163 A  
HETATM    8  C   UNL     1      -8.413   8.125  65.739  1.00  0.00    -0.162 A  
BRANCH   6   9
HETATM    9  C   UNL     1      -9.757   8.408  67.891  1.00  0.00    -0.189 C  
HETATM   10  C   UNL     1      -8.879   9.028  69.033  1.00  0.00    -0.136 C  
HETATM   11  C   UNL     1      -9.137  10.545  69.107  1.00  0.00    -0.177 C  
HETATM   12  C   UNL     1      -7.383   8.739  68.802  1.00  0.00    -0.083 C  
HETATM   13  N   UNL     1      -9.317   8.399  70.307  1.00  0.00    -0.162 NA 
HETATM   14  H   UNL     1      -9.251   7.383  70.234  1.00  0.00     0.000 HD 
BRANCH  13  15
HETATM   15  C   UNL     1      -8.618   8.864  71.525  1.00  0.00    -0.135 C  
BRANCH  15  16
HETATM   16  C   UNL     1      -9.197   8.275  72.834  1.00  0.00    -0.259 C  
HETATM   17  H   UNL     1      -8.635   8.130  74.720  1.00  0.00     0.000 HD 
HETATM   18  O   UNL     1      -8.280   8.491  73.917  1.00  0.00    -0.369 OA 
BRANCH  16  19
HETATM   19  C   UNL     1      -9.565   6.813  72.699  1.00  0.00    -0.160 A  
HETATM   20  C   UNL     1      -8.644   5.880  72.193  1.00  0.00    -0.129 A  
HETATM   21  O   UNL     1      -7.425   6.355  71.779  1.00  0.00    -0.091 OA 
HETATM   22  C   UNL     1      -6.428   5.348  71.656  1.00  0.00    -0.040 C  
HETATM   23  C   UNL     1      -6.867   4.007  71.082  1.00  0.00    -0.032 C  
HETATM   24  O   UNL     1      -6.136   3.272  70.424  1.00  0.00    -0.018 OA 
HETATM   25  N   UNL     1      -8.130   3.629  71.452  1.00  0.00    -0.060 N  
HETATM   26  H   UNL     1      -8.438   2.672  71.276  1.00  0.00     0.000 HD 
HETATM   27  C   UNL     1      -9.006   4.529  72.067  1.00  0.00    -0.125 A  
HETATM   28  C   UNL     1     -10.255   4.084  72.495  1.00  0.00    -0.233 A  
HETATM   29  C   UNL     1     -11.147   5.000  73.036  1.00  0.00    -0.308 A  
HETATM   30  O   UNL     1     -12.379   4.629  73.484  1.00  0.00    -0.188 OA 
HETATM   31  C   UNL     1     -10.817   6.350  73.132  1.00  0.00    -0.282 A  
HETATM   32  H   UNL     1     -12.989   5.256  73.853  1.00  0.00     0.000 HD 
ENDBRANCH  16  19
ENDBRANCH  15  16
ENDBRANCH  13  15
ENDBRANCH   6   9
ENDBRANCH   2   3
TORSDOF 5
ENDMDL
MODEL      234
REMARK 921   NORMALIZED FREE ENERGY PREDICTED BY IDOCK:   -3.76 KCAL/MOL
REMARK 922        TOTAL FREE ENERGY PREDICTED BY IDOCK:   -5.10 KCAL/MOL
REMARK 923 INTER-LIGAND FREE ENERGY PREDICTED BY IDOCK:   -5.10 KCAL/MOL
REMARK 924 INTRA-LIGAND FREE ENERGY PREDICTED BY IDOCK:   -0.00 KCAL/MOL
REMARK 927      BINDING AFFINITY PREDICTED BY RF-SCORE:    0.00 PKD
ROOT
HETATM    1  C   UNL     1      -5.770  15.503  69.804  1.00  0.00    -0.129 C  
HETATM    2  O   UNL     1      -6.215  15.280  68.469  1.00  0.00    -0.087 OA 
ENDROOT
BRANCH   2   3
HETATM    3  C   UNL     1      -6.932  14.130  68.256  1.00  0.00    -0.106 A  
HETATM    4  C   UNL     1      -8.047  14.019  67.431  1.00  0.00    -0.199 A  
HETATM    5  C   UNL     1      -8.711  12.798  67.310  1.00  0.00    -0.200 A  
HETATM    6  C   UNL     1      -8.266  11.658  67.995  1.00  0.00    -0.146 A  
HETATM    7  C   UNL     1      -6.471  12.999  68.934  1.00  0.00    -0.094 A  
HETATM    8  C   UNL     1      -7.131  11.772  68.807  1.00  0.00    -0.111 A  
BRANCH   6   9
HETATM    9  C   UNL     1      -9.020  10.345  67.852  1.00  0.00    -0.128 C  
HETATM   10  C   UNL     1      -8.313   9.047  68.376  1.00  0.00    -0.124 C  
HETATM   11  C   UNL     1      -8.204   9.111  69.912  1.00  0.00    -0.137 C  
HETATM   12  C   UNL     1      -6.920   8.877  67.737  1.00  0.00    -0.075 C  
HETATM   13  N   UNL     1      -9.177   7.899  67.998  1.00  0.00    -0.132 NA 
HETATM   14  H   UNL     1      -9.345   7.905  66.992  1.00  0.00     0.000 HD 
BRANCH  13  15
HETATM   15  C   UNL     1      -8.694   6.566  68.420  1.00  0.00    -0.121 C  
BRANCH  15  16
HETATM   16  C   UNL     1      -9.832   5.574  68.761  1.00  0.00    -0.153 C  
HETATM   17  H   UNL     1     -11.694   5.265  68.186  1.00  0.00     0.000 HD 
HETATM   18  O   UNL     1     -10.996   5.874  67.977  1.00  0.00    -0.274 OA 
BRANCH  16  19
HETATM   19  C   UNL     1     -10.149   5.542  70.241  1.00  0.00    -0.305 A  
HETATM   20  C   UNL     1     -10.918   6.556  70.837  1.00  0.00    -0.274 A  
HETATM   21  O   UNL     1     -11.320   7.597  70.038  1.00  0.00    -0.195 OA 
HETATM   22  C   UNL     1     -12.390   8.359  70.583  1.00  0.00     0.186 C  
HETATM   23  C   UNL     1     -12.357   8.624  72.082  1.00  0.00    -0.386 C  
HETATM   24  O   UNL     1     -12.820   9.632  72.610  1.00  0.00    -0.212 OA 
HETATM   25  N   UNL     1     -11.857   7.585  72.821  1.00  0.00    -0.581 N  
HETATM   26  H   UNL     1     -11.968   7.593  73.835  1.00  0.00     0.000 HD 
HETATM   27  C   UNL     1     -11.196   6.514  72.212  1.00  0.00    -0.273 A  
HETATM   28  C   UNL     1     -10.768   5.441  72.993  1.00  0.00    -0.301 A  
HETATM   29  C   UNL     1     -10.047   4.418  72.392  1.00  0.00    -0.181 A  
HETATM   30  O   UNL     1      -9.610   3.336  73.095  1.00  0.00    -0.103 OA 
HETATM   31  C   UNL     1      -9.731   4.464  71.037  1.00  0.00    -0.260 A  
HETATM   32  H   UNL     1      -9.117   2.636  72.685  1.00  0.00     0.000 HD 
ENDBRANCH  16  19
ENDBRANCH  15  16
ENDBRANCH  13  15
ENDBRANCH   6   9
ENDBRANCH   2   3
TORSDOF 5
ENDMDL
MODEL      235
REMARK 921   NORMALIZED FREE ENERGY PREDICTED BY IDOCK:   -3.74 KCAL/MOL
REMARK 922        TOTAL FREE ENERGY PREDICTED BY IDOCK:   -5.08 KCAL/MOL
REMARK 923 INTER-LIGAND FREE ENERGY PREDICTED BY IDOCK:   -4.79 KCAL/MOL
REMARK 924 INTRA-LIGAND FREE ENERGY PREDICTED BY IDOCK:   -0.29 KCAL/MOL
REMARK 927      BINDING AFFINITY PREDICTED BY RF-SCORE:    0.00 PKD
ROOT
HETATM    1  C   UNL     1      -7.320  15.774  67.588  1.00  0.00    -0.164 C  
HETATM    2  O   UNL     1      -6.549  14.633  67.221  1.00  0.00    -0.290 OA 
ENDROOT
BRANCH   2   3
HETATM    3  C   UNL     1      -7.065  13.415  67.582  1.00  0.00    -0.162 A  
HETATM    4  C   UNL     1      -8.248  13.220  68.288  1.00  0.00    -0.156 A  
HETATM    5  C   UNL     1      -8.663  11.929  68.620  1.00  0.00    -0.034 A  
HETATM    6  C   UNL     1      -7.915  10.805  68.237  1.00  0.00    -0.118 A  
HETATM    7  C   UNL     1      -6.318  12.303  67.185  1.00  0.00    -0.117 A  
HETATM    8  C   UNL     1      -6.737  11.008  67.509  1.00  0.00    -0.072 A  
BRANCH   6   9
HETATM    9  C   UNL     1      -8.387   9.413  68.625  1.00  0.00    -0.117 C  
HETATM   10  C   UNL     1      -7.516   8.618  69.659  1.00  0.00    -0.068 C  
HETATM   11  C   UNL     1      -7.604   9.308  71.034  1.00  0.00    -0.091 C  
HETATM   12  C   UNL     1      -6.051   8.520  69.191  1.00  0.00    -0.042 C  
HETATM   13  N   UNL     1      -8.100   7.255  69.761  1.00  0.00    -0.126 NA 
HETATM   14  H   UNL     1      -8.145   6.825  68.837  1.00  0.00     0.000 HD 
BRANCH  13  15
HETATM   15  C   UNL     1      -7.428   6.340  70.711  1.00  0.00    -0.091 C  
BRANCH  15  16
HETATM   16  C   UNL     1      -7.832   6.574  72.186  1.00  0.00    -0.098 C  
HETATM   17  H   UNL     1      -6.999   6.349  73.961  1.00  0.00     0.000 HD 
HETATM   18  O   UNL     1      -6.752   6.205  73.056  1.00  0.00    -0.071 OA 
BRANCH  16  19
HETATM   19  C   UNL     1      -9.114   5.860  72.556  1.00  0.00    -0.135 A  
HETATM   20  C   UNL     1     -10.367   6.429  72.271  1.00  0.00    -0.192 A  
HETATM   21  O   UNL     1     -10.379   7.676  71.697  1.00  0.00    -0.189 OA 
HETATM   22  C   UNL     1     -11.619   8.016  71.089  1.00  0.00    -0.282 C  
HETATM   23  C   UNL     1     -12.887   7.589  71.817  1.00  0.00    -0.327 C  
HETATM   24  O   UNL     1     -13.944   8.212  71.772  1.00  0.00    -0.374 OA 
HETATM   25  N   UNL     1     -12.785   6.380  72.452  1.00  0.00    -0.533 N  
HETATM   26  H   UNL     1     -13.628   5.927  72.804  1.00  0.00     0.000 HD 
HETATM   27  C   UNL     1     -11.546   5.756  72.629  1.00  0.00    -0.253 A  
HETATM   28  C   UNL     1     -11.495   4.492  73.214  1.00  0.00    -0.314 A  
HETATM   29  C   UNL     1     -10.256   3.912  73.454  1.00  0.00    -0.147 A  
HETATM   30  O   UNL     1     -10.136   2.675  74.012  1.00  0.00    -0.097 OA 
HETATM   31  C   UNL     1      -9.078   4.583  73.139  1.00  0.00    -0.126 A  
HETATM   32  H   UNL     1      -9.289   2.278  74.176  1.00  0.00     0.000 HD 
ENDBRANCH  16  19
ENDBRANCH  15  16
ENDBRANCH  13  15
ENDBRANCH   6   9
ENDBRANCH   2   3
TORSDOF 5
ENDMDL
MODEL      236
REMARK 921   NORMALIZED FREE ENERGY PREDICTED BY IDOCK:   -3.70 KCAL/MOL
REMARK 922        TOTAL FREE ENERGY PREDICTED BY IDOCK:   -5.02 KCAL/MOL
REMARK 923 INTER-LIGAND FREE ENERGY PREDICTED BY IDOCK:   -4.69 KCAL/MOL
REMARK 924 INTRA-LIGAND FREE ENERGY PREDICTED BY IDOCK:   -0.33 KCAL/MOL
REMARK 927      BINDING AFFINITY PREDICTED BY RF-SCORE:    0.00 PKD
ROOT
HETATM    1  C   UNL     1      -6.606  10.321  62.778  1.00  0.00    -0.134 C  
HETATM    2  O   UNL     1      -7.805   9.575  62.967  1.00  0.00    -0.118 OA 
ENDROOT
BRANCH   2   3
HETATM    3  C   UNL     1      -8.039   9.121  64.239  1.00  0.00    -0.148 A  
HETATM    4  C   UNL     1      -9.185   9.373  64.985  1.00  0.00    -0.280 A  
HETATM    5  C   UNL     1      -9.302   8.875  66.284  1.00  0.00    -0.279 A  
HETATM    6  C   UNL     1      -8.284   8.099  66.858  1.00  0.00    -0.111 A  
HETATM    7  C   UNL     1      -7.023   8.340  64.796  1.00  0.00    -0.075 A  
HETATM    8  C   UNL     1      -7.142   7.832  66.094  1.00  0.00    -0.069 A  
BRANCH   6   9
HETATM    9  C   UNL     1      -8.435   7.581  68.279  1.00  0.00    -0.125 C  
HETATM   10  C   UNL     1      -7.790   8.431  69.429  1.00  0.00    -0.103 C  
HETATM   11  C   UNL     1      -8.548   9.766  69.563  1.00  0.00    -0.186 C  
HETATM   12  C   UNL     1      -6.292   8.679  69.161  1.00  0.00    -0.043 C  
HETATM   13  N   UNL     1      -7.949   7.654  70.686  1.00  0.00    -0.098 NA 
HETATM   14  H   UNL     1      -7.542   6.725  70.574  1.00  0.00     0.000 HD 
BRANCH  13  15
HETATM   15  C   UNL     1      -7.416   8.295  71.908  1.00  0.00    -0.098 C  
BRANCH  15  16
HETATM   16  C   UNL     1      -8.491   8.552  72.991  1.00  0.00    -0.040 C  
HETATM   17  H   UNL     1      -8.664   8.293  74.940  1.00  0.00     0.000 HD 
HETATM   18  O   UNL     1      -8.004   8.135  74.275  1.00  0.00    -0.221 OA 
BRANCH  16  19
HETATM   19  C   UNL     1      -9.816   7.901  72.659  1.00  0.00    -0.316 A  
HETATM   20  C   UNL     1      -9.997   6.515  72.806  1.00  0.00    -0.172 A  
HETATM   21  O   UNL     1      -8.913   5.775  73.209  1.00  0.00    -0.128 OA 
HETATM   22  C   UNL     1      -9.251   4.486  73.707  1.00  0.00    -0.107 C  
HETATM   23  C   UNL     1     -10.359   3.733  72.982  1.00  0.00    -0.167 C  
HETATM   24  O   UNL     1     -10.410   2.510  72.894  1.00  0.00    -0.138 OA 
HETATM   25  N   UNL     1     -11.367   4.535  72.518  1.00  0.00     0.126 N  
HETATM   26  H   UNL     1     -12.235   4.109  72.190  1.00  0.00     0.000 HD 
HETATM   27  C   UNL     1     -11.231   5.927  72.485  1.00  0.00    -0.294 A  
HETATM   28  C   UNL     1     -12.309   6.710  72.076  1.00  0.00    -0.316 A  
HETATM   29  C   UNL     1     -12.140   8.084  71.974  1.00  0.00    -0.331 A  
HETATM   30  O   UNL     1     -13.156   8.908  71.591  1.00  0.00    -0.329 OA 
HETATM   31  C   UNL     1     -10.912   8.678  72.253  1.00  0.00    -0.392 A  
HETATM   32  H   UNL     1     -13.041   9.848  71.522  1.00  0.00     0.000 HD 
ENDBRANCH  16  19
ENDBRANCH  15  16
ENDBRANCH  13  15
ENDBRANCH   6   9
ENDBRANCH   2   3
TORSDOF 5
ENDMDL
MODEL      237
REMARK 921   NORMALIZED FREE ENERGY PREDICTED BY IDOCK:   -3.70 KCAL/MOL
REMARK 922        TOTAL FREE ENERGY PREDICTED BY IDOCK:   -5.02 KCAL/MOL
REMARK 923 INTER-LIGAND FREE ENERGY PREDICTED BY IDOCK:   -5.31 KCAL/MOL
REMARK 924 INTRA-LIGAND FREE ENERGY PREDICTED BY IDOCK:    0.28 KCAL/MOL
REMARK 927      BINDING AFFINITY PREDICTED BY RF-SCORE:    0.00 PKD
ROOT
HETATM    1  C   UNL     1      -5.750  18.499  70.102  1.00  0.00    -0.226 C  
HETATM    2  O   UNL     1      -5.233  17.225  69.729  1.00  0.00    -0.161 OA 
ENDROOT
BRANCH   2   3
HETATM    3  C   UNL     1      -6.100  16.391  69.071  1.00  0.00    -0.152 A  
HETATM    4  C   UNL     1      -7.486  16.504  69.079  1.00  0.00    -0.229 A  
HETATM    5  C   UNL     1      -8.270  15.579  68.388  1.00  0.00    -0.145 A  
HETATM    6  C   UNL     1      -7.686  14.533  67.659  1.00  0.00    -0.194 A  
HETATM    7  C   UNL     1      -5.505  15.361  68.338  1.00  0.00    -0.107 A  
HETATM    8  C   UNL     1      -6.289  14.438  67.638  1.00  0.00    -0.126 A  
BRANCH   6   9
HETATM    9  C   UNL     1      -8.568  13.534  66.927  1.00  0.00    -0.114 C  
HETATM   10  C   UNL     1      -8.324  12.011  67.214  1.00  0.00    -0.176 C  
HETATM   11  C   UNL     1      -8.733  11.695  68.665  1.00  0.00    -0.083 C  
HETATM   12  C   UNL     1      -6.851  11.629  66.966  1.00  0.00    -0.144 C  
HETATM   13  N   UNL     1      -9.199  11.249  66.285  1.00  0.00    -0.194 NA 
HETATM   14  H   UNL     1      -9.011  11.527  65.322  1.00  0.00     0.000 HD 
BRANCH  13  15
HETATM   15  C   UNL     1      -9.134   9.776  66.407  1.00  0.00    -0.155 C  
BRANCH  15  16
HETATM   16  C   UNL     1     -10.517   9.108  66.600  1.00  0.00    -0.167 C  
HETATM   17  H   UNL     1     -12.255   9.599  67.396  1.00  0.00     0.000 HD 
HETATM   18  O   UNL     1     -11.406  10.008  67.278  1.00  0.00    -0.159 OA 
BRANCH  16  19
HETATM   19  C   UNL     1     -10.423   7.776  67.310  1.00  0.00    -0.392 A  
HETATM   20  C   UNL     1     -10.566   7.689  68.705  1.00  0.00    -0.145 A  
HETATM   21  O   UNL     1     -10.738   8.862  69.398  1.00  0.00    -0.228 OA 
HETATM   22  C   UNL     1     -11.257   8.684  70.710  1.00  0.00    -0.261 C  
HETATM   23  C   UNL     1     -10.735   7.495  71.505  1.00  0.00    -0.218 C  
HETATM   24  O   UNL     1     -10.627   7.483  72.727  1.00  0.00    -0.252 OA 
HETATM   25  N   UNL     1     -10.491   6.381  70.746  1.00  0.00    -0.215 N  
HETATM   26  H   UNL     1     -10.321   5.488  71.208  1.00  0.00     0.000 HD 
HETATM   27  C   UNL     1     -10.468   6.445  69.349  1.00  0.00    -0.228 A  
HETATM   28  C   UNL     1     -10.290   5.275  68.613  1.00  0.00    -0.193 A  
HETATM   29  C   UNL     1     -10.194   5.358  67.230  1.00  0.00    -0.214 A  
HETATM   30  O   UNL     1     -10.032   4.252  66.452  1.00  0.00    -0.221 OA 
HETATM   31  C   UNL     1     -10.252   6.589  66.581  1.00  0.00    -0.209 A  
HETATM   32  H   UNL     1      -9.966   4.309  65.506  1.00  0.00     0.000 HD 
ENDBRANCH  16  19
ENDBRANCH  15  16
ENDBRANCH  13  15
ENDBRANCH   6   9
ENDBRANCH   2   3
TORSDOF 5
ENDMDL
MODEL      238
REMARK 921   NORMALIZED FREE ENERGY PREDICTED BY IDOCK:   -3.69 KCAL/MOL
REMARK 922        TOTAL FREE ENERGY PREDICTED BY IDOCK:   -5.01 KCAL/MOL
REMARK 923 INTER-LIGAND FREE ENERGY PREDICTED BY IDOCK:   -4.85 KCAL/MOL
REMARK 924 INTRA-LIGAND FREE ENERGY PREDICTED BY IDOCK:   -0.16 KCAL/MOL
REMARK 927      BINDING AFFINITY PREDICTED BY RF-SCORE:    0.00 PKD
ROOT
HETATM    1  C   UNL     1     -11.841  15.571  70.022  1.00  0.00    -0.359 C  
HETATM    2  O   UNL     1     -10.581  15.073  69.583  1.00  0.00    -0.248 OA 
ENDROOT
BRANCH   2   3
HETATM    3  C   UNL     1     -10.607  13.886  68.896  1.00  0.00    -0.212 A  
HETATM    4  C   UNL     1     -11.431  12.805  69.191  1.00  0.00    -0.361 A  
HETATM    5  C   UNL     1     -11.354  11.636  68.433  1.00  0.00    -0.339 A  
HETATM    6  C   UNL     1     -10.465  11.528  67.353  1.00  0.00    -0.240 A  
HETATM    7  C   UNL     1      -9.727  13.796  67.816  1.00  0.00    -0.230 A  
HETATM    8  C   UNL     1      -9.653  12.628  67.050  1.00  0.00    -0.219 A  
BRANCH   6   9
HETATM    9  C   UNL     1     -10.395  10.236  66.555  1.00  0.00    -0.276 C  
HETATM   10  C   UNL     1      -9.486   9.088  67.118  1.00  0.00    -0.152 C  
HETATM   11  C   UNL     1     -10.101   8.547  68.423  1.00  0.00    -0.221 C  
HETATM   12  C   UNL     1      -8.048   9.588  67.359  1.00  0.00    -0.110 C  
HETATM   13  N   UNL     1      -9.474   8.005  66.101  1.00  0.00    -0.384 NA 
HETATM   14  H   UNL     1      -9.168   8.376  65.201  1.00  0.00     0.000 HD 
BRANCH  13  15
HETATM   15  C   UNL     1      -8.679   6.807  66.450  1.00  0.00    -0.138 C  
BRANCH  15  16
HETATM   16  C   UNL     1      -9.263   5.490  65.884  1.00  0.00    -0.147 C  
HETATM   17  H   UNL     1     -11.041   4.643  65.749  1.00  0.00     0.000 HD 
HETATM   18  O   UNL     1     -10.682   5.451  66.097  1.00  0.00    -0.229 OA 
BRANCH  16  19
HETATM   19  C   UNL     1      -8.581   4.263  66.449  1.00  0.00    -0.112 A  
HETATM   20  C   UNL     1      -8.720   3.919  67.804  1.00  0.00    -0.103 A  
HETATM   21  O   UNL     1      -9.451   4.766  68.600  1.00  0.00    -0.131 OA 
HETATM   22  C   UNL     1      -9.875   4.179  69.825  1.00  0.00    -0.150 C  
HETATM   23  C   UNL     1      -8.886   3.263  70.533  1.00  0.00    -0.084 C  
HETATM   24  O   UNL     1      -8.832   3.126  71.751  1.00  0.00    -0.081 OA 
HETATM   25  N   UNL     1      -8.117   2.512  69.685  1.00  0.00    -0.041 N  
HETATM   26  H   UNL     1      -7.565   1.741  70.061  1.00  0.00     0.000 HD 
HETATM   27  C   UNL     1      -8.073   2.782  68.313  1.00  0.00    -0.060 A  
HETATM   28  C   UNL     1      -7.337   1.946  67.475  1.00  0.00    -0.055 A  
HETATM   29  C   UNL     1      -7.238   2.264  66.127  1.00  0.00    -0.061 A  
HETATM   30  O   UNL     1      -6.544   1.484  65.252  1.00  0.00    -0.022 OA 
HETATM   31  C   UNL     1      -7.843   3.409  65.615  1.00  0.00    -0.085 A  
HETATM   32  H   UNL     1      -6.476   1.702  64.330  1.00  0.00     0.000 HD 
ENDBRANCH  16  19
ENDBRANCH  15  16
ENDBRANCH  13  15
ENDBRANCH   6   9
ENDBRANCH   2   3
TORSDOF 5
ENDMDL
MODEL      239
REMARK 921   NORMALIZED FREE ENERGY PREDICTED BY IDOCK:   -3.67 KCAL/MOL
REMARK 922        TOTAL FREE ENERGY PREDICTED BY IDOCK:   -4.99 KCAL/MOL
REMARK 923 INTER-LIGAND FREE ENERGY PREDICTED BY IDOCK:   -4.48 KCAL/MOL
REMARK 924 INTRA-LIGAND FREE ENERGY PREDICTED BY IDOCK:   -0.51 KCAL/MOL
REMARK 927      BINDING AFFINITY PREDICTED BY RF-SCORE:    0.00 PKD
ROOT
HETATM    1  C   UNL     1      -9.629  17.991  66.392  1.00  0.00    -0.295 C  
HETATM    2  O   UNL     1     -10.753  17.251  65.925  1.00  0.00    -0.273 OA 
ENDROOT
BRANCH   2   3
HETATM    3  C   UNL     1     -10.618  15.886  65.923  1.00  0.00    -0.337 A  
HETATM    4  C   UNL     1     -11.643  14.977  65.683  1.00  0.00    -0.188 A  
HETATM    5  C   UNL     1     -11.390  13.605  65.729  1.00  0.00    -0.315 A  
HETATM    6  C   UNL     1     -10.105  13.112  65.997  1.00  0.00    -0.286 A  
HETATM    7  C   UNL     1      -9.331  15.408  66.179  1.00  0.00    -0.367 A  
HETATM    8  C   UNL     1      -9.073  14.033  66.217  1.00  0.00    -0.047 A  
BRANCH   6   9
HETATM    9  C   UNL     1      -9.864  11.612  66.053  1.00  0.00    -0.258 C  
HETATM   10  C   UNL     1      -9.808  10.943  67.471  1.00  0.00    -0.168 C  
HETATM   11  C   UNL     1     -11.206  11.000  68.116  1.00  0.00    -0.364 C  
HETATM   12  C   UNL     1      -8.763  11.635  68.369  1.00  0.00    -0.158 C  
HETATM   13  N   UNL     1      -9.425   9.522  67.265  1.00  0.00    -0.134 NA 
HETATM   14  H   UNL     1      -8.550   9.469  66.744  1.00  0.00     0.000 HD 
BRANCH  13  15
HETATM   15  C   UNL     1      -9.333   8.699  68.492  1.00  0.00    -0.138 C  
BRANCH  15  16
HETATM   16  C   UNL     1      -7.899   8.201  68.796  1.00  0.00    -0.113 C  
HETATM   17  H   UNL     1      -6.256   7.825  67.770  1.00  0.00     0.000 HD 
HETATM   18  O   UNL     1      -7.136   8.130  67.583  1.00  0.00    -0.082 OA 
BRANCH  16  19
HETATM   19  C   UNL     1      -7.889   6.883  69.540  1.00  0.00    -0.120 A  
HETATM   20  C   UNL     1      -7.444   6.808  70.871  1.00  0.00    -0.083 A  
HETATM   21  O   UNL     1      -6.971   7.961  71.446  1.00  0.00    -0.051 OA 
HETATM   22  C   UNL     1      -6.912   7.912  72.866  1.00  0.00    -0.084 C  
HETATM   23  C   UNL     1      -6.457   6.601  73.494  1.00  0.00    -0.064 C  
HETATM   24  O   UNL     1      -5.847   6.527  74.557  1.00  0.00    -0.061 OA 
HETATM   25  N   UNL     1      -6.879   5.485  72.823  1.00  0.00    -0.076 N  
HETATM   26  H   UNL     1      -6.786   4.570  73.264  1.00  0.00     0.000 HD 
HETATM   27  C   UNL     1      -7.434   5.575  71.542  1.00  0.00    -0.095 A  
HETATM   28  C   UNL     1      -7.920   4.424  70.925  1.00  0.00    -0.068 A  
HETATM   29  C   UNL     1      -8.400   4.510  69.625  1.00  0.00    -0.069 A  
HETATM   30  O   UNL     1      -8.899   3.425  68.968  1.00  0.00    -0.087 OA 
HETATM   31  C   UNL     1      -8.382   5.718  68.933  1.00  0.00    -0.101 A  
HETATM   32  H   UNL     1      -9.228   3.484  68.079  1.00  0.00     0.000 HD 
ENDBRANCH  16  19
ENDBRANCH  15  16
ENDBRANCH  13  15
ENDBRANCH   6   9
ENDBRANCH   2   3
TORSDOF 5
ENDMDL
MODEL      240
REMARK 921   NORMALIZED FREE ENERGY PREDICTED BY IDOCK:   -3.65 KCAL/MOL
REMARK 922        TOTAL FREE ENERGY PREDICTED BY IDOCK:   -4.96 KCAL/MOL
REMARK 923 INTER-LIGAND FREE ENERGY PREDICTED BY IDOCK:   -5.41 KCAL/MOL
REMARK 924 INTRA-LIGAND FREE ENERGY PREDICTED BY IDOCK:    0.45 KCAL/MOL
REMARK 927      BINDING AFFINITY PREDICTED BY RF-SCORE:    0.00 PKD
ROOT
HETATM    1  C   UNL     1      -5.863   1.956  68.700  1.00  0.00    -0.023 C  
HETATM    2  O   UNL     1      -7.284   1.864  68.745  1.00  0.00    -0.042 OA 
ENDROOT
BRANCH   2   3
HETATM    3  C   UNL     1      -7.974   2.888  68.149  1.00  0.00    -0.061 A  
HETATM    4  C   UNL     1      -8.269   2.977  66.793  1.00  0.00    -0.089 A  
HETATM    5  C   UNL     1      -8.960   4.083  66.295  1.00  0.00    -0.127 A  
HETATM    6  C   UNL     1      -9.388   5.114  67.145  1.00  0.00    -0.129 A  
HETATM    7  C   UNL     1      -8.405   3.903  69.007  1.00  0.00    -0.088 A  
HETATM    8  C   UNL     1      -9.105   5.008  68.512  1.00  0.00    -0.136 A  
BRANCH   6   9
HETATM    9  C   UNL     1     -10.128   6.311  66.571  1.00  0.00    -0.168 C  
HETATM   10  C   UNL     1      -9.262   7.508  66.041  1.00  0.00    -0.049 C  
HETATM   11  C   UNL     1      -8.490   7.061  64.785  1.00  0.00     0.108 C  
HETATM   12  C   UNL     1      -8.292   8.013  67.128  1.00  0.00    -0.121 C  
HETATM   13  N   UNL     1     -10.205   8.595  65.671  1.00  0.00     0.046 NA 
HETATM   14  H   UNL     1     -10.798   8.829  66.468  1.00  0.00     0.000 HD 
BRANCH  13  15
HETATM   15  C   UNL     1      -9.585   9.823  65.125  1.00  0.00    -0.287 C  
BRANCH  15  16
HETATM   16  C   UNL     1     -10.592  10.977  64.900  1.00  0.00    -0.258 C  
HETATM   17  H   UNL     1     -10.930  12.344  63.517  1.00  0.00     0.000 HD 
HETATM   18  O   UNL     1     -10.312  11.636  63.656  1.00  0.00    -0.334 OA 
BRANCH  16  19
HETATM   19  C   UNL     1     -10.620  11.955  66.054  1.00  0.00    -0.304 A  
HETATM   20  C   UNL     1     -10.615  13.341  65.827  1.00  0.00    -0.284 A  
HETATM   21  O   UNL     1     -10.527  13.769  64.526  1.00  0.00    -0.434 OA 
HETATM   22  C   UNL     1     -10.915  15.125  64.340  1.00  0.00    -0.023 C  
HETATM   23  C   UNL     1     -10.492  16.119  65.413  1.00  0.00    -0.373 C  
HETATM   24  O   UNL     1     -10.247  17.302  65.192  1.00  0.00    -0.432 OA 
HETATM   25  N   UNL     1     -10.506  15.608  66.683  1.00  0.00    -0.296 N  
HETATM   26  H   UNL     1     -10.422  16.241  67.479  1.00  0.00     0.000 HD 
HETATM   27  C   UNL     1     -10.633  14.233  66.911  1.00  0.00    -0.273 A  
HETATM   28  C   UNL     1     -10.719  13.763  68.220  1.00  0.00    -0.264 A  
HETATM   29  C   UNL     1     -10.770  12.392  68.440  1.00  0.00    -0.235 A  
HETATM   30  O   UNL     1     -10.866  11.867  69.693  1.00  0.00    -0.454 OA 
HETATM   31  C   UNL     1     -10.714  11.494  67.377  1.00  0.00    -0.275 A  
HETATM   32  H   UNL     1     -10.900  10.930  69.843  1.00  0.00     0.000 HD 
ENDBRANCH  16  19
ENDBRANCH  15  16
ENDBRANCH  13  15
ENDBRANCH   6   9
ENDBRANCH   2   3
TORSDOF 5
ENDMDL
MODEL      241
REMARK 921   NORMALIZED FREE ENERGY PREDICTED BY IDOCK:   -3.63 KCAL/MOL
REMARK 922        TOTAL FREE ENERGY PREDICTED BY IDOCK:   -4.94 KCAL/MOL
REMARK 923 INTER-LIGAND FREE ENERGY PREDICTED BY IDOCK:   -4.68 KCAL/MOL
REMARK 924 INTRA-LIGAND FREE ENERGY PREDICTED BY IDOCK:   -0.26 KCAL/MOL
REMARK 927      BINDING AFFINITY PREDICTED BY RF-SCORE:    0.00 PKD
ROOT
HETATM    1  C   UNL     1     -11.408  15.446  65.612  1.00  0.00    -0.136 C  
HETATM    2  O   UNL     1     -11.144  14.471  64.607  1.00  0.00    -0.382 OA 
ENDROOT
BRANCH   2   3
HETATM    3  C   UNL     1     -10.541  13.315  65.032  1.00  0.00    -0.346 A  
HETATM    4  C   UNL     1     -10.022  13.099  66.304  1.00  0.00    -0.285 A  
HETATM    5  C   UNL     1      -9.409  11.885  66.616  1.00  0.00    -0.210 A  
HETATM    6  C   UNL     1      -9.318  10.853  65.669  1.00  0.00    -0.236 A  
HETATM    7  C   UNL     1     -10.468  12.291  64.084  1.00  0.00    -0.402 A  
HETATM    8  C   UNL     1      -9.861  11.070  64.397  1.00  0.00    -0.351 A  
BRANCH   6   9
HETATM    9  C   UNL     1      -8.633   9.547  66.035  1.00  0.00    -0.145 C  
HETATM   10  C   UNL     1      -7.626   8.944  64.994  1.00  0.00    -0.100 C  
HETATM   11  C   UNL     1      -6.391   9.858  64.892  1.00  0.00    -0.110 C  
HETATM   12  C   UNL     1      -8.293   8.771  63.615  1.00  0.00    -0.146 C  
HETATM   13  N   UNL     1      -7.207   7.616  65.515  1.00  0.00    -0.067 NA 
HETATM   14  H   UNL     1      -8.027   7.034  65.687  1.00  0.00     0.000 HD 
BRANCH  13  15
HETATM   15  C   UNL     1      -6.232   6.879  64.680  1.00  0.00    -0.036 C  
BRANCH  15  16
HETATM   16  C   UNL     1      -6.713   5.467  64.268  1.00  0.00    -0.046 C  
HETATM   17  H   UNL     1      -7.307   4.573  62.612  1.00  0.00     0.000 HD 
HETATM   18  O   UNL     1      -7.012   5.440  62.865  1.00  0.00    -0.035 OA 
BRANCH  16  19
HETATM   19  C   UNL     1      -7.885   4.989  65.097  1.00  0.00    -0.089 A  
HETATM   20  C   UNL     1      -7.710   4.592  66.434  1.00  0.00    -0.094 A  
HETATM   21  O   UNL     1      -6.432   4.603  66.935  1.00  0.00    -0.039 OA 
HETATM   22  C   UNL     1      -6.373   4.576  68.356  1.00  0.00    -0.036 C  
HETATM   23  C   UNL     1      -7.378   3.684  69.073  1.00  0.00    -0.053 C  
HETATM   24  O   UNL     1      -7.155   3.126  70.144  1.00  0.00    -0.037 OA 
HETATM   25  N   UNL     1      -8.608   3.636  68.474  1.00  0.00    -0.087 N  
HETATM   26  H   UNL     1      -9.394   3.222  68.976  1.00  0.00     0.000 HD 
HETATM   27  C   UNL     1      -8.808   4.143  67.186  1.00  0.00    -0.116 A  
HETATM   28  C   UNL     1     -10.091   4.142  66.642  1.00  0.00    -0.055 A  
HETATM   29  C   UNL     1     -10.268   4.578  65.335  1.00  0.00    -0.202 A  
HETATM   30  O   UNL     1     -11.496   4.613  64.748  1.00  0.00    -0.891 OA 
HETATM   31  C   UNL     1      -9.183   4.990  64.565  1.00  0.00     0.057 A  
HETATM   32  H   UNL     1     -11.618   4.911  63.854  1.00  0.00     0.000 HD 
ENDBRANCH  16  19
ENDBRANCH  15  16
ENDBRANCH  13  15
ENDBRANCH   6   9
ENDBRANCH   2   3
TORSDOF 5
ENDMDL
MODEL      242
REMARK 921   NORMALIZED FREE ENERGY PREDICTED BY IDOCK:   -3.56 KCAL/MOL
REMARK 922        TOTAL FREE ENERGY PREDICTED BY IDOCK:   -4.85 KCAL/MOL
REMARK 923 INTER-LIGAND FREE ENERGY PREDICTED BY IDOCK:   -5.22 KCAL/MOL
REMARK 924 INTRA-LIGAND FREE ENERGY PREDICTED BY IDOCK:    0.37 KCAL/MOL
REMARK 927      BINDING AFFINITY PREDICTED BY RF-SCORE:    0.00 PKD
ROOT
HETATM    1  C   UNL     1      -9.819  19.513  68.389  1.00  0.00    -0.428 C  
HETATM    2  O   UNL     1      -9.308  18.659  67.370  1.00  0.00    -0.279 OA 
ENDROOT
BRANCH   2   3
HETATM    3  C   UNL     1      -9.523  17.315  67.546  1.00  0.00    -0.245 A  
HETATM    4  C   UNL     1      -9.077  16.564  68.628  1.00  0.00    -0.239 A  
HETATM    5  C   UNL     1      -9.337  15.195  68.688  1.00  0.00    -0.199 A  
HETATM    6  C   UNL     1     -10.064  14.549  67.676  1.00  0.00    -0.228 A  
HETATM    7  C   UNL     1     -10.258  16.687  66.538  1.00  0.00    -0.314 A  
HETATM    8  C   UNL     1     -10.527  15.316  66.600  1.00  0.00    -0.290 A  
BRANCH   6   9
HETATM    9  C   UNL     1     -10.320  13.053  67.763  1.00  0.00    -0.227 C  
HETATM   10  C   UNL     1      -9.773  12.159  66.597  1.00  0.00    -0.219 C  
HETATM   11  C   UNL     1      -8.233  12.155  66.638  1.00  0.00    -0.017 C  
HETATM   12  C   UNL     1     -10.282  12.659  65.230  1.00  0.00    -0.302 C  
HETATM   13  N   UNL     1     -10.269  10.779  66.839  1.00  0.00    -0.218 NA 
HETATM   14  H   UNL     1     -11.286  10.783  66.919  1.00  0.00     0.000 HD 
BRANCH  13  15
HETATM   15  C   UNL     1      -9.846   9.763  65.850  1.00  0.00    -0.282 C  
BRANCH  15  16
HETATM   16  C   UNL     1      -8.609   8.945  66.294  1.00  0.00    -0.133 C  
HETATM   17  H   UNL     1      -7.109   8.011  65.415  1.00  0.00     0.000 HD 
HETATM   18  O   UNL     1      -7.868   8.512  65.143  1.00  0.00    -0.103 OA 
BRANCH  16  19
HETATM   19  C   UNL     1      -8.975   7.782  67.190  1.00  0.00    -0.138 A  
HETATM   20  C   UNL     1      -7.992   6.893  67.658  1.00  0.00    -0.113 A  
HETATM   21  O   UNL     1      -6.704   7.090  67.226  1.00  0.00    -0.062 OA 
HETATM   22  C   UNL     1      -5.725   6.428  68.018  1.00  0.00    -0.012 C  
HETATM   23  C   UNL     1      -6.070   5.032  68.519  1.00  0.00    -0.030 C  
HETATM   24  O   UNL     1      -5.238   4.149  68.711  1.00  0.00    -0.010 OA 
HETATM   25  N   UNL     1      -7.389   4.866  68.845  1.00  0.00    -0.057 N  
HETATM   26  H   UNL     1      -7.677   4.034  69.361  1.00  0.00     0.000 HD 
HETATM   27  C   UNL     1      -8.351   5.815  68.482  1.00  0.00    -0.107 A  
HETATM   28  C   UNL     1      -9.670   5.644  68.898  1.00  0.00    -0.181 A  
HETATM   29  C   UNL     1     -10.632   6.550  68.471  1.00  0.00    -0.244 A  
HETATM   30  O   UNL     1     -11.936   6.448  68.850  1.00  0.00    -0.235 OA 
HETATM   31  C   UNL     1     -10.298   7.603  67.623  1.00  0.00    -0.303 A  
HETATM   32  H   UNL     1     -12.595   7.068  68.559  1.00  0.00     0.000 HD 
ENDBRANCH  16  19
ENDBRANCH  15  16
ENDBRANCH  13  15
ENDBRANCH   6   9
ENDBRANCH   2   3
TORSDOF 5
ENDMDL
MODEL      243
REMARK 921   NORMALIZED FREE ENERGY PREDICTED BY IDOCK:   -3.54 KCAL/MOL
REMARK 922        TOTAL FREE ENERGY PREDICTED BY IDOCK:   -4.81 KCAL/MOL
REMARK 923 INTER-LIGAND FREE ENERGY PREDICTED BY IDOCK:   -4.06 KCAL/MOL
REMARK 924 INTRA-LIGAND FREE ENERGY PREDICTED BY IDOCK:   -0.76 KCAL/MOL
REMARK 927      BINDING AFFINITY PREDICTED BY RF-SCORE:    0.00 PKD
ROOT
HETATM    1  C   UNL     1     -14.348   6.970  72.004  1.00  0.00    -0.202 C  
HETATM    2  O   UNL     1     -13.116   6.278  72.188  1.00  0.00    -0.071 OA 
ENDROOT
BRANCH   2   3
HETATM    3  C   UNL     1     -12.065   6.703  71.416  1.00  0.00    -0.347 A  
HETATM    4  C   UNL     1     -12.015   6.652  70.027  1.00  0.00    -0.187 A  
HETATM    5  C   UNL     1     -10.879   7.093  69.348  1.00  0.00    -0.225 A  
HETATM    6  C   UNL     1      -9.775   7.613  70.041  1.00  0.00    -0.172 A  
HETATM    7  C   UNL     1     -10.978   7.229  72.117  1.00  0.00    -0.274 A  
HETATM    8  C   UNL     1      -9.841   7.680  71.438  1.00  0.00    -0.195 A  
BRANCH   6   9
HETATM    9  C   UNL     1      -8.546   8.074  69.274  1.00  0.00    -0.137 C  
HETATM   10  C   UNL     1      -7.947   9.475  69.646  1.00  0.00    -0.120 C  
HETATM   11  C   UNL     1      -7.351   9.413  71.065  1.00  0.00    -0.050 C  
HETATM   12  C   UNL     1      -9.019  10.579  69.552  1.00  0.00    -0.054 C  
HETATM   13  N   UNL     1      -6.858   9.753  68.674  1.00  0.00    -0.052 NA 
HETATM   14  H   UNL     1      -7.218   9.693  67.721  1.00  0.00     0.000 HD 
BRANCH  13  15
HETATM   15  C   UNL     1      -6.142  11.034  68.863  1.00  0.00    -0.041 C  
BRANCH  15  16
HETATM   16  C   UNL     1      -6.102  11.915  67.590  1.00  0.00    -0.084 C  
HETATM   17  H   UNL     1      -5.113  13.506  66.970  1.00  0.00     0.000 HD 
HETATM   18  O   UNL     1      -5.138  12.966  67.751  1.00  0.00    -0.097 OA 
BRANCH  16  19
HETATM   19  C   UNL     1      -7.465  12.459  67.219  1.00  0.00    -0.135 A  
HETATM   20  C   UNL     1      -8.246  11.837  66.231  1.00  0.00     0.070 A  
HETATM   21  O   UNL     1      -7.704  10.755  65.583  1.00  0.00    -0.138 OA 
HETATM   22  C   UNL     1      -8.662   9.954  64.902  1.00  0.00    -0.176 C  
HETATM   23  C   UNL     1      -9.788  10.684  64.182  1.00  0.00    -0.335 C  
HETATM   24  O   UNL     1     -10.334  10.267  63.165  1.00  0.00     0.220 OA 
HETATM   25  N   UNL     1     -10.224  11.810  64.828  1.00  0.00    -0.270 N  
HETATM   26  H   UNL     1     -11.091  12.257  64.526  1.00  0.00     0.000 HD 
HETATM   27  C   UNL     1      -9.504  12.361  65.893  1.00  0.00    -0.129 A  
HETATM   28  C   UNL     1     -10.022  13.463  66.571  1.00  0.00    -0.286 A  
HETATM   29  C   UNL     1      -9.266  14.049  67.578  1.00  0.00    -0.197 A  
HETATM   30  O   UNL     1      -9.718  15.121  68.287  1.00  0.00    -0.211 OA 
HETATM   31  C   UNL     1      -8.001  13.564  67.898  1.00  0.00    -0.162 A  
HETATM   32  H   UNL     1      -9.201  15.522  68.975  1.00  0.00     0.000 HD 
ENDBRANCH  16  19
ENDBRANCH  15  16
ENDBRANCH  13  15
ENDBRANCH   6   9
ENDBRANCH   2   3
TORSDOF 5
ENDMDL
MODEL      244
REMARK 921   NORMALIZED FREE ENERGY PREDICTED BY IDOCK:   -3.51 KCAL/MOL
REMARK 922        TOTAL FREE ENERGY PREDICTED BY IDOCK:   -4.78 KCAL/MOL
REMARK 923 INTER-LIGAND FREE ENERGY PREDICTED BY IDOCK:   -4.85 KCAL/MOL
REMARK 924 INTRA-LIGAND FREE ENERGY PREDICTED BY IDOCK:    0.07 KCAL/MOL
REMARK 927      BINDING AFFINITY PREDICTED BY RF-SCORE:    0.00 PKD
ROOT
HETATM    1  C   UNL     1     -13.135  14.056  65.403  1.00  0.00    -0.176 C  
HETATM    2  O   UNL     1     -12.199  14.391  66.424  1.00  0.00    -0.417 OA 
ENDROOT
BRANCH   2   3
HETATM    3  C   UNL     1     -11.396  13.371  66.865  1.00  0.00    -0.323 A  
HETATM    4  C   UNL     1     -11.733  12.455  67.858  1.00  0.00    -0.421 A  
HETATM    5  C   UNL     1     -10.823  11.470  68.241  1.00  0.00    -0.257 A  
HETATM    6  C   UNL     1      -9.565  11.365  67.630  1.00  0.00    -0.176 A  
HETATM    7  C   UNL     1     -10.151  13.270  66.241  1.00  0.00    -0.294 A  
HETATM    8  C   UNL     1      -9.241  12.278  66.618  1.00  0.00    -0.208 A  
BRANCH   6   9
HETATM    9  C   UNL     1      -8.590  10.289  68.080  1.00  0.00    -0.118 C  
HETATM   10  C   UNL     1      -8.234   9.162  67.048  1.00  0.00    -0.116 C  
HETATM   11  C   UNL     1      -7.422   9.771  65.889  1.00  0.00    -0.103 C  
HETATM   12  C   UNL     1      -9.507   8.472  66.520  1.00  0.00    -0.282 C  
HETATM   13  N   UNL     1      -7.390   8.169  67.764  1.00  0.00    -0.091 NA 
HETATM   14  H   UNL     1      -7.876   7.835  68.596  1.00  0.00     0.000 HD 
BRANCH  13  15
HETATM   15  C   UNL     1      -6.926   7.021  66.955  1.00  0.00    -0.070 C  
BRANCH  15  16
HETATM   16  C   UNL     1      -6.390   5.842  67.803  1.00  0.00    -0.038 C  
HETATM   17  H   UNL     1      -6.476   3.871  67.748  1.00  0.00     0.000 HD 
HETATM   18  O   UNL     1      -6.805   4.595  67.228  1.00  0.00    -0.053 OA 
BRANCH  16  19
HETATM   19  C   UNL     1      -6.791   5.946  69.259  1.00  0.00    -0.062 A  
HETATM   20  C   UNL     1      -8.142   6.043  69.631  1.00  0.00    -0.107 A  
HETATM   21  O   UNL     1      -9.074   6.093  68.623  1.00  0.00    -0.125 OA 
HETATM   22  C   UNL     1     -10.398   5.798  69.050  1.00  0.00    -0.245 C  
HETATM   23  C   UNL     1     -10.828   6.350  70.403  1.00  0.00    -0.286 C  
HETATM   24  O   UNL     1     -11.981   6.669  70.677  1.00  0.00    -0.395 OA 
HETATM   25  N   UNL     1      -9.830   6.363  71.342  1.00  0.00    -0.176 N  
HETATM   26  H   UNL     1     -10.066   6.536  72.320  1.00  0.00     0.000 HD 
HETATM   27  C   UNL     1      -8.495   6.147  70.985  1.00  0.00    -0.128 A  
HETATM   28  C   UNL     1      -7.522   6.095  71.981  1.00  0.00    -0.095 A  
HETATM   29  C   UNL     1      -6.190   5.954  71.613  1.00  0.00    -0.043 A  
HETATM   30  O   UNL     1      -5.191   5.885  72.536  1.00  0.00    -0.020 OA 
HETATM   31  C   UNL     1      -5.821   5.888  70.272  1.00  0.00    -0.024 A  
HETATM   32  H   UNL     1      -4.280   5.789  72.285  1.00  0.00     0.000 HD 
ENDBRANCH  16  19
ENDBRANCH  15  16
ENDBRANCH  13  15
ENDBRANCH   6   9
ENDBRANCH   2   3
TORSDOF 5
ENDMDL
MODEL      245
REMARK 921   NORMALIZED FREE ENERGY PREDICTED BY IDOCK:   -3.51 KCAL/MOL
REMARK 922        TOTAL FREE ENERGY PREDICTED BY IDOCK:   -4.78 KCAL/MOL
REMARK 923 INTER-LIGAND FREE ENERGY PREDICTED BY IDOCK:   -5.29 KCAL/MOL
REMARK 924 INTRA-LIGAND FREE ENERGY PREDICTED BY IDOCK:    0.51 KCAL/MOL
REMARK 927      BINDING AFFINITY PREDICTED BY RF-SCORE:    0.00 PKD
ROOT
HETATM    1  C   UNL     1      -5.792   5.812  68.236  1.00  0.00    -0.016 C  
HETATM    2  O   UNL     1      -6.946   5.709  67.407  1.00  0.00    -0.062 OA 
ENDROOT
BRANCH   2   3
HETATM    3  C   UNL     1      -7.523   6.894  67.027  1.00  0.00    -0.087 A  
HETATM    4  C   UNL     1      -8.867   7.067  66.711  1.00  0.00    -0.130 A  
HETATM    5  C   UNL     1      -9.338   8.319  66.314  1.00  0.00    -0.267 A  
HETATM    6  C   UNL     1      -8.482   9.428  66.242  1.00  0.00    -0.133 A  
HETATM    7  C   UNL     1      -6.663   7.992  66.971  1.00  0.00    -0.065 A  
HETATM    8  C   UNL     1      -7.135   9.250  66.581  1.00  0.00    -0.082 A  
BRANCH   6   9
HETATM    9  C   UNL     1      -9.023  10.776  65.793  1.00  0.00    -0.203 C  
HETATM   10  C   UNL     1      -9.855  11.603  66.835  1.00  0.00    -0.198 C  
HETATM   11  C   UNL     1      -8.927  12.069  67.973  1.00  0.00    -0.187 C  
HETATM   12  C   UNL     1     -11.028  10.772  67.392  1.00  0.00    -0.361 C  
HETATM   13  N   UNL     1     -10.384  12.794  66.121  1.00  0.00    -0.264 NA 
HETATM   14  H   UNL     1     -10.915  12.502  65.301  1.00  0.00     0.000 HD 
BRANCH  13  15
HETATM   15  C   UNL     1     -11.192  13.726  66.939  1.00  0.00    -0.313 C  
BRANCH  15  16
HETATM   16  C   UNL     1     -10.901  15.218  66.647  1.00  0.00    -0.310 C  
HETATM   17  H   UNL     1      -9.524  16.256  65.688  1.00  0.00     0.000 HD 
HETATM   18  O   UNL     1      -9.702  15.341  65.868  1.00  0.00    -0.310 OA 
BRANCH  16  19
HETATM   19  C   UNL     1     -10.836  16.053  67.907  1.00  0.00    -0.333 A  
HETATM   20  C   UNL     1     -11.479  15.636  69.085  1.00  0.00    -0.359 A  
HETATM   21  O   UNL     1     -12.208  14.474  69.030  1.00  0.00    -0.275 OA 
HETATM   22  C   UNL     1     -12.494  13.915  70.306  1.00  0.00    -0.314 C  
HETATM   23  C   UNL     1     -12.844  14.887  71.425  1.00  0.00    -0.341 C  
HETATM   24  O   UNL     1     -13.603  14.619  72.352  1.00  0.00    -0.381 OA 
HETATM   25  N   UNL     1     -12.154  16.069  71.373  1.00  0.00    -0.542 N  
HETATM   26  H   UNL     1     -12.180  16.699  72.175  1.00  0.00     0.000 HD 
HETATM   27  C   UNL     1     -11.414  16.428  70.242  1.00  0.00    -0.114 A  
HETATM   28  C   UNL     1     -10.666  17.604  70.260  1.00  0.00     1.206 A  
HETATM   29  C   UNL     1      -9.995  17.991  69.107  1.00  0.00    -0.192 A  
HETATM   30  O   UNL     1      -9.237  19.122  69.061  1.00  0.00    -0.339 OA 
HETATM   31  C   UNL     1     -10.080  17.235  67.941  1.00  0.00    -0.317 A  
HETATM   32  H   UNL     1      -8.778  19.387  68.273  1.00  0.00     0.000 HD 
ENDBRANCH  16  19
ENDBRANCH  15  16
ENDBRANCH  13  15
ENDBRANCH   6   9
ENDBRANCH   2   3
TORSDOF 5
ENDMDL
MODEL      246
REMARK 921   NORMALIZED FREE ENERGY PREDICTED BY IDOCK:   -3.50 KCAL/MOL
REMARK 922        TOTAL FREE ENERGY PREDICTED BY IDOCK:   -4.77 KCAL/MOL
REMARK 923 INTER-LIGAND FREE ENERGY PREDICTED BY IDOCK:   -4.69 KCAL/MOL
REMARK 924 INTRA-LIGAND FREE ENERGY PREDICTED BY IDOCK:   -0.08 KCAL/MOL
REMARK 927      BINDING AFFINITY PREDICTED BY RF-SCORE:    0.00 PKD
ROOT
HETATM    1  C   UNL     1     -13.140  14.064  65.397  1.00  0.00    -0.176 C  
HETATM    2  O   UNL     1     -12.183  14.364  66.409  1.00  0.00    -0.417 OA 
ENDROOT
BRANCH   2   3
HETATM    3  C   UNL     1     -11.352  13.337  66.777  1.00  0.00    -0.327 A  
HETATM    4  C   UNL     1     -11.660  12.346  67.702  1.00  0.00    -0.421 A  
HETATM    5  C   UNL     1     -10.721  11.361  68.015  1.00  0.00    -0.240 A  
HETATM    6  C   UNL     1      -9.463  11.335  67.395  1.00  0.00    -0.175 A  
HETATM    7  C   UNL     1     -10.106  13.316  66.145  1.00  0.00    -0.293 A  
HETATM    8  C   UNL     1      -9.167  12.325  66.450  1.00  0.00    -0.203 A  
BRANCH   6   9
HETATM    9  C   UNL     1      -8.457  10.256  67.767  1.00  0.00    -0.114 C  
HETATM   10  C   UNL     1      -8.030   9.251  66.642  1.00  0.00    -0.108 C  
HETATM   11  C   UNL     1      -7.213  10.001  65.572  1.00  0.00    -0.133 C  
HETATM   12  C   UNL     1      -9.260   8.569  66.011  1.00  0.00    -0.262 C  
HETATM   13  N   UNL     1      -7.165   8.225  67.282  1.00  0.00    -0.083 NA 
HETATM   14  H   UNL     1      -7.659   7.792  68.063  1.00  0.00     0.000 HD 
BRANCH  13  15
HETATM   15  C   UNL     1      -6.635   7.180  66.379  1.00  0.00    -0.052 C  
BRANCH  15  16
HETATM   16  C   UNL     1      -6.185   5.895  67.116  1.00  0.00    -0.034 C  
HETATM   17  H   UNL     1      -4.902   4.428  66.802  1.00  0.00     0.000 HD 
HETATM   18  O   UNL     1      -5.179   5.216  66.350  1.00  0.00    -0.008 OA 
BRANCH  16  19
HETATM   19  C   UNL     1      -7.344   4.981  67.448  1.00  0.00    -0.082 A  
HETATM   20  C   UNL     1      -8.310   4.659  66.481  1.00  0.00    -0.106 A  
HETATM   21  O   UNL     1      -8.190   5.247  65.246  1.00  0.00    -0.117 OA 
HETATM   22  C   UNL     1      -8.938   4.598  64.225  1.00  0.00    -0.136 C  
HETATM   23  C   UNL     1     -10.321   4.083  64.602  1.00  0.00    -0.205 C  
HETATM   24  O   UNL     1     -11.263   4.014  63.818  1.00  0.00    -0.165 OA 
HETATM   25  N   UNL     1     -10.405   3.596  65.879  1.00  0.00    -0.243 N  
HETATM   26  H   UNL     1     -11.229   3.062  66.158  1.00  0.00     0.000 HD 
HETATM   27  C   UNL     1      -9.384   3.816  66.809  1.00  0.00    -0.190 A  
HETATM   28  C   UNL     1      -9.475   3.239  68.074  1.00  0.00    -0.217 A  
HETATM   29  C   UNL     1      -8.494   3.523  69.015  1.00  0.00    -0.070 A  
HETATM   30  O   UNL     1      -8.518   2.984  70.266  1.00  0.00    -0.053 OA 
HETATM   31  C   UNL     1      -7.444   4.388  68.716  1.00  0.00    -0.060 A  
HETATM   32  H   UNL     1      -7.847   3.178  70.910  1.00  0.00     0.000 HD 
ENDBRANCH  16  19
ENDBRANCH  15  16
ENDBRANCH  13  15
ENDBRANCH   6   9
ENDBRANCH   2   3
TORSDOF 5
ENDMDL
MODEL      247
REMARK 921   NORMALIZED FREE ENERGY PREDICTED BY IDOCK:   -3.50 KCAL/MOL
REMARK 922        TOTAL FREE ENERGY PREDICTED BY IDOCK:   -4.76 KCAL/MOL
REMARK 923 INTER-LIGAND FREE ENERGY PREDICTED BY IDOCK:   -4.40 KCAL/MOL
REMARK 924 INTRA-LIGAND FREE ENERGY PREDICTED BY IDOCK:   -0.37 KCAL/MOL
REMARK 927      BINDING AFFINITY PREDICTED BY RF-SCORE:    0.00 PKD
ROOT
HETATM    1  C   UNL     1     -10.268   4.125  62.330  1.00  0.00    -0.152 C  
HETATM    2  O   UNL     1      -9.054   4.348  63.042  1.00  0.00    -0.127 OA 
ENDROOT
BRANCH   2   3
HETATM    3  C   UNL     1      -9.090   4.099  64.390  1.00  0.00    -0.147 A  
HETATM    4  C   UNL     1      -9.379   5.039  65.374  1.00  0.00    -0.123 A  
HETATM    5  C   UNL     1      -9.364   4.673  66.721  1.00  0.00    -0.153 A  
HETATM    6  C   UNL     1      -9.079   3.356  67.112  1.00  0.00    -0.196 A  
HETATM    7  C   UNL     1      -8.816   2.782  64.766  1.00  0.00    -0.117 A  
HETATM    8  C   UNL     1      -8.809   2.411  66.115  1.00  0.00    -0.128 A  
BRANCH   6   9
HETATM    9  C   UNL     1      -9.057   2.991  68.588  1.00  0.00    -0.212 C  
HETATM   10  C   UNL     1      -7.854   3.519  69.444  1.00  0.00    -0.050 C  
HETATM   11  C   UNL     1      -7.948   5.053  69.563  1.00  0.00    -0.075 C  
HETATM   12  C   UNL     1      -6.506   3.102  68.822  1.00  0.00    -0.030 C  
HETATM   13  N   UNL     1      -7.986   2.918  70.797  1.00  0.00    -0.046 NA 
HETATM   14  H   UNL     1      -8.031   1.902  70.723  1.00  0.00     0.000 HD 
BRANCH  13  15
HETATM   15  C   UNL     1      -6.947   3.307  71.776  1.00  0.00    -0.031 C  
BRANCH  15  16
HETATM   16  C   UNL     1      -7.423   4.373  72.792  1.00  0.00    -0.080 C  
HETATM   17  H   UNL     1      -7.009   4.871  74.657  1.00  0.00     0.000 HD 
HETATM   18  O   UNL     1      -6.718   4.217  74.033  1.00  0.00    -0.054 OA 
BRANCH  16  19
HETATM   19  C   UNL     1      -8.922   4.351  72.997  1.00  0.00    -0.123 A  
HETATM   20  C   UNL     1      -9.711   5.471  72.684  1.00  0.00    -0.150 A  
HETATM   21  O   UNL     1      -9.062   6.597  72.240  1.00  0.00    -0.138 OA 
HETATM   22  C   UNL     1      -9.914   7.529  71.584  1.00  0.00    -0.175 C  
HETATM   23  C   UNL     1     -11.303   7.731  72.175  1.00  0.00    -0.302 C  
HETATM   24  O   UNL     1     -11.922   8.790  72.119  1.00  0.00    -0.350 OA 
HETATM   25  N   UNL     1     -11.861   6.591  72.689  1.00  0.00    -0.504 N  
HETATM   26  H   UNL     1     -12.852   6.585  72.932  1.00  0.00     0.000 HD 
HETATM   27  C   UNL     1     -11.099   5.436  72.888  1.00  0.00    -0.305 A  
HETATM   28  C   UNL     1     -11.723   4.275  73.343  1.00  0.00    -0.103 A  
HETATM   29  C   UNL     1     -10.947   3.155  73.609  1.00  0.00    -0.233 A  
HETATM   30  O   UNL     1     -11.494   1.986  74.044  1.00  0.00    -0.154 OA 
HETATM   31  C   UNL     1      -9.564   3.187  73.447  1.00  0.00    -0.140 A  
HETATM   32  H   UNL     1     -10.964   1.220  74.226  1.00  0.00     0.000 HD 
ENDBRANCH  16  19
ENDBRANCH  15  16
ENDBRANCH  13  15
ENDBRANCH   6   9
ENDBRANCH   2   3
TORSDOF 5
ENDMDL
MODEL      248
REMARK 921   NORMALIZED FREE ENERGY PREDICTED BY IDOCK:   -3.47 KCAL/MOL
REMARK 922        TOTAL FREE ENERGY PREDICTED BY IDOCK:   -4.73 KCAL/MOL
REMARK 923 INTER-LIGAND FREE ENERGY PREDICTED BY IDOCK:   -4.85 KCAL/MOL
REMARK 924 INTRA-LIGAND FREE ENERGY PREDICTED BY IDOCK:    0.12 KCAL/MOL
REMARK 927      BINDING AFFINITY PREDICTED BY RF-SCORE:    0.00 PKD
ROOT
HETATM    1  C   UNL     1      -7.217  20.919  66.958  1.00  0.00    -0.288 C  
HETATM    2  O   UNL     1      -7.027  19.893  67.928  1.00  0.00    -0.255 OA 
ENDROOT
BRANCH   2   3
HETATM    3  C   UNL     1      -7.614  18.685  67.651  1.00  0.00    -0.230 A  
HETATM    4  C   UNL     1      -8.581  18.063  68.435  1.00  0.00    -0.298 A  
HETATM    5  C   UNL     1      -9.092  16.818  68.063  1.00  0.00    -0.228 A  
HETATM    6  C   UNL     1      -8.661  16.177  66.892  1.00  0.00    -0.253 A  
HETATM    7  C   UNL     1      -7.186  18.062  66.477  1.00  0.00    -0.270 A  
HETATM    8  C   UNL     1      -7.703  16.818  66.098  1.00  0.00    -0.208 A  
BRANCH   6   9
HETATM    9  C   UNL     1      -9.227  14.815  66.522  1.00  0.00    -0.304 C  
HETATM   10  C   UNL     1      -9.069  13.659  67.569  1.00  0.00    -0.213 C  
HETATM   11  C   UNL     1      -9.939  13.967  68.803  1.00  0.00    -0.164 C  
HETATM   12  C   UNL     1      -7.592  13.476  67.974  1.00  0.00    -0.143 C  
HETATM   13  N   UNL     1      -9.566  12.416  66.923  1.00  0.00    -0.213 NA 
HETATM   14  H   UNL     1      -9.068  12.256  66.047  1.00  0.00     0.000 HD 
BRANCH  13  15
HETATM   15  C   UNL     1      -9.520  11.197  67.759  1.00  0.00    -0.168 C  
BRANCH  15  16
HETATM   16  C   UNL     1      -8.748  10.026  67.105  1.00  0.00    -0.128 C  
HETATM   17  H   UNL     1      -9.082   8.694  65.687  1.00  0.00     0.000 HD 
HETATM   18  O   UNL     1      -9.555   9.412  66.089  1.00  0.00    -0.204 OA 
BRANCH  16  19
HETATM   19  C   UNL     1      -8.262   9.012  68.118  1.00  0.00    -0.113 A  
HETATM   20  C   UNL     1      -9.161   8.380  68.994  1.00  0.00    -0.147 A  
HETATM   21  O   UNL     1     -10.479   8.756  68.930  1.00  0.00    -0.215 OA 
HETATM   22  C   UNL     1     -11.372   7.831  69.538  1.00  0.00     0.230 C  
HETATM   23  C   UNL     1     -10.913   7.179  70.835  1.00  0.00    -0.251 C  
HETATM   24  O   UNL     1     -11.675   6.828  71.732  1.00  0.00    -0.280 OA 
HETATM   25  N   UNL     1      -9.570   6.913  70.881  1.00  0.00    -0.164 N  
HETATM   26  H   UNL     1      -9.204   6.313  71.621  1.00  0.00     0.000 HD 
HETATM   27  C   UNL     1      -8.691   7.448  69.934  1.00  0.00    -0.141 A  
HETATM   28  C   UNL     1      -7.344   7.092  69.973  1.00  0.00    -0.080 A  
HETATM   29  C   UNL     1      -6.466   7.686  69.076  1.00  0.00    -0.040 A  
HETATM   30  O   UNL     1      -5.140   7.374  69.053  1.00  0.00    -0.014 OA 
HETATM   31  C   UNL     1      -6.910   8.639  68.163  1.00  0.00    -0.069 A  
HETATM   32  H   UNL     1      -4.539   7.780  68.440  1.00  0.00     0.000 HD 
ENDBRANCH  16  19
ENDBRANCH  15  16
ENDBRANCH  13  15
ENDBRANCH   6   9
ENDBRANCH   2   3
TORSDOF 5
ENDMDL
MODEL      249
REMARK 921   NORMALIZED FREE ENERGY PREDICTED BY IDOCK:   -3.39 KCAL/MOL
REMARK 922        TOTAL FREE ENERGY PREDICTED BY IDOCK:   -4.63 KCAL/MOL
REMARK 923 INTER-LIGAND FREE ENERGY PREDICTED BY IDOCK:   -4.91 KCAL/MOL
REMARK 924 INTRA-LIGAND FREE ENERGY PREDICTED BY IDOCK:    0.28 KCAL/MOL
REMARK 927      BINDING AFFINITY PREDICTED BY RF-SCORE:    0.00 PKD
ROOT
HETATM    1  C   UNL     1      -8.293  18.594  68.496  1.00  0.00    -0.340 C  
HETATM    2  O   UNL     1      -7.507  17.553  69.069  1.00  0.00    -0.249 OA 
ENDROOT
BRANCH   2   3
HETATM    3  C   UNL     1      -7.840  16.274  68.703  1.00  0.00    -0.202 A  
HETATM    4  C   UNL     1      -8.994  15.601  69.093  1.00  0.00    -0.257 A  
HETATM    5  C   UNL     1      -9.216  14.288  68.676  1.00  0.00    -0.167 A  
HETATM    6  C   UNL     1      -8.301  13.626  67.844  1.00  0.00    -0.174 A  
HETATM    7  C   UNL     1      -6.926  15.629  67.866  1.00  0.00    -0.155 A  
HETATM    8  C   UNL     1      -7.152  14.316  67.440  1.00  0.00    -0.109 A  
BRANCH   6   9
HETATM    9  C   UNL     1      -8.565  12.191  67.417  1.00  0.00    -0.175 C  
HETATM   10  C   UNL     1      -7.462  11.125  67.747  1.00  0.00    -0.095 C  
HETATM   11  C   UNL     1      -7.388  10.926  69.272  1.00  0.00    -0.125 C  
HETATM   12  C   UNL     1      -6.092  11.553  67.184  1.00  0.00    -0.115 C  
HETATM   13  N   UNL     1      -7.886   9.851  67.110  1.00  0.00    -0.099 NA 
HETATM   14  H   UNL     1      -8.042   9.995  66.112  1.00  0.00     0.000 HD 
BRANCH  13  15
HETATM   15  C   UNL     1      -6.982   8.699  67.318  1.00  0.00    -0.075 C  
BRANCH  15  16
HETATM   16  C   UNL     1      -7.329   7.858  68.571  1.00  0.00    -0.097 C  
HETATM   17  H   UNL     1      -6.563   6.308  69.523  1.00  0.00     0.000 HD 
HETATM   18  O   UNL     1      -6.350   6.824  68.754  1.00  0.00    -0.029 OA 
BRANCH  16  19
HETATM   19  C   UNL     1      -8.732   7.294  68.520  1.00  0.00    -0.123 A  
HETATM   20  C   UNL     1      -9.085   6.317  67.573  1.00  0.00    -0.110 A  
HETATM   21  O   UNL     1      -8.125   5.937  66.669  1.00  0.00    -0.101 OA 
HETATM   22  C   UNL     1      -8.405   4.704  66.017  1.00  0.00    -0.114 C  
HETATM   23  C   UNL     1      -9.853   4.444  65.623  1.00  0.00    -0.221 C  
HETATM   24  O   UNL     1     -10.188   3.779  64.647  1.00  0.00    -0.202 OA 
HETATM   25  N   UNL     1     -10.770   4.930  66.517  1.00  0.00    -0.392 N  
HETATM   26  H   UNL     1     -11.746   4.644  66.438  1.00  0.00     0.000 HD 
HETATM   27  C   UNL     1     -10.394   5.812  67.536  1.00  0.00    -0.220 A  
HETATM   28  C   UNL     1     -11.344   6.223  68.469  1.00  0.00    -0.149 A  
HETATM   29  C   UNL     1     -10.980   7.156  69.431  1.00  0.00    -0.164 A  
HETATM   30  O   UNL     1     -11.856   7.591  70.379  1.00  0.00    -0.481 OA 
HETATM   31  C   UNL     1      -9.696   7.694  69.458  1.00  0.00    -0.168 A  
HETATM   32  H   UNL     1     -11.608   8.229  71.037  1.00  0.00     0.000 HD 
ENDBRANCH  16  19
ENDBRANCH  15  16
ENDBRANCH  13  15
ENDBRANCH   6   9
ENDBRANCH   2   3
TORSDOF 5
ENDMDL
MODEL      250
REMARK 921   NORMALIZED FREE ENERGY PREDICTED BY IDOCK:   -3.39 KCAL/MOL
REMARK 922        TOTAL FREE ENERGY PREDICTED BY IDOCK:   -4.62 KCAL/MOL
REMARK 923 INTER-LIGAND FREE ENERGY PREDICTED BY IDOCK:   -5.62 KCAL/MOL
REMARK 924 INTRA-LIGAND FREE ENERGY PREDICTED BY IDOCK:    1.00 KCAL/MOL
REMARK 927      BINDING AFFINITY PREDICTED BY RF-SCORE:    0.00 PKD
ROOT
HETATM    1  C   UNL     1      -8.646   4.560  74.168  1.00  0.00    -0.104 C  
HETATM    2  O   UNL     1      -7.983   4.649  72.910  1.00  0.00    -0.094 OA 
ENDROOT
BRANCH   2   3
HETATM    3  C   UNL     1      -7.793   5.915  72.417  1.00  0.00    -0.102 A  
HETATM    4  C   UNL     1      -8.696   6.966  72.533  1.00  0.00    -0.135 A  
HETATM    5  C   UNL     1      -8.404   8.209  71.969  1.00  0.00    -0.199 A  
HETATM    6  C   UNL     1      -7.195   8.432  71.292  1.00  0.00    -0.073 A  
HETATM    7  C   UNL     1      -6.581   6.128  71.756  1.00  0.00    -0.055 A  
HETATM    8  C   UNL     1      -6.283   7.375  71.197  1.00  0.00    -0.036 A  
BRANCH   6   9
HETATM    9  C   UNL     1      -6.911   9.793  70.677  1.00  0.00    -0.102 C  
HETATM   10  C   UNL     1      -7.343  10.015  69.185  1.00  0.00    -0.087 C  
HETATM   11  C   UNL     1      -8.881  10.011  69.095  1.00  0.00    -0.171 C  
HETATM   12  C   UNL     1      -6.740   8.933  68.267  1.00  0.00    -0.065 C  
HETATM   13  N   UNL     1      -6.835  11.352  68.780  1.00  0.00    -0.074 NA 
HETATM   14  H   UNL     1      -5.828  11.403  68.935  1.00  0.00     0.000 HD 
BRANCH  13  15
HETATM   15  C   UNL     1      -7.155  11.766  67.396  1.00  0.00    -0.126 C  
BRANCH  15  16
HETATM   16  C   UNL     1      -8.629  12.196  67.204  1.00  0.00    -0.185 C  
HETATM   17  H   UNL     1     -10.040  11.937  65.848  1.00  0.00     0.000 HD 
HETATM   18  O   UNL     1      -9.135  11.674  65.966  1.00  0.00    -0.214 OA 
BRANCH  16  19
HETATM   19  C   UNL     1      -8.812  13.696  67.292  1.00  0.00    -0.227 A  
HETATM   20  C   UNL     1      -9.670  14.372  66.409  1.00  0.00    -0.302 A  
HETATM   21  O   UNL     1     -10.290  13.629  65.435  1.00  0.00    -0.308 OA 
HETATM   22  C   UNL     1     -11.412  14.274  64.846  1.00  0.00    -0.378 C  
HETATM   23  C   UNL     1     -11.292  15.771  64.588  1.00  0.00    -0.337 C  
HETATM   24  O   UNL     1     -11.854  16.353  63.664  1.00  0.00    -0.871 OA 
HETATM   25  N   UNL     1     -10.582  16.446  65.544  1.00  0.00    -0.371 N  
HETATM   26  H   UNL     1     -10.607  17.466  65.559  1.00  0.00     0.000 HD 
HETATM   27  C   UNL     1      -9.821  15.765  66.500  1.00  0.00    -0.269 A  
HETATM   28  C   UNL     1      -9.174  16.488  67.500  1.00  0.00    -0.203 A  
HETATM   29  C   UNL     1      -8.361  15.811  68.400  1.00  0.00    -0.164 A  
HETATM   30  O   UNL     1      -7.709  16.455  69.408  1.00  0.00    -0.221 OA 
HETATM   31  C   UNL     1      -8.172  14.435  68.299  1.00  0.00    -0.149 A  
HETATM   32  H   UNL     1      -7.153  15.992  70.023  1.00  0.00     0.000 HD 
ENDBRANCH  16  19
ENDBRANCH  15  16
ENDBRANCH  13  15
ENDBRANCH   6   9
ENDBRANCH   2   3
TORSDOF 5
ENDMDL
MODEL      251
REMARK 921   NORMALIZED FREE ENERGY PREDICTED BY IDOCK:   -3.34 KCAL/MOL
REMARK 922        TOTAL FREE ENERGY PREDICTED BY IDOCK:   -4.56 KCAL/MOL
REMARK 923 INTER-LIGAND FREE ENERGY PREDICTED BY IDOCK:   -5.29 KCAL/MOL
REMARK 924 INTRA-LIGAND FREE ENERGY PREDICTED BY IDOCK:    0.72 KCAL/MOL
REMARK 927      BINDING AFFINITY PREDICTED BY RF-SCORE:    0.00 PKD
ROOT
HETATM    1  C   UNL     1      -9.630  17.993  66.383  1.00  0.00    -0.295 C  
HETATM    2  O   UNL     1     -10.783  17.292  65.925  1.00  0.00    -0.273 OA 
ENDROOT
BRANCH   2   3
HETATM    3  C   UNL     1     -10.688  15.924  65.903  1.00  0.00    -0.296 A  
HETATM    4  C   UNL     1     -11.750  15.048  65.703  1.00  0.00    -0.123 A  
HETATM    5  C   UNL     1     -11.536  13.669  65.723  1.00  0.00    -0.349 A  
HETATM    6  C   UNL     1     -10.254  13.136  65.925  1.00  0.00    -0.294 A  
HETATM    7  C   UNL     1      -9.405  15.406  66.093  1.00  0.00    -0.367 A  
HETATM    8  C   UNL     1      -9.187  14.024  66.106  1.00  0.00    -0.062 A  
BRANCH   6   9
HETATM    9  C   UNL     1     -10.056  11.629  65.955  1.00  0.00    -0.259 C  
HETATM   10  C   UNL     1      -9.900  10.950  67.360  1.00  0.00    -0.173 C  
HETATM   11  C   UNL     1     -11.235  11.045  68.123  1.00  0.00    -0.364 C  
HETATM   12  C   UNL     1      -8.761  11.604  68.169  1.00  0.00    -0.159 C  
HETATM   13  N   UNL     1      -9.579   9.519  67.118  1.00  0.00    -0.154 NA 
HETATM   14  H   UNL     1      -8.754   9.443  66.523  1.00  0.00     0.000 HD 
BRANCH  13  15
HETATM   15  C   UNL     1      -9.408   8.686  68.329  1.00  0.00    -0.137 C  
BRANCH  15  16
HETATM   16  C   UNL     1      -7.981   8.105  68.484  1.00  0.00    -0.126 C  
HETATM   17  H   UNL     1      -6.501   7.582  67.288  1.00  0.00     0.000 HD 
HETATM   18  O   UNL     1      -7.377   7.938  67.193  1.00  0.00    -0.087 OA 
BRANCH  16  19
HETATM   19  C   UNL     1      -7.963   6.818  69.279  1.00  0.00    -0.115 A  
HETATM   20  C   UNL     1      -9.053   6.452  70.087  1.00  0.00    -0.154 A  
HETATM   21  O   UNL     1     -10.105   7.331  70.166  1.00  0.00    -0.187 OA 
HETATM   22  C   UNL     1     -11.304   6.748  70.661  1.00  0.00    -0.334 C  
HETATM   23  C   UNL     1     -11.168   5.744  71.798  1.00  0.00    -0.211 C  
HETATM   24  O   UNL     1     -12.019   5.574  72.666  1.00  0.00    -0.245 OA 
HETATM   25  N   UNL     1     -10.049   4.959  71.717  1.00  0.00    -0.196 N  
HETATM   26  H   UNL     1      -9.967   4.140  72.321  1.00  0.00     0.000 HD 
HETATM   27  C   UNL     1      -9.015   5.258  70.824  1.00  0.00    -0.136 A  
HETATM   28  C   UNL     1      -7.928   4.391  70.721  1.00  0.00    -0.064 A  
HETATM   29  C   UNL     1      -6.872   4.734  69.887  1.00  0.00    -0.048 A  
HETATM   30  O   UNL     1      -5.786   3.927  69.732  1.00  0.00    -0.016 OA 
HETATM   31  C   UNL     1      -6.879   5.933  69.179  1.00  0.00    -0.062 A  
HETATM   32  H   UNL     1      -5.063   4.161  69.162  1.00  0.00     0.000 HD 
ENDBRANCH  16  19
ENDBRANCH  15  16
ENDBRANCH  13  15
ENDBRANCH   6   9
ENDBRANCH   2   3
TORSDOF 5
ENDMDL
MODEL      252
REMARK 921   NORMALIZED FREE ENERGY PREDICTED BY IDOCK:   -3.31 KCAL/MOL
REMARK 922        TOTAL FREE ENERGY PREDICTED BY IDOCK:   -4.52 KCAL/MOL
REMARK 923 INTER-LIGAND FREE ENERGY PREDICTED BY IDOCK:   -4.24 KCAL/MOL
REMARK 924 INTRA-LIGAND FREE ENERGY PREDICTED BY IDOCK:   -0.29 KCAL/MOL
REMARK 927      BINDING AFFINITY PREDICTED BY RF-SCORE:    0.00 PKD
ROOT
HETATM    1  C   UNL     1      -5.185  14.353  73.127  1.00  0.00    -0.272 C  
HETATM    2  O   UNL     1      -5.135  14.862  71.797  1.00  0.00    -0.161 OA 
ENDROOT
BRANCH   2   3
HETATM    3  C   UNL     1      -5.731  14.091  70.832  1.00  0.00    -0.207 A  
HETATM    4  C   UNL     1      -6.530  14.570  69.799  1.00  0.00    -0.154 A  
HETATM    5  C   UNL     1      -7.104  13.685  68.886  1.00  0.00    -0.102 A  
HETATM    6  C   UNL     1      -6.877  12.303  68.975  1.00  0.00    -0.094 A  
HETATM    7  C   UNL     1      -5.488  12.718  70.924  1.00  0.00    -0.173 A  
HETATM    8  C   UNL     1      -6.056  11.830  70.005  1.00  0.00    -0.158 A  
BRANCH   6   9
HETATM    9  C   UNL     1      -7.527  11.362  67.972  1.00  0.00    -0.100 C  
HETATM   10  C   UNL     1      -6.578  10.465  67.104  1.00  0.00    -0.073 C  
HETATM   11  C   UNL     1      -5.885   9.430  68.011  1.00  0.00    -0.041 C  
HETATM   12  C   UNL     1      -5.535  11.322  66.358  1.00  0.00    -0.139 C  
HETATM   13  N   UNL     1      -7.434   9.753  66.119  1.00  0.00    -0.099 NA 
HETATM   14  H   UNL     1      -7.979  10.427  65.581  1.00  0.00     0.000 HD 
BRANCH  13  15
HETATM   15  C   UNL     1      -6.726   8.830  65.204  1.00  0.00    -0.064 C  
BRANCH  15  16
HETATM   16  C   UNL     1      -7.658   8.141  64.179  1.00  0.00    -0.128 C  
HETATM   17  H   UNL     1      -9.345   8.570  63.249  1.00  0.00     0.000 HD 
HETATM   18  O   UNL     1      -8.773   8.993  63.878  1.00  0.00    -0.179 OA 
BRANCH  16  19
HETATM   19  C   UNL     1      -8.110   6.771  64.636  1.00  0.00    -0.086 A  
HETATM   20  C   UNL     1      -9.008   6.627  65.708  1.00  0.00    -0.026 A  
HETATM   21  O   UNL     1      -9.412   7.769  66.353  1.00  0.00    -0.199 OA 
HETATM   22  C   UNL     1     -10.585   7.600  67.140  1.00  0.00    -0.340 C  
HETATM   23  C   UNL     1     -10.714   6.297  67.917  1.00  0.00    -0.305 C  
HETATM   24  O   UNL     1     -11.300   6.197  68.991  1.00  0.00    -0.390 OA 
HETATM   25  N   UNL     1     -10.207   5.205  67.264  1.00  0.00    -0.198 N  
HETATM   26  H   UNL     1     -10.414   4.271  67.617  1.00  0.00     0.000 HD 
HETATM   27  C   UNL     1      -9.410   5.348  66.124  1.00  0.00    -0.157 A  
HETATM   28  C   UNL     1      -8.977   4.209  65.446  1.00  0.00    -0.132 A  
HETATM   29  C   UNL     1      -8.125   4.357  64.359  1.00  0.00    -0.097 A  
HETATM   30  O   UNL     1      -7.675   3.287  63.647  1.00  0.00    -0.069 OA 
HETATM   31  C   UNL     1      -7.688   5.617  63.959  1.00  0.00    -0.095 A  
HETATM   32  H   UNL     1      -7.092   3.388  62.904  1.00  0.00     0.000 HD 
ENDBRANCH  16  19
ENDBRANCH  15  16
ENDBRANCH  13  15
ENDBRANCH   6   9
ENDBRANCH   2   3
TORSDOF 5
ENDMDL
MODEL      253
REMARK 921   NORMALIZED FREE ENERGY PREDICTED BY IDOCK:   -3.31 KCAL/MOL
REMARK 922        TOTAL FREE ENERGY PREDICTED BY IDOCK:   -4.52 KCAL/MOL
REMARK 923 INTER-LIGAND FREE ENERGY PREDICTED BY IDOCK:   -5.01 KCAL/MOL
REMARK 924 INTRA-LIGAND FREE ENERGY PREDICTED BY IDOCK:    0.49 KCAL/MOL
REMARK 927      BINDING AFFINITY PREDICTED BY RF-SCORE:    0.00 PKD
ROOT
HETATM    1  C   UNL     1      -7.835   3.599  68.120  1.00  0.00    -0.068 C  
HETATM    2  O   UNL     1      -9.170   4.095  68.068  1.00  0.00    -0.127 OA 
ENDROOT
BRANCH   2   3
HETATM    3  C   UNL     1      -9.304   5.452  67.918  1.00  0.00    -0.113 A  
HETATM    4  C   UNL     1      -8.382   6.287  67.296  1.00  0.00    -0.109 A  
HETATM    5  C   UNL     1      -8.617   7.660  67.222  1.00  0.00    -0.121 A  
HETATM    6  C   UNL     1      -9.786   8.227  67.752  1.00  0.00    -0.194 A  
HETATM    7  C   UNL     1     -10.477   6.002  68.439  1.00  0.00    -0.290 A  
HETATM    8  C   UNL     1     -10.718   7.377  68.359  1.00  0.00    -0.142 A  
BRANCH   6   9
HETATM    9  C   UNL     1     -10.006   9.729  67.668  1.00  0.00    -0.217 C  
HETATM   10  C   UNL     1      -8.804  10.608  67.174  1.00  0.00    -0.137 C  
HETATM   11  C   UNL     1      -8.532  10.308  65.688  1.00  0.00    -0.165 C  
HETATM   12  C   UNL     1      -7.543  10.350  68.023  1.00  0.00    -0.091 C  
HETATM   13  N   UNL     1      -9.219  12.028  67.315  1.00  0.00    -0.177 NA 
HETATM   14  H   UNL     1      -9.504  12.214  68.277  1.00  0.00     0.000 HD 
BRANCH  13  15
HETATM   15  C   UNL     1      -8.222  13.032  66.881  1.00  0.00     0.021 C  
BRANCH  15  16
HETATM   16  C   UNL     1      -8.488  14.450  67.443  1.00  0.00    -0.203 C  
HETATM   17  H   UNL     1      -8.933  15.247  69.193  1.00  0.00     0.000 HD 
HETATM   18  O   UNL     1      -8.770  14.377  68.848  1.00  0.00    -0.154 OA 
BRANCH  16  19
HETATM   19  C   UNL     1      -9.582  15.176  66.691  1.00  0.00    -0.272 A  
HETATM   20  C   UNL     1      -9.601  16.579  66.619  1.00  0.00    -0.258 A  
HETATM   21  O   UNL     1      -8.624  17.261  67.299  1.00  0.00    -0.198 OA 
HETATM   22  C   UNL     1      -8.464  18.610  66.878  1.00  0.00    -0.273 C  
HETATM   23  C   UNL     1      -9.733  19.386  66.548  1.00  0.00    -0.375 C  
HETATM   24  O   UNL     1      -9.853  20.598  66.704  1.00  0.00    -0.349 OA 
HETATM   25  N   UNL     1     -10.710  18.631  65.957  1.00  0.00    -0.345 N  
HETATM   26  H   UNL     1     -11.513  19.096  65.533  1.00  0.00     0.000 HD 
HETATM   27  C   UNL     1     -10.629  17.235  65.924  1.00  0.00    -0.204 A  
HETATM   28  C   UNL     1     -11.608  16.510  65.246  1.00  0.00     0.629 A  
HETATM   29  C   UNL     1     -11.561  15.122  65.282  1.00  0.00    -0.206 A  
HETATM   30  O   UNL     1     -12.479  14.354  64.632  1.00  0.00    -0.566 OA 
HETATM   31  C   UNL     1     -10.569  14.457  65.998  1.00  0.00    -0.304 A  
HETATM   32  H   UNL     1     -12.447  13.405  64.656  1.00  0.00     0.000 HD 
ENDBRANCH  16  19
ENDBRANCH  15  16
ENDBRANCH  13  15
ENDBRANCH   6   9
ENDBRANCH   2   3
TORSDOF 5
ENDMDL
MODEL      254
REMARK 921   NORMALIZED FREE ENERGY PREDICTED BY IDOCK:   -3.28 KCAL/MOL
REMARK 922        TOTAL FREE ENERGY PREDICTED BY IDOCK:   -4.48 KCAL/MOL
REMARK 923 INTER-LIGAND FREE ENERGY PREDICTED BY IDOCK:   -3.96 KCAL/MOL
REMARK 924 INTRA-LIGAND FREE ENERGY PREDICTED BY IDOCK:   -0.52 KCAL/MOL
REMARK 927      BINDING AFFINITY PREDICTED BY RF-SCORE:    0.00 PKD
ROOT
HETATM    1  C   UNL     1     -13.583  12.469  72.021  1.00  0.00    -0.291 C  
HETATM    2  O   UNL     1     -13.225  11.116  72.285  1.00  0.00    -0.413 OA 
ENDROOT
BRANCH   2   3
HETATM    3  C   UNL     1     -12.560  10.461  71.280  1.00  0.00    -0.419 A  
HETATM    4  C   UNL     1     -12.229   9.110  71.283  1.00  0.00    -0.395 A  
HETATM    5  C   UNL     1     -11.529   8.556  70.210  1.00  0.00    -0.064 A  
HETATM    6  C   UNL     1     -11.160   9.336  69.104  1.00  0.00    -0.002 A  
HETATM    7  C   UNL     1     -12.209  11.245  70.180  1.00  0.00    -0.410 A  
HETATM    8  C   UNL     1     -11.514  10.691  69.100  1.00  0.00    -0.349 A  
BRANCH   6   9
HETATM    9  C   UNL     1     -10.386   8.707  67.957  1.00  0.00    -0.277 C  
HETATM   10  C   UNL     1      -8.829   8.598  68.111  1.00  0.00    -0.142 C  
HETATM   11  C   UNL     1      -8.497   7.587  69.226  1.00  0.00    -0.136 C  
HETATM   12  C   UNL     1      -8.205   9.974  68.419  1.00  0.00    -0.106 C  
HETATM   13  N   UNL     1      -8.299   8.088  66.820  1.00  0.00    -0.114 NA 
HETATM   14  H   UNL     1      -8.601   8.694  66.056  1.00  0.00     0.000 HD 
BRANCH  13  15
HETATM   15  C   UNL     1      -6.833   7.894  66.760  1.00  0.00    -0.072 C  
BRANCH  15  16
HETATM   16  C   UNL     1      -6.373   7.016  65.572  1.00  0.00    -0.043 C  
HETATM   17  H   UNL     1      -6.399   7.128  63.602  1.00  0.00     0.000 HD 
HETATM   18  O   UNL     1      -6.682   7.667  64.331  1.00  0.00    -0.047 OA 
BRANCH  16  19
HETATM   19  C   UNL     1      -6.951   5.618  65.627  1.00  0.00    -0.065 A  
HETATM   20  C   UNL     1      -6.668   4.761  66.704  1.00  0.00    -0.051 A  
HETATM   21  O   UNL     1      -5.809   5.222  67.670  1.00  0.00    -0.016 OA 
HETATM   22  C   UNL     1      -5.873   4.494  68.891  1.00  0.00    -0.021 C  
HETATM   23  C   UNL     1      -6.035   2.983  68.787  1.00  0.00    -0.024 C  
HETATM   24  O   UNL     1      -5.583   2.189  69.607  1.00  0.00    -0.016 OA 
HETATM   25  N   UNL     1      -6.826   2.577  67.746  1.00  0.00    -0.040 N  
HETATM   26  H   UNL     1      -7.144   1.608  67.706  1.00  0.00     0.000 HD 
HETATM   27  C   UNL     1      -7.207   3.465  66.734  1.00  0.00    -0.066 A  
HETATM   28  C   UNL     1      -8.074   3.030  65.733  1.00  0.00    -0.086 A  
HETATM   29  C   UNL     1      -8.387   3.895  64.693  1.00  0.00    -0.097 A  
HETATM   30  O   UNL     1      -9.236   3.537  63.690  1.00  0.00    -0.100 OA 
HETATM   31  C   UNL     1      -7.831   5.170  64.630  1.00  0.00    -0.095 A  
HETATM   32  H   UNL     1      -9.450   4.128  62.978  1.00  0.00     0.000 HD 
ENDBRANCH  16  19
ENDBRANCH  15  16
ENDBRANCH  13  15
ENDBRANCH   6   9
ENDBRANCH   2   3
TORSDOF 5
ENDMDL
MODEL      255
REMARK 921   NORMALIZED FREE ENERGY PREDICTED BY IDOCK:   -3.27 KCAL/MOL
REMARK 922        TOTAL FREE ENERGY PREDICTED BY IDOCK:   -4.47 KCAL/MOL
REMARK 923 INTER-LIGAND FREE ENERGY PREDICTED BY IDOCK:   -6.52 KCAL/MOL
REMARK 924 INTRA-LIGAND FREE ENERGY PREDICTED BY IDOCK:    2.06 KCAL/MOL
REMARK 927      BINDING AFFINITY PREDICTED BY RF-SCORE:    0.00 PKD
ROOT
HETATM    1  C   UNL     1      -7.338   2.268  68.632  1.00  0.00    -0.044 C  
HETATM    2  O   UNL     1      -8.542   2.467  69.366  1.00  0.00    -0.058 OA 
ENDROOT
BRANCH   2   3
HETATM    3  C   UNL     1      -9.201   3.648  69.137  1.00  0.00    -0.159 A  
HETATM    4  C   UNL     1      -9.514   4.163  67.883  1.00  0.00    -0.219 A  
HETATM    5  C   UNL     1     -10.169   5.390  67.772  1.00  0.00    -0.230 A  
HETATM    6  C   UNL     1     -10.542   6.120  68.911  1.00  0.00    -0.335 A  
HETATM    7  C   UNL     1      -9.578   4.359  70.278  1.00  0.00    -0.263 A  
HETATM    8  C   UNL     1     -10.242   5.585  70.170  1.00  0.00    -0.333 A  
BRANCH   6   9
HETATM    9  C   UNL     1     -11.243   7.460  68.757  1.00  0.00     0.226 C  
HETATM   10  C   UNL     1     -10.363   8.691  68.345  1.00  0.00    -0.201 C  
HETATM   11  C   UNL     1      -9.864   8.499  66.900  1.00  0.00    -0.310 C  
HETATM   12  C   UNL     1      -9.177   8.874  69.312  1.00  0.00    -0.145 C  
HETATM   13  N   UNL     1     -11.240   9.890  68.400  1.00  0.00    -0.505 NA 
HETATM   14  H   UNL     1     -11.662   9.970  69.326  1.00  0.00     0.000 HD 
BRANCH  13  15
HETATM   15  C   UNL     1     -10.600  11.170  68.025  1.00  0.00    -0.198 C  
BRANCH  15  16
HETATM   16  C   UNL     1     -10.276  11.280  66.515  1.00  0.00    -0.228 C  
HETATM   17  H   UNL     1      -8.836  10.684  65.304  1.00  0.00     0.000 HD 
HETATM   18  O   UNL     1      -9.036  10.617  66.230  1.00  0.00    -0.157 OA 
BRANCH  16  19
HETATM   19  C   UNL     1     -10.267  12.713  66.028  1.00  0.00    -0.287 A  
HETATM   20  C   UNL     1      -9.257  13.605  66.425  1.00  0.00    -0.122 A  
HETATM   21  O   UNL     1      -8.316  13.142  67.311  1.00  0.00    -0.180 OA 
HETATM   22  C   UNL     1      -7.137  13.936  67.364  1.00  0.00    -0.070 C  
HETATM   23  C   UNL     1      -7.316  15.446  67.288  1.00  0.00    -0.204 C  
HETATM   24  O   UNL     1      -6.568  16.252  67.835  1.00  0.00    -0.118 OA 
HETATM   25  N   UNL     1      -8.332  15.847  66.462  1.00  0.00    -0.289 N  
HETATM   26  H   UNL     1      -8.408  16.830  66.202  1.00  0.00     0.000 HD 
HETATM   27  C   UNL     1      -9.269  14.933  65.969  1.00  0.00    -0.175 A  
HETATM   28  C   UNL     1     -10.243  15.369  65.072  1.00  0.00    -0.295 A  
HETATM   29  C   UNL     1     -11.214  14.473  64.645  1.00  0.00    -0.353 A  
HETATM   30  O   UNL     1     -12.186  14.831  63.761  1.00  0.00    -0.953 OA 
HETATM   31  C   UNL     1     -11.237  13.163  65.118  1.00  0.00    -0.317 A  
HETATM   32  H   UNL     1     -12.851  14.218  63.469  1.00  0.00     0.000 HD 
ENDBRANCH  16  19
ENDBRANCH  15  16
ENDBRANCH  13  15
ENDBRANCH   6   9
ENDBRANCH   2   3
TORSDOF 5
ENDMDL
MODEL      256
REMARK 921   NORMALIZED FREE ENERGY PREDICTED BY IDOCK:   -3.26 KCAL/MOL
REMARK 922        TOTAL FREE ENERGY PREDICTED BY IDOCK:   -4.46 KCAL/MOL
REMARK 923 INTER-LIGAND FREE ENERGY PREDICTED BY IDOCK:   -4.41 KCAL/MOL
REMARK 924 INTRA-LIGAND FREE ENERGY PREDICTED BY IDOCK:   -0.05 KCAL/MOL
REMARK 927      BINDING AFFINITY PREDICTED BY RF-SCORE:    0.00 PKD
ROOT
HETATM    1  C   UNL     1     -10.936  15.813  70.227  1.00  0.00    -0.357 C  
HETATM    2  O   UNL     1      -9.984  15.969  69.180  1.00  0.00    -0.218 OA 
ENDROOT
BRANCH   2   3
HETATM    3  C   UNL     1      -9.552  14.814  68.580  1.00  0.00    -0.218 A  
HETATM    4  C   UNL     1      -8.267  14.591  68.097  1.00  0.00    -0.146 A  
HETATM    5  C   UNL     1      -7.948  13.379  67.482  1.00  0.00    -0.186 A  
HETATM    6  C   UNL     1      -8.901  12.357  67.353  1.00  0.00    -0.188 A  
HETATM    7  C   UNL     1     -10.506  13.800  68.468  1.00  0.00    -0.248 A  
HETATM    8  C   UNL     1     -10.187  12.582  67.859  1.00  0.00    -0.219 A  
BRANCH   6   9
HETATM    9  C   UNL     1      -8.526  11.054  66.667  1.00  0.00    -0.153 C  
HETATM   10  C   UNL     1      -8.235   9.814  67.583  1.00  0.00    -0.114 C  
HETATM   11  C   UNL     1      -9.540   9.372  68.271  1.00  0.00    -0.156 C  
HETATM   12  C   UNL     1      -7.150  10.140  68.628  1.00  0.00    -0.074 C  
HETATM   13  N   UNL     1      -7.760   8.721  66.695  1.00  0.00    -0.092 NA 
HETATM   14  H   UNL     1      -6.955   9.037  66.153  1.00  0.00     0.000 HD 
BRANCH  13  15
HETATM   15  C   UNL     1      -7.443   7.441  67.368  1.00  0.00    -0.104 C  
BRANCH  15  16
HETATM   16  C   UNL     1      -8.071   6.207  66.676  1.00  0.00    -0.109 C  
HETATM   17  H   UNL     1      -9.695   5.815  65.625  1.00  0.00     0.000 HD 
HETATM   18  O   UNL     1      -9.310   6.572  66.049  1.00  0.00    -0.115 OA 
BRANCH  16  19
HETATM   19  C   UNL     1      -8.248   5.039  67.623  1.00  0.00    -0.105 A  
HETATM   20  C   UNL     1      -9.044   5.158  68.774  1.00  0.00    -0.114 A  
HETATM   21  O   UNL     1      -9.606   6.383  69.032  1.00  0.00    -0.132 OA 
HETATM   22  C   UNL     1     -10.684   6.337  69.959  1.00  0.00    -0.285 C  
HETATM   23  C   UNL     1     -10.538   5.393  71.144  1.00  0.00    -0.206 C  
HETATM   24  O   UNL     1     -11.036   5.597  72.247  1.00  0.00    -0.238 OA 
HETATM   25  N   UNL     1      -9.884   4.226  70.850  1.00  0.00    -0.197 N  
HETATM   26  H   UNL     1      -9.903   3.459  71.522  1.00  0.00     0.000 HD 
HETATM   27  C   UNL     1      -9.190   4.067  69.646  1.00  0.00    -0.147 A  
HETATM   28  C   UNL     1      -8.602   2.837  69.353  1.00  0.00    -0.115 A  
HETATM   29  C   UNL     1      -7.853   2.710  68.191  1.00  0.00    -0.058 A  
HETATM   30  O   UNL     1      -7.261   1.535  67.840  1.00  0.00    -0.038 OA 
HETATM   31  C   UNL     1      -7.667   3.794  67.336  1.00  0.00    -0.079 A  
HETATM   32  H   UNL     1      -6.748   1.447  67.046  1.00  0.00     0.000 HD 
ENDBRANCH  16  19
ENDBRANCH  15  16
ENDBRANCH  13  15
ENDBRANCH   6   9
ENDBRANCH   2   3
TORSDOF 5
ENDMDL
MODEL      257
REMARK 921   NORMALIZED FREE ENERGY PREDICTED BY IDOCK:   -3.25 KCAL/MOL
REMARK 922        TOTAL FREE ENERGY PREDICTED BY IDOCK:   -4.44 KCAL/MOL
REMARK 923 INTER-LIGAND FREE ENERGY PREDICTED BY IDOCK:   -4.99 KCAL/MOL
REMARK 924 INTRA-LIGAND FREE ENERGY PREDICTED BY IDOCK:    0.55 KCAL/MOL
REMARK 927      BINDING AFFINITY PREDICTED BY RF-SCORE:    0.00 PKD
ROOT
HETATM    1  C   UNL     1     -14.402   6.809  71.507  1.00  0.00    -0.049 C  
HETATM    2  O   UNL     1     -13.279   7.289  72.242  1.00  0.00    -0.040 OA 
ENDROOT
BRANCH   2   3
HETATM    3  C   UNL     1     -12.093   7.357  71.556  1.00  0.00    -0.327 A  
HETATM    4  C   UNL     1     -11.813   6.690  70.368  1.00  0.00    -0.407 A  
HETATM    5  C   UNL     1     -10.558   6.817  69.771  1.00  0.00    -0.263 A  
HETATM    6  C   UNL     1      -9.563   7.628  70.338  1.00  0.00    -0.168 A  
HETATM    7  C   UNL     1     -11.115   8.176  72.124  1.00  0.00    -0.386 A  
HETATM    8  C   UNL     1      -9.860   8.312  71.523  1.00  0.00    -0.250 A  
BRANCH   6   9
HETATM    9  C   UNL     1      -8.202   7.736  69.670  1.00  0.00    -0.127 C  
HETATM   10  C   UNL     1      -7.845   9.096  68.975  1.00  0.00    -0.090 C  
HETATM   11  C   UNL     1      -7.688  10.191  70.048  1.00  0.00    -0.150 C  
HETATM   12  C   UNL     1      -8.922   9.492  67.945  1.00  0.00    -0.125 C  
HETATM   13  N   UNL     1      -6.543   8.903  68.285  1.00  0.00    -0.060 NA 
HETATM   14  H   UNL     1      -6.602   8.110  67.645  1.00  0.00     0.000 HD 
BRANCH  13  15
HETATM   15  C   UNL     1      -6.012  10.087  67.573  1.00  0.00    -0.054 C  
BRANCH  15  16
HETATM   16  C   UNL     1      -7.038  10.747  66.620  1.00  0.00    -0.133 C  
HETATM   17  H   UNL     1      -7.222  11.031  64.676  1.00  0.00     0.000 HD 
HETATM   18  O   UNL     1      -6.593  10.626  65.261  1.00  0.00    -0.092 OA 
BRANCH  16  19
HETATM   19  C   UNL     1      -7.326  12.187  66.986  1.00  0.00    -0.072 A  
HETATM   20  C   UNL     1      -8.561  12.779  66.672  1.00  0.00    -0.006 A  
HETATM   21  O   UNL     1      -9.467  12.020  65.976  1.00  0.00    -0.234 OA 
HETATM   22  C   UNL     1     -10.799  12.518  66.034  1.00  0.00    -0.276 C  
HETATM   23  C   UNL     1     -10.976  14.028  65.960  1.00  0.00    -0.298 C  
HETATM   24  O   UNL     1     -11.956  14.579  65.466  1.00  0.00    -0.354 OA 
HETATM   25  N   UNL     1      -9.989  14.737  66.590  1.00  0.00    -0.256 N  
HETATM   26  H   UNL     1     -10.118  15.736  66.756  1.00  0.00     0.000 HD 
HETATM   27  C   UNL     1      -8.807  14.119  67.012  1.00  0.00    -0.221 A  
HETATM   28  C   UNL     1      -7.861  14.861  67.716  1.00  0.00    -0.164 A  
HETATM   29  C   UNL     1      -6.659  14.260  68.065  1.00  0.00    -0.150 A  
HETATM   30  O   UNL     1      -5.697  14.924  68.764  1.00  0.00    -0.083 OA 
HETATM   31  C   UNL     1      -6.385  12.943  67.702  1.00  0.00    -0.158 A  
HETATM   32  H   UNL     1      -4.875  14.514  69.002  1.00  0.00     0.000 HD 
ENDBRANCH  16  19
ENDBRANCH  15  16
ENDBRANCH  13  15
ENDBRANCH   6   9
ENDBRANCH   2   3
TORSDOF 5
ENDMDL
MODEL      258
REMARK 921   NORMALIZED FREE ENERGY PREDICTED BY IDOCK:   -3.23 KCAL/MOL
REMARK 922        TOTAL FREE ENERGY PREDICTED BY IDOCK:   -4.41 KCAL/MOL
REMARK 923 INTER-LIGAND FREE ENERGY PREDICTED BY IDOCK:   -5.31 KCAL/MOL
REMARK 924 INTRA-LIGAND FREE ENERGY PREDICTED BY IDOCK:    0.90 KCAL/MOL
REMARK 927      BINDING AFFINITY PREDICTED BY RF-SCORE:    0.00 PKD
ROOT
HETATM    1  C   UNL     1      -8.246   4.301  74.266  1.00  0.00    -0.091 C  
HETATM    2  O   UNL     1      -7.039   4.751  73.656  1.00  0.00    -0.069 OA 
ENDROOT
BRANCH   2   3
HETATM    3  C   UNL     1      -7.171   5.737  72.711  1.00  0.00    -0.090 A  
HETATM    4  C   UNL     1      -8.272   5.909  71.878  1.00  0.00    -0.115 A  
HETATM    5  C   UNL     1      -8.285   6.938  70.936  1.00  0.00    -0.118 A  
HETATM    6  C   UNL     1      -7.206   7.828  70.817  1.00  0.00    -0.057 A  
HETATM    7  C   UNL     1      -6.096   6.623  72.611  1.00  0.00    -0.046 A  
HETATM    8  C   UNL     1      -6.111   7.660  71.672  1.00  0.00    -0.035 A  
BRANCH   6   9
HETATM    9  C   UNL     1      -7.244   8.930  69.771  1.00  0.00    -0.055 C  
HETATM   10  C   UNL     1      -7.150   8.500  68.266  1.00  0.00    -0.085 C  
HETATM   11  C   UNL     1      -8.428   7.735  67.874  1.00  0.00    -0.122 C  
HETATM   12  C   UNL     1      -5.898   7.637  68.014  1.00  0.00    -0.039 C  
HETATM   13  N   UNL     1      -7.065   9.748  67.462  1.00  0.00    -0.087 NA 
HETATM   14  H   UNL     1      -6.281  10.316  67.784  1.00  0.00     0.000 HD 
BRANCH  13  15
HETATM   15  C   UNL     1      -6.986   9.562  65.996  1.00  0.00    -0.091 C  
BRANCH  15  16
HETATM   16  C   UNL     1      -8.246  10.048  65.242  1.00  0.00    -0.148 C  
HETATM   17  H   UNL     1      -8.728  10.499  63.382  1.00  0.00     0.000 HD 
HETATM   18  O   UNL     1      -7.954  10.201  63.845  1.00  0.00    -0.153 OA 
BRANCH  16  19
HETATM   19  C   UNL     1      -8.823  11.316  65.833  1.00  0.00    -0.174 A  
HETATM   20  C   UNL     1      -9.907  11.969  65.223  1.00  0.00    -0.213 A  
HETATM   21  O   UNL     1     -10.383  11.444  64.048  1.00  0.00    -0.297 OA 
HETATM   22  C   UNL     1     -11.685  11.898  63.701  1.00  0.00    -0.474 C  
HETATM   23  C   UNL     1     -12.001  13.363  63.969  1.00  0.00    -0.464 C  
HETATM   24  O   UNL     1     -12.779  14.030  63.292  1.00  0.00    -0.750 OA 
HETATM   25  N   UNL     1     -11.422  13.860  65.106  1.00  0.00    -0.311 N  
HETATM   26  H   UNL     1     -11.723  14.765  65.467  1.00  0.00     0.000 HD 
HETATM   27  C   UNL     1     -10.424  13.149  65.781  1.00  0.00    -0.283 A  
HETATM   28  C   UNL     1      -9.914  13.656  66.975  1.00  0.00    -0.248 A  
HETATM   29  C   UNL     1      -8.871  12.983  67.600  1.00  0.00    -0.191 A  
HETATM   30  O   UNL     1      -8.335  13.417  68.774  1.00  0.00    -0.335 OA 
HETATM   31  C   UNL     1      -8.324  11.832  67.039  1.00  0.00    -0.172 A  
HETATM   32  H   UNL     1      -7.622  12.958  69.202  1.00  0.00     0.000 HD 
ENDBRANCH  16  19
ENDBRANCH  15  16
ENDBRANCH  13  15
ENDBRANCH   6   9
ENDBRANCH   2   3
TORSDOF 5
ENDMDL
MODEL      259
REMARK 921   NORMALIZED FREE ENERGY PREDICTED BY IDOCK:   -3.15 KCAL/MOL
REMARK 922        TOTAL FREE ENERGY PREDICTED BY IDOCK:   -4.31 KCAL/MOL
REMARK 923 INTER-LIGAND FREE ENERGY PREDICTED BY IDOCK:   -5.42 KCAL/MOL
REMARK 924 INTRA-LIGAND FREE ENERGY PREDICTED BY IDOCK:    1.11 KCAL/MOL
REMARK 927      BINDING AFFINITY PREDICTED BY RF-SCORE:    0.00 PKD
ROOT
HETATM    1  C   UNL     1      -7.151   2.955  67.903  1.00  0.00    -0.049 C  
HETATM    2  O   UNL     1      -7.446   3.995  68.830  1.00  0.00    -0.054 OA 
ENDROOT
BRANCH   2   3
HETATM    3  C   UNL     1      -8.147   5.065  68.334  1.00  0.00    -0.086 A  
HETATM    4  C   UNL     1      -8.630   6.129  69.088  1.00  0.00    -0.119 A  
HETATM    5  C   UNL     1      -9.352   7.154  68.475  1.00  0.00    -0.136 A  
HETATM    6  C   UNL     1      -9.592   7.146  67.093  1.00  0.00    -0.191 A  
HETATM    7  C   UNL     1      -8.369   5.052  66.955  1.00  0.00    -0.107 A  
HETATM    8  C   UNL     1      -9.086   6.082  66.337  1.00  0.00    -0.159 A  
BRANCH   6   9
HETATM    9  C   UNL     1     -10.394   8.270  66.456  1.00  0.00    -0.175 C  
HETATM   10  C   UNL     1      -9.790   9.716  66.525  1.00  0.00    -0.235 C  
HETATM   11  C   UNL     1      -8.524   9.781  65.649  1.00  0.00    -0.147 C  
HETATM   12  C   UNL     1      -9.468  10.114  67.979  1.00  0.00    -0.156 C  
HETATM   13  N   UNL     1     -10.812  10.641  65.970  1.00  0.00    -0.056 NA 
HETATM   14  H   UNL     1     -11.692  10.532  66.475  1.00  0.00     0.000 HD 
BRANCH  13  15
HETATM   15  C   UNL     1     -10.429  12.069  65.927  1.00  0.00    -0.255 C  
BRANCH  15  16
HETATM   16  C   UNL     1     -10.476  12.765  67.309  1.00  0.00    -0.232 C  
HETATM   17  H   UNL     1     -11.772  13.844  68.334  1.00  0.00     0.000 HD 
HETATM   18  O   UNL     1     -11.742  13.417  67.486  1.00  0.00    -0.325 OA 
BRANCH  16  19
HETATM   19  C   UNL     1      -9.322  13.721  67.516  1.00  0.00    -0.222 A  
HETATM   20  C   UNL     1      -9.550  15.069  67.840  1.00  0.00    -0.203 A  
HETATM   21  O   UNL     1     -10.854  15.492  67.904  1.00  0.00    -0.288 OA 
HETATM   22  C   UNL     1     -11.025  16.721  68.601  1.00  0.00    -0.298 C  
HETATM   23  C   UNL     1      -9.971  17.796  68.376  1.00  0.00    -0.362 C  
HETATM   24  O   UNL     1     -10.202  19.001  68.420  1.00  0.00    -0.380 OA 
HETATM   25  N   UNL     1      -8.701  17.308  68.223  1.00  0.00    -0.243 N  
HETATM   26  H   UNL     1      -7.910  17.952  68.256  1.00  0.00     0.000 HD 
HETATM   27  C   UNL     1      -8.467  15.944  68.021  1.00  0.00    -0.162 A  
HETATM   28  C   UNL     1      -7.155  15.479  67.944  1.00  0.00    -0.155 A  
HETATM   29  C   UNL     1      -6.933  14.136  67.669  1.00  0.00    -0.184 A  
HETATM   30  O   UNL     1      -5.677  13.615  67.592  1.00  0.00    -0.266 OA 
HETATM   31  C   UNL     1      -7.996  13.265  67.449  1.00  0.00    -0.175 A  
HETATM   32  H   UNL     1      -5.524  12.697  67.403  1.00  0.00     0.000 HD 
ENDBRANCH  16  19
ENDBRANCH  15  16
ENDBRANCH  13  15
ENDBRANCH   6   9
ENDBRANCH   2   3
TORSDOF 5
ENDMDL
MODEL      260
REMARK 921   NORMALIZED FREE ENERGY PREDICTED BY IDOCK:   -3.14 KCAL/MOL
REMARK 922        TOTAL FREE ENERGY PREDICTED BY IDOCK:   -4.31 KCAL/MOL
REMARK 923 INTER-LIGAND FREE ENERGY PREDICTED BY IDOCK:   -4.61 KCAL/MOL
REMARK 924 INTRA-LIGAND FREE ENERGY PREDICTED BY IDOCK:    0.30 KCAL/MOL
REMARK 927      BINDING AFFINITY PREDICTED BY RF-SCORE:    0.00 PKD
ROOT
HETATM    1  C   UNL     1      -8.523   3.875  74.563  1.00  0.00    -0.092 C  
HETATM    2  O   UNL     1      -8.091   4.247  73.257  1.00  0.00    -0.089 OA 
ENDROOT
BRANCH   2   3
HETATM    3  C   UNL     1      -8.590   5.427  72.769  1.00  0.00    -0.119 A  
HETATM    4  C   UNL     1      -9.699   5.549  71.938  1.00  0.00    -0.197 A  
HETATM    5  C   UNL     1     -10.101   6.806  71.485  1.00  0.00    -0.196 A  
HETATM    6  C   UNL     1      -9.416   7.970  71.867  1.00  0.00    -0.240 A  
HETATM    7  C   UNL     1      -7.906   6.579  73.166  1.00  0.00    -0.100 A  
HETATM    8  C   UNL     1      -8.313   7.841  72.719  1.00  0.00    -0.183 A  
BRANCH   6   9
HETATM    9  C   UNL     1      -9.872   9.323  71.345  1.00  0.00    -0.296 C  
HETATM   10  C   UNL     1      -9.493   9.692  69.868  1.00  0.00    -0.231 C  
HETATM   11  C   UNL     1     -10.266   8.775  68.901  1.00  0.00    -0.221 C  
HETATM   12  C   UNL     1      -7.973   9.571  69.639  1.00  0.00    -0.120 C  
HETATM   13  N   UNL     1      -9.920  11.099  69.649  1.00  0.00    -0.371 NA 
HETATM   14  H   UNL     1      -9.496  11.705  70.352  1.00  0.00     0.000 HD 
BRANCH  13  15
HETATM   15  C   UNL     1      -9.667  11.641  68.296  1.00  0.00    -0.197 C  
BRANCH  15  16
HETATM   16  C   UNL     1     -10.755  12.629  67.812  1.00  0.00    -0.220 C  
HETATM   17  H   UNL     1     -11.650  13.065  66.107  1.00  0.00     0.000 HD 
HETATM   18  O   UNL     1     -10.981  12.460  66.404  1.00  0.00    -0.257 OA 
BRANCH  16  19
HETATM   19  C   UNL     1     -10.428  14.066  68.155  1.00  0.00    -0.243 A  
HETATM   20  C   UNL     1      -9.102  14.530  68.136  1.00  0.00    -0.191 A  
HETATM   21  O   UNL     1      -8.117  13.617  67.849  1.00  0.00    -0.136 OA 
HETATM   22  C   UNL     1      -6.881  14.208  67.466  1.00  0.00    -0.130 C  
HETATM   23  C   UNL     1      -6.451  15.460  68.218  1.00  0.00    -0.116 C  
HETATM   24  O   UNL     1      -5.280  15.767  68.423  1.00  0.00    -0.092 OA 
HETATM   25  N   UNL     1      -7.487  16.287  68.562  1.00  0.00    -0.167 N  
HETATM   26  H   UNL     1      -7.285  17.230  68.896  1.00  0.00     0.000 HD 
HETATM   27  C   UNL     1      -8.816  15.864  68.465  1.00  0.00    -0.195 A  
HETATM   28  C   UNL     1      -9.842  16.762  68.754  1.00  0.00    -0.264 A  
HETATM   29  C   UNL     1     -11.156  16.313  68.728  1.00  0.00    -0.355 A  
HETATM   30  O   UNL     1     -12.206  17.140  68.989  1.00  0.00     0.753 OA 
HETATM   31  C   UNL     1     -11.452  14.983  68.440  1.00  0.00    -0.340 A  
HETATM   32  H   UNL     1     -13.104  16.834  68.971  1.00  0.00     0.000 HD 
ENDBRANCH  16  19
ENDBRANCH  15  16
ENDBRANCH  13  15
ENDBRANCH   6   9
ENDBRANCH   2   3
TORSDOF 5
ENDMDL
MODEL      261
REMARK 921   NORMALIZED FREE ENERGY PREDICTED BY IDOCK:   -3.12 KCAL/MOL
REMARK 922        TOTAL FREE ENERGY PREDICTED BY IDOCK:   -4.28 KCAL/MOL
REMARK 923 INTER-LIGAND FREE ENERGY PREDICTED BY IDOCK:   -3.52 KCAL/MOL
REMARK 924 INTRA-LIGAND FREE ENERGY PREDICTED BY IDOCK:   -0.76 KCAL/MOL
REMARK 927      BINDING AFFINITY PREDICTED BY RF-SCORE:    0.00 PKD
ROOT
HETATM    1  C   UNL     1      -5.232  13.720  73.299  1.00  0.00    -0.164 C  
HETATM    2  O   UNL     1      -5.641  14.317  72.072  1.00  0.00    -0.193 OA 
ENDROOT
BRANCH   2   3
HETATM    3  C   UNL     1      -5.652  13.495  70.975  1.00  0.00    -0.206 A  
HETATM    4  C   UNL     1      -5.146  12.200  70.936  1.00  0.00    -0.140 A  
HETATM    5  C   UNL     1      -5.192  11.464  69.751  1.00  0.00    -0.056 A  
HETATM    6  C   UNL     1      -5.762  11.998  68.586  1.00  0.00    -0.052 A  
HETATM    7  C   UNL     1      -6.232  14.034  69.824  1.00  0.00    -0.137 A  
HETATM    8  C   UNL     1      -6.287  13.295  68.638  1.00  0.00    -0.087 A  
BRANCH   6   9
HETATM    9  C   UNL     1      -5.785  11.176  67.307  1.00  0.00    -0.058 C  
HETATM   10  C   UNL     1      -7.045  10.278  67.050  1.00  0.00    -0.090 C  
HETATM   11  C   UNL     1      -8.269  11.179  66.795  1.00  0.00    -0.154 C  
HETATM   12  C   UNL     1      -7.303   9.331  68.240  1.00  0.00    -0.078 C  
HETATM   13  N   UNL     1      -6.767   9.478  65.829  1.00  0.00    -0.080 NA 
HETATM   14  H   UNL     1      -5.899   8.955  65.945  1.00  0.00     0.000 HD 
BRANCH  13  15
HETATM   15  C   UNL     1      -7.851   8.568  65.398  1.00  0.00    -0.107 C  
BRANCH  15  16
HETATM   16  C   UNL     1      -7.364   7.133  65.081  1.00  0.00    -0.081 C  
HETATM   17  H   UNL     1      -6.991   6.062  63.466  1.00  0.00     0.000 HD 
HETATM   18  O   UNL     1      -7.290   6.943  63.660  1.00  0.00    -0.064 OA 
BRANCH  16  19
HETATM   19  C   UNL     1      -8.218   6.072  65.741  1.00  0.00    -0.136 A  
HETATM   20  C   UNL     1      -7.790   5.427  66.914  1.00  0.00    -0.101 A  
HETATM   21  O   UNL     1      -6.550   5.757  67.401  1.00  0.00    -0.052 OA 
HETATM   22  C   UNL     1      -6.347   5.381  68.758  1.00  0.00    -0.038 C  
HETATM   23  C   UNL     1      -6.915   4.037  69.195  1.00  0.00    -0.046 C  
HETATM   24  O   UNL     1      -6.414   3.334  70.068  1.00  0.00    -0.031 OA 
HETATM   25  N   UNL     1      -8.108   3.717  68.604  1.00  0.00    -0.069 N  
HETATM   26  H   UNL     1      -8.654   2.936  68.968  1.00  0.00     0.000 HD 
HETATM   27  C   UNL     1      -8.592   4.439  67.508  1.00  0.00    -0.103 A  
HETATM   28  C   UNL     1      -9.845   4.127  66.983  1.00  0.00    -0.190 A  
HETATM   29  C   UNL     1     -10.285   4.799  65.850  1.00  0.00    -0.258 A  
HETATM   30  O   UNL     1     -11.503   4.551  65.293  1.00  0.00    -1.068 OA 
HETATM   31  C   UNL     1      -9.485   5.754  65.228  1.00  0.00     0.322 A  
HETATM   32  H   UNL     1     -11.804   5.009  64.518  1.00  0.00     0.000 HD 
ENDBRANCH  16  19
ENDBRANCH  15  16
ENDBRANCH  13  15
ENDBRANCH   6   9
ENDBRANCH   2   3
TORSDOF 5
ENDMDL
MODEL      262
REMARK 921   NORMALIZED FREE ENERGY PREDICTED BY IDOCK:   -3.08 KCAL/MOL
REMARK 922        TOTAL FREE ENERGY PREDICTED BY IDOCK:   -4.23 KCAL/MOL
REMARK 923 INTER-LIGAND FREE ENERGY PREDICTED BY IDOCK:   -3.81 KCAL/MOL
REMARK 924 INTRA-LIGAND FREE ENERGY PREDICTED BY IDOCK:   -0.42 KCAL/MOL
REMARK 927      BINDING AFFINITY PREDICTED BY RF-SCORE:    0.00 PKD
ROOT
HETATM    1  C   UNL     1     -11.007   2.737  62.579  1.00  0.00    -0.154 C  
HETATM    2  O   UNL     1     -10.224   1.922  63.448  1.00  0.00    -0.122 OA 
ENDROOT
BRANCH   2   3
HETATM    3  C   UNL     1      -9.462   2.586  64.375  1.00  0.00    -0.141 A  
HETATM    4  C   UNL     1      -9.241   2.166  65.682  1.00  0.00    -0.016 A  
HETATM    5  C   UNL     1      -8.463   2.939  66.546  1.00  0.00    -0.101 A  
HETATM    6  C   UNL     1      -7.874   4.138  66.116  1.00  0.00    -0.094 A  
HETATM    7  C   UNL     1      -8.872   3.772  63.931  1.00  0.00    -0.103 A  
HETATM    8  C   UNL     1      -8.085   4.543  64.792  1.00  0.00    -0.101 A  
BRANCH   6   9
HETATM    9  C   UNL     1      -7.043   4.964  67.084  1.00  0.00    -0.066 C  
HETATM   10  C   UNL     1      -7.812   5.780  68.181  1.00  0.00    -0.104 C  
HETATM   11  C   UNL     1      -8.465   4.803  69.177  1.00  0.00    -0.087 C  
HETATM   12  C   UNL     1      -8.872   6.701  67.545  1.00  0.00    -0.116 C  
HETATM   13  N   UNL     1      -6.802   6.603  68.897  1.00  0.00    -0.060 NA 
HETATM   14  H   UNL     1      -6.288   7.180  68.232  1.00  0.00     0.000 HD 
BRANCH  13  15
HETATM   15  C   UNL     1      -7.325   7.444  69.997  1.00  0.00    -0.082 C  
BRANCH  15  16
HETATM   16  C   UNL     1      -6.811   8.903  69.958  1.00  0.00    -0.043 C  
HETATM   17  H   UNL     1      -6.829  10.469  71.158  1.00  0.00     0.000 HD 
HETATM   18  O   UNL     1      -7.145   9.574  71.182  1.00  0.00    -0.287 OA 
BRANCH  16  19
HETATM   19  C   UNL     1      -7.315   9.663  68.750  1.00  0.00    -0.074 A  
HETATM   20  C   UNL     1      -8.628  10.162  68.706  1.00  0.00    -0.133 A  
HETATM   21  O   UNL     1      -9.445   9.885  69.774  1.00  0.00    -0.210 OA 
HETATM   22  C   UNL     1     -10.592  10.723  69.851  1.00  0.00    -0.076 C  
HETATM   23  C   UNL     1     -11.281  11.075  68.539  1.00  0.00    -0.268 C  
HETATM   24  O   UNL     1     -12.486  11.285  68.434  1.00  0.00    -0.403 OA 
HETATM   25  N   UNL     1     -10.421  11.245  67.487  1.00  0.00    -0.193 N  
HETATM   26  H   UNL     1     -10.766  11.663  66.622  1.00  0.00     0.000 HD 
HETATM   27  C   UNL     1      -9.081  10.857  67.574  1.00  0.00    -0.140 A  
HETATM   28  C   UNL     1      -8.222  11.117  66.507  1.00  0.00    -0.167 A  
HETATM   29  C   UNL     1      -6.912  10.662  66.572  1.00  0.00    -0.125 A  
HETATM   30  O   UNL     1      -6.019  10.892  65.569  1.00  0.00    -0.276 OA 
HETATM   31  C   UNL     1      -6.459   9.938  67.672  1.00  0.00    -0.064 A  
HETATM   32  H   UNL     1      -5.123  10.581  65.613  1.00  0.00     0.000 HD 
ENDBRANCH  16  19
ENDBRANCH  15  16
ENDBRANCH  13  15
ENDBRANCH   6   9
ENDBRANCH   2   3
TORSDOF 5
ENDMDL
MODEL      263
REMARK 921   NORMALIZED FREE ENERGY PREDICTED BY IDOCK:   -3.06 KCAL/MOL
REMARK 922        TOTAL FREE ENERGY PREDICTED BY IDOCK:   -4.20 KCAL/MOL
REMARK 923 INTER-LIGAND FREE ENERGY PREDICTED BY IDOCK:   -4.12 KCAL/MOL
REMARK 924 INTRA-LIGAND FREE ENERGY PREDICTED BY IDOCK:   -0.08 KCAL/MOL
REMARK 927      BINDING AFFINITY PREDICTED BY RF-SCORE:    0.00 PKD
ROOT
HETATM    1  C   UNL     1      -5.968  14.425  73.306  1.00  0.00     0.338 C  
HETATM    2  O   UNL     1      -5.135  14.546  72.155  1.00  0.00    -0.164 OA 
ENDROOT
BRANCH   2   3
HETATM    3  C   UNL     1      -5.687  14.142  70.966  1.00  0.00    -0.215 A  
HETATM    4  C   UNL     1      -6.201  14.989  69.990  1.00  0.00    -0.157 A  
HETATM    5  C   UNL     1      -6.760  14.461  68.826  1.00  0.00    -0.093 A  
HETATM    6  C   UNL     1      -6.801  13.076  68.603  1.00  0.00    -0.099 A  
HETATM    7  C   UNL     1      -5.711  12.762  70.752  1.00  0.00    -0.131 A  
HETATM    8  C   UNL     1      -6.264  12.231  69.582  1.00  0.00    -0.131 A  
BRANCH   6   9
HETATM    9  C   UNL     1      -7.429  12.531  67.331  1.00  0.00    -0.153 C  
HETATM   10  C   UNL     1      -6.748  11.283  66.668  1.00  0.00    -0.132 C  
HETATM   11  C   UNL     1      -6.928  10.058  67.584  1.00  0.00    -0.085 C  
HETATM   12  C   UNL     1      -5.253  11.546  66.396  1.00  0.00    -0.077 C  
HETATM   13  N   UNL     1      -7.452  11.036  65.382  1.00  0.00    -0.357 NA 
HETATM   14  H   UNL     1      -7.431  11.877  64.806  1.00  0.00     0.000 HD 
BRANCH  13  15
HETATM   15  C   UNL     1      -6.969   9.877  64.600  1.00  0.00    -0.133 C  
BRANCH  15  16
HETATM   16  C   UNL     1      -8.105   8.953  64.096  1.00  0.00    -0.160 C  
HETATM   17  H   UNL     1      -9.604   9.080  62.819  1.00  0.00     0.000 HD 
HETATM   18  O   UNL     1      -8.907   9.646  63.128  1.00  0.00    -0.220 OA 
BRANCH  16  19
HETATM   19  C   UNL     1      -8.947   8.401  65.226  1.00  0.00    -0.055 A  
HETATM   20  C   UNL     1      -8.832   7.058  65.623  1.00  0.00    -0.012 A  
HETATM   21  O   UNL     1      -7.969   6.260  64.913  1.00  0.00    -0.113 OA 
HETATM   22  C   UNL     1      -7.609   5.061  65.587  1.00  0.00    -0.086 C  
HETATM   23  C   UNL     1      -8.707   4.351  66.369  1.00  0.00    -0.112 C  
HETATM   24  O   UNL     1      -8.755   3.135  66.530  1.00  0.00    -0.117 OA 
HETATM   25  N   UNL     1      -9.595   5.197  66.978  1.00  0.00    -0.137 N  
HETATM   26  H   UNL     1     -10.246   4.826  67.670  1.00  0.00     0.000 HD 
HETATM   27  C   UNL     1      -9.627   6.561  66.667  1.00  0.00    -0.160 A  
HETATM   28  C   UNL     1     -10.494   7.400  67.364  1.00  0.00    -0.366 A  
HETATM   29  C   UNL     1     -10.573   8.738  66.999  1.00  0.00    -0.213 A  
HETATM   30  O   UNL     1     -11.392   9.614  67.646  1.00  0.00    -0.441 OA 
HETATM   31  C   UNL     1      -9.819   9.237  65.940  1.00  0.00    -0.335 A  
HETATM   32  H   UNL     1     -11.446  10.528  67.396  1.00  0.00     0.000 HD 
ENDBRANCH  16  19
ENDBRANCH  15  16
ENDBRANCH  13  15
ENDBRANCH   6   9
ENDBRANCH   2   3
TORSDOF 5
ENDMDL
MODEL      264
REMARK 921   NORMALIZED FREE ENERGY PREDICTED BY IDOCK:   -3.03 KCAL/MOL
REMARK 922        TOTAL FREE ENERGY PREDICTED BY IDOCK:   -4.16 KCAL/MOL
REMARK 923 INTER-LIGAND FREE ENERGY PREDICTED BY IDOCK:   -3.79 KCAL/MOL
REMARK 924 INTRA-LIGAND FREE ENERGY PREDICTED BY IDOCK:   -0.37 KCAL/MOL
REMARK 927      BINDING AFFINITY PREDICTED BY RF-SCORE:    0.00 PKD
ROOT
HETATM    1  C   UNL     1      -7.362  15.636  69.350  1.00  0.00    -0.216 C  
HETATM    2  O   UNL     1      -8.423  15.494  68.409  1.00  0.00    -0.154 OA 
ENDROOT
BRANCH   2   3
HETATM    3  C   UNL     1      -8.744  14.209  68.051  1.00  0.00    -0.177 A  
HETATM    4  C   UNL     1     -10.028  13.747  67.783  1.00  0.00    -0.242 A  
HETATM    5  C   UNL     1     -10.236  12.408  67.448  1.00  0.00    -0.215 A  
HETATM    6  C   UNL     1      -9.164  11.507  67.357  1.00  0.00    -0.166 A  
HETATM    7  C   UNL     1      -7.667  13.325  67.951  1.00  0.00    -0.152 A  
HETATM    8  C   UNL     1      -7.872  11.985  67.608  1.00  0.00    -0.149 A  
BRANCH   6   9
HETATM    9  C   UNL     1      -9.425  10.052  67.003  1.00  0.00    -0.197 C  
HETATM   10  C   UNL     1      -8.628   9.449  65.794  1.00  0.00    -0.145 C  
HETATM   11  C   UNL     1      -7.135   9.357  66.163  1.00  0.00    -0.091 C  
HETATM   12  C   UNL     1      -8.824  10.299  64.522  1.00  0.00    -0.223 C  
HETATM   13  N   UNL     1      -9.158   8.080  65.564  1.00  0.00    -0.403 NA 
HETATM   14  H   UNL     1     -10.167   8.116  65.422  1.00  0.00     0.000 HD 
BRANCH  13  15
HETATM   15  C   UNL     1      -8.520   7.322  64.465  1.00  0.00     0.186 C  
BRANCH  15  16
HETATM   16  C   UNL     1      -7.386   6.381  64.938  1.00  0.00    -0.079 C  
HETATM   17  H   UNL     1      -5.817   5.496  64.131  1.00  0.00     0.000 HD 
HETATM   18  O   UNL     1      -6.513   6.074  63.841  1.00  0.00    -0.029 OA 
BRANCH  16  19
HETATM   19  C   UNL     1      -7.913   5.126  65.599  1.00  0.00    -0.108 A  
HETATM   20  C   UNL     1      -7.763   4.920  66.982  1.00  0.00    -0.092 A  
HETATM   21  O   UNL     1      -7.076   5.873  67.692  1.00  0.00    -0.070 OA 
HETATM   22  C   UNL     1      -7.295   5.812  69.096  1.00  0.00    -0.083 C  
HETATM   23  C   UNL     1      -7.382   4.426  69.722  1.00  0.00    -0.050 C  
HETATM   24  O   UNL     1      -7.029   4.171  70.870  1.00  0.00    -0.032 OA 
HETATM   25  N   UNL     1      -7.993   3.493  68.928  1.00  0.00    -0.058 N  
HETATM   26  H   UNL     1      -8.264   2.595  69.329  1.00  0.00     0.000 HD 
HETATM   27  C   UNL     1      -8.250   3.746  67.577  1.00  0.00    -0.090 A  
HETATM   28  C   UNL     1      -8.941   2.799  66.823  1.00  0.00    -0.168 A  
HETATM   29  C   UNL     1      -9.126   3.025  65.466  1.00  0.00    -0.150 A  
HETATM   30  O   UNL     1      -9.802   2.146  64.675  1.00  0.00    -0.324 OA 
HETATM   31  C   UNL     1      -8.616   4.167  64.854  1.00  0.00    -0.118 A  
HETATM   32  H   UNL     1      -9.929   2.300  63.746  1.00  0.00     0.000 HD 
ENDBRANCH  16  19
ENDBRANCH  15  16
ENDBRANCH  13  15
ENDBRANCH   6   9
ENDBRANCH   2   3
TORSDOF 5
ENDMDL
MODEL      265
REMARK 921   NORMALIZED FREE ENERGY PREDICTED BY IDOCK:   -3.03 KCAL/MOL
REMARK 922        TOTAL FREE ENERGY PREDICTED BY IDOCK:   -4.15 KCAL/MOL
REMARK 923 INTER-LIGAND FREE ENERGY PREDICTED BY IDOCK:   -3.06 KCAL/MOL
REMARK 924 INTRA-LIGAND FREE ENERGY PREDICTED BY IDOCK:   -1.10 KCAL/MOL
REMARK 927      BINDING AFFINITY PREDICTED BY RF-SCORE:    0.00 PKD
ROOT
HETATM    1  C   UNL     1      -8.907  14.237  67.686  1.00  0.00    -0.196 C  
HETATM    2  O   UNL     1      -8.286  13.472  68.714  1.00  0.00    -0.083 OA 
ENDROOT
BRANCH   2   3
HETATM    3  C   UNL     1      -7.677  12.310  68.317  1.00  0.00    -0.143 A  
HETATM    4  C   UNL     1      -6.410  12.219  67.750  1.00  0.00    -0.101 A  
HETATM    5  C   UNL     1      -5.901  10.979  67.362  1.00  0.00    -0.049 A  
HETATM    6  C   UNL     1      -6.639   9.800  67.550  1.00  0.00    -0.069 A  
HETATM    7  C   UNL     1      -8.416  11.142  68.520  1.00  0.00    -0.156 A  
HETATM    8  C   UNL     1      -7.905   9.897  68.140  1.00  0.00    -0.085 A  
BRANCH   6   9
HETATM    9  C   UNL     1      -6.062   8.466  67.106  1.00  0.00    -0.055 C  
HETATM   10  C   UNL     1      -6.238   8.070  65.598  1.00  0.00    -0.038 C  
HETATM   11  C   UNL     1      -5.394   9.015  64.722  1.00  0.00    -0.046 C  
HETATM   12  C   UNL     1      -7.722   8.120  65.181  1.00  0.00    -0.107 C  
HETATM   13  N   UNL     1      -5.725   6.683  65.450  1.00  0.00    -0.029 NA 
HETATM   14  H   UNL     1      -6.205   6.063  66.103  1.00  0.00     0.000 HD 
BRANCH  13  15
HETATM   15  C   UNL     1      -5.784   6.120  64.083  1.00  0.00    -0.022 C  
BRANCH  15  16
HETATM   16  C   UNL     1      -6.160   4.619  64.047  1.00  0.00    -0.022 C  
HETATM   17  H   UNL     1      -5.981   3.119  62.778  1.00  0.00     0.000 HD 
HETATM   18  O   UNL     1      -5.750   4.040  62.800  1.00  0.00    -0.012 OA 
BRANCH  16  19
HETATM   19  C   UNL     1      -7.631   4.384  64.315  1.00  0.00    -0.072 A  
HETATM   20  C   UNL     1      -8.100   4.150  65.619  1.00  0.00    -0.101 A  
HETATM   21  O   UNL     1      -7.168   4.092  66.625  1.00  0.00    -0.066 OA 
HETATM   22  C   UNL     1      -7.718   4.246  67.928  1.00  0.00    -0.079 C  
HETATM   23  C   UNL     1      -9.056   3.571  68.198  1.00  0.00    -0.151 C  
HETATM   24  O   UNL     1      -9.395   3.139  69.296  1.00  0.00    -0.147 OA 
HETATM   25  N   UNL     1      -9.910   3.575  67.127  1.00  0.00    -0.311 N  
HETATM   26  H   UNL     1     -10.887   3.318  67.265  1.00  0.00     0.000 HD 
HETATM   27  C   UNL     1      -9.467   3.926  65.847  1.00  0.00    -0.181 A  
HETATM   28  C   UNL     1     -10.384   3.990  64.800  1.00  0.00    -0.212 A  
HETATM   29  C   UNL     1      -9.924   4.265  63.519  1.00  0.00    -0.006 A  
HETATM   30  O   UNL     1     -10.768   4.354  62.454  1.00  0.00    -0.405 OA 
HETATM   31  C   UNL     1      -8.566   4.453  63.271  1.00  0.00    -0.114 A  
HETATM   32  H   UNL     1     -10.454   4.542  61.578  1.00  0.00     0.000 HD 
ENDBRANCH  16  19
ENDBRANCH  15  16
ENDBRANCH  13  15
ENDBRANCH   6   9
ENDBRANCH   2   3
TORSDOF 5
ENDMDL
MODEL      266
REMARK 921   NORMALIZED FREE ENERGY PREDICTED BY IDOCK:   -2.87 KCAL/MOL
REMARK 922        TOTAL FREE ENERGY PREDICTED BY IDOCK:   -3.96 KCAL/MOL
REMARK 923 INTER-LIGAND FREE ENERGY PREDICTED BY IDOCK:   -4.33 KCAL/MOL
REMARK 924 INTRA-LIGAND FREE ENERGY PREDICTED BY IDOCK:    0.38 KCAL/MOL
REMARK 927      BINDING AFFINITY PREDICTED BY RF-SCORE:    0.00 PKD
ROOT
HETATM    1  C   UNL     1      -7.337  15.580  69.371  1.00  0.00    -0.215 C  
HETATM    2  O   UNL     1      -8.391  15.519  68.414  1.00  0.00    -0.147 OA 
ENDROOT
BRANCH   2   3
HETATM    3  C   UNL     1      -8.698  14.272  67.932  1.00  0.00    -0.178 A  
HETATM    4  C   UNL     1      -9.889  13.923  67.304  1.00  0.00    -0.244 A  
HETATM    5  C   UNL     1     -10.098  12.612  66.874  1.00  0.00    -0.234 A  
HETATM    6  C   UNL     1      -9.115  11.626  67.046  1.00  0.00    -0.179 A  
HETATM    7  C   UNL     1      -7.707  13.302  68.099  1.00  0.00    -0.143 A  
HETATM    8  C   UNL     1      -7.911  11.989  67.661  1.00  0.00    -0.150 A  
BRANCH   6   9
HETATM    9  C   UNL     1      -9.379  10.203  66.579  1.00  0.00    -0.200 C  
HETATM   10  C   UNL     1      -8.294   9.531  65.667  1.00  0.00    -0.126 C  
HETATM   11  C   UNL     1      -7.013   9.294  66.491  1.00  0.00    -0.081 C  
HETATM   12  C   UNL     1      -7.994  10.399  64.429  1.00  0.00    -0.085 C  
HETATM   13  N   UNL     1      -8.843   8.219  65.235  1.00  0.00    -0.378 NA 
HETATM   14  H   UNL     1      -9.746   8.352  64.779  1.00  0.00     0.000 HD 
BRANCH  13  15
HETATM   15  C   UNL     1      -7.957   7.407  64.371  1.00  0.00    -0.109 C  
BRANCH  15  16
HETATM   16  C   UNL     1      -7.055   6.426  65.159  1.00  0.00    -0.060 C  
HETATM   17  H   UNL     1      -5.414   5.385  64.813  1.00  0.00     0.000 HD 
HETATM   18  O   UNL     1      -5.968   5.987  64.330  1.00  0.00    -0.024 OA 
BRANCH  16  19
HETATM   19  C   UNL     1      -7.828   5.258  65.730  1.00  0.00    -0.099 A  
HETATM   20  C   UNL     1      -8.689   4.496  64.921  1.00  0.00    -0.140 A  
HETATM   21  O   UNL     1      -8.839   4.888  63.614  1.00  0.00    -0.136 OA 
HETATM   22  C   UNL     1      -9.390   3.881  62.773  1.00  0.00    -0.113 C  
HETATM   23  C   UNL     1     -10.503   3.023  63.360  1.00  0.00    -0.215 C  
HETATM   24  O   UNL     1     -11.413   2.535  62.696  1.00  0.00    -0.164 OA 
HETATM   25  N   UNL     1     -10.349   2.744  64.691  1.00  0.00    -0.356 N  
HETATM   26  H   UNL     1     -10.935   2.029  65.124  1.00  0.00     0.000 HD 
HETATM   27  C   UNL     1      -9.405   3.421  65.470  1.00  0.00    -0.150 A  
HETATM   28  C   UNL     1      -9.229   3.055  66.803  1.00  0.00    -0.164 A  
HETATM   29  C   UNL     1      -8.344   3.781  67.589  1.00  0.00    -0.094 A  
HETATM   30  O   UNL     1      -8.117   3.469  68.895  1.00  0.00    -0.061 OA 
HETATM   31  C   UNL     1      -7.655   4.874  67.069  1.00  0.00    -0.087 A  
HETATM   32  H   UNL     1      -7.512   3.965  69.433  1.00  0.00     0.000 HD 
ENDBRANCH  16  19
ENDBRANCH  15  16
ENDBRANCH  13  15
ENDBRANCH   6   9
ENDBRANCH   2   3
TORSDOF 5
ENDMDL
MODEL      267
REMARK 921   NORMALIZED FREE ENERGY PREDICTED BY IDOCK:   -2.71 KCAL/MOL
REMARK 922        TOTAL FREE ENERGY PREDICTED BY IDOCK:   -3.74 KCAL/MOL
REMARK 923 INTER-LIGAND FREE ENERGY PREDICTED BY IDOCK:   -2.74 KCAL/MOL
REMARK 924 INTRA-LIGAND FREE ENERGY PREDICTED BY IDOCK:   -1.00 KCAL/MOL
REMARK 927      BINDING AFFINITY PREDICTED BY RF-SCORE:    0.00 PKD
ROOT
HETATM    1  C   UNL     1      -7.501  14.031  68.931  1.00  0.00    -0.095 C  
HETATM    2  O   UNL     1      -7.027  12.971  69.756  1.00  0.00     0.151 OA 
ENDROOT
BRANCH   2   3
HETATM    3  C   UNL     1      -6.622  11.834  69.103  1.00  0.00    -0.102 A  
HETATM    4  C   UNL     1      -5.531  11.747  68.245  1.00  0.00    -0.042 A  
HETATM    5  C   UNL     1      -5.226  10.538  67.617  1.00  0.00    -0.036 A  
HETATM    6  C   UNL     1      -5.994   9.386  67.849  1.00  0.00    -0.052 A  
HETATM    7  C   UNL     1      -7.387  10.692  69.351  1.00  0.00    -0.133 A  
HETATM    8  C   UNL     1      -7.078   9.477  68.730  1.00  0.00    -0.068 A  
BRANCH   6   9
HETATM    9  C   UNL     1      -5.645   8.087  67.140  1.00  0.00    -0.037 C  
HETATM   10  C   UNL     1      -6.197   7.888  65.686  1.00  0.00    -0.038 C  
HETATM   11  C   UNL     1      -5.507   8.887  64.738  1.00  0.00    -0.046 C  
HETATM   12  C   UNL     1      -7.728   8.065  65.645  1.00  0.00    -0.094 C  
HETATM   13  N   UNL     1      -5.845   6.504  65.273  1.00  0.00    -0.025 NA 
HETATM   14  H   UNL     1      -6.208   5.835  65.953  1.00  0.00     0.000 HD 
BRANCH  13  15
HETATM   15  C   UNL     1      -6.264   6.116  63.909  1.00  0.00    -0.029 C  
BRANCH  15  16
HETATM   16  C   UNL     1      -6.845   4.684  63.824  1.00  0.00    -0.044 C  
HETATM   17  H   UNL     1      -7.744   3.572  62.463  1.00  0.00     0.000 HD 
HETATM   18  O   UNL     1      -7.388   4.450  62.516  1.00  0.00    -0.039 OA 
BRANCH  16  19
HETATM   19  C   UNL     1      -7.865   4.407  64.907  1.00  0.00    -0.085 A  
HETATM   20  C   UNL     1      -7.466   3.947  66.174  1.00  0.00    -0.087 A  
HETATM   21  O   UNL     1      -6.128   3.710  66.369  1.00  0.00    -0.023 OA 
HETATM   22  C   UNL     1      -5.752   3.633  67.739  1.00  0.00    -0.022 C  
HETATM   23  C   UNL     1      -6.714   2.923  68.681  1.00  0.00    -0.037 C  
HETATM   24  O   UNL     1      -6.360   2.304  69.681  1.00  0.00    -0.027 OA 
HETATM   25  N   UNL     1      -8.035   3.118  68.381  1.00  0.00    -0.058 N  
HETATM   26  H   UNL     1      -8.748   2.842  69.056  1.00  0.00     0.000 HD 
HETATM   27  C   UNL     1      -8.426   3.688  67.165  1.00  0.00    -0.101 A  
HETATM   28  C   UNL     1      -9.777   3.938  66.930  1.00  0.00    -0.189 A  
HETATM   29  C   UNL     1     -10.164   4.434  65.692  1.00  0.00    -0.238 A  
HETATM   30  O   UNL     1     -11.466   4.710  65.402  1.00  0.00    -1.018 OA 
HETATM   31  C   UNL     1      -9.227   4.660  64.687  1.00  0.00    -0.119 A  
HETATM   32  H   UNL     1     -11.731   5.050  64.555  1.00  0.00     0.000 HD 
ENDBRANCH  16  19
ENDBRANCH  15  16
ENDBRANCH  13  15
ENDBRANCH   6   9
ENDBRANCH   2   3
TORSDOF 5
ENDMDL
MODEL      268
REMARK 921   NORMALIZED FREE ENERGY PREDICTED BY IDOCK:   -2.68 KCAL/MOL
REMARK 922        TOTAL FREE ENERGY PREDICTED BY IDOCK:   -3.70 KCAL/MOL
REMARK 923 INTER-LIGAND FREE ENERGY PREDICTED BY IDOCK:   -3.68 KCAL/MOL
REMARK 924 INTRA-LIGAND FREE ENERGY PREDICTED BY IDOCK:   -0.02 KCAL/MOL
REMARK 927      BINDING AFFINITY PREDICTED BY RF-SCORE:    0.00 PKD
ROOT
HETATM    1  C   UNL     1     -12.870  14.768  63.610  1.00  0.00     1.245 C  
HETATM    2  O   UNL     1     -13.055  14.426  64.981  1.00  0.00    -0.615 OA 
ENDROOT
BRANCH   2   3
HETATM    3  C   UNL     1     -12.051  13.695  65.562  1.00  0.00    -0.411 A  
HETATM    4  C   UNL     1     -11.031  14.215  66.351  1.00  0.00    -0.311 A  
HETATM    5  C   UNL     1     -10.047  13.374  66.872  1.00  0.00    -0.255 A  
HETATM    6  C   UNL     1     -10.072  11.992  66.631  1.00  0.00    -0.220 A  
HETATM    7  C   UNL     1     -12.093  12.319  65.324  1.00  0.00    -0.361 A  
HETATM    8  C   UNL     1     -11.113  11.473  65.853  1.00  0.00    -0.274 A  
BRANCH   6   9
HETATM    9  C   UNL     1      -8.979  11.103  67.202  1.00  0.00    -0.145 C  
HETATM   10  C   UNL     1      -9.424   9.905  68.112  1.00  0.00    -0.138 C  
HETATM   11  C   UNL     1     -10.173   8.867  67.255  1.00  0.00    -0.326 C  
HETATM   12  C   UNL     1     -10.308  10.393  69.277  1.00  0.00    -0.250 C  
HETATM   13  N   UNL     1      -8.185   9.287  68.652  1.00  0.00    -0.112 NA 
HETATM   14  H   UNL     1      -7.626   9.991  69.134  1.00  0.00     0.000 HD 
BRANCH  13  15
HETATM   15  C   UNL     1      -8.386   8.114  69.531  1.00  0.00    -0.122 C  
BRANCH  15  16
HETATM   16  C   UNL     1      -7.595   6.861  69.082  1.00  0.00    -0.097 C  
HETATM   17  H   UNL     1      -5.830   6.061  69.455  1.00  0.00     0.000 HD 
HETATM   18  O   UNL     1      -6.315   6.830  69.730  1.00  0.00    -0.039 OA 
BRANCH  16  19
HETATM   19  C   UNL     1      -7.461   6.769  67.577  1.00  0.00    -0.097 A  
HETATM   20  C   UNL     1      -8.050   5.713  66.863  1.00  0.00    -0.102 A  
HETATM   21  O   UNL     1      -8.702   4.745  67.586  1.00  0.00    -0.104 OA 
HETATM   22  C   UNL     1      -9.586   3.946  66.811  1.00  0.00    -0.198 C  
HETATM   23  C   UNL     1      -9.121   3.554  65.414  1.00  0.00    -0.145 C  
HETATM   24  O   UNL     1      -9.437   2.508  64.856  1.00  0.00    -0.142 OA 
HETATM   25  N   UNL     1      -8.393   4.524  64.777  1.00  0.00    -0.111 N  
HETATM   26  H   UNL     1      -8.201   4.431  63.780  1.00  0.00     0.000 HD 
HETATM   27  C   UNL     1      -7.908   5.639  65.468  1.00  0.00    -0.100 A  
HETATM   28  C   UNL     1      -7.237   6.639  64.766  1.00  0.00    -0.071 A  
HETATM   29  C   UNL     1      -6.694   7.706  65.471  1.00  0.00    -0.045 A  
HETATM   30  O   UNL     1      -6.036   8.721  64.845  1.00  0.00    -0.062 OA 
HETATM   31  C   UNL     1      -6.794   7.773  66.858  1.00  0.00    -0.072 A  
HETATM   32  H   UNL     1      -5.665   9.451  65.327  1.00  0.00     0.000 HD 
ENDBRANCH  16  19
ENDBRANCH  15  16
ENDBRANCH  13  15
ENDBRANCH   6   9
ENDBRANCH   2   3
TORSDOF 5
ENDMDL
MODEL      269
REMARK 921   NORMALIZED FREE ENERGY PREDICTED BY IDOCK:   -2.65 KCAL/MOL
REMARK 922        TOTAL FREE ENERGY PREDICTED BY IDOCK:   -3.66 KCAL/MOL
REMARK 923 INTER-LIGAND FREE ENERGY PREDICTED BY IDOCK:   -4.16 KCAL/MOL
REMARK 924 INTRA-LIGAND FREE ENERGY PREDICTED BY IDOCK:    0.50 KCAL/MOL
REMARK 927      BINDING AFFINITY PREDICTED BY RF-SCORE:    0.00 PKD
ROOT
HETATM    1  C   UNL     1      -6.958  17.809  65.858  1.00  0.00    -0.256 C  
HETATM    2  O   UNL     1      -7.695  17.620  67.063  1.00  0.00    -0.195 OA 
ENDROOT
BRANCH   2   3
HETATM    3  C   UNL     1      -7.777  16.331  67.524  1.00  0.00    -0.146 A  
HETATM    4  C   UNL     1      -6.703  15.568  67.970  1.00  0.00    -0.152 A  
HETATM    5  C   UNL     1      -6.905  14.255  68.397  1.00  0.00    -0.104 A  
HETATM    6  C   UNL     1      -8.185  13.682  68.405  1.00  0.00    -0.146 A  
HETATM    7  C   UNL     1      -9.059  15.777  67.538  1.00  0.00    -0.201 A  
HETATM    8  C   UNL     1      -9.264  14.463  67.974  1.00  0.00    -0.193 A  
BRANCH   6   9
HETATM    9  C   UNL     1      -8.371  12.244  68.864  1.00  0.00     0.215 C  
HETATM   10  C   UNL     1      -7.091  11.340  68.937  1.00  0.00    -0.104 C  
HETATM   11  C   UNL     1      -6.172  11.849  70.064  1.00  0.00    -0.123 C  
HETATM   12  C   UNL     1      -6.344  11.326  67.589  1.00  0.00    -0.059 C  
HETATM   13  N   UNL     1      -7.549   9.965  69.268  1.00  0.00    -0.091 NA 
HETATM   14  H   UNL     1      -8.241   9.655  68.585  1.00  0.00     0.000 HD 
BRANCH  13  15
HETATM   15  C   UNL     1      -6.482   8.949  69.403  1.00  0.00    -0.044 C  
BRANCH  15  16
HETATM   16  C   UNL     1      -6.733   7.937  70.546  1.00  0.00    -0.038 C  
HETATM   17  H   UNL     1      -6.196   6.087  70.976  1.00  0.00     0.000 HD 
HETATM   18  O   UNL     1      -6.042   6.708  70.274  1.00  0.00    -0.026 OA 
BRANCH  16  19
HETATM   19  C   UNL     1      -8.206   7.703  70.801  1.00  0.00    -0.109 A  
HETATM   20  C   UNL     1      -9.051   7.234  69.780  1.00  0.00    -0.141 A  
HETATM   21  O   UNL     1      -8.498   7.049  68.537  1.00  0.00    -0.121 OA 
HETATM   22  C   UNL     1      -9.277   6.224  67.679  1.00  0.00    -0.111 C  
HETATM   23  C   UNL     1     -10.788   6.403  67.733  1.00  0.00    -0.334 C  
HETATM   24  O   UNL     1     -11.533   6.225  66.773  1.00  0.00    -0.103 OA 
HETATM   25  N   UNL     1     -11.273   6.680  68.984  1.00  0.00    -0.531 N  
HETATM   26  H   UNL     1     -12.278   6.630  69.154  1.00  0.00     0.000 HD 
HETATM   27  C   UNL     1     -10.416   7.031  70.032  1.00  0.00    -0.215 A  
HETATM   28  C   UNL     1     -10.943   7.231  71.307  1.00  0.00    -0.264 A  
HETATM   29  C   UNL     1     -10.098   7.652  72.325  1.00  0.00    -0.208 A  
HETATM   30  O   UNL     1     -10.546   7.856  73.595  1.00  0.00    -0.173 OA 
HETATM   31  C   UNL     1      -8.748   7.894  72.081  1.00  0.00    -0.189 A  
HETATM   32  H   UNL     1      -9.968   8.144  74.292  1.00  0.00     0.000 HD 
ENDBRANCH  16  19
ENDBRANCH  15  16
ENDBRANCH  13  15
ENDBRANCH   6   9
ENDBRANCH   2   3
TORSDOF 5
ENDMDL
MODEL      270
REMARK 921   NORMALIZED FREE ENERGY PREDICTED BY IDOCK:   -2.62 KCAL/MOL
REMARK 922        TOTAL FREE ENERGY PREDICTED BY IDOCK:   -3.63 KCAL/MOL
REMARK 923 INTER-LIGAND FREE ENERGY PREDICTED BY IDOCK:   -4.37 KCAL/MOL
REMARK 924 INTRA-LIGAND FREE ENERGY PREDICTED BY IDOCK:    0.74 KCAL/MOL
REMARK 927      BINDING AFFINITY PREDICTED BY RF-SCORE:    0.00 PKD
ROOT
HETATM    1  C   UNL     1      -9.296   1.596  68.101  1.00  0.00    -0.187 C  
HETATM    2  O   UNL     1      -9.118   2.179  69.389  1.00  0.00    -0.094 OA 
ENDROOT
BRANCH   2   3
HETATM    3  C   UNL     1      -9.010   3.546  69.423  1.00  0.00    -0.114 A  
HETATM    4  C   UNL     1      -8.317   4.273  70.385  1.00  0.00    -0.081 A  
HETATM    5  C   UNL     1      -8.294   5.667  70.331  1.00  0.00    -0.119 A  
HETATM    6  C   UNL     1      -8.948   6.364  69.304  1.00  0.00    -0.133 A  
HETATM    7  C   UNL     1      -9.655   4.227  68.389  1.00  0.00    -0.197 A  
HETATM    8  C   UNL     1      -9.627   5.624  68.327  1.00  0.00    -0.145 A  
BRANCH   6   9
HETATM    9  C   UNL     1      -8.917   7.884  69.279  1.00  0.00    -0.145 C  
HETATM   10  C   UNL     1     -10.177   8.640  69.826  1.00  0.00    -0.206 C  
HETATM   11  C   UNL     1     -10.287   8.414  71.346  1.00  0.00    -0.285 C  
HETATM   12  C   UNL     1     -11.460   8.171  69.110  1.00  0.00     0.696 C  
HETATM   13  N   UNL     1      -9.962  10.088  69.565  1.00  0.00    -0.216 NA 
HETATM   14  H   UNL     1      -9.783  10.239  68.572  1.00  0.00     0.000 HD 
BRANCH  13  15
HETATM   15  C   UNL     1     -11.041  10.989  70.026  1.00  0.00    -0.161 C  
BRANCH  15  16
HETATM   16  C   UNL     1     -11.535  11.972  68.937  1.00  0.00    -0.301 C  
HETATM   17  H   UNL     1     -12.490  11.851  67.214  1.00  0.00     0.000 HD 
HETATM   18  O   UNL     1     -12.186  11.248  67.882  1.00  0.00    -0.570 OA 
BRANCH  16  19
HETATM   19  C   UNL     1     -10.426  12.854  68.406  1.00  0.00    -0.260 A  
HETATM   20  C   UNL     1      -9.355  12.308  67.678  1.00  0.00    -0.186 A  
HETATM   21  O   UNL     1      -9.329  10.945  67.517  1.00  0.00    -0.153 OA 
HETATM   22  C   UNL     1      -8.470  10.506  66.471  1.00  0.00    -0.139 C  
HETATM   23  C   UNL     1      -7.142  11.236  66.315  1.00  0.00     0.007 C  
HETATM   24  O   UNL     1      -6.116  10.707  65.897  1.00  0.00    -0.115 OA 
HETATM   25  N   UNL     1      -7.209  12.578  66.581  1.00  0.00    -0.248 N  
HETATM   26  H   UNL     1      -6.425  13.178  66.324  1.00  0.00     0.000 HD 
HETATM   27  C   UNL     1      -8.330  13.140  67.199  1.00  0.00    -0.140 A  
HETATM   28  C   UNL     1      -8.389  14.520  67.384  1.00  0.00    -0.217 A  
HETATM   29  C   UNL     1      -9.471  15.062  68.065  1.00  0.00    -0.193 A  
HETATM   30  O   UNL     1      -9.595  16.403  68.270  1.00  0.00    -0.213 OA 
HETATM   31  C   UNL     1     -10.475  14.245  68.578  1.00  0.00    -0.253 A  
HETATM   32  H   UNL     1     -10.335  16.774  68.736  1.00  0.00     0.000 HD 
ENDBRANCH  16  19
ENDBRANCH  15  16
ENDBRANCH  13  15
ENDBRANCH   6   9
ENDBRANCH   2   3
TORSDOF 5
ENDMDL
MODEL      271
REMARK 921   NORMALIZED FREE ENERGY PREDICTED BY IDOCK:   -2.54 KCAL/MOL
REMARK 922        TOTAL FREE ENERGY PREDICTED BY IDOCK:   -3.53 KCAL/MOL
REMARK 923 INTER-LIGAND FREE ENERGY PREDICTED BY IDOCK:   -4.31 KCAL/MOL
REMARK 924 INTRA-LIGAND FREE ENERGY PREDICTED BY IDOCK:    0.78 KCAL/MOL
REMARK 927      BINDING AFFINITY PREDICTED BY RF-SCORE:    0.00 PKD
ROOT
HETATM    1  C   UNL     1     -12.286  13.106  63.671  1.00  0.00    -0.479 C  
HETATM    2  O   UNL     1     -11.482  13.303  64.831  1.00  0.00    -0.304 OA 
ENDROOT
BRANCH   2   3
HETATM    3  C   UNL     1     -11.072  12.167  65.482  1.00  0.00    -0.316 A  
HETATM    4  C   UNL     1     -11.280  11.894  66.830  1.00  0.00    -0.382 A  
HETATM    5  C   UNL     1     -10.796  10.711  67.390  1.00  0.00    -0.353 A  
HETATM    6  C   UNL     1     -10.110   9.767  66.611  1.00  0.00    -0.303 A  
HETATM    7  C   UNL     1     -10.401  11.230  64.693  1.00  0.00    -0.373 A  
HETATM    8  C   UNL     1      -9.922  10.040  65.250  1.00  0.00    -0.368 A  
BRANCH   6   9
HETATM    9  C   UNL     1      -9.583   8.494  67.253  1.00  0.00    -0.220 C  
HETATM   10  C   UNL     1      -8.119   8.521  67.813  1.00  0.00    -0.115 C  
HETATM   11  C   UNL     1      -8.057   9.462  69.031  1.00  0.00    -0.106 C  
HETATM   12  C   UNL     1      -7.118   8.966  66.728  1.00  0.00    -0.081 C  
HETATM   13  N   UNL     1      -7.796   7.138  68.252  1.00  0.00    -0.120 NA 
HETATM   14  H   UNL     1      -7.935   6.486  67.479  1.00  0.00     0.000 HD 
BRANCH  13  15
HETATM   15  C   UNL     1      -6.449   6.949  68.835  1.00  0.00    -0.036 C  
BRANCH  15  16
HETATM   16  C   UNL     1      -6.466   6.708  70.364  1.00  0.00    -0.044 C  
HETATM   17  H   UNL     1      -5.162   6.756  71.845  1.00  0.00     0.000 HD 
HETATM   18  O   UNL     1      -5.152   6.903  70.907  1.00  0.00    -0.022 OA 
BRANCH  16  19
HETATM   19  C   UNL     1      -7.024   5.350  70.731  1.00  0.00    -0.056 A  
HETATM   20  C   UNL     1      -7.130   4.329  69.771  1.00  0.00    -0.049 A  
HETATM   21  O   UNL     1      -6.760   4.630  68.484  1.00  0.00    -0.047 OA 
HETATM   22  C   UNL     1      -6.519   3.486  67.673  1.00  0.00    -0.037 C  
HETATM   23  C   UNL     1      -7.459   2.302  67.852  1.00  0.00    -0.055 C  
HETATM   24  O   UNL     1      -7.757   1.522  66.951  1.00  0.00    -0.062 OA 
HETATM   25  N   UNL     1      -7.872   2.107  69.143  1.00  0.00    -0.046 N  
HETATM   26  H   UNL     1      -8.345   1.238  69.392  1.00  0.00     0.000 HD 
HETATM   27  C   UNL     1      -7.657   3.078  70.127  1.00  0.00    -0.043 A  
HETATM   28  C   UNL     1      -8.026   2.809  71.444  1.00  0.00    -0.051 A  
HETATM   29  C   UNL     1      -7.878   3.805  72.401  1.00  0.00    -0.069 A  
HETATM   30  O   UNL     1      -8.208   3.604  73.707  1.00  0.00    -0.081 OA 
HETATM   31  C   UNL     1      -7.392   5.063  72.055  1.00  0.00    -0.089 A  
HETATM   32  H   UNL     1      -8.107   4.285  74.361  1.00  0.00     0.000 HD 
ENDBRANCH  16  19
ENDBRANCH  15  16
ENDBRANCH  13  15
ENDBRANCH   6   9
ENDBRANCH   2   3
TORSDOF 5
ENDMDL
MODEL      272
REMARK 921   NORMALIZED FREE ENERGY PREDICTED BY IDOCK:   -2.48 KCAL/MOL
REMARK 922        TOTAL FREE ENERGY PREDICTED BY IDOCK:   -3.44 KCAL/MOL
REMARK 923 INTER-LIGAND FREE ENERGY PREDICTED BY IDOCK:   -3.78 KCAL/MOL
REMARK 924 INTRA-LIGAND FREE ENERGY PREDICTED BY IDOCK:    0.33 KCAL/MOL
REMARK 927      BINDING AFFINITY PREDICTED BY RF-SCORE:    0.00 PKD
ROOT
HETATM    1  C   UNL     1      -5.230  13.722  73.297  1.00  0.00    -0.164 C  
HETATM    2  O   UNL     1      -5.655  14.341  72.086  1.00  0.00    -0.189 OA 
ENDROOT
BRANCH   2   3
HETATM    3  C   UNL     1      -5.686  13.536  70.976  1.00  0.00    -0.188 A  
HETATM    4  C   UNL     1      -5.192  12.238  70.910  1.00  0.00    -0.153 A  
HETATM    5  C   UNL     1      -5.259  11.521  69.715  1.00  0.00    -0.061 A  
HETATM    6  C   UNL     1      -5.838  12.078  68.565  1.00  0.00    -0.052 A  
HETATM    7  C   UNL     1      -6.275  14.099  69.841  1.00  0.00    -0.146 A  
HETATM    8  C   UNL     1      -6.351  13.379  68.644  1.00  0.00    -0.091 A  
BRANCH   6   9
HETATM    9  C   UNL     1      -5.884  11.276  67.274  1.00  0.00    -0.071 C  
HETATM   10  C   UNL     1      -7.158  10.399  67.015  1.00  0.00    -0.092 C  
HETATM   11  C   UNL     1      -8.372  11.320  66.785  1.00  0.00    -0.156 C  
HETATM   12  C   UNL     1      -7.418   9.437  68.192  1.00  0.00    -0.079 C  
HETATM   13  N   UNL     1      -6.902   9.615  65.779  1.00  0.00    -0.089 NA 
HETATM   14  H   UNL     1      -6.040   9.079  65.879  1.00  0.00     0.000 HD 
BRANCH  13  15
HETATM   15  C   UNL     1      -8.001   8.725  65.344  1.00  0.00    -0.112 C  
BRANCH  15  16
HETATM   16  C   UNL     1      -7.537   7.290  65.000  1.00  0.00    -0.107 C  
HETATM   17  H   UNL     1      -7.184   6.243  63.364  1.00  0.00     0.000 HD 
HETATM   18  O   UNL     1      -7.470   7.124  63.576  1.00  0.00    -0.085 OA 
BRANCH  16  19
HETATM   19  C   UNL     1      -8.403   6.230  65.645  1.00  0.00    -0.147 A  
HETATM   20  C   UNL     1      -8.999   5.216  64.874  1.00  0.00    -0.082 A  
HETATM   21  O   UNL     1      -8.807   5.260  63.516  1.00  0.00    -0.050 OA 
HETATM   22  C   UNL     1      -9.089   4.031  62.856  1.00  0.00    -0.115 C  
HETATM   23  C   UNL     1     -10.295   3.242  63.350  1.00  0.00    -0.214 C  
HETATM   24  O   UNL     1     -10.984   2.525  62.630  1.00  0.00    -0.173 OA 
HETATM   25  N   UNL     1     -10.492   3.314  64.703  1.00  0.00    -0.421 N  
HETATM   26  H   UNL     1     -11.153   2.675  65.147  1.00  0.00     0.000 HD 
HETATM   27  C   UNL     1      -9.807   4.246  65.488  1.00  0.00    -0.215 A  
HETATM   28  C   UNL     1      -9.981   4.235  66.871  1.00  0.00    -0.178 A  
HETATM   29  C   UNL     1      -9.355   5.211  67.635  1.00  0.00    -0.122 A  
HETATM   30  O   UNL     1      -9.474   5.251  68.991  1.00  0.00    -0.120 OA 
HETATM   31  C   UNL     1      -8.581   6.203  67.036  1.00  0.00    -0.108 A  
HETATM   32  H   UNL     1      -9.046   5.918  69.514  1.00  0.00     0.000 HD 
ENDBRANCH  16  19
ENDBRANCH  15  16
ENDBRANCH  13  15
ENDBRANCH   6   9
ENDBRANCH   2   3
TORSDOF 5
ENDMDL
MODEL      273
REMARK 921   NORMALIZED FREE ENERGY PREDICTED BY IDOCK:   -2.37 KCAL/MOL
REMARK 922        TOTAL FREE ENERGY PREDICTED BY IDOCK:   -3.30 KCAL/MOL
REMARK 923 INTER-LIGAND FREE ENERGY PREDICTED BY IDOCK:   -3.05 KCAL/MOL
REMARK 924 INTRA-LIGAND FREE ENERGY PREDICTED BY IDOCK:   -0.26 KCAL/MOL
REMARK 927      BINDING AFFINITY PREDICTED BY RF-SCORE:    0.00 PKD
ROOT
HETATM    1  C   UNL     1      -5.557  14.392  74.068  1.00  0.00     0.000 C  
HETATM    2  O   UNL     1      -5.798  14.963  72.785  1.00  0.00     0.346 OA 
ENDROOT
BRANCH   2   3
HETATM    3  C   UNL     1      -5.709  14.107  71.717  1.00  0.00    -0.173 A  
HETATM    4  C   UNL     1      -5.284  12.784  71.780  1.00  0.00    -0.029 A  
HETATM    5  C   UNL     1      -5.213  12.013  70.619  1.00  0.00    -0.136 A  
HETATM    6  C   UNL     1      -5.583  12.541  69.373  1.00  0.00    -0.080 A  
HETATM    7  C   UNL     1      -6.092  14.641  70.484  1.00  0.00    -0.169 A  
HETATM    8  C   UNL     1      -6.030  13.867  69.320  1.00  0.00    -0.090 A  
BRANCH   6   9
HETATM    9  C   UNL     1      -5.482  11.680  68.124  1.00  0.00    -0.043 C  
HETATM   10  C   UNL     1      -6.718  10.783  67.765  1.00  0.00    -0.068 C  
HETATM   11  C   UNL     1      -7.899  11.683  67.357  1.00  0.00    -0.147 C  
HETATM   12  C   UNL     1      -7.106   9.875  68.949  1.00  0.00    -0.071 C  
HETATM   13  N   UNL     1      -6.322   9.944  66.604  1.00  0.00    -0.068 NA 
HETATM   14  H   UNL     1      -5.476   9.420  66.825  1.00  0.00     0.000 HD 
BRANCH  13  15
HETATM   15  C   UNL     1      -7.364   9.027  66.090  1.00  0.00    -0.091 C  
BRANCH  15  16
HETATM   16  C   UNL     1      -7.009   7.530  66.259  1.00  0.00    -0.066 C  
HETATM   17  H   UNL     1      -5.807   6.228  65.391  1.00  0.00     0.000 HD 
HETATM   18  O   UNL     1      -6.026   7.146  65.287  1.00  0.00    -0.036 OA 
BRANCH  16  19
HETATM   19  C   UNL     1      -8.228   6.636  66.203  1.00  0.00    -0.124 A  
HETATM   20  C   UNL     1      -9.185   6.651  67.232  1.00  0.00    -0.125 A  
HETATM   21  O   UNL     1      -8.941   7.466  68.310  1.00  0.00    -0.131 OA 
HETATM   22  C   UNL     1     -10.092   7.731  69.102  1.00  0.00    -0.196 C  
HETATM   23  C   UNL     1     -11.058   6.575  69.326  1.00  0.00    -0.334 C  
HETATM   24  O   UNL     1     -11.740   6.440  70.338  1.00  0.00    -0.396 OA 
HETATM   25  N   UNL     1     -11.189   5.740  68.249  1.00  0.00    -0.005 N  
HETATM   26  H   UNL     1     -11.945   5.055  68.235  1.00  0.00     0.000 HD 
HETATM   27  C   UNL     1     -10.305   5.808  67.167  1.00  0.00    -0.240 A  
HETATM   28  C   UNL     1     -10.519   4.992  66.057  1.00  0.00    -0.289 A  
HETATM   29  C   UNL     1      -9.595   5.011  65.020  1.00  0.00     0.095 A  
HETATM   30  O   UNL     1      -9.750   4.247  63.904  1.00  0.00    -0.244 OA 
HETATM   31  C   UNL     1      -8.459   5.814  65.088  1.00  0.00    -0.138 A  
HETATM   32  H   UNL     1      -9.118   4.260  63.194  1.00  0.00     0.000 HD 
ENDBRANCH  16  19
ENDBRANCH  15  16
ENDBRANCH  13  15
ENDBRANCH   6   9
ENDBRANCH   2   3
TORSDOF 5
ENDMDL
MODEL      274
REMARK 921   NORMALIZED FREE ENERGY PREDICTED BY IDOCK:   -2.36 KCAL/MOL
REMARK 922        TOTAL FREE ENERGY PREDICTED BY IDOCK:   -3.29 KCAL/MOL
REMARK 923 INTER-LIGAND FREE ENERGY PREDICTED BY IDOCK:   -2.45 KCAL/MOL
REMARK 924 INTRA-LIGAND FREE ENERGY PREDICTED BY IDOCK:   -0.84 KCAL/MOL
REMARK 927      BINDING AFFINITY PREDICTED BY RF-SCORE:    0.00 PKD
ROOT
HETATM    1  C   UNL     1     -12.950  13.998  65.688  1.00  0.00    -0.297 C  
HETATM    2  O   UNL     1     -11.756  14.540  66.245  1.00  0.00    -0.371 OA 
ENDROOT
BRANCH   2   3
HETATM    3  C   UNL     1     -10.760  13.640  66.529  1.00  0.00    -0.284 A  
HETATM    4  C   UNL     1     -10.817  12.664  67.519  1.00  0.00    -0.267 A  
HETATM    5  C   UNL     1      -9.729  11.817  67.732  1.00  0.00    -0.185 A  
HETATM    6  C   UNL     1      -8.569  11.913  66.949  1.00  0.00    -0.185 A  
HETATM    7  C   UNL     1      -9.616  13.738  65.735  1.00  0.00    -0.097 A  
HETATM    8  C   UNL     1      -8.527  12.884  65.941  1.00  0.00     1.118 A  
BRANCH   6   9
HETATM    9  C   UNL     1      -7.395  10.983  67.214  1.00  0.00    -0.106 C  
HETATM   10  C   UNL     1      -7.590   9.463  66.882  1.00  0.00    -0.091 C  
HETATM   11  C   UNL     1      -7.712   9.287  65.356  1.00  0.00    -0.099 C  
HETATM   12  C   UNL     1      -8.831   8.893  67.598  1.00  0.00    -0.137 C  
HETATM   13  N   UNL     1      -6.372   8.755  67.356  1.00  0.00    -0.056 NA 
HETATM   14  H   UNL     1      -6.220   8.950  68.346  1.00  0.00     0.000 HD 
BRANCH  13  15
HETATM   15  C   UNL     1      -6.346   7.295  67.119  1.00  0.00    -0.051 C  
BRANCH  15  16
HETATM   16  C   UNL     1      -5.842   6.480  68.334  1.00  0.00    -0.020 C  
HETATM   17  H   UNL     1      -5.116   4.673  68.655  1.00  0.00     0.000 HD 
HETATM   18  O   UNL     1      -5.425   5.173  67.910  1.00  0.00    -0.011 OA 
BRANCH  16  19
HETATM   19  C   UNL     1      -6.865   6.404  69.446  1.00  0.00    -0.065 A  
HETATM   20  C   UNL     1      -6.703   7.146  70.628  1.00  0.00    -0.052 A  
HETATM   21  O   UNL     1      -5.559   7.895  70.754  1.00  0.00    -0.029 OA 
HETATM   22  C   UNL     1      -5.637   8.898  71.759  1.00  0.00    -0.056 C  
HETATM   23  C   UNL     1      -6.355   8.530  73.050  1.00  0.00    -0.085 C  
HETATM   24  O   UNL     1      -6.068   8.996  74.150  1.00  0.00    -0.238 OA 
HETATM   25  N   UNL     1      -7.432   7.703  72.873  1.00  0.00    -0.090 N  
HETATM   26  H   UNL     1      -8.082   7.555  73.646  1.00  0.00     0.000 HD 
HETATM   27  C   UNL     1      -7.659   7.058  71.653  1.00  0.00    -0.089 A  
HETATM   28  C   UNL     1      -8.808   6.285  71.491  1.00  0.00    -0.138 A  
HETATM   29  C   UNL     1      -8.987   5.588  70.304  1.00  0.00    -0.137 A  
HETATM   30  O   UNL     1     -10.092   4.825  70.077  1.00  0.00    -0.239 OA 
HETATM   31  C   UNL     1      -8.030   5.636  69.294  1.00  0.00    -0.096 A  
HETATM   32  H   UNL     1     -10.215   4.348  69.265  1.00  0.00     0.000 HD 
ENDBRANCH  16  19
ENDBRANCH  15  16
ENDBRANCH  13  15
ENDBRANCH   6   9
ENDBRANCH   2   3
TORSDOF 5
ENDMDL
MODEL      275
REMARK 921   NORMALIZED FREE ENERGY PREDICTED BY IDOCK:   -2.16 KCAL/MOL
REMARK 922        TOTAL FREE ENERGY PREDICTED BY IDOCK:   -3.04 KCAL/MOL
REMARK 923 INTER-LIGAND FREE ENERGY PREDICTED BY IDOCK:   -2.65 KCAL/MOL
REMARK 924 INTRA-LIGAND FREE ENERGY PREDICTED BY IDOCK:   -0.39 KCAL/MOL
REMARK 927      BINDING AFFINITY PREDICTED BY RF-SCORE:    0.00 PKD
ROOT
HETATM    1  C   UNL     1      -7.158  16.547  67.882  1.00  0.00    -0.137 C  
HETATM    2  O   UNL     1      -6.319  15.422  67.633  1.00  0.00    -0.146 OA 
ENDROOT
BRANCH   2   3
HETATM    3  C   UNL     1      -6.877  14.191  67.862  1.00  0.00    -0.165 A  
HETATM    4  C   UNL     1      -8.148  13.968  68.382  1.00  0.00    -0.148 A  
HETATM    5  C   UNL     1      -8.602  12.666  68.594  1.00  0.00     0.046 A  
HETATM    6  C   UNL     1      -7.804  11.558  68.273  1.00  0.00    -0.138 A  
HETATM    7  C   UNL     1      -6.077  13.095  67.528  1.00  0.00    -0.112 A  
HETATM    8  C   UNL     1      -6.534  11.789  67.731  1.00  0.00    -0.075 A  
BRANCH   6   9
HETATM    9  C   UNL     1      -8.322  10.151  68.528  1.00  0.00    -0.116 C  
HETATM   10  C   UNL     1      -8.495   9.210  67.285  1.00  0.00    -0.121 C  
HETATM   11  C   UNL     1      -7.107   8.869  66.708  1.00  0.00    -0.081 C  
HETATM   12  C   UNL     1      -9.385   9.867  66.211  1.00  0.00    -0.224 C  
HETATM   13  N   UNL     1      -9.139   7.962  67.771  1.00  0.00    -0.134 NA 
HETATM   14  H   UNL     1     -10.012   8.185  68.250  1.00  0.00     0.000 HD 
BRANCH  13  15
HETATM   15  C   UNL     1      -9.377   6.922  66.746  1.00  0.00    -0.158 C  
BRANCH  15  16
HETATM   16  C   UNL     1      -8.165   5.988  66.519  1.00  0.00    -0.107 C  
HETATM   17  H   UNL     1      -7.516   4.790  65.090  1.00  0.00     0.000 HD 
HETATM   18  O   UNL     1      -8.260   5.364  65.230  1.00  0.00    -0.120 OA 
BRANCH  16  19
HETATM   19  C   UNL     1      -8.007   4.965  67.623  1.00  0.00    -0.094 A  
HETATM   20  C   UNL     1      -7.377   5.300  68.834  1.00  0.00    -0.070 A  
HETATM   21  O   UNL     1      -6.867   6.569  68.951  1.00  0.00    -0.064 OA 
HETATM   22  C   UNL     1      -6.607   6.961  70.294  1.00  0.00    -0.048 C  
HETATM   23  C   UNL     1      -6.025   5.905  71.223  1.00  0.00    -0.026 C  
HETATM   24  O   UNL     1      -5.271   6.156  72.158  1.00  0.00    -0.021 OA 
HETATM   25  N   UNL     1      -6.500   4.640  70.996  1.00  0.00    -0.026 N  
HETATM   26  H   UNL     1      -6.315   3.906  71.680  1.00  0.00     0.000 HD 
HETATM   27  C   UNL     1      -7.232   4.336  69.843  1.00  0.00    -0.046 A  
HETATM   28  C   UNL     1      -7.760   3.055  69.687  1.00  0.00    -0.045 A  
HETATM   29  C   UNL     1      -8.421   2.740  68.508  1.00  0.00    -0.069 A  
HETATM   30  O   UNL     1      -8.970   1.512  68.296  1.00  0.00    -0.093 OA 
HETATM   31  C   UNL     1      -8.540   3.674  67.482  1.00  0.00    -0.112 A  
HETATM   32  H   UNL     1      -9.422   1.296  67.489  1.00  0.00     0.000 HD 
ENDBRANCH  16  19
ENDBRANCH  15  16
ENDBRANCH  13  15
ENDBRANCH   6   9
ENDBRANCH   2   3
TORSDOF 5
ENDMDL
MODEL      276
REMARK 921   NORMALIZED FREE ENERGY PREDICTED BY IDOCK:   -2.06 KCAL/MOL
REMARK 922        TOTAL FREE ENERGY PREDICTED BY IDOCK:   -2.90 KCAL/MOL
REMARK 923 INTER-LIGAND FREE ENERGY PREDICTED BY IDOCK:   -4.06 KCAL/MOL
REMARK 924 INTRA-LIGAND FREE ENERGY PREDICTED BY IDOCK:    1.15 KCAL/MOL
REMARK 927      BINDING AFFINITY PREDICTED BY RF-SCORE:    0.00 PKD
ROOT
HETATM    1  C   UNL     1     -13.645  12.367  72.079  1.00  0.00    -0.252 C  
HETATM    2  O   UNL     1     -13.274  11.079  72.564  1.00  0.00    -0.050 OA 
ENDROOT
BRANCH   2   3
HETATM    3  C   UNL     1     -12.591  10.277  71.686  1.00  0.00    -0.432 A  
HETATM    4  C   UNL     1     -12.282   8.937  71.895  1.00  0.00    -0.445 A  
HETATM    5  C   UNL     1     -11.561   8.225  70.936  1.00  0.00    -0.282 A  
HETATM    6  C   UNL     1     -11.149   8.831  69.740  1.00  0.00    -0.080 A  
HETATM    7  C   UNL     1     -12.197  10.888  70.493  1.00  0.00    -0.459 A  
HETATM    8  C   UNL     1     -11.481  10.174  69.527  1.00  0.00    -0.227 A  
BRANCH   6   9
HETATM    9  C   UNL     1     -10.353   8.032  68.720  1.00  0.00    -0.223 C  
HETATM   10  C   UNL     1      -8.789   8.050  68.850  1.00  0.00    -0.141 C  
HETATM   11  C   UNL     1      -8.377   7.305  70.134  1.00  0.00    -0.137 C  
HETATM   12  C   UNL     1      -8.251   9.495  68.861  1.00  0.00    -0.116 C  
HETATM   13  N   UNL     1      -8.247   7.325  67.672  1.00  0.00    -0.114 NA 
HETATM   14  H   UNL     1      -8.599   7.745  66.812  1.00  0.00     0.000 HD 
BRANCH  13  15
HETATM   15  C   UNL     1      -6.773   7.212  67.612  1.00  0.00    -0.064 C  
BRANCH  15  16
HETATM   16  C   UNL     1      -6.110   8.252  66.677  1.00  0.00    -0.053 C  
HETATM   17  H   UNL     1      -5.881  10.212  66.635  1.00  0.00     0.000 HD 
HETATM   18  O   UNL     1      -6.288   9.573  67.208  1.00  0.00    -0.066 OA 
BRANCH  16  19
HETATM   19  C   UNL     1      -6.609   8.152  65.252  1.00  0.00    -0.052 A  
HETATM   20  C   UNL     1      -6.951   6.909  64.692  1.00  0.00    -0.058 A  
HETATM   21  O   UNL     1      -6.764   5.792  65.468  1.00  0.00    -0.045 OA 
HETATM   22  C   UNL     1      -7.476   4.649  65.011  1.00  0.00    -0.076 C  
HETATM   23  C   UNL     1      -7.538   4.430  63.505  1.00  0.00    -0.059 C  
HETATM   24  O   UNL     1      -7.599   3.323  62.977  1.00  0.00    -0.053 OA 
HETATM   25  N   UNL     1      -7.628   5.586  62.776  1.00  0.00    -0.062 N  
HETATM   26  H   UNL     1      -7.863   5.535  61.785  1.00  0.00     0.000 HD 
HETATM   27  C   UNL     1      -7.404   6.834  63.366  1.00  0.00    -0.073 A  
HETATM   28  C   UNL     1      -7.580   7.990  62.606  1.00  0.00    -0.118 A  
HETATM   29  C   UNL     1      -7.283   9.221  63.177  1.00  0.00    -0.095 A  
HETATM   30  O   UNL     1      -7.443  10.388  62.494  1.00  0.00    -0.136 OA 
HETATM   31  C   UNL     1      -6.797   9.308  64.479  1.00  0.00    -0.089 A  
HETATM   32  H   UNL     1      -7.241  11.230  62.884  1.00  0.00     0.000 HD 
ENDBRANCH  16  19
ENDBRANCH  15  16
ENDBRANCH  13  15
ENDBRANCH   6   9
ENDBRANCH   2   3
TORSDOF 5
ENDMDL
MODEL      277
REMARK 921   NORMALIZED FREE ENERGY PREDICTED BY IDOCK:   -1.98 KCAL/MOL
REMARK 922        TOTAL FREE ENERGY PREDICTED BY IDOCK:   -2.80 KCAL/MOL
REMARK 923 INTER-LIGAND FREE ENERGY PREDICTED BY IDOCK:   -2.98 KCAL/MOL
REMARK 924 INTRA-LIGAND FREE ENERGY PREDICTED BY IDOCK:    0.18 KCAL/MOL
REMARK 927      BINDING AFFINITY PREDICTED BY RF-SCORE:    0.00 PKD
ROOT
HETATM    1  C   UNL     1      -6.532  16.780  69.499  1.00  0.00    -0.225 C  
HETATM    2  O   UNL     1      -6.137  15.513  70.018  1.00  0.00    -0.150 OA 
ENDROOT
BRANCH   2   3
HETATM    3  C   UNL     1      -6.269  14.445  69.168  1.00  0.00    -0.098 A  
HETATM    4  C   UNL     1      -7.305  14.266  68.257  1.00  0.00    -0.124 A  
HETATM    5  C   UNL     1      -7.347  13.123  67.457  1.00  0.00    -0.153 A  
HETATM    6  C   UNL     1      -6.346  12.143  67.537  1.00  0.00    -0.129 A  
HETATM    7  C   UNL     1      -5.260  13.482  69.249  1.00  0.00    -0.077 A  
HETATM    8  C   UNL     1      -5.296  12.340  68.443  1.00  0.00    -0.052 A  
BRANCH   6   9
HETATM    9  C   UNL     1      -6.426  10.903  66.662  1.00  0.00    -0.120 C  
HETATM   10  C   UNL     1      -6.638   9.525  67.381  1.00  0.00    -0.070 C  
HETATM   11  C   UNL     1      -8.046   9.487  68.004  1.00  0.00    -0.102 C  
HETATM   12  C   UNL     1      -5.558   9.290  68.456  1.00  0.00    -0.041 C  
HETATM   13  N   UNL     1      -6.540   8.471  66.337  1.00  0.00    -0.058 NA 
HETATM   14  H   UNL     1      -5.651   8.552  65.843  1.00  0.00     0.000 HD 
BRANCH  13  15
HETATM   15  C   UNL     1      -6.731   7.082  66.809  1.00  0.00    -0.060 C  
BRANCH  15  16
HETATM   16  C   UNL     1      -8.019   6.416  66.270  1.00  0.00    -0.111 C  
HETATM   17  H   UNL     1      -9.418   5.211  66.966  1.00  0.00     0.000 HD 
HETATM   18  O   UNL     1      -8.627   5.619  67.297  1.00  0.00    -0.111 OA 
BRANCH  16  19
HETATM   19  C   UNL     1      -7.773   5.612  65.012  1.00  0.00    -0.094 A  
HETATM   20  C   UNL     1      -8.773   4.781  64.479  1.00  0.00    -0.153 A  
HETATM   21  O   UNL     1      -9.954   4.688  65.172  1.00  0.00    -0.149 OA 
HETATM   22  C   UNL     1     -11.032   4.166  64.403  1.00  0.00     0.002 C  
HETATM   23  C   UNL     1     -10.710   3.024  63.448  1.00  0.00    -0.246 C  
HETATM   24  O   UNL     1     -11.506   2.139  63.148  1.00  0.00    -0.347 OA 
HETATM   25  N   UNL     1      -9.478   3.120  62.858  1.00  0.00    -0.093 N  
HETATM   26  H   UNL     1      -9.251   2.512  62.071  1.00  0.00     0.000 HD 
HETATM   27  C   UNL     1      -8.524   4.035  63.315  1.00  0.00    -0.096 A  
HETATM   28  C   UNL     1      -7.311   4.153  62.640  1.00  0.00    -0.044 A  
HETATM   29  C   UNL     1      -6.341   5.009  63.144  1.00  0.00    -0.026 A  
HETATM   30  O   UNL     1      -5.139   5.179  62.526  1.00  0.00    -0.009 OA 
HETATM   31  C   UNL     1      -6.559   5.726  64.318  1.00  0.00    -0.041 A  
HETATM   32  H   UNL     1      -4.475   5.765  62.871  1.00  0.00     0.000 HD 
ENDBRANCH  16  19
ENDBRANCH  15  16
ENDBRANCH  13  15
ENDBRANCH   6   9
ENDBRANCH   2   3
TORSDOF 5
ENDMDL
MODEL      278
REMARK 921   NORMALIZED FREE ENERGY PREDICTED BY IDOCK:   -1.72 KCAL/MOL
REMARK 922        TOTAL FREE ENERGY PREDICTED BY IDOCK:   -2.47 KCAL/MOL
REMARK 923 INTER-LIGAND FREE ENERGY PREDICTED BY IDOCK:   -2.58 KCAL/MOL
REMARK 924 INTRA-LIGAND FREE ENERGY PREDICTED BY IDOCK:    0.12 KCAL/MOL
REMARK 927      BINDING AFFINITY PREDICTED BY RF-SCORE:    0.00 PKD
ROOT
HETATM    1  C   UNL     1      -5.943  15.754  70.650  1.00  0.00     0.118 C  
HETATM    2  O   UNL     1      -6.127  14.480  71.260  1.00  0.00    -0.120 OA 
ENDROOT
BRANCH   2   3
HETATM    3  C   UNL     1      -5.983  13.391  70.439  1.00  0.00    -0.132 A  
HETATM    4  C   UNL     1      -6.128  13.403  69.056  1.00  0.00    -0.087 A  
HETATM    5  C   UNL     1      -5.980  12.224  68.324  1.00  0.00    -0.054 A  
HETATM    6  C   UNL     1      -5.667  11.011  68.957  1.00  0.00    -0.040 A  
HETATM    7  C   UNL     1      -5.660  12.192  71.080  1.00  0.00    -0.037 A  
HETATM    8  C   UNL     1      -5.504  11.011  70.347  1.00  0.00    -0.106 A  
BRANCH   6   9
HETATM    9  C   UNL     1      -5.526   9.741  68.134  1.00  0.00    -0.039 C  
HETATM   10  C   UNL     1      -6.431   8.522  68.527  1.00  0.00    -0.055 C  
HETATM   11  C   UNL     1      -7.902   8.861  68.219  1.00  0.00    -0.101 C  
HETATM   12  C   UNL     1      -6.255   8.157  70.014  1.00  0.00    -0.032 C  
HETATM   13  N   UNL     1      -6.009   7.376  67.679  1.00  0.00    -0.037 NA 
HETATM   14  H   UNL     1      -5.010   7.208  67.794  1.00  0.00     0.000 HD 
BRANCH  13  15
HETATM   15  C   UNL     1      -6.760   6.118  67.883  1.00  0.00    -0.064 C  
BRANCH  15  16
HETATM   16  C   UNL     1      -8.096   6.062  67.104  1.00  0.00    -0.106 C  
HETATM   17  H   UNL     1      -9.726   4.948  67.117  1.00  0.00     0.000 HD 
HETATM   18  O   UNL     1      -8.906   4.983  67.594  1.00  0.00    -0.104 OA 
BRANCH  16  19
HETATM   19  C   UNL     1      -7.892   5.969  65.607  1.00  0.00    -0.103 A  
HETATM   20  C   UNL     1      -8.131   7.076  64.775  1.00  0.00    -0.096 A  
HETATM   21  O   UNL     1      -8.607   8.220  65.366  1.00  0.00    -0.167 OA 
HETATM   22  C   UNL     1      -8.455   9.386  64.565  1.00  0.00    -0.177 C  
HETATM   23  C   UNL     1      -8.706   9.235  63.070  1.00  0.00    -0.196 C  
HETATM   24  O   UNL     1      -9.147  10.132  62.357  1.00  0.00    -0.238 OA 
HETATM   25  N   UNL     1      -8.297   8.035  62.554  1.00  0.00    -0.340 N  
HETATM   26  H   UNL     1      -8.251   7.915  61.542  1.00  0.00     0.000 HD 
HETATM   27  C   UNL     1      -7.943   6.969  63.388  1.00  0.00    -0.062 A  
HETATM   28  C   UNL     1      -7.461   5.790  62.823  1.00  0.00    -0.059 A  
HETATM   29  C   UNL     1      -7.183   4.711  63.652  1.00  0.00    -0.050 A  
HETATM   30  O   UNL     1      -6.699   3.535  63.166  1.00  0.00    -0.029 OA 
HETATM   31  C   UNL     1      -7.400   4.790  65.026  1.00  0.00    -0.072 A  
HETATM   32  H   UNL     1      -6.509   2.797  63.733  1.00  0.00     0.000 HD 
ENDBRANCH  16  19
ENDBRANCH  15  16
ENDBRANCH  13  15
ENDBRANCH   6   9
ENDBRANCH   2   3
TORSDOF 5
ENDMDL
MODEL      279
REMARK 921   NORMALIZED FREE ENERGY PREDICTED BY IDOCK:   -1.66 KCAL/MOL
REMARK 922        TOTAL FREE ENERGY PREDICTED BY IDOCK:   -2.39 KCAL/MOL
REMARK 923 INTER-LIGAND FREE ENERGY PREDICTED BY IDOCK:   -2.53 KCAL/MOL
REMARK 924 INTRA-LIGAND FREE ENERGY PREDICTED BY IDOCK:    0.14 KCAL/MOL
REMARK 927      BINDING AFFINITY PREDICTED BY RF-SCORE:    0.00 PKD
ROOT
HETATM    1  C   UNL     1      -5.652  16.216  70.616  1.00  0.00    -0.052 C  
HETATM    2  O   UNL     1      -6.220  15.033  71.172  1.00  0.00     0.136 OA 
ENDROOT
BRANCH   2   3
HETATM    3  C   UNL     1      -6.054  13.884  70.442  1.00  0.00    -0.143 A  
HETATM    4  C   UNL     1      -6.499  13.688  69.138  1.00  0.00    -0.107 A  
HETATM    5  C   UNL     1      -6.293  12.464  68.502  1.00  0.00    -0.064 A  
HETATM    6  C   UNL     1      -5.622  11.414  69.147  1.00  0.00    -0.044 A  
HETATM    7  C   UNL     1      -5.375  12.850  71.091  1.00  0.00    -0.176 A  
HETATM    8  C   UNL     1      -5.160  11.625  70.452  1.00  0.00    -0.094 A  
BRANCH   6   9
HETATM    9  C   UNL     1      -5.424  10.087  68.432  1.00  0.00    -0.039 C  
HETATM   10  C   UNL     1      -5.986   8.800  69.131  1.00  0.00    -0.042 C  
HETATM   11  C   UNL     1      -7.525   8.857  69.140  1.00  0.00    -0.073 C  
HETATM   12  C   UNL     1      -5.437   8.664  70.566  1.00  0.00    -0.027 C  
HETATM   13  N   UNL     1      -5.547   7.637  68.317  1.00  0.00    -0.027 NA 
HETATM   14  H   UNL     1      -4.532   7.647  68.215  1.00  0.00     0.000 HD 
BRANCH  13  15
HETATM   15  C   UNL     1      -5.993   6.311  68.801  1.00  0.00    -0.021 C  
BRANCH  15  16
HETATM   16  C   UNL     1      -6.686   5.457  67.713  1.00  0.00    -0.055 C  
HETATM   17  H   UNL     1      -6.788   5.440  65.742  1.00  0.00     0.000 HD 
HETATM   18  O   UNL     1      -6.363   5.964  66.410  1.00  0.00    -0.036 OA 
BRANCH  16  19
HETATM   19  C   UNL     1      -8.183   5.361  67.917  1.00  0.00    -0.099 A  
HETATM   20  C   UNL     1      -8.727   5.203  69.203  1.00  0.00    -0.092 A  
HETATM   21  O   UNL     1      -7.849   5.086  70.252  1.00  0.00    -0.068 OA 
HETATM   22  C   UNL     1      -8.440   5.322  71.524  1.00  0.00    -0.122 C  
HETATM   23  C   UNL     1      -9.844   4.776  71.747  1.00  0.00    -0.180 C  
HETATM   24  O   UNL     1     -10.268   4.404  72.838  1.00  0.00    -0.158 OA 
HETATM   25  N   UNL     1     -10.646   4.831  70.639  1.00  0.00    -0.016 N  
HETATM   26  H   UNL     1     -11.648   4.665  70.737  1.00  0.00     0.000 HD 
HETATM   27  C   UNL     1     -10.117   5.107  69.374  1.00  0.00    -0.234 A  
HETATM   28  C   UNL     1     -10.979   5.228  68.284  1.00  0.00     0.417 A  
HETATM   29  C   UNL     1     -10.440   5.428  67.020  1.00  0.00    -0.257 A  
HETATM   30  O   UNL     1     -11.225   5.565  65.916  1.00  0.00    -0.743 OA 
HETATM   31  C   UNL     1      -9.061   5.487  66.831  1.00  0.00    -0.115 A  
HETATM   32  H   UNL     1     -10.857   5.702  65.051  1.00  0.00     0.000 HD 
ENDBRANCH  16  19
ENDBRANCH  15  16
ENDBRANCH  13  15
ENDBRANCH   6   9
ENDBRANCH   2   3
TORSDOF 5
ENDMDL
MODEL      280
REMARK 921   NORMALIZED FREE ENERGY PREDICTED BY IDOCK:   -1.39 KCAL/MOL
REMARK 922        TOTAL FREE ENERGY PREDICTED BY IDOCK:   -2.04 KCAL/MOL
REMARK 923 INTER-LIGAND FREE ENERGY PREDICTED BY IDOCK:   -2.82 KCAL/MOL
REMARK 924 INTRA-LIGAND FREE ENERGY PREDICTED BY IDOCK:    0.78 KCAL/MOL
REMARK 927      BINDING AFFINITY PREDICTED BY RF-SCORE:    0.00 PKD
ROOT
HETATM    1  C   UNL     1      -5.248  16.678  71.166  1.00  0.00    -0.074 C  
HETATM    2  O   UNL     1      -5.733  15.503  71.810  1.00  0.00     0.343 OA 
ENDROOT
BRANCH   2   3
HETATM    3  C   UNL     1      -5.803  14.375  71.034  1.00  0.00    -0.186 A  
HETATM    4  C   UNL     1      -6.097  14.351  69.674  1.00  0.00    -0.119 A  
HETATM    5  C   UNL     1      -6.164  13.136  68.991  1.00  0.00    -0.094 A  
HETATM    6  C   UNL     1      -5.920  11.920  69.647  1.00  0.00    -0.114 A  
HETATM    7  C   UNL     1      -5.547  13.172  71.695  1.00  0.00     0.055 A  
HETATM    8  C   UNL     1      -5.605  11.953  71.011  1.00  0.00    -0.017 A  
BRANCH   6   9
HETATM    9  C   UNL     1      -6.013  10.612  68.878  1.00  0.00    -0.040 C  
HETATM   10  C   UNL     1      -7.409   9.899  68.833  1.00  0.00    -0.078 C  
HETATM   11  C   UNL     1      -8.389  10.751  68.003  1.00  0.00    -0.120 C  
HETATM   12  C   UNL     1      -7.958   9.665  70.255  1.00  0.00    -0.198 C  
HETATM   13  N   UNL     1      -7.208   8.592  68.155  1.00  0.00    -0.085 NA 
HETATM   14  H   UNL     1      -6.482   8.059  68.635  1.00  0.00     0.000 HD 
BRANCH  13  15
HETATM   15  C   UNL     1      -8.421   7.761  67.992  1.00  0.00    -0.123 C  
BRANCH  15  16
HETATM   16  C   UNL     1      -9.448   8.353  66.997  1.00  0.00    -0.174 C  
HETATM   17  H   UNL     1     -11.304   7.971  66.444  1.00  0.00     0.000 HD 
HETATM   18  O   UNL     1     -10.673   7.608  67.055  1.00  0.00    -0.348 OA 
BRANCH  16  19
HETATM   19  C   UNL     1      -8.908   8.430  65.585  1.00  0.00    -0.196 A  
HETATM   20  C   UNL     1      -8.597   7.264  64.866  1.00  0.00     0.168 A  
HETATM   21  O   UNL     1      -8.750   6.063  65.512  1.00  0.00    -0.154 OA 
HETATM   22  C   UNL     1      -8.800   4.942  64.636  1.00  0.00    -0.139 C  
HETATM   23  C   UNL     1      -7.859   4.957  63.439  1.00  0.00    -0.077 C  
HETATM   24  O   UNL     1      -7.379   3.947  62.934  1.00  0.00    -0.047 OA 
HETATM   25  N   UNL     1      -7.669   6.199  62.894  1.00  0.00    -0.085 N  
HETATM   26  H   UNL     1      -7.212   6.283  61.986  1.00  0.00     0.000 HD 
HETATM   27  C   UNL     1      -8.090   7.355  63.560  1.00  0.00    -0.006 A  
HETATM   28  C   UNL     1      -7.945   8.594  62.937  1.00  0.00    -0.163 A  
HETATM   29  C   UNL     1      -8.296   9.742  63.634  1.00  0.00    -0.169 A  
HETATM   30  O   UNL     1      -8.190  10.982  63.079  1.00  0.00    -0.377 OA 
HETATM   31  C   UNL     1      -8.764   9.670  64.943  1.00  0.00    -0.207 A  
HETATM   32  H   UNL     1      -8.429  11.768  63.556  1.00  0.00     0.000 HD 
ENDBRANCH  16  19
ENDBRANCH  15  16
ENDBRANCH  13  15
ENDBRANCH   6   9
ENDBRANCH   2   3
TORSDOF 5
ENDMDL
MODEL      281
REMARK 921   NORMALIZED FREE ENERGY PREDICTED BY IDOCK:   -1.21 KCAL/MOL
REMARK 922        TOTAL FREE ENERGY PREDICTED BY IDOCK:   -1.81 KCAL/MOL
REMARK 923 INTER-LIGAND FREE ENERGY PREDICTED BY IDOCK:   -2.84 KCAL/MOL
REMARK 924 INTRA-LIGAND FREE ENERGY PREDICTED BY IDOCK:    1.03 KCAL/MOL
REMARK 927      BINDING AFFINITY PREDICTED BY RF-SCORE:    0.00 PKD
ROOT
HETATM    1  C   UNL     1      -6.073  17.114  70.334  1.00  0.00     0.252 C  
HETATM    2  O   UNL     1      -5.251  15.967  70.138  1.00  0.00    -0.134 OA 
ENDROOT
BRANCH   2   3
HETATM    3  C   UNL     1      -5.804  14.946  69.410  1.00  0.00    -0.102 A  
HETATM    4  C   UNL     1      -6.896  15.067  68.557  1.00  0.00    -0.102 A  
HETATM    5  C   UNL     1      -7.388  13.948  67.882  1.00  0.00    -0.157 A  
HETATM    6  C   UNL     1      -6.788  12.689  68.032  1.00  0.00    -0.095 A  
HETATM    7  C   UNL     1      -5.191  13.700  69.558  1.00  0.00    -0.084 A  
HETATM    8  C   UNL     1      -5.677  12.579  68.877  1.00  0.00    -0.068 A  
BRANCH   6   9
HETATM    9  C   UNL     1      -7.355  11.486  67.294  1.00  0.00    -0.131 C  
HETATM   10  C   UNL     1      -6.994  10.064  67.848  1.00  0.00    -0.084 C  
HETATM   11  C   UNL     1      -7.673   9.864  69.216  1.00  0.00    -0.109 C  
HETATM   12  C   UNL     1      -5.467   9.885  67.964  1.00  0.00    -0.039 C  
HETATM   13  N   UNL     1      -7.541   9.072  66.885  1.00  0.00    -0.093 NA 
HETATM   14  H   UNL     1      -7.179   9.259  65.950  1.00  0.00     0.000 HD 
BRANCH  13  15
HETATM   15  C   UNL     1      -7.322   7.651  67.236  1.00  0.00    -0.091 C  
BRANCH  15  16
HETATM   16  C   UNL     1      -8.627   6.822  67.301  1.00  0.00    -0.120 C  
HETATM   17  H   UNL     1     -10.498   7.121  67.852  1.00  0.00     0.000 HD 
HETATM   18  O   UNL     1      -9.697   7.630  67.813  1.00  0.00    -0.141 OA 
BRANCH  16  19
HETATM   19  C   UNL     1      -8.464   5.545  68.096  1.00  0.00    -0.098 A  
HETATM   20  C   UNL     1      -9.184   5.336  69.284  1.00  0.00    -0.114 A  
HETATM   21  O   UNL     1      -9.996   6.354  69.719  1.00  0.00    -0.162 OA 
HETATM   22  C   UNL     1     -10.968   5.946  70.674  1.00  0.00    -0.287 C  
HETATM   23  C   UNL     1     -10.525   4.933  71.721  1.00  0.00    -0.144 C  
HETATM   24  O   UNL     1     -10.980   4.883  72.861  1.00  0.00    -0.239 OA 
HETATM   25  N   UNL     1      -9.641   3.997  71.254  1.00  0.00    -0.164 N  
HETATM   26  H   UNL     1      -9.435   3.175  71.822  1.00  0.00     0.000 HD 
HETATM   27  C   UNL     1      -9.014   4.148  70.013  1.00  0.00    -0.098 A  
HETATM   28  C   UNL     1      -8.178   3.137  69.542  1.00  0.00    -0.072 A  
HETATM   29  C   UNL     1      -7.501   3.327  68.344  1.00  0.00    -0.049 A  
HETATM   30  O   UNL     1      -6.679   2.375  67.822  1.00  0.00    -0.038 OA 
HETATM   31  C   UNL     1      -7.631   4.515  67.629  1.00  0.00    -0.078 A  
HETATM   32  H   UNL     1      -6.216   2.505  67.003  1.00  0.00     0.000 HD 
ENDBRANCH  16  19
ENDBRANCH  15  16
ENDBRANCH  13  15
ENDBRANCH   6   9
ENDBRANCH   2   3
TORSDOF 5
ENDMDL
MODEL      282
REMARK 921   NORMALIZED FREE ENERGY PREDICTED BY IDOCK:   -1.08 KCAL/MOL
REMARK 922        TOTAL FREE ENERGY PREDICTED BY IDOCK:   -1.64 KCAL/MOL
REMARK 923 INTER-LIGAND FREE ENERGY PREDICTED BY IDOCK:   -2.44 KCAL/MOL
REMARK 924 INTRA-LIGAND FREE ENERGY PREDICTED BY IDOCK:    0.80 KCAL/MOL
REMARK 927      BINDING AFFINITY PREDICTED BY RF-SCORE:    0.00 PKD
ROOT
HETATM    1  C   UNL     1      -5.967  14.430  73.442  1.00  0.00     0.309 C  
HETATM    2  O   UNL     1      -5.127  13.444  72.848  1.00  0.00    -0.312 OA 
ENDROOT
BRANCH   2   3
HETATM    3  C   UNL     1      -5.555  12.927  71.652  1.00  0.00     0.178 A  
HETATM    4  C   UNL     1      -5.875  13.675  70.523  1.00  0.00    -0.169 A  
HETATM    5  C   UNL     1      -6.323  13.039  69.364  1.00  0.00    -0.111 A  
HETATM    6  C   UNL     1      -6.444  11.642  69.302  1.00  0.00    -0.105 A  
HETATM    7  C   UNL     1      -5.660  11.536  71.599  1.00  0.00     0.426 A  
HETATM    8  C   UNL     1      -6.101  10.896  70.436  1.00  0.00    -0.129 A  
BRANCH   6   9
HETATM    9  C   UNL     1      -6.947  10.980  68.030  1.00  0.00    -0.068 C  
HETATM   10  C   UNL     1      -6.750   9.430  67.896  1.00  0.00    -0.067 C  
HETATM   11  C   UNL     1      -7.644   8.713  68.926  1.00  0.00    -0.092 C  
HETATM   12  C   UNL     1      -5.271   9.040  68.092  1.00  0.00    -0.034 C  
HETATM   13  N   UNL     1      -7.188   9.053  66.527  1.00  0.00    -0.084 NA 
HETATM   14  H   UNL     1      -6.675   9.600  65.835  1.00  0.00     0.000 HD 
BRANCH  13  15
HETATM   15  C   UNL     1      -7.098   7.613  66.199  1.00  0.00    -0.070 C  
BRANCH  15  16
HETATM   16  C   UNL     1      -8.450   6.989  65.777  1.00  0.00    -0.149 C  
HETATM   17  H   UNL     1     -10.363   7.449  65.939  1.00  0.00     0.000 HD 
HETATM   18  O   UNL     1      -9.533   7.832  66.199  1.00  0.00    -0.157 OA 
BRANCH  16  19
HETATM   19  C   UNL     1      -8.618   5.572  66.281  1.00  0.00    -0.125 A  
HETATM   20  C   UNL     1      -9.053   5.319  67.593  1.00  0.00    -0.109 A  
HETATM   21  O   UNL     1      -9.266   6.402  68.409  1.00  0.00    -0.122 OA 
HETATM   22  C   UNL     1     -10.058   6.111  69.554  1.00  0.00    -0.185 C  
HETATM   23  C   UNL     1      -9.813   4.776  70.244  1.00  0.00    -0.242 C  
HETATM   24  O   UNL     1      -9.961   4.591  71.449  1.00  0.00    -0.184 OA 
HETATM   25  N   UNL     1      -9.511   3.752  69.386  1.00  0.00    -0.183 N  
HETATM   26  H   UNL     1      -9.516   2.792  69.731  1.00  0.00     0.000 HD 
HETATM   27  C   UNL     1      -9.195   3.997  68.046  1.00  0.00    -0.154 A  
HETATM   28  C   UNL     1      -8.967   2.922  67.189  1.00  0.00    -0.181 A  
HETATM   29  C   UNL     1      -8.580   3.176  65.880  1.00  0.00    -0.118 A  
HETATM   30  O   UNL     1      -8.353   2.171  64.988  1.00  0.00    -0.082 OA 
HETATM   31  C   UNL     1      -8.399   4.480  65.427  1.00  0.00    -0.117 A  
HETATM   32  H   UNL     1      -8.089   2.345  64.093  1.00  0.00     0.000 HD 
ENDBRANCH  16  19
ENDBRANCH  15  16
ENDBRANCH  13  15
ENDBRANCH   6   9
ENDBRANCH   2   3
TORSDOF 5
ENDMDL
MODEL      283
REMARK 921   NORMALIZED FREE ENERGY PREDICTED BY IDOCK:   -1.00 KCAL/MOL
REMARK 922        TOTAL FREE ENERGY PREDICTED BY IDOCK:   -1.54 KCAL/MOL
REMARK 923 INTER-LIGAND FREE ENERGY PREDICTED BY IDOCK:   -3.36 KCAL/MOL
REMARK 924 INTRA-LIGAND FREE ENERGY PREDICTED BY IDOCK:    1.83 KCAL/MOL
REMARK 927      BINDING AFFINITY PREDICTED BY RF-SCORE:    0.00 PKD
ROOT
HETATM    1  C   UNL     1      -6.744  17.493  69.123  1.00  0.00    -0.243 C  
HETATM    2  O   UNL     1      -6.317  16.345  69.852  1.00  0.00    -0.204 OA 
ENDROOT
BRANCH   2   3
HETATM    3  C   UNL     1      -6.340  15.155  69.172  1.00  0.00    -0.109 A  
HETATM    4  C   UNL     1      -7.308  14.775  68.248  1.00  0.00    -0.115 A  
HETATM    5  C   UNL     1      -7.239  13.525  67.632  1.00  0.00    -0.175 A  
HETATM    6  C   UNL     1      -6.192  12.634  67.913  1.00  0.00    -0.108 A  
HETATM    7  C   UNL     1      -5.286  14.282  69.451  1.00  0.00    -0.086 A  
HETATM    8  C   UNL     1      -5.211  13.031  68.829  1.00  0.00    -0.068 A  
BRANCH   6   9
HETATM    9  C   UNL     1      -6.152  11.273  67.236  1.00  0.00    -0.076 C  
HETATM   10  C   UNL     1      -6.435  10.015  68.128  1.00  0.00    -0.055 C  
HETATM   11  C   UNL     1      -7.909  10.031  68.578  1.00  0.00    -0.093 C  
HETATM   12  C   UNL     1      -5.492   9.977  69.347  1.00  0.00    -0.038 C  
HETATM   13  N   UNL     1      -6.200   8.818  67.279  1.00  0.00    -0.055 NA 
HETATM   14  H   UNL     1      -5.258   8.849  66.887  1.00  0.00     0.000 HD 
BRANCH  13  15
HETATM   15  C   UNL     1      -6.432   7.512  67.934  1.00  0.00    -0.054 C  
BRANCH  15  16
HETATM   16  C   UNL     1      -7.381   7.591  69.154  1.00  0.00    -0.086 C  
HETATM   17  H   UNL     1      -7.361   6.994  71.035  1.00  0.00     0.000 HD 
HETATM   18  O   UNL     1      -6.779   6.945  70.286  1.00  0.00    -0.050 OA 
BRANCH  16  19
HETATM   19  C   UNL     1      -8.755   7.031  68.858  1.00  0.00    -0.131 A  
HETATM   20  C   UNL     1      -9.691   6.832  69.886  1.00  0.00    -0.158 A  
HETATM   21  O   UNL     1      -9.291   7.113  71.169  1.00  0.00    -0.157 OA 
HETATM   22  C   UNL     1     -10.367   7.267  72.086  1.00  0.00    -0.193 C  
HETATM   23  C   UNL     1     -11.547   6.316  71.933  1.00  0.00    -0.317 C  
HETATM   24  O   UNL     1     -12.244   5.935  72.869  1.00  0.00     0.049 OA 
HETATM   25  N   UNL     1     -11.841   5.995  70.635  1.00  0.00     0.031 N  
HETATM   26  H   UNL     1     -12.719   5.522  70.422  1.00  0.00     0.000 HD 
HETATM   27  C   UNL     1     -10.958   6.304  69.594  1.00  0.00    -0.374 A  
HETATM   28  C   UNL     1     -11.329   6.028  68.279  1.00  0.00     0.164 A  
HETATM   29  C   UNL     1     -10.418   6.268  67.259  1.00  0.00    -0.254 A  
HETATM   30  O   UNL     1     -10.720   6.031  65.952  1.00  0.00    -0.293 OA 
HETATM   31  C   UNL     1      -9.144   6.756  67.538  1.00  0.00    -0.117 A  
HETATM   32  H   UNL     1     -10.097   6.195  65.255  1.00  0.00     0.000 HD 
ENDBRANCH  16  19
ENDBRANCH  15  16
ENDBRANCH  13  15
ENDBRANCH   6   9
ENDBRANCH   2   3
TORSDOF 5
ENDMDL
MODEL      284
REMARK 921   NORMALIZED FREE ENERGY PREDICTED BY IDOCK:   -0.92 KCAL/MOL
REMARK 922        TOTAL FREE ENERGY PREDICTED BY IDOCK:   -1.43 KCAL/MOL
REMARK 923 INTER-LIGAND FREE ENERGY PREDICTED BY IDOCK:   -2.29 KCAL/MOL
REMARK 924 INTRA-LIGAND FREE ENERGY PREDICTED BY IDOCK:    0.86 KCAL/MOL
REMARK 927      BINDING AFFINITY PREDICTED BY RF-SCORE:    0.00 PKD
ROOT
HETATM    1  C   UNL     1      -5.703  13.949  67.881  1.00  0.00    -0.112 C  
HETATM    2  O   UNL     1      -6.213  13.131  66.832  1.00  0.00    -0.038 OA 
ENDROOT
BRANCH   2   3
HETATM    3  C   UNL     1      -6.835  11.972  67.219  1.00  0.00    -0.150 A  
HETATM    4  C   UNL     1      -7.037  11.568  68.535  1.00  0.00    -0.087 A  
HETATM    5  C   UNL     1      -7.665  10.352  68.808  1.00  0.00    -0.104 A  
HETATM    6  C   UNL     1      -8.121   9.522  67.773  1.00  0.00    -0.106 A  
HETATM    7  C   UNL     1      -7.296  11.160  66.180  1.00  0.00    -0.007 A  
HETATM    8  C   UNL     1      -7.933   9.945  66.451  1.00  0.00    -0.111 A  
BRANCH   6   9
HETATM    9  C   UNL     1      -8.790   8.197  68.103  1.00  0.00    -0.132 C  
HETATM   10  C   UNL     1      -7.863   7.013  68.549  1.00  0.00    -0.122 C  
HETATM   11  C   UNL     1      -7.250   7.337  69.924  1.00  0.00    -0.081 C  
HETATM   12  C   UNL     1      -6.758   6.751  67.506  1.00  0.00    -0.070 C  
HETATM   13  N   UNL     1      -8.726   5.809  68.672  1.00  0.00    -0.108 NA 
HETATM   14  H   UNL     1      -9.222   5.644  67.796  1.00  0.00     0.000 HD 
BRANCH  13  15
HETATM   15  C   UNL     1      -8.041   4.571  69.106  1.00  0.00    -0.069 C  
BRANCH  15  16
HETATM   16  C   UNL     1      -7.267   4.726  70.437  1.00  0.00    -0.050 C  
HETATM   17  H   UNL     1      -5.546   4.112  71.182  1.00  0.00     0.000 HD 
HETATM   18  O   UNL     1      -6.021   4.017  70.366  1.00  0.00    -0.016 OA 
BRANCH  16  19
HETATM   19  C   UNL     1      -8.084   4.298  71.636  1.00  0.00    -0.091 A  
HETATM   20  C   UNL     1      -9.298   4.935  71.949  1.00  0.00    -0.142 A  
HETATM   21  O   UNL     1      -9.680   5.990  71.158  1.00  0.00    -0.173 OA 
HETATM   22  C   UNL     1     -11.058   6.325  71.273  1.00  0.00    -0.289 C  
HETATM   23  C   UNL     1     -11.670   6.260  72.666  1.00  0.00    -0.125 C  
HETATM   24  O   UNL     1     -12.588   6.983  73.043  1.00  0.00     0.788 OA 
HETATM   25  N   UNL     1     -11.181   5.246  73.444  1.00  0.00    -0.447 N  
HETATM   26  H   UNL     1     -11.658   5.007  74.314  1.00  0.00     0.000 HD 
HETATM   27  C   UNL     1     -10.039   4.530  73.070  1.00  0.00    -0.153 A  
HETATM   28  C   UNL     1      -9.618   3.457  73.852  1.00  0.00    -0.126 A  
HETATM   29  C   UNL     1      -8.441   2.800  73.515  1.00  0.00    -0.072 A  
HETATM   30  O   UNL     1      -7.980   1.736  74.231  1.00  0.00    -0.040 OA 
HETATM   31  C   UNL     1      -7.676   3.214  72.428  1.00  0.00    -0.058 A  
HETATM   32  H   UNL     1      -7.175   1.287  74.001  1.00  0.00     0.000 HD 
ENDBRANCH  16  19
ENDBRANCH  15  16
ENDBRANCH  13  15
ENDBRANCH   6   9
ENDBRANCH   2   3
TORSDOF 5
ENDMDL
MODEL      285
REMARK 921   NORMALIZED FREE ENERGY PREDICTED BY IDOCK:   -0.67 KCAL/MOL
REMARK 922        TOTAL FREE ENERGY PREDICTED BY IDOCK:   -1.12 KCAL/MOL
REMARK 923 INTER-LIGAND FREE ENERGY PREDICTED BY IDOCK:   -4.02 KCAL/MOL
REMARK 924 INTRA-LIGAND FREE ENERGY PREDICTED BY IDOCK:    2.91 KCAL/MOL
REMARK 927      BINDING AFFINITY PREDICTED BY RF-SCORE:    0.00 PKD
ROOT
HETATM    1  C   UNL     1     -11.673  16.228  70.632  1.00  0.00    -0.160 C  
HETATM    2  O   UNL     1     -10.990  15.601  69.550  1.00  0.00    -0.238 OA 
ENDROOT
BRANCH   2   3
HETATM    3  C   UNL     1     -11.012  14.230  69.536  1.00  0.00    -0.169 A  
HETATM    4  C   UNL     1     -10.136  13.419  68.822  1.00  0.00    -0.094 A  
HETATM    5  C   UNL     1     -10.270  12.031  68.867  1.00  0.00    -0.078 A  
HETATM    6  C   UNL     1     -11.269  11.422  69.640  1.00  0.00    -0.301 A  
HETATM    7  C   UNL     1     -12.004  13.636  70.320  1.00  0.00    -0.397 A  
HETATM    8  C   UNL     1     -12.134  12.244  70.373  1.00  0.00    -0.385 A  
BRANCH   6   9
HETATM    9  C   UNL     1     -11.397   9.907  69.658  1.00  0.00    -0.212 C  
HETATM   10  C   UNL     1     -10.146   9.072  69.213  1.00  0.00    -0.195 C  
HETATM   11  C   UNL     1      -9.023   9.244  70.253  1.00  0.00    -0.261 C  
HETATM   12  C   UNL     1      -9.663   9.501  67.813  1.00  0.00    -0.176 C  
HETATM   13  N   UNL     1     -10.565   7.646  69.180  1.00  0.00    -0.286 NA 
HETATM   14  H   UNL     1     -11.377   7.536  68.574  1.00  0.00     0.000 HD 
BRANCH  13  15
HETATM   15  C   UNL     1      -9.513   6.679  68.797  1.00  0.00    -0.129 C  
BRANCH  15  16
HETATM   16  C   UNL     1      -9.730   5.264  69.386  1.00  0.00    -0.174 C  
HETATM   17  H   UNL     1     -10.867   3.699  68.993  1.00  0.00     0.000 HD 
HETATM   18  O   UNL     1     -10.734   4.567  68.632  1.00  0.00     0.515 OA 
BRANCH  16  19
HETATM   19  C   UNL     1     -10.062   5.295  70.862  1.00  0.00    -0.295 A  
HETATM   20  C   UNL     1     -11.152   6.041  71.341  1.00  0.00    -0.274 A  
HETATM   21  O   UNL     1     -11.864   6.779  70.429  1.00  0.00    -0.376 OA 
HETATM   22  C   UNL     1     -13.149   7.180  70.891  1.00  0.00    -0.006 C  
HETATM   23  C   UNL     1     -13.255   7.611  72.348  1.00  0.00     0.194 C  
HETATM   24  O   UNL     1     -14.054   8.450  72.756  1.00  0.00    -0.179 OA 
HETATM   25  N   UNL     1     -12.450   6.903  73.200  1.00  0.00     0.620 N  
HETATM   26  H   UNL     1     -12.589   6.989  74.207  1.00  0.00     0.000 HD 
HETATM   27  C   UNL     1     -11.441   6.065  72.715  1.00  0.00    -0.208 A  
HETATM   28  C   UNL     1     -10.693   5.305  73.613  1.00  0.00    -0.343 A  
HETATM   29  C   UNL     1      -9.645   4.533  73.131  1.00  0.00    -0.130 A  
HETATM   30  O   UNL     1      -8.883   3.758  73.953  1.00  0.00    -0.089 OA 
HETATM   31  C   UNL     1      -9.323   4.529  71.776  1.00  0.00    -0.194 A  
HETATM   32  H   UNL     1      -8.165   3.231  73.623  1.00  0.00     0.000 HD 
ENDBRANCH  16  19
ENDBRANCH  15  16
ENDBRANCH  13  15
ENDBRANCH   6   9
ENDBRANCH   2   3
TORSDOF 5
ENDMDL
MODEL      286
REMARK 921   NORMALIZED FREE ENERGY PREDICTED BY IDOCK:   -0.26 KCAL/MOL
REMARK 922        TOTAL FREE ENERGY PREDICTED BY IDOCK:   -0.58 KCAL/MOL
REMARK 923 INTER-LIGAND FREE ENERGY PREDICTED BY IDOCK:   -3.21 KCAL/MOL
REMARK 924 INTRA-LIGAND FREE ENERGY PREDICTED BY IDOCK:    2.63 KCAL/MOL
REMARK 927      BINDING AFFINITY PREDICTED BY RF-SCORE:    0.00 PKD
ROOT
HETATM    1  C   UNL     1      -5.674  16.226  70.639  1.00  0.00     0.025 C  
HETATM    2  O   UNL     1      -6.249  15.049  71.199  1.00  0.00     0.136 OA 
ENDROOT
BRANCH   2   3
HETATM    3  C   UNL     1      -6.134  13.906  70.449  1.00  0.00    -0.143 A  
HETATM    4  C   UNL     1      -6.628  13.738  69.160  1.00  0.00    -0.112 A  
HETATM    5  C   UNL     1      -6.471  12.518  68.501  1.00  0.00    -0.073 A  
HETATM    6  C   UNL     1      -5.801  11.446  69.109  1.00  0.00    -0.047 A  
HETATM    7  C   UNL     1      -5.455  12.850  71.061  1.00  0.00    -0.176 A  
HETATM    8  C   UNL     1      -5.289  11.629  70.400  1.00  0.00    -0.121 A  
BRANCH   6   9
HETATM    9  C   UNL     1      -5.658  10.124  68.371  1.00  0.00    -0.038 C  
HETATM   10  C   UNL     1      -5.971   8.813  69.172  1.00  0.00    -0.042 C  
HETATM   11  C   UNL     1      -7.477   8.761  69.495  1.00  0.00    -0.075 C  
HETATM   12  C   UNL     1      -5.133   8.739  70.464  1.00  0.00    -0.021 C  
HETATM   13  N   UNL     1      -5.624   7.670  68.287  1.00  0.00    -0.027 NA 
HETATM   14  H   UNL     1      -4.654   7.750  67.980  1.00  0.00     0.000 HD 
BRANCH  13  15
HETATM   15  C   UNL     1      -5.865   6.325  68.854  1.00  0.00    -0.020 C  
BRANCH  15  16
HETATM   16  C   UNL     1      -7.361   5.930  68.895  1.00  0.00    -0.084 C  
HETATM   17  H   UNL     1      -9.032   6.525  68.031  1.00  0.00     0.000 HD 
HETATM   18  O   UNL     1      -8.115   6.767  68.006  1.00  0.00    -0.112 OA 
BRANCH  16  19
HETATM   19  C   UNL     1      -7.928   5.953  70.298  1.00  0.00    -0.106 A  
HETATM   20  C   UNL     1      -9.295   6.192  70.521  1.00  0.00    -0.161 A  
HETATM   21  O   UNL     1     -10.078   6.455  69.425  1.00  0.00    -0.162 OA 
HETATM   22  C   UNL     1     -11.472   6.298  69.663  1.00  0.00    -0.355 C  
HETATM   23  C   UNL     1     -12.001   6.776  71.009  1.00  0.00    -0.379 C  
HETATM   24  O   UNL     1     -13.133   7.218  71.181  1.00  0.00    -0.341 OA 
HETATM   25  N   UNL     1     -11.136   6.575  72.052  1.00  0.00    -0.246 N  
HETATM   26  H   UNL     1     -11.471   6.687  73.009  1.00  0.00     0.000 HD 
HETATM   27  C   UNL     1      -9.802   6.219  71.830  1.00  0.00    -0.163 A  
HETATM   28  C   UNL     1      -8.976   5.950  72.919  1.00  0.00    -0.122 A  
HETATM   29  C   UNL     1      -7.634   5.670  72.693  1.00  0.00    -0.098 A  
HETATM   30  O   UNL     1      -6.776   5.388  73.712  1.00  0.00    -0.072 OA 
HETATM   31  C   UNL     1      -7.109   5.678  71.404  1.00  0.00    -0.072 A  
HETATM   32  H   UNL     1      -5.858   5.197  73.558  1.00  0.00     0.000 HD 
ENDBRANCH  16  19
ENDBRANCH  15  16
ENDBRANCH  13  15
ENDBRANCH   6   9
ENDBRANCH   2   3
TORSDOF 5
ENDMDL
MODEL      287
REMARK 921   NORMALIZED FREE ENERGY PREDICTED BY IDOCK:   -0.08 KCAL/MOL
REMARK 922        TOTAL FREE ENERGY PREDICTED BY IDOCK:   -0.34 KCAL/MOL
REMARK 923 INTER-LIGAND FREE ENERGY PREDICTED BY IDOCK:   -1.07 KCAL/MOL
REMARK 924 INTRA-LIGAND FREE ENERGY PREDICTED BY IDOCK:    0.73 KCAL/MOL
REMARK 927      BINDING AFFINITY PREDICTED BY RF-SCORE:    0.00 PKD
ROOT
HETATM    1  C   UNL     1      -5.631  16.210  70.479  1.00  0.00    -0.104 C  
HETATM    2  O   UNL     1      -5.883  14.981  71.154  1.00  0.00    -0.034 OA 
ENDROOT
BRANCH   2   3
HETATM    3  C   UNL     1      -5.705  13.839  70.416  1.00  0.00    -0.153 A  
HETATM    4  C   UNL     1      -5.810  13.752  69.032  1.00  0.00    -0.080 A  
HETATM    5  C   UNL     1      -5.629  12.526  68.390  1.00  0.00    -0.058 A  
HETATM    6  C   UNL     1      -5.321  11.365  69.114  1.00  0.00    -0.043 A  
HETATM    7  C   UNL     1      -5.387  12.693  71.148  1.00  0.00    -0.147 A  
HETATM    8  C   UNL     1      -5.198  11.465  70.505  1.00  0.00    -0.110 A  
BRANCH   6   9
HETATM    9  C   UNL     1      -5.143  10.042  68.387  1.00  0.00    -0.036 C  
HETATM   10  C   UNL     1      -6.070   8.852  68.816  1.00  0.00    -0.045 C  
HETATM   11  C   UNL     1      -7.523   9.169  68.414  1.00  0.00    -0.082 C  
HETATM   12  C   UNL     1      -5.968   8.589  70.332  1.00  0.00    -0.027 C  
HETATM   13  N   UNL     1      -5.610   7.652  68.070  1.00  0.00    -0.030 NA 
HETATM   14  H   UNL     1      -4.618   7.492  68.246  1.00  0.00     0.000 HD 
BRANCH  13  15
HETATM   15  C   UNL     1      -6.374   6.410  68.321  1.00  0.00    -0.040 C  
BRANCH  15  16
HETATM   16  C   UNL     1      -6.346   5.416  67.135  1.00  0.00    -0.039 C  
HETATM   17  H   UNL     1      -5.320   5.196  65.463  1.00  0.00     0.000 HD 
HETATM   18  O   UNL     1      -5.337   5.806  66.191  1.00  0.00    -0.009 OA 
BRANCH  16  19
HETATM   19  C   UNL     1      -7.699   5.266  66.473  1.00  0.00    -0.096 A  
HETATM   20  C   UNL     1      -8.881   5.586  67.163  1.00  0.00    -0.106 A  
HETATM   21  O   UNL     1      -8.760   5.987  68.471  1.00  0.00    -0.111 OA 
HETATM   22  C   UNL     1      -9.910   6.656  68.975  1.00  0.00    -0.144 C  
HETATM   23  C   UNL     1     -11.268   6.112  68.551  1.00  0.00    -0.145 C  
HETATM   24  O   UNL     1     -12.277   6.170  69.248  1.00  0.00     0.961 OA 
HETATM   25  N   UNL     1     -11.303   5.638  67.266  1.00  0.00    -0.003 N  
HETATM   26  H   UNL     1     -12.203   5.430  66.834  1.00  0.00     0.000 HD 
HETATM   27  C   UNL     1     -10.127   5.433  66.537  1.00  0.00    -0.216 A  
HETATM   28  C   UNL     1     -10.211   5.021  65.208  1.00  0.00     0.152 A  
HETATM   29  C   UNL     1      -9.039   4.748  64.514  1.00  0.00    -0.099 A  
HETATM   30  O   UNL     1      -9.050   4.353  63.210  1.00  0.00    -0.138 OA 
HETATM   31  C   UNL     1      -7.797   4.859  65.134  1.00  0.00    -0.092 A  
HETATM   32  H   UNL     1      -8.249   4.166  62.735  1.00  0.00     0.000 HD 
ENDBRANCH  16  19
ENDBRANCH  15  16
ENDBRANCH  13  15
ENDBRANCH   6   9
ENDBRANCH   2   3
TORSDOF 5
ENDMDL
MODEL      288
REMARK 921   NORMALIZED FREE ENERGY PREDICTED BY IDOCK:    0.12 KCAL/MOL
REMARK 922        TOTAL FREE ENERGY PREDICTED BY IDOCK:   -0.09 KCAL/MOL
REMARK 923 INTER-LIGAND FREE ENERGY PREDICTED BY IDOCK:   -4.33 KCAL/MOL
REMARK 924 INTRA-LIGAND FREE ENERGY PREDICTED BY IDOCK:    4.24 KCAL/MOL
REMARK 927      BINDING AFFINITY PREDICTED BY RF-SCORE:    0.00 PKD
ROOT
HETATM    1  C   UNL     1      -5.430   7.277  71.453  1.00  0.00    -0.035 C  
HETATM    2  O   UNL     1      -5.513   6.250  70.469  1.00  0.00    -0.017 OA 
ENDROOT
BRANCH   2   3
HETATM    3  C   UNL     1      -6.236   6.550  69.342  1.00  0.00    -0.034 A  
HETATM    4  C   UNL     1      -6.678   5.626  68.401  1.00  0.00    -0.057 A  
HETATM    5  C   UNL     1      -7.388   6.053  67.278  1.00  0.00    -0.077 A  
HETATM    6  C   UNL     1      -7.688   7.409  67.081  1.00  0.00    -0.115 A  
HETATM    7  C   UNL     1      -6.537   7.902  69.163  1.00  0.00    -0.040 A  
HETATM    8  C   UNL     1      -7.256   8.331  68.043  1.00  0.00    -0.094 A  
BRANCH   6   9
HETATM    9  C   UNL     1      -8.452   7.845  65.841  1.00  0.00    -0.147 C  
HETATM   10  C   UNL     1      -8.291   9.335  65.380  1.00  0.00    -0.137 C  
HETATM   11  C   UNL     1      -6.850   9.561  64.883  1.00  0.00    -0.102 C  
HETATM   12  C   UNL     1      -8.632  10.309  66.526  1.00  0.00    -0.136 C  
HETATM   13  N   UNL     1      -9.233   9.545  64.250  1.00  0.00    -0.420 NA 
HETATM   14  H   UNL     1     -10.181   9.297  64.537  1.00  0.00     0.000 HD 
BRANCH  13  15
HETATM   15  C   UNL     1      -9.225  10.898  63.651  1.00  0.00    -0.226 C  
BRANCH  15  16
HETATM   16  C   UNL     1     -10.413  11.782  64.103  1.00  0.00    -0.346 C  
HETATM   17  H   UNL     1     -11.473  13.266  63.348  1.00  0.00     0.000 HD 
HETATM   18  O   UNL     1     -10.744  12.724  63.071  1.00  0.00     0.076 OA 
BRANCH  16  19
HETATM   19  C   UNL     1     -10.153  12.471  65.425  1.00  0.00    -0.284 A  
HETATM   20  C   UNL     1     -10.482  11.848  66.641  1.00  0.00    -0.216 A  
HETATM   21  O   UNL     1     -11.093  10.621  66.578  1.00  0.00    -0.114 OA 
HETATM   22  C   UNL     1     -11.040   9.890  67.797  1.00  0.00    -0.129 C  
HETATM   23  C   UNL     1     -11.228  10.680  69.086  1.00  0.00    -0.265 C  
HETATM   24  O   UNL     1     -11.738  10.218  70.103  1.00  0.00    -0.263 OA 
HETATM   25  N   UNL     1     -10.679  11.934  69.056  1.00  0.00    -0.350 N  
HETATM   26  H   UNL     1     -10.589  12.461  69.925  1.00  0.00     0.000 HD 
HETATM   27  C   UNL     1     -10.241  12.506  67.858  1.00  0.00    -0.219 A  
HETATM   28  C   UNL     1      -9.620  13.754  67.882  1.00  0.00    -0.222 A  
HETATM   29  C   UNL     1      -9.256  14.347  66.681  1.00  0.00    -0.261 A  
HETATM   30  O   UNL     1      -8.636  15.559  66.635  1.00  0.00    -0.249 OA 
HETATM   31  C   UNL     1      -9.523  13.724  65.465  1.00  0.00     0.146 A  
HETATM   32  H   UNL     1      -8.387  15.966  65.814  1.00  0.00     0.000 HD 
ENDBRANCH  16  19
ENDBRANCH  15  16
ENDBRANCH  13  15
ENDBRANCH   6   9
ENDBRANCH   2   3
TORSDOF 5
ENDMDL
MODEL      289
REMARK 921   NORMALIZED FREE ENERGY PREDICTED BY IDOCK:    0.18 KCAL/MOL
REMARK 922        TOTAL FREE ENERGY PREDICTED BY IDOCK:   -0.02 KCAL/MOL
REMARK 923 INTER-LIGAND FREE ENERGY PREDICTED BY IDOCK:   -0.74 KCAL/MOL
REMARK 924 INTRA-LIGAND FREE ENERGY PREDICTED BY IDOCK:    0.73 KCAL/MOL
REMARK 927      BINDING AFFINITY PREDICTED BY RF-SCORE:    0.00 PKD
ROOT
HETATM    1  C   UNL     1      -5.972  15.772  70.697  1.00  0.00     0.118 C  
HETATM    2  O   UNL     1      -6.255  14.535  71.345  1.00  0.00    -0.031 OA 
ENDROOT
BRANCH   2   3
HETATM    3  C   UNL     1      -6.035  13.402  70.605  1.00  0.00    -0.105 A  
HETATM    4  C   UNL     1      -5.907  13.359  69.220  1.00  0.00    -0.087 A  
HETATM    5  C   UNL     1      -5.708  12.140  68.571  1.00  0.00    -0.053 A  
HETATM    6  C   UNL     1      -5.613  10.940  69.293  1.00  0.00    -0.041 A  
HETATM    7  C   UNL     1      -5.931  12.216  71.335  1.00  0.00     0.938 A  
HETATM    8  C   UNL     1      -5.723  10.994  70.687  1.00  0.00    -0.122 A  
BRANCH   6   9
HETATM    9  C   UNL     1      -5.409   9.626  68.556  1.00  0.00    -0.033 C  
HETATM   10  C   UNL     1      -6.501   8.516  68.744  1.00  0.00    -0.053 C  
HETATM   11  C   UNL     1      -7.814   8.976  68.082  1.00  0.00    -0.100 C  
HETATM   12  C   UNL     1      -6.722   8.204  70.238  1.00  0.00    -0.037 C  
HETATM   13  N   UNL     1      -6.007   7.299  68.049  1.00  0.00    -0.032 NA 
HETATM   14  H   UNL     1      -5.086   7.043  68.406  1.00  0.00     0.000 HD 
BRANCH  13  15
HETATM   15  C   UNL     1      -6.908   6.126  68.091  1.00  0.00    -0.067 C  
BRANCH  15  16
HETATM   16  C   UNL     1      -8.158   6.273  67.191  1.00  0.00    -0.109 C  
HETATM   17  H   UNL     1      -9.856   5.305  66.914  1.00  0.00     0.000 HD 
HETATM   18  O   UNL     1      -9.088   5.215  67.466  1.00  0.00    -0.112 OA 
BRANCH  16  19
HETATM   19  C   UNL     1      -7.808   6.340  65.720  1.00  0.00    -0.103 A  
HETATM   20  C   UNL     1      -7.260   5.229  65.057  1.00  0.00    -0.066 A  
HETATM   21  O   UNL     1      -7.006   4.107  65.806  1.00  0.00    -0.059 OA 
HETATM   22  C   UNL     1      -6.831   2.926  65.032  1.00  0.00    -0.044 C  
HETATM   23  C   UNL     1      -6.059   3.064  63.726  1.00  0.00    -0.018 C  
HETATM   24  O   UNL     1      -5.370   2.170  63.242  1.00  0.00    -0.007 OA 
HETATM   25  N   UNL     1      -6.279   4.245  63.069  1.00  0.00    -0.018 N  
HETATM   26  H   UNL     1      -5.958   4.350  62.107  1.00  0.00     0.000 HD 
HETATM   27  C   UNL     1      -6.934   5.311  63.694  1.00  0.00    -0.047 A  
HETATM   28  C   UNL     1      -7.204   6.468  62.966  1.00  0.00    -0.058 A  
HETATM   29  C   UNL     1      -7.787   7.550  63.613  1.00  0.00    -0.112 A  
HETATM   30  O   UNL     1      -8.088   8.705  62.958  1.00  0.00    -0.158 OA 
HETATM   31  C   UNL     1      -8.081   7.496  64.973  1.00  0.00    -0.127 A  
HETATM   32  H   UNL     1      -8.487   9.445  63.400  1.00  0.00     0.000 HD 
ENDBRANCH  16  19
ENDBRANCH  15  16
ENDBRANCH  13  15
ENDBRANCH   6   9
ENDBRANCH   2   3
TORSDOF 5
ENDMDL
MODEL      290
REMARK 921   NORMALIZED FREE ENERGY PREDICTED BY IDOCK:    0.32 KCAL/MOL
REMARK 922        TOTAL FREE ENERGY PREDICTED BY IDOCK:    0.17 KCAL/MOL
REMARK 923 INTER-LIGAND FREE ENERGY PREDICTED BY IDOCK:   -0.32 KCAL/MOL
REMARK 924 INTRA-LIGAND FREE ENERGY PREDICTED BY IDOCK:    0.48 KCAL/MOL
REMARK 927      BINDING AFFINITY PREDICTED BY RF-SCORE:    0.00 PKD
ROOT
HETATM    1  C   UNL     1      -5.963  16.704  72.587  1.00  0.00     2.813 C  
HETATM    2  O   UNL     1      -5.131  15.578  72.323  1.00  0.00    -0.150 OA 
ENDROOT
BRANCH   2   3
HETATM    3  C   UNL     1      -5.452  14.837  71.215  1.00  0.00    -0.100 A  
HETATM    4  C   UNL     1      -5.921  15.353  70.011  1.00  0.00    -0.146 A  
HETATM    5  C   UNL     1      -6.238  14.496  68.956  1.00  0.00    -0.092 A  
HETATM    6  C   UNL     1      -6.076  13.108  69.074  1.00  0.00    -0.089 A  
HETATM    7  C   UNL     1      -5.276  13.457  71.341  1.00  0.00    -0.186 A  
HETATM    8  C   UNL     1      -5.585  12.598  70.282  1.00  0.00    -0.153 A  
BRANCH   6   9
HETATM    9  C   UNL     1      -6.443  12.200  67.911  1.00  0.00    -0.078 C  
HETATM   10  C   UNL     1      -6.928  10.748  68.254  1.00  0.00    -0.069 C  
HETATM   11  C   UNL     1      -8.296  10.822  68.959  1.00  0.00    -0.138 C  
HETATM   12  C   UNL     1      -5.898  10.014  69.136  1.00  0.00    -0.037 C  
HETATM   13  N   UNL     1      -7.084  10.026  66.965  1.00  0.00    -0.088 NA 
HETATM   14  H   UNL     1      -6.211  10.061  66.438  1.00  0.00     0.000 HD 
BRANCH  13  15
HETATM   15  C   UNL     1      -7.557   8.628  67.066  1.00  0.00    -0.084 C  
BRANCH  15  16
HETATM   16  C   UNL     1      -8.993   8.420  66.526  1.00  0.00    -0.157 C  
HETATM   17  H   UNL     1     -10.699   9.410  66.550  1.00  0.00     0.000 HD 
HETATM   18  O   UNL     1      -9.819   9.538  66.882  1.00  0.00    -0.178 OA 
BRANCH  16  19
HETATM   19  C   UNL     1      -9.599   7.110  66.982  1.00  0.00    -0.204 A  
HETATM   20  C   UNL     1      -9.426   5.934  66.233  1.00  0.00    -0.139 A  
HETATM   21  O   UNL     1      -8.735   6.033  65.051  1.00  0.00    -0.091 OA 
HETATM   22  C   UNL     1      -8.265   4.785  64.554  1.00  0.00    -0.115 C  
HETATM   23  C   UNL     1      -9.194   3.588  64.702  1.00  0.00    -0.139 C  
HETATM   24  O   UNL     1      -9.227   2.646  63.916  1.00  0.00    -0.102 OA 
HETATM   25  N   UNL     1      -9.930   3.592  65.857  1.00  0.00    -0.409 N  
HETATM   26  H   UNL     1     -10.434   2.749  66.133  1.00  0.00     0.000 HD 
HETATM   27  C   UNL     1     -10.004   4.730  66.667  1.00  0.00    -0.235 A  
HETATM   28  C   UNL     1     -10.702   4.669  67.872  1.00  0.00     0.644 A  
HETATM   29  C   UNL     1     -10.833   5.823  68.632  1.00  0.00    -0.200 A  
HETATM   30  O   UNL     1     -11.492   5.829  69.824  1.00  0.00    -0.169 OA 
HETATM   31  C   UNL     1     -10.299   7.033  68.196  1.00  0.00    -0.226 A  
HETATM   32  H   UNL     1     -11.583   6.618  70.345  1.00  0.00     0.000 HD 
ENDBRANCH  16  19
ENDBRANCH  15  16
ENDBRANCH  13  15
ENDBRANCH   6   9
ENDBRANCH   2   3
TORSDOF 5
ENDMDL
MODEL      291
REMARK 921   NORMALIZED FREE ENERGY PREDICTED BY IDOCK:    0.88 KCAL/MOL
REMARK 922        TOTAL FREE ENERGY PREDICTED BY IDOCK:    0.90 KCAL/MOL
REMARK 923 INTER-LIGAND FREE ENERGY PREDICTED BY IDOCK:   -2.00 KCAL/MOL
REMARK 924 INTRA-LIGAND FREE ENERGY PREDICTED BY IDOCK:    2.89 KCAL/MOL
REMARK 927      BINDING AFFINITY PREDICTED BY RF-SCORE:    0.00 PKD
ROOT
HETATM    1  C   UNL     1      -5.674  16.226  70.639  1.00  0.00     0.025 C  
HETATM    2  O   UNL     1      -6.256  15.047  71.185  1.00  0.00     0.136 OA 
ENDROOT
BRANCH   2   3
HETATM    3  C   UNL     1      -6.144  13.910  70.425  1.00  0.00    -0.143 A  
HETATM    4  C   UNL     1      -6.633  13.756  69.132  1.00  0.00    -0.112 A  
HETATM    5  C   UNL     1      -6.479  12.542  68.463  1.00  0.00    -0.073 A  
HETATM    6  C   UNL     1      -5.816  11.461  69.064  1.00  0.00    -0.048 A  
HETATM    7  C   UNL     1      -5.472  12.846  71.030  1.00  0.00    -0.176 A  
HETATM    8  C   UNL     1      -5.308  11.630  70.358  1.00  0.00    -0.121 A  
BRANCH   6   9
HETATM    9  C   UNL     1      -5.675  10.146  68.314  1.00  0.00    -0.041 C  
HETATM   10  C   UNL     1      -5.998   8.828  69.101  1.00  0.00    -0.042 C  
HETATM   11  C   UNL     1      -7.505   8.780  69.417  1.00  0.00    -0.080 C  
HETATM   12  C   UNL     1      -5.165   8.739  70.396  1.00  0.00    -0.021 C  
HETATM   13  N   UNL     1      -5.652   7.693  68.207  1.00  0.00    -0.027 NA 
HETATM   14  H   UNL     1      -4.681   7.771  67.905  1.00  0.00     0.000 HD 
BRANCH  13  15
HETATM   15  C   UNL     1      -5.901   6.343  68.760  1.00  0.00    -0.020 C  
BRANCH  15  16
HETATM   16  C   UNL     1      -7.399   5.954  68.791  1.00  0.00    -0.084 C  
HETATM   17  H   UNL     1      -9.064   6.565  67.926  1.00  0.00     0.000 HD 
HETATM   18  O   UNL     1      -8.145   6.803  67.907  1.00  0.00    -0.112 OA 
BRANCH  16  19
HETATM   19  C   UNL     1      -7.972   5.967  70.192  1.00  0.00    -0.106 A  
HETATM   20  C   UNL     1      -7.268   5.397  71.266  1.00  0.00    -0.075 A  
HETATM   21  O   UNL     1      -6.072   4.785  70.984  1.00  0.00    -0.017 OA 
HETATM   22  C   UNL     1      -5.245   4.586  72.125  1.00  0.00    -0.004 C  
HETATM   23  C   UNL     1      -5.937   4.169  73.416  1.00  0.00    -0.012 C  
HETATM   24  O   UNL     1      -5.416   3.463  74.274  1.00  0.00     0.000 OA 
HETATM   25  N   UNL     1      -7.169   4.738  73.598  1.00  0.00    -0.073 N  
HETATM   26  H   UNL     1      -7.623   4.669  74.509  1.00  0.00     0.000 HD 
HETATM   27  C   UNL     1      -7.818   5.411  72.557  1.00  0.00    -0.103 A  
HETATM   28  C   UNL     1      -9.037   6.041  72.805  1.00  0.00    -0.129 A  
HETATM   29  C   UNL     1      -9.710   6.642  71.750  1.00  0.00    -0.161 A  
HETATM   30  O   UNL     1     -10.898   7.284  71.926  1.00  0.00    -0.222 OA 
HETATM   31  C   UNL     1      -9.194   6.604  70.457  1.00  0.00    -0.156 A  
HETATM   32  H   UNL     1     -11.359   7.695  71.205  1.00  0.00     0.000 HD 
ENDBRANCH  16  19
ENDBRANCH  15  16
ENDBRANCH  13  15
ENDBRANCH   6   9
ENDBRANCH   2   3
TORSDOF 5
ENDMDL
MODEL      292
REMARK 921   NORMALIZED FREE ENERGY PREDICTED BY IDOCK:    1.62 KCAL/MOL
REMARK 922        TOTAL FREE ENERGY PREDICTED BY IDOCK:    1.85 KCAL/MOL
REMARK 923 INTER-LIGAND FREE ENERGY PREDICTED BY IDOCK:    1.21 KCAL/MOL
REMARK 924 INTRA-LIGAND FREE ENERGY PREDICTED BY IDOCK:    0.64 KCAL/MOL
REMARK 927      BINDING AFFINITY PREDICTED BY RF-SCORE:    0.00 PKD
ROOT
HETATM    1  C   UNL     1      -7.035  13.664  69.867  1.00  0.00     0.311 C  
HETATM    2  O   UNL     1      -6.767  12.701  70.883  1.00  0.00     0.778 OA 
ENDROOT
BRANCH   2   3
HETATM    3  C   UNL     1      -6.471  11.434  70.450  1.00  0.00     0.184 A  
HETATM    4  C   UNL     1      -5.313  11.066  69.772  1.00  0.00    -0.044 A  
HETATM    5  C   UNL     1      -5.130   9.746  69.359  1.00  0.00    -0.035 A  
HETATM    6  C   UNL     1      -6.091   8.760  69.631  1.00  0.00    -0.032 A  
HETATM    7  C   UNL     1      -7.430  10.459  70.737  1.00  0.00     0.991 A  
HETATM    8  C   UNL     1      -7.245   9.134  70.332  1.00  0.00    -0.084 A  
BRANCH   6   9
HETATM    9  C   UNL     1      -5.869   7.333  69.157  1.00  0.00    -0.019 C  
HETATM   10  C   UNL     1      -6.193   7.013  67.656  1.00  0.00    -0.041 C  
HETATM   11  C   UNL     1      -5.181   7.741  66.751  1.00  0.00    -0.027 C  
HETATM   12  C   UNL     1      -7.636   7.422  67.301  1.00  0.00    -0.108 C  
HETATM   13  N   UNL     1      -6.033   5.546  67.481  1.00  0.00    -0.021 NA 
HETATM   14  H   UNL     1      -6.622   5.049  68.150  1.00  0.00     0.000 HD 
BRANCH  13  15
HETATM   15  C   UNL     1      -6.278   5.033  66.114  1.00  0.00    -0.035 C  
BRANCH  15  16
HETATM   16  C   UNL     1      -7.276   3.851  66.067  1.00  0.00    -0.068 C  
HETATM   17  H   UNL     1      -7.448   2.150  65.081  1.00  0.00     0.000 HD 
HETATM   18  O   UNL     1      -6.836   2.875  65.110  1.00  0.00    -0.042 OA 
BRANCH  16  19
HETATM   19  C   UNL     1      -8.695   4.300  65.792  1.00  0.00    -0.119 A  
HETATM   20  C   UNL     1      -9.459   4.929  66.789  1.00  0.00    -0.148 A  
HETATM   21  O   UNL     1      -8.889   5.069  68.030  1.00  0.00    -0.102 OA 
HETATM   22  C   UNL     1      -9.533   6.034  68.853  1.00  0.00    -0.126 C  
HETATM   23  C   UNL     1     -11.054   6.089  68.792  1.00  0.00    -0.254 C  
HETATM   24  O   UNL     1     -11.765   6.413  69.739  1.00  0.00    -0.414 OA 
HETATM   25  N   UNL     1     -11.572   5.847  67.548  1.00  0.00     0.165 N  
HETATM   26  H   UNL     1     -12.556   6.046  67.368  1.00  0.00     0.000 HD 
HETATM   27  C   UNL     1     -10.777   5.332  66.519  1.00  0.00    -0.221 A  
HETATM   28  C   UNL     1     -11.324   5.171  65.247  1.00  0.00     0.971 A  
HETATM   29  C   UNL     1     -10.551   4.590  64.251  1.00  0.00     0.266 A  
HETATM   30  O   UNL     1     -11.021   4.414  62.985  1.00  0.00    -0.369 OA 
HETATM   31  C   UNL     1      -9.256   4.151  64.514  1.00  0.00    -0.151 A  
HETATM   32  H   UNL     1     -10.492   4.017  62.303  1.00  0.00     0.000 HD 
ENDBRANCH  16  19
ENDBRANCH  15  16
ENDBRANCH  13  15
ENDBRANCH   6   9
ENDBRANCH   2   3
TORSDOF 5
ENDMDL
MODEL      293
REMARK 921   NORMALIZED FREE ENERGY PREDICTED BY IDOCK:    1.84 KCAL/MOL
REMARK 922        TOTAL FREE ENERGY PREDICTED BY IDOCK:    2.14 KCAL/MOL
REMARK 923 INTER-LIGAND FREE ENERGY PREDICTED BY IDOCK:   -3.50 KCAL/MOL
REMARK 924 INTRA-LIGAND FREE ENERGY PREDICTED BY IDOCK:    5.64 KCAL/MOL
REMARK 927      BINDING AFFINITY PREDICTED BY RF-SCORE:    0.00 PKD
ROOT
HETATM    1  C   UNL     1      -5.625  16.213  70.475  1.00  0.00    -0.104 C  
HETATM    2  O   UNL     1      -5.893  14.981  71.139  1.00  0.00    -0.034 OA 
ENDROOT
BRANCH   2   3
HETATM    3  C   UNL     1      -5.751  13.845  70.383  1.00  0.00    -0.150 A  
HETATM    4  C   UNL     1      -5.874  13.780  68.999  1.00  0.00    -0.080 A  
HETATM    5  C   UNL     1      -5.730  12.559  68.338  1.00  0.00    -0.058 A  
HETATM    6  C   UNL     1      -5.442  11.381  69.043  1.00  0.00    -0.039 A  
HETATM    7  C   UNL     1      -5.452  12.681  71.095  1.00  0.00    -0.110 A  
HETATM    8  C   UNL     1      -5.299  11.458  70.434  1.00  0.00    -0.113 A  
BRANCH   6   9
HETATM    9  C   UNL     1      -5.304  10.065  68.296  1.00  0.00    -0.035 C  
HETATM   10  C   UNL     1      -6.262   8.895  68.712  1.00  0.00    -0.045 C  
HETATM   11  C   UNL     1      -7.707   9.257  68.322  1.00  0.00    -0.087 C  
HETATM   12  C   UNL     1      -6.161   8.607  70.224  1.00  0.00    -0.033 C  
HETATM   13  N   UNL     1      -5.839   7.693  67.946  1.00  0.00    -0.035 NA 
HETATM   14  H   UNL     1      -4.851   7.503  68.115  1.00  0.00     0.000 HD 
BRANCH  13  15
HETATM   15  C   UNL     1      -6.635   6.469  68.183  1.00  0.00    -0.059 C  
BRANCH  15  16
HETATM   16  C   UNL     1      -8.083   6.559  67.642  1.00  0.00    -0.118 C  
HETATM   17  H   UNL     1      -9.102   7.752  66.444  1.00  0.00     0.000 HD 
HETATM   18  O   UNL     1      -8.214   7.697  66.776  1.00  0.00    -0.118 OA 
BRANCH  16  19
HETATM   19  C   UNL     1      -9.115   6.579  68.748  1.00  0.00    -0.126 A  
HETATM   20  C   UNL     1     -10.006   7.657  68.886  1.00  0.00    -0.176 A  
HETATM   21  O   UNL     1      -9.866   8.708  68.015  1.00  0.00    -0.157 OA 
HETATM   22  C   UNL     1     -11.007   9.556  67.950  1.00  0.00    -0.110 C  
HETATM   23  C   UNL     1     -11.728   9.847  69.259  1.00  0.00     0.185 C  
HETATM   24  O   UNL     1     -12.322  10.895  69.494  1.00  0.00    -0.321 OA 
HETATM   25  N   UNL     1     -11.753   8.789  70.129  1.00  0.00    -0.453 N  
HETATM   26  H   UNL     1     -12.368   8.825  70.943  1.00  0.00     0.000 HD 
HETATM   27  C   UNL     1     -10.952   7.662  69.924  1.00  0.00    -0.200 A  
HETATM   28  C   UNL     1     -11.063   6.577  70.792  1.00  0.00    -0.354 A  
HETATM   29  C   UNL     1     -10.211   5.493  70.626  1.00  0.00    -0.240 A  
HETATM   30  O   UNL     1     -10.275   4.397  71.432  1.00  0.00    -0.168 OA 
HETATM   31  C   UNL     1      -9.243   5.490  69.625  1.00  0.00    -0.163 A  
HETATM   32  H   UNL     1      -9.692   3.655  71.318  1.00  0.00     0.000 HD 
ENDBRANCH  16  19
ENDBRANCH  15  16
ENDBRANCH  13  15
ENDBRANCH   6   9
ENDBRANCH   2   3
TORSDOF 5
ENDMDL
MODEL      294
REMARK 921   NORMALIZED FREE ENERGY PREDICTED BY IDOCK:    3.06 KCAL/MOL
REMARK 922        TOTAL FREE ENERGY PREDICTED BY IDOCK:    3.71 KCAL/MOL
REMARK 923 INTER-LIGAND FREE ENERGY PREDICTED BY IDOCK:   -0.81 KCAL/MOL
REMARK 924 INTRA-LIGAND FREE ENERGY PREDICTED BY IDOCK:    4.52 KCAL/MOL
REMARK 927      BINDING AFFINITY PREDICTED BY RF-SCORE:    0.00 PKD
ROOT
HETATM    1  C   UNL     1      -5.419  13.082  69.091  1.00  0.00    -0.071 C  
HETATM    2  O   UNL     1      -5.553  12.191  67.988  1.00  0.00    -0.050 OA 
ENDROOT
BRANCH   2   3
HETATM    3  C   UNL     1      -6.307  11.067  68.208  1.00  0.00    -0.056 A  
HETATM    4  C   UNL     1      -6.711  10.602  69.455  1.00  0.00    -0.101 A  
HETATM    5  C   UNL     1      -7.461   9.429  69.558  1.00  0.00    -0.083 A  
HETATM    6  C   UNL     1      -7.838   8.706  68.417  1.00  0.00    -0.105 A  
HETATM    7  C   UNL     1      -6.687  10.362  67.063  1.00  0.00    -0.080 A  
HETATM    8  C   UNL     1      -7.445   9.191  67.164  1.00  0.00    -0.087 A  
BRANCH   6   9
HETATM    9  C   UNL     1      -8.644   7.425  68.563  1.00  0.00    -0.128 C  
HETATM   10  C   UNL     1      -7.995   6.254  69.381  1.00  0.00    -0.109 C  
HETATM   11  C   UNL     1      -7.896   6.662  70.863  1.00  0.00    -0.105 C  
HETATM   12  C   UNL     1      -6.605   5.891  68.821  1.00  0.00    -0.055 C  
HETATM   13  N   UNL     1      -8.902   5.084  69.258  1.00  0.00    -0.091 NA 
HETATM   14  H   UNL     1      -9.061   4.867  68.274  1.00  0.00     0.000 HD 
BRANCH  13  15
HETATM   15  C   UNL     1      -8.477   3.864  69.981  1.00  0.00    -0.063 C  
BRANCH  15  16
HETATM   16  C   UNL     1      -8.049   4.130  71.444  1.00  0.00    -0.077 C  
HETATM   17  H   UNL     1      -7.326   3.075  72.948  1.00  0.00     0.000 HD 
HETATM   18  O   UNL     1      -7.589   2.913  72.050  1.00  0.00    -0.050 OA 
BRANCH  16  19
HETATM   19  C   UNL     1      -9.145   4.779  72.260  1.00  0.00    -0.144 A  
HETATM   20  C   UNL     1     -10.250   4.035  72.709  1.00  0.00    -0.163 A  
HETATM   21  O   UNL     1     -10.319   2.716  72.332  1.00  0.00    -0.162 OA 
HETATM   22  C   UNL     1     -11.216   1.941  73.117  1.00  0.00    -0.126 C  
HETATM   23  C   UNL     1     -12.526   2.602  73.526  1.00  0.00     0.727 C  
HETATM   24  O   UNL     1     -13.577   1.991  73.695  1.00  0.00     0.119 OA 
HETATM   25  N   UNL     1     -12.414   3.940  73.798  1.00  0.00     0.987 N  
HETATM   26  H   UNL     1     -13.187   4.423  74.256  1.00  0.00     0.000 HD 
HETATM   27  C   UNL     1     -11.262   4.655  73.458  1.00  0.00    -0.316 A  
HETATM   28  C   UNL     1     -11.159   5.998  73.819  1.00  0.00     0.192 A  
HETATM   29  C   UNL     1     -10.045   6.720  73.413  1.00  0.00    -0.240 A  
HETATM   30  O   UNL     1      -9.877   8.031  73.742  1.00  0.00    -0.235 OA 
HETATM   31  C   UNL     1      -9.051   6.128  72.637  1.00  0.00    -0.140 A  
HETATM   32  H   UNL     1      -9.115   8.525  73.464  1.00  0.00     0.000 HD 
ENDBRANCH  16  19
ENDBRANCH  15  16
ENDBRANCH  13  15
ENDBRANCH   6   9
ENDBRANCH   2   3
TORSDOF 5
ENDMDL
MODEL      295
REMARK 921   NORMALIZED FREE ENERGY PREDICTED BY IDOCK:    4.85 KCAL/MOL
REMARK 922        TOTAL FREE ENERGY PREDICTED BY IDOCK:    6.02 KCAL/MOL
REMARK 923 INTER-LIGAND FREE ENERGY PREDICTED BY IDOCK:   -2.28 KCAL/MOL
REMARK 924 INTRA-LIGAND FREE ENERGY PREDICTED BY IDOCK:    8.30 KCAL/MOL
REMARK 927      BINDING AFFINITY PREDICTED BY RF-SCORE:    0.00 PKD
ROOT
HETATM    1  C   UNL     1      -6.353  14.819  71.044  1.00  0.00     0.205 C  
HETATM    2  O   UNL     1      -6.987  15.326  69.873  1.00  0.00    -0.180 OA 
ENDROOT
BRANCH   2   3
HETATM    3  C   UNL     1      -7.603  14.400  69.072  1.00  0.00    -0.106 A  
HETATM    4  C   UNL     1      -8.657  14.664  68.202  1.00  0.00    -0.166 A  
HETATM    5  C   UNL     1      -9.222  13.633  67.450  1.00  0.00    -0.222 A  
HETATM    6  C   UNL     1      -8.734  12.320  67.536  1.00  0.00    -0.177 A  
HETATM    7  C   UNL     1      -7.101  13.100  69.158  1.00  0.00     0.021 A  
HETATM    8  C   UNL     1      -7.660  12.066  68.399  1.00  0.00    -0.128 A  
BRANCH   6   9
HETATM    9  C   UNL     1      -9.379  11.216  66.714  1.00  0.00    -0.193 C  
HETATM   10  C   UNL     1      -8.739   9.786  66.797  1.00  0.00    -0.131 C  
HETATM   11  C   UNL     1      -8.959   9.212  68.210  1.00  0.00    -0.129 C  
HETATM   12  C   UNL     1      -7.236   9.831  66.454  1.00  0.00    -0.095 C  
HETATM   13  N   UNL     1      -9.450   8.934  65.810  1.00  0.00    -0.379 NA 
HETATM   14  H   UNL     1      -9.402   9.359  64.884  1.00  0.00     0.000 HD 
BRANCH  13  15
HETATM   15  C   UNL     1      -9.005   7.524  65.742  1.00  0.00    -0.036 C  
BRANCH  15  16
HETATM   16  C   UNL     1      -8.005   7.137  66.858  1.00  0.00    -0.115 C  
HETATM   17  H   UNL     1      -6.692   8.065  68.002  1.00  0.00     0.000 HD 
HETATM   18  O   UNL     1      -7.306   8.303  67.317  1.00  0.00    -0.086 OA 
BRANCH  16  19
HETATM   19  C   UNL     1      -7.048   6.047  66.426  1.00  0.00    -0.068 A  
HETATM   20  C   UNL     1      -6.653   5.037  67.319  1.00  0.00    -0.053 A  
HETATM   21  O   UNL     1      -7.124   5.111  68.606  1.00  0.00    -0.055 OA 
HETATM   22  C   UNL     1      -7.016   3.890  69.328  1.00  0.00    -0.046 C  
HETATM   23  C   UNL     1      -5.753   3.067  69.111  1.00  0.00    -0.022 C  
HETATM   24  O   UNL     1      -5.248   2.349  69.970  1.00  0.00    -0.004 OA 
HETATM   25  N   UNL     1      -5.275   3.108  67.829  1.00  0.00    -0.012 N  
HETATM   26  H   UNL     1      -4.551   2.447  67.543  1.00  0.00     0.000 HD 
HETATM   27  C   UNL     1      -5.758   4.038  66.903  1.00  0.00    -0.022 A  
HETATM   28  C   UNL     1      -5.297   3.997  65.588  1.00  0.00    -0.009 A  
HETATM   29  C   UNL     1      -5.725   4.970  64.695  1.00  0.00    -0.017 A  
HETATM   30  O   UNL     1      -5.323   4.980  63.394  1.00  0.00    -0.009 OA 
HETATM   31  C   UNL     1      -6.583   5.989  65.103  1.00  0.00    -0.043 A  
HETATM   32  H   UNL     1      -5.615   5.646  62.783  1.00  0.00     0.000 HD 
ENDBRANCH  16  19
ENDBRANCH  15  16
ENDBRANCH  13  15
ENDBRANCH   6   9
ENDBRANCH   2   3
TORSDOF 5
ENDMDL
MODEL      296
REMARK 921   NORMALIZED FREE ENERGY PREDICTED BY IDOCK:    7.45 KCAL/MOL
REMARK 922        TOTAL FREE ENERGY PREDICTED BY IDOCK:    9.39 KCAL/MOL
REMARK 923 INTER-LIGAND FREE ENERGY PREDICTED BY IDOCK:    5.51 KCAL/MOL
REMARK 924 INTRA-LIGAND FREE ENERGY PREDICTED BY IDOCK:    3.87 KCAL/MOL
REMARK 927      BINDING AFFINITY PREDICTED BY RF-SCORE:    0.00 PKD
ROOT
HETATM    1  C   UNL     1     -11.569  19.608  70.957  1.00  0.00     8.386 C  
HETATM    2  O   UNL     1     -10.245  19.124  70.749  1.00  0.00     1.236 OA 
ENDROOT
BRANCH   2   3
HETATM    3  C   UNL     1     -10.106  18.126  69.819  1.00  0.00     0.601 A  
HETATM    4  C   UNL     1     -10.705  16.872  69.891  1.00  0.00    -0.016 A  
HETATM    5  C   UNL     1     -10.472  15.925  68.893  1.00  0.00    -0.233 A  
HETATM    6  C   UNL     1      -9.651  16.216  67.793  1.00  0.00    -0.223 A  
HETATM    7  C   UNL     1      -9.296  18.432  68.724  1.00  0.00    -0.301 A  
HETATM    8  C   UNL     1      -9.068  17.487  67.718  1.00  0.00    -0.249 A  
BRANCH   6   9
HETATM    9  C   UNL     1      -9.406  15.158  66.729  1.00  0.00    -0.268 C  
HETATM   10  C   UNL     1     -10.292  13.865  66.780  1.00  0.00    -0.272 C  
HETATM   11  C   UNL     1     -11.749  14.232  66.442  1.00  0.00    -0.403 C  
HETATM   12  C   UNL     1     -10.206  13.189  68.163  1.00  0.00    -0.239 C  
HETATM   13  N   UNL     1      -9.770  12.940  65.740  1.00  0.00    -0.423 NA 
HETATM   14  H   UNL     1      -8.775  12.771  65.892  1.00  0.00     0.000 HD 
BRANCH  13  15
HETATM   15  C   UNL     1     -10.486  11.652  65.610  1.00  0.00    -0.268 C  
BRANCH  15  16
HETATM   16  C   UNL     1     -10.173  10.652  66.750  1.00  0.00    -0.233 C  
HETATM   17  H   UNL     1     -10.153  10.677  68.723  1.00  0.00     0.000 HD 
HETATM   18  O   UNL     1     -10.345  11.290  68.024  1.00  0.00    -0.174 OA 
BRANCH  16  19
HETATM   19  C   UNL     1      -8.799  10.033  66.617  1.00  0.00    -0.145 A  
HETATM   20  C   UNL     1      -8.586   8.675  66.910  1.00  0.00    -0.120 A  
HETATM   21  O   UNL     1      -9.658   7.952  67.372  1.00  0.00    -0.141 OA 
HETATM   22  C   UNL     1      -9.486   6.544  67.275  1.00  0.00    -0.125 C  
HETATM   23  C   UNL     1      -8.103   5.992  67.597  1.00  0.00    -0.106 C  
HETATM   24  O   UNL     1      -7.906   4.883  68.083  1.00  0.00    -0.082 OA 
HETATM   25  N   UNL     1      -7.073   6.802  67.198  1.00  0.00    -0.077 N  
HETATM   26  H   UNL     1      -6.121   6.437  67.199  1.00  0.00     0.000 HD 
HETATM   27  C   UNL     1      -7.303   8.120  66.789  1.00  0.00    -0.083 A  
HETATM   28  C   UNL     1      -6.237   8.885  66.320  1.00  0.00    -0.064 A  
HETATM   29  C   UNL     1      -6.459  10.215  65.988  1.00  0.00    -0.100 A  
HETATM   30  O   UNL     1      -5.464  11.015  65.512  1.00  0.00    -0.218 OA 
HETATM   31  C   UNL     1      -7.718  10.790  66.138  1.00  0.00    -0.149 A  
HETATM   32  H   UNL     1      -5.616  11.924  65.285  1.00  0.00     0.000 HD 
ENDBRANCH  16  19
ENDBRANCH  15  16
ENDBRANCH  13  15
ENDBRANCH   6   9
ENDBRANCH   2   3
TORSDOF 5
ENDMDL
MODEL      297
REMARK 921   NORMALIZED FREE ENERGY PREDICTED BY IDOCK:    7.67 KCAL/MOL
REMARK 922        TOTAL FREE ENERGY PREDICTED BY IDOCK:    9.66 KCAL/MOL
REMARK 923 INTER-LIGAND FREE ENERGY PREDICTED BY IDOCK:    8.92 KCAL/MOL
REMARK 924 INTRA-LIGAND FREE ENERGY PREDICTED BY IDOCK:    0.75 KCAL/MOL
REMARK 927      BINDING AFFINITY PREDICTED BY RF-SCORE:    0.00 PKD
ROOT
HETATM    1  C   UNL     1      -9.150  20.384  71.943  1.00  0.00     2.447 C  
HETATM    2  O   UNL     1      -9.354  20.281  70.536  1.00  0.00     0.835 OA 
ENDROOT
BRANCH   2   3
HETATM    3  C   UNL     1      -9.700  19.040  70.066  1.00  0.00     0.871 A  
HETATM    4  C   UNL     1      -9.181  17.833  70.524  1.00  0.00     3.767 A  
HETATM    5  C   UNL     1      -9.593  16.629  69.952  1.00  0.00     0.622 A  
HETATM    6  C   UNL     1     -10.546  16.603  68.923  1.00  0.00    -0.337 A  
HETATM    7  C   UNL     1     -10.658  19.026  69.050  1.00  0.00     0.387 A  
HETATM    8  C   UNL     1     -11.079  17.820  68.481  1.00  0.00     0.358 A  
BRANCH   6   9
HETATM    9  C   UNL     1     -10.965  15.276  68.311  1.00  0.00    -0.276 C  
HETATM   10  C   UNL     1     -11.460  14.154  69.289  1.00  0.00    -0.292 C  
HETATM   11  C   UNL     1     -12.802  14.580  69.914  1.00  0.00     0.015 C  
HETATM   12  C   UNL     1     -10.412  13.873  70.385  1.00  0.00     1.469 C  
HETATM   13  N   UNL     1     -11.670  12.929  68.475  1.00  0.00    -0.320 NA 
HETATM   14  H   UNL     1     -10.815  12.695  67.971  1.00  0.00     0.000 HD 
BRANCH  13  15
HETATM   15  C   UNL     1     -12.160  11.744  69.214  1.00  0.00    -0.229 C  
BRANCH  15  16
HETATM   16  C   UNL     1     -11.574  10.407  68.699  1.00  0.00    -0.101 C  
HETATM   17  H   UNL     1     -12.023   8.490  68.836  1.00  0.00     0.000 HD 
HETATM   18  O   UNL     1     -12.382   9.311  69.152  1.00  0.00     1.479 OA 
BRANCH  16  19
HETATM   19  C   UNL     1     -10.121  10.226  69.080  1.00  0.00    -0.232 A  
HETATM   20  C   UNL     1      -9.128  11.080  68.571  1.00  0.00    -0.173 A  
HETATM   21  O   UNL     1      -9.521  12.044  67.677  1.00  0.00    -0.177 OA 
HETATM   22  C   UNL     1      -8.574  13.093  67.510  1.00  0.00    -0.196 C  
HETATM   23  C   UNL     1      -7.104  12.698  67.485  1.00  0.00    -0.152 C  
HETATM   24  O   UNL     1      -6.245  13.300  66.846  1.00  0.00     0.015 OA 
HETATM   25  N   UNL     1      -6.788  11.666  68.327  1.00  0.00    -0.064 N  
HETATM   26  H   UNL     1      -5.808  11.458  68.519  1.00  0.00     0.000 HD 
HETATM   27  C   UNL     1      -7.784  10.891  68.930  1.00  0.00    -0.135 A  
HETATM   28  C   UNL     1      -7.422   9.899  69.839  1.00  0.00    -0.156 A  
HETATM   29  C   UNL     1      -8.411   9.085  70.375  1.00  0.00    -0.182 A  
HETATM   30  O   UNL     1      -8.127   8.104  71.277  1.00  0.00    -0.093 OA 
HETATM   31  C   UNL     1      -9.744   9.235  70.000  1.00  0.00    -0.234 A  
HETATM   32  H   UNL     1      -8.803   7.547  71.644  1.00  0.00     0.000 HD 
ENDBRANCH  16  19
ENDBRANCH  15  16
ENDBRANCH  13  15
ENDBRANCH   6   9
ENDBRANCH   2   3
TORSDOF 5
ENDMDL
MODEL      298
REMARK 921   NORMALIZED FREE ENERGY PREDICTED BY IDOCK:   10.66 KCAL/MOL
REMARK 922        TOTAL FREE ENERGY PREDICTED BY IDOCK:   13.53 KCAL/MOL
REMARK 923 INTER-LIGAND FREE ENERGY PREDICTED BY IDOCK:    1.59 KCAL/MOL
REMARK 924 INTRA-LIGAND FREE ENERGY PREDICTED BY IDOCK:   11.94 KCAL/MOL
REMARK 927      BINDING AFFINITY PREDICTED BY RF-SCORE:    0.00 PKD
ROOT
HETATM    1  C   UNL     1     -11.728  16.042  63.535  1.00  0.00     1.722 C  
HETATM    2  O   UNL     1     -11.837  16.101  64.954  1.00  0.00     0.109 OA 
ENDROOT
BRANCH   2   3
HETATM    3  C   UNL     1     -10.711  15.765  65.660  1.00  0.00    -0.348 A  
HETATM    4  C   UNL     1      -9.659  16.626  65.953  1.00  0.00    -0.248 A  
HETATM    5  C   UNL     1      -8.549  16.164  66.663  1.00  0.00    -0.311 A  
HETATM    6  C   UNL     1      -8.476  14.836  67.110  1.00  0.00    -0.247 A  
HETATM    7  C   UNL     1     -10.655  14.444  66.111  1.00  0.00    -0.298 A  
HETATM    8  C   UNL     1      -9.547  13.980  66.829  1.00  0.00    -0.293 A  
BRANCH   6   9
HETATM    9  C   UNL     1      -7.248  14.359  67.869  1.00  0.00    -0.169 C  
HETATM   10  C   UNL     1      -7.136  12.823  68.168  1.00  0.00    -0.105 C  
HETATM   11  C   UNL     1      -6.928  12.061  66.845  1.00  0.00    -0.033 C  
HETATM   12  C   UNL     1      -8.390  12.308  68.903  1.00  0.00     0.215 C  
HETATM   13  N   UNL     1      -5.940  12.634  69.030  1.00  0.00    -0.071 NA 
HETATM   14  H   UNL     1      -6.017  13.217  69.864  1.00  0.00     0.000 HD 
BRANCH  13  15
HETATM   15  C   UNL     1      -5.643  11.237  69.416  1.00  0.00    -0.046 C  
BRANCH  15  16
HETATM   16  C   UNL     1      -6.221  10.188  68.436  1.00  0.00    -0.048 C  
HETATM   17  H   UNL     1      -6.900  10.168  66.583  1.00  0.00     0.000 HD 
HETATM   18  O   UNL     1      -6.546  10.812  67.185  1.00  0.00    -0.071 OA 
BRANCH  16  19
HETATM   19  C   UNL     1      -7.407   9.447  69.014  1.00  0.00    -0.072 A  
HETATM   20  C   UNL     1      -8.679   9.548  68.426  1.00  0.00    -0.124 A  
HETATM   21  O   UNL     1      -8.811  10.385  67.345  1.00  0.00    -0.132 OA 
HETATM   22  C   UNL     1      -9.984  10.148  66.576  1.00  0.00    -0.224 C  
HETATM   23  C   UNL     1     -11.258   9.817  67.341  1.00  0.00     0.219 C  
HETATM   24  O   UNL     1     -12.385  10.112  66.954  1.00  0.00     3.238 OA 
HETATM   25  N   UNL     1     -11.054   9.059  68.464  1.00  0.00    -0.450 N  
HETATM   26  H   UNL     1     -11.853   8.633  68.932  1.00  0.00     0.000 HD 
HETATM   27  C   UNL     1      -9.769   8.860  68.980  1.00  0.00    -0.171 A  
HETATM   28  C   UNL     1      -9.597   8.021  70.080  1.00  0.00    -0.175 A  
HETATM   29  C   UNL     1      -8.330   7.887  70.632  1.00  0.00    -0.123 A  
HETATM   30  O   UNL     1      -8.092   7.075  71.700  1.00  0.00    -0.103 OA 
HETATM   31  C   UNL     1      -7.246   8.593  70.117  1.00  0.00    -0.052 A  
HETATM   32  H   UNL     1      -7.225   6.984  72.078  1.00  0.00     0.000 HD 
ENDBRANCH  16  19
ENDBRANCH  15  16
ENDBRANCH  13  15
ENDBRANCH   6   9
ENDBRANCH   2   3
TORSDOF 5
ENDMDL
MODEL      299
REMARK 921   NORMALIZED FREE ENERGY PREDICTED BY IDOCK:   11.16 KCAL/MOL
REMARK 922        TOTAL FREE ENERGY PREDICTED BY IDOCK:   14.18 KCAL/MOL
REMARK 923 INTER-LIGAND FREE ENERGY PREDICTED BY IDOCK:   -3.28 KCAL/MOL
REMARK 924 INTRA-LIGAND FREE ENERGY PREDICTED BY IDOCK:   17.46 KCAL/MOL
REMARK 927      BINDING AFFINITY PREDICTED BY RF-SCORE:    0.00 PKD
ROOT
HETATM    1  C   UNL     1      -6.256  13.822  68.543  1.00  0.00    -0.092 C  
HETATM    2  O   UNL     1      -6.423  13.010  67.385  1.00  0.00    -0.166 OA 
ENDROOT
BRANCH   2   3
HETATM    3  C   UNL     1      -7.230  11.910  67.531  1.00  0.00    -0.125 A  
HETATM    4  C   UNL     1      -7.633  11.364  68.745  1.00  0.00    -0.132 A  
HETATM    5  C   UNL     1      -8.439  10.225  68.770  1.00  0.00    -0.130 A  
HETATM    6  C   UNL     1      -8.875   9.618  67.583  1.00  0.00    -0.127 A  
HETATM    7  C   UNL     1      -7.666  11.321  66.342  1.00  0.00    -0.089 A  
HETATM    8  C   UNL     1      -8.481  10.185  66.365  1.00  0.00    -0.133 A  
BRANCH   6   9
HETATM    9  C   UNL     1      -9.741   8.371  67.644  1.00  0.00    -0.201 C  
HETATM   10  C   UNL     1      -9.126   7.097  68.323  1.00  0.00    -0.134 C  
HETATM   11  C   UNL     1      -8.953   7.359  69.831  1.00  0.00    -0.141 C  
HETATM   12  C   UNL     1      -7.779   6.720  67.676  1.00  0.00    -0.111 C  
HETATM   13  N   UNL     1     -10.099   5.990  68.130  1.00  0.00    -0.147 NA 
HETATM   14  H   UNL     1     -10.304   5.875  67.138  1.00  0.00     0.000 HD 
BRANCH  13  15
HETATM   15  C   UNL     1      -9.714   4.689  68.720  1.00  0.00    -0.160 C  
BRANCH  15  16
HETATM   16  C   UNL     1      -8.919   4.819  70.041  1.00  0.00    -0.095 C  
HETATM   17  H   UNL     1      -8.672   3.755  71.685  1.00  0.00     0.000 HD 
HETATM   18  O   UNL     1      -9.160   3.676  70.874  1.00  0.00    -0.090 OA 
BRANCH  16  19
HETATM   19  C   UNL     1      -9.214   6.112  70.770  1.00  0.00    -0.163 A  
HETATM   20  C   UNL     1     -10.521   6.431  71.176  1.00  0.00    -0.221 A  
HETATM   21  O   UNL     1     -11.520   5.552  70.839  1.00  0.00     0.057 OA 
HETATM   22  C   UNL     1     -12.713   5.721  71.594  1.00  0.00     1.223 C  
HETATM   23  C   UNL     1     -13.139   7.150  71.903  1.00  0.00    -0.231 C  
HETATM   24  O   UNL     1     -14.308   7.504  72.030  1.00  0.00    -0.343 OA 
HETATM   25  N   UNL     1     -12.095   8.005  72.138  1.00  0.00    -0.329 N  
HETATM   26  H   UNL     1     -12.281   8.926  72.534  1.00  0.00     0.000 HD 
HETATM   27  C   UNL     1     -10.777   7.638  71.844  1.00  0.00    -0.220 A  
HETATM   28  C   UNL     1      -9.737   8.508  72.168  1.00  0.00    -0.387 A  
HETATM   29  C   UNL     1      -8.440   8.170  71.805  1.00  0.00    -0.144 A  
HETATM   30  O   UNL     1      -7.378   8.969  72.101  1.00  0.00    -0.334 OA 
HETATM   31  C   UNL     1      -8.175   6.993  71.109  1.00  0.00    -0.113 A  
HETATM   32  H   UNL     1      -6.491   8.739  71.853  1.00  0.00     0.000 HD 
ENDBRANCH  16  19
ENDBRANCH  15  16
ENDBRANCH  13  15
ENDBRANCH   6   9
ENDBRANCH   2   3
TORSDOF 5
ENDMDL
MODEL      300
REMARK 921   NORMALIZED FREE ENERGY PREDICTED BY IDOCK:   11.38 KCAL/MOL
REMARK 922        TOTAL FREE ENERGY PREDICTED BY IDOCK:   14.47 KCAL/MOL
REMARK 923 INTER-LIGAND FREE ENERGY PREDICTED BY IDOCK:    1.49 KCAL/MOL
REMARK 924 INTRA-LIGAND FREE ENERGY PREDICTED BY IDOCK:   12.98 KCAL/MOL
REMARK 927      BINDING AFFINITY PREDICTED BY RF-SCORE:    0.00 PKD
ROOT
HETATM    1  C   UNL     1     -14.065  12.919  70.488  1.00  0.00     3.384 C  
HETATM    2  O   UNL     1     -12.649  12.855  70.634  1.00  0.00    -0.271 OA 
ENDROOT
BRANCH   2   3
HETATM    3  C   UNL     1     -12.052  11.691  70.222  1.00  0.00    -0.358 A  
HETATM    4  C   UNL     1     -12.222  11.098  68.975  1.00  0.00    -0.194 A  
HETATM    5  C   UNL     1     -11.578   9.896  68.676  1.00  0.00     0.174 A  
HETATM    6  C   UNL     1     -10.736   9.272  69.609  1.00  0.00    -0.244 A  
HETATM    7  C   UNL     1     -11.207  11.085  71.155  1.00  0.00     1.077 A  
HETATM    8  C   UNL     1     -10.555   9.885  70.854  1.00  0.00    -0.254 A  
BRANCH   6   9
HETATM    9  C   UNL     1     -10.059   7.956  69.257  1.00  0.00    -0.197 C  
HETATM   10  C   UNL     1      -9.095   7.333  70.326  1.00  0.00    -0.152 C  
HETATM   11  C   UNL     1      -9.916   6.878  71.548  1.00  0.00    -0.185 C  
HETATM   12  C   UNL     1      -8.007   8.341  70.745  1.00  0.00    -0.100 C  
HETATM   13  N   UNL     1      -8.460   6.146  69.698  1.00  0.00    -0.126 NA 
HETATM   14  H   UNL     1      -7.999   6.416  68.828  1.00  0.00     0.000 HD 
BRANCH  13  15
HETATM   15  C   UNL     1      -7.516   5.395  70.555  1.00  0.00    -0.072 C  
BRANCH  15  16
HETATM   16  C   UNL     1      -6.452   6.289  71.236  1.00  0.00    -0.050 C  
HETATM   17  H   UNL     1      -6.141   7.045  73.033  1.00  0.00     0.000 HD 
HETATM   18  O   UNL     1      -6.794   6.496  72.615  1.00  0.00    -0.064 OA 
BRANCH  16  19
HETATM   19  C   UNL     1      -6.247   7.601  70.510  1.00  0.00    -0.037 A  
HETATM   20  C   UNL     1      -6.212   7.652  69.106  1.00  0.00    -0.035 A  
HETATM   21  O   UNL     1      -6.317   6.463  68.427  1.00  0.00    -0.037 OA 
HETATM   22  C   UNL     1      -6.665   6.613  67.056  1.00  0.00    -0.060 C  
HETATM   23  C   UNL     1      -6.026   7.773  66.304  1.00  0.00    -0.038 C  
HETATM   24  O   UNL     1      -5.765   7.750  65.104  1.00  0.00    -0.037 OA 
HETATM   25  N   UNL     1      -5.859   8.903  67.059  1.00  0.00    -0.045 N  
HETATM   26  H   UNL     1      -5.617   9.781  66.599  1.00  0.00     0.000 HD 
HETATM   27  C   UNL     1      -6.013   8.876  68.449  1.00  0.00    -0.045 A  
HETATM   28  C   UNL     1      -5.907  10.063  69.172  1.00  0.00    -0.037 A  
HETATM   29  C   UNL     1      -5.986  10.016  70.557  1.00  0.00    -0.092 A  
HETATM   30  O   UNL     1      -5.903  11.140  71.322  1.00  0.00    -0.363 OA 
HETATM   31  C   UNL     1      -6.146   8.804  71.225  1.00  0.00    -0.052 A  
HETATM   32  H   UNL     1      -5.957  11.108  72.270  1.00  0.00     0.000 HD 
ENDBRANCH  16  19
ENDBRANCH  15  16
ENDBRANCH  13  15
ENDBRANCH   6   9
ENDBRANCH   2   3
TORSDOF 5
ENDMDL
MODEL      301
REMARK 921   NORMALIZED FREE ENERGY PREDICTED BY IDOCK:   12.15 KCAL/MOL
REMARK 922        TOTAL FREE ENERGY PREDICTED BY IDOCK:   15.46 KCAL/MOL
REMARK 923 INTER-LIGAND FREE ENERGY PREDICTED BY IDOCK:    1.64 KCAL/MOL
REMARK 924 INTRA-LIGAND FREE ENERGY PREDICTED BY IDOCK:   13.83 KCAL/MOL
REMARK 927      BINDING AFFINITY PREDICTED BY RF-SCORE:    0.00 PKD
ROOT
HETATM    1  C   UNL     1      -5.475  15.923  70.658  1.00  0.00    -0.115 C  
HETATM    2  O   UNL     1      -5.725  14.686  71.321  1.00  0.00    -0.139 OA 
ENDROOT
BRANCH   2   3
HETATM    3  C   UNL     1      -6.033  13.621  70.514  1.00  0.00    -0.145 A  
HETATM    4  C   UNL     1      -5.130  12.941  69.702  1.00  0.00    -0.073 A  
HETATM    5  C   UNL     1      -5.565  11.881  68.904  1.00  0.00    -0.050 A  
HETATM    6  C   UNL     1      -6.905  11.468  68.913  1.00  0.00    -0.095 A  
HETATM    7  C   UNL     1      -7.367  13.211  70.540  1.00  0.00     2.580 A  
HETATM    8  C   UNL     1      -7.803  12.144  69.747  1.00  0.00     1.399 A  
BRANCH   6   9
HETATM    9  C   UNL     1      -7.350  10.319  68.022  1.00  0.00    -0.086 C  
HETATM   10  C   UNL     1      -7.823  10.674  66.569  1.00  0.00    -0.140 C  
HETATM   11  C   UNL     1      -6.620  11.178  65.751  1.00  0.00     0.169 C  
HETATM   12  C   UNL     1      -8.947  11.730  66.595  1.00  0.00    -0.195 C  
HETATM   13  N   UNL     1      -8.334   9.418  65.960  1.00  0.00    -0.117 NA 
HETATM   14  H   UNL     1      -9.063   9.016  66.549  1.00  0.00     0.000 HD 
BRANCH  13  15
HETATM   15  C   UNL     1      -8.818   9.533  64.566  1.00  0.00    -0.213 C  
BRANCH  15  16
HETATM   16  C   UNL     1      -8.729  10.970  63.997  1.00  0.00     0.091 C  
HETATM   17  H   UNL     1      -7.621  12.574  64.301  1.00  0.00     0.000 HD 
HETATM   18  O   UNL     1      -7.676  11.693  64.651  1.00  0.00     1.347 OA 
BRANCH  16  19
HETATM   19  C   UNL     1     -10.047  11.709  64.079  1.00  0.00    -0.362 A  
HETATM   20  C   UNL     1     -10.166  12.893  64.826  1.00  0.00    -0.285 A  
HETATM   21  O   UNL     1      -9.059  13.319  65.517  1.00  0.00     0.384 OA 
HETATM   22  C   UNL     1      -9.120  14.683  65.915  1.00  0.00     0.152 C  
HETATM   23  C   UNL     1     -10.467  15.202  66.400  1.00  0.00    -0.297 C  
HETATM   24  O   UNL     1     -10.597  16.087  67.241  1.00  0.00    -0.309 OA 
HETATM   25  N   UNL     1     -11.541  14.670  65.738  1.00  0.00    -0.348 N  
HETATM   26  H   UNL     1     -12.463  15.090  65.860  1.00  0.00     0.000 HD 
HETATM   27  C   UNL     1     -11.399  13.561  64.898  1.00  0.00    -0.334 A  
HETATM   28  C   UNL     1     -12.503  13.097  64.185  1.00  0.00    -0.348 A  
HETATM   29  C   UNL     1     -12.371  11.951  63.412  1.00  0.00    -0.462 A  
HETATM   30  O   UNL     1     -13.407  11.452  62.681  1.00  0.00    -0.267 OA 
HETATM   31  C   UNL     1     -11.165  11.257  63.360  1.00  0.00    -0.104 A  
HETATM   32  H   UNL     1     -13.317  10.668  62.153  1.00  0.00     0.000 HD 
ENDBRANCH  16  19
ENDBRANCH  15  16
ENDBRANCH  13  15
ENDBRANCH   6   9
ENDBRANCH   2   3
TORSDOF 5
ENDMDL
MODEL      302
REMARK 921   NORMALIZED FREE ENERGY PREDICTED BY IDOCK:   17.47 KCAL/MOL
REMARK 922        TOTAL FREE ENERGY PREDICTED BY IDOCK:   22.33 KCAL/MOL
REMARK 923 INTER-LIGAND FREE ENERGY PREDICTED BY IDOCK:   15.81 KCAL/MOL
REMARK 924 INTRA-LIGAND FREE ENERGY PREDICTED BY IDOCK:    6.51 KCAL/MOL
REMARK 927      BINDING AFFINITY PREDICTED BY RF-SCORE:    0.00 PKD
ROOT
HETATM    1  C   UNL     1     -11.661  20.529  71.260  1.00  0.00    10.085 C  
HETATM    2  O   UNL     1     -10.295  20.142  71.137  1.00  0.00     1.399 OA 
ENDROOT
BRANCH   2   3
HETATM    3  C   UNL     1      -9.975  19.400  70.029  1.00  0.00     0.591 A  
HETATM    4  C   UNL     1     -10.565  18.191  69.673  1.00  0.00     0.841 A  
HETATM    5  C   UNL     1     -10.141  17.513  68.530  1.00  0.00    -0.363 A  
HETATM    6  C   UNL     1      -9.131  18.036  67.708  1.00  0.00    -0.262 A  
HETATM    7  C   UNL     1      -8.977  19.937  69.212  1.00  0.00     0.190 A  
HETATM    8  C   UNL     1      -8.556  19.262  68.062  1.00  0.00    -0.357 A  
BRANCH   6   9
HETATM    9  C   UNL     1      -8.681  17.266  66.476  1.00  0.00    -0.293 C  
HETATM   10  C   UNL     1      -9.526  16.010  66.062  1.00  0.00    -0.349 C  
HETATM   11  C   UNL     1     -10.916  16.468  65.581  1.00  0.00    -0.053 C  
HETATM   12  C   UNL     1      -9.654  15.017  67.234  1.00  0.00    -0.208 C  
HETATM   13  N   UNL     1      -8.811  15.360  64.933  1.00  0.00     1.579 NA 
HETATM   14  H   UNL     1      -7.851  15.146  65.206  1.00  0.00     0.000 HD 
BRANCH  13  15
HETATM   15  C   UNL     1      -9.458  14.152  64.375  1.00  0.00     2.280 C  
BRANCH  15  16
HETATM   16  C   UNL     1      -9.821  13.094  65.446  1.00  0.00    -0.106 C  
HETATM   17  H   UNL     1     -10.894  13.029  67.101  1.00  0.00     0.000 HD 
HETATM   18  O   UNL     1     -10.670  13.678  66.445  1.00  0.00    -0.279 OA 
BRANCH  16  19
HETATM   19  C   UNL     1      -8.599  12.449  66.061  1.00  0.00     0.404 A  
HETATM   20  C   UNL     1      -8.533  11.058  66.248  1.00  0.00    -0.165 A  
HETATM   21  O   UNL     1      -9.638  10.320  65.903  1.00  0.00    -0.183 OA 
HETATM   22  C   UNL     1      -9.375   8.931  65.746  1.00  0.00    -0.219 C  
HETATM   23  C   UNL     1      -8.414   8.293  66.740  1.00  0.00    -0.122 C  
HETATM   24  O   UNL     1      -8.483   7.123  67.105  1.00  0.00    -0.119 OA 
HETATM   25  N   UNL     1      -7.383   9.110  67.123  1.00  0.00    -0.086 N  
HETATM   26  H   UNL     1      -6.593   8.714  67.632  1.00  0.00     0.000 HD 
HETATM   27  C   UNL     1      -7.394  10.477  66.829  1.00  0.00    -0.114 A  
HETATM   28  C   UNL     1      -6.291  11.259  67.170  1.00  0.00    -0.096 A  
HETATM   29  C   UNL     1      -6.341  12.628  66.942  1.00  0.00     0.419 A  
HETATM   30  O   UNL     1      -5.295  13.446  67.242  1.00  0.00    -0.346 OA 
HETATM   31  C   UNL     1      -7.479  13.223  66.403  1.00  0.00     1.748 A  
HETATM   32  H   UNL     1      -5.328  14.382  67.086  1.00  0.00     0.000 HD 
ENDBRANCH  16  19
ENDBRANCH  15  16
ENDBRANCH  13  15
ENDBRANCH   6   9
ENDBRANCH   2   3
TORSDOF 5
ENDMDL
MODEL      303
REMARK 921   NORMALIZED FREE ENERGY PREDICTED BY IDOCK:   18.14 KCAL/MOL
REMARK 922        TOTAL FREE ENERGY PREDICTED BY IDOCK:   23.20 KCAL/MOL
REMARK 923 INTER-LIGAND FREE ENERGY PREDICTED BY IDOCK:    3.25 KCAL/MOL
REMARK 924 INTRA-LIGAND FREE ENERGY PREDICTED BY IDOCK:   19.95 KCAL/MOL
REMARK 927      BINDING AFFINITY PREDICTED BY RF-SCORE:    0.00 PKD
ROOT
HETATM    1  C   UNL     1     -13.353  12.116  68.455  1.00  0.00     5.007 C  
HETATM    2  O   UNL     1     -11.938  12.060  68.618  1.00  0.00    -0.316 OA 
ENDROOT
BRANCH   2   3
HETATM    3  C   UNL     1     -11.333  10.890  68.237  1.00  0.00    -0.308 A  
HETATM    4  C   UNL     1     -11.495  10.266  67.004  1.00  0.00     0.595 A  
HETATM    5  C   UNL     1     -10.843   9.062  66.736  1.00  0.00     0.062 A  
HETATM    6  C   UNL     1     -10.000   8.465  67.686  1.00  0.00    -0.246 A  
HETATM    7  C   UNL     1     -10.487  10.312  69.187  1.00  0.00    -0.246 A  
HETATM    8  C   UNL     1      -9.826   9.109  68.916  1.00  0.00    -0.179 A  
BRANCH   6   9
HETATM    9  C   UNL     1      -9.314   7.146  67.368  1.00  0.00    -0.144 C  
HETATM   10  C   UNL     1      -8.100   6.729  68.270  1.00  0.00    -0.115 C  
HETATM   11  C   UNL     1      -8.605   6.416  69.691  1.00  0.00    -0.134 C  
HETATM   12  C   UNL     1      -7.028   7.837  68.303  1.00  0.00    -0.079 C  
HETATM   13  N   UNL     1      -7.523   5.494  67.676  1.00  0.00    -0.080 NA 
HETATM   14  H   UNL     1      -7.280   5.658  66.699  1.00  0.00     0.000 HD 
BRANCH  13  15
HETATM   15  C   UNL     1      -6.364   4.920  68.395  1.00  0.00    -0.036 C  
BRANCH  15  16
HETATM   16  C   UNL     1      -5.329   5.978  68.846  1.00  0.00    -0.004 C  
HETATM   17  H   UNL     1      -4.737   6.779  70.550  1.00  0.00     0.000 HD 
HETATM   18  O   UNL     1      -5.372   6.130  70.273  1.00  0.00    -0.012 OA 
BRANCH  16  19
HETATM   19  C   UNL     1      -5.508   7.303  68.138  1.00  0.00    -0.025 A  
HETATM   20  C   UNL     1      -5.839   7.354  66.773  1.00  0.00    -0.038 A  
HETATM   21  O   UNL     1      -5.939   6.161  66.102  1.00  0.00    -0.026 OA 
HETATM   22  C   UNL     1      -6.642   6.254  64.868  1.00  0.00    -0.039 C  
HETATM   23  C   UNL     1      -6.391   7.494  64.021  1.00  0.00    -0.049 C  
HETATM   24  O   UNL     1      -6.443   7.506  62.794  1.00  0.00    -0.064 OA 
HETATM   25  N   UNL     1      -6.204   8.638  64.749  1.00  0.00    -0.064 N  
HETATM   26  H   UNL     1      -6.217   9.541  64.274  1.00  0.00     0.000 HD 
HETATM   27  C   UNL     1      -5.994   8.593  66.131  1.00  0.00    -0.048 A  
HETATM   28  C   UNL     1      -5.882   9.785  66.845  1.00  0.00    -0.051 A  
HETATM   29  C   UNL     1      -5.599   9.730  68.204  1.00  0.00    -0.039 A  
HETATM   30  O   UNL     1      -5.488  10.856  68.962  1.00  0.00    -0.041 OA 
HETATM   31  C   UNL     1      -5.406   8.510  68.846  1.00  0.00    -0.032 A  
HETATM   32  H   UNL     1      -5.295  10.820  69.891  1.00  0.00     0.000 HD 
ENDBRANCH  16  19
ENDBRANCH  15  16
ENDBRANCH  13  15
ENDBRANCH   6   9
ENDBRANCH   2   3
TORSDOF 5
ENDMDL
MODEL      304
REMARK 921   NORMALIZED FREE ENERGY PREDICTED BY IDOCK:   27.77 KCAL/MOL
REMARK 922        TOTAL FREE ENERGY PREDICTED BY IDOCK:   35.64 KCAL/MOL
REMARK 923 INTER-LIGAND FREE ENERGY PREDICTED BY IDOCK:   32.83 KCAL/MOL
REMARK 924 INTRA-LIGAND FREE ENERGY PREDICTED BY IDOCK:    2.81 KCAL/MOL
REMARK 927      BINDING AFFINITY PREDICTED BY RF-SCORE:    0.00 PKD
ROOT
HETATM    1  C   UNL     1     -13.288   4.804  67.256  1.00  0.00    21.479 C  
HETATM    2  O   UNL     1     -12.618   5.761  68.072  1.00  0.00     5.823 OA 
ENDROOT
BRANCH   2   3
HETATM    3  C   UNL     1     -11.350   6.106  67.681  1.00  0.00     0.226 A  
HETATM    4  C   UNL     1     -10.722   5.673  66.517  1.00  0.00    -0.296 A  
HETATM    5  C   UNL     1      -9.416   6.073  66.233  1.00  0.00    -0.153 A  
HETATM    6  C   UNL     1      -8.715   6.928  67.096  1.00  0.00    -0.120 A  
HETATM    7  C   UNL     1     -10.667   6.967  68.542  1.00  0.00    -0.219 A  
HETATM    8  C   UNL     1      -9.360   7.376  68.255  1.00  0.00    -0.140 A  
BRANCH   6   9
HETATM    9  C   UNL     1      -7.288   7.336  66.765  1.00  0.00    -0.088 C  
HETATM   10  C   UNL     1      -7.056   8.800  66.254  1.00  0.00    -0.082 C  
HETATM   11  C   UNL     1      -7.343   9.790  67.399  1.00  0.00    -0.090 C  
HETATM   12  C   UNL     1      -7.943   9.108  65.031  1.00  0.00    -0.120 C  
HETATM   13  N   UNL     1      -5.624   8.904  65.870  1.00  0.00    -0.045 NA 
HETATM   14  H   UNL     1      -5.393   8.183  65.187  1.00  0.00     0.000 HD 
BRANCH  13  15
HETATM   15  C   UNL     1      -5.188  10.228  65.372  1.00  0.00    -0.080 C  
BRANCH  15  16
HETATM   16  C   UNL     1      -6.263  10.956  64.529  1.00  0.00     0.390 C  
HETATM   17  H   UNL     1      -6.313  12.018  62.866  1.00  0.00     0.000 HD 
HETATM   18  O   UNL     1      -5.654  11.572  63.384  1.00  0.00     0.512 OA 
BRANCH  16  19
HETATM   19  C   UNL     1      -7.058  11.955  65.342  1.00  0.00     2.232 A  
HETATM   20  C   UNL     1      -8.298  12.435  64.884  1.00  0.00     2.486 A  
HETATM   21  O   UNL     1      -8.727  12.004  63.653  1.00  0.00     0.618 OA 
HETATM   22  C   UNL     1     -10.118  12.202  63.429  1.00  0.00    -0.351 C  
HETATM   23  C   UNL     1     -10.725  13.499  63.947  1.00  0.00     0.145 C  
HETATM   24  O   UNL     1     -11.673  14.071  63.417  1.00  0.00     0.056 OA 
HETATM   25  N   UNL     1     -10.190  13.931  65.132  1.00  0.00    -0.478 N  
HETATM   26  H   UNL     1     -10.654  14.678  65.648  1.00  0.00     0.000 HD 
HETATM   27  C   UNL     1      -9.018  13.367  65.647  1.00  0.00     0.871 A  
HETATM   28  C   UNL     1      -8.549  13.783  66.892  1.00  0.00    -0.128 A  
HETATM   29  C   UNL     1      -7.346  13.274  67.362  1.00  0.00    -0.114 A  
HETATM   30  O   UNL     1      -6.837  13.630  68.574  1.00  0.00    -0.083 OA 
HETATM   31  C   UNL     1      -6.601  12.377  66.600  1.00  0.00     0.583 A  
HETATM   32  H   UNL     1      -6.014  13.281  68.896  1.00  0.00     0.000 HD 
ENDBRANCH  16  19
ENDBRANCH  15  16
ENDBRANCH  13  15
ENDBRANCH   6   9
ENDBRANCH   2   3
TORSDOF 5
ENDMDL
MODEL      305
REMARK 921   NORMALIZED FREE ENERGY PREDICTED BY IDOCK:   30.00 KCAL/MOL
REMARK 922        TOTAL FREE ENERGY PREDICTED BY IDOCK:   38.52 KCAL/MOL
REMARK 923 INTER-LIGAND FREE ENERGY PREDICTED BY IDOCK:   20.73 KCAL/MOL
REMARK 924 INTRA-LIGAND FREE ENERGY PREDICTED BY IDOCK:   17.79 KCAL/MOL
REMARK 927      BINDING AFFINITY PREDICTED BY RF-SCORE:    0.00 PKD
ROOT
HETATM    1  C   UNL     1     -11.919  16.430  62.942  1.00  0.00     6.862 C  
HETATM    2  O   UNL     1     -11.901  16.717  64.337  1.00  0.00    -0.510 OA 
ENDROOT
BRANCH   2   3
HETATM    3  C   UNL     1     -10.812  16.258  65.034  1.00  0.00    -0.320 A  
HETATM    4  C   UNL     1      -9.573  16.887  65.094  1.00  0.00     1.247 A  
HETATM    5  C   UNL     1      -8.528  16.312  65.819  1.00  0.00     0.312 A  
HETATM    6  C   UNL     1      -8.704  15.106  66.514  1.00  0.00    -0.280 A  
HETATM    7  C   UNL     1     -11.004  15.063  65.731  1.00  0.00    -0.351 A  
HETATM    8  C   UNL     1      -9.960  14.489  66.465  1.00  0.00    -0.290 A  
BRANCH   6   9
HETATM    9  C   UNL     1      -7.543  14.498  67.284  1.00  0.00    -0.150 C  
HETATM   10  C   UNL     1      -7.186  15.135  68.672  1.00  0.00    -0.118 C  
HETATM   11  C   UNL     1      -8.326  14.853  69.670  1.00  0.00     0.052 C  
HETATM   12  C   UNL     1      -6.938  16.651  68.540  1.00  0.00    -0.161 C  
HETATM   13  N   UNL     1      -5.947  14.467  69.150  1.00  0.00    -0.092 NA 
HETATM   14  H   UNL     1      -5.211  14.556  68.449  1.00  0.00     0.000 HD 
BRANCH  13  15
HETATM   15  C   UNL     1      -5.445  14.916  70.468  1.00  0.00    -0.136 C  
BRANCH  15  16
HETATM   16  C   UNL     1      -6.532  15.568  71.355  1.00  0.00     1.361 C  
HETATM   17  H   UNL     1      -8.388  15.163  71.891  1.00  0.00     0.000 HD 
HETATM   18  O   UNL     1      -7.721  14.763  71.346  1.00  0.00     2.058 OA 
BRANCH  16  19
HETATM   19  C   UNL     1      -6.824  16.998  70.957  1.00  0.00     3.194 A  
HETATM   20  C   UNL     1      -8.061  17.353  70.391  1.00  0.00     3.465 A  
HETATM   21  O   UNL     1      -8.965  16.345  70.166  1.00  0.00     0.864 OA 
HETATM   22  C   UNL     1     -10.298  16.803  69.971  1.00  0.00     0.163 C  
HETATM   23  C   UNL     1     -10.479  18.076  69.155  1.00  0.00     0.069 C  
HETATM   24  O   UNL     1     -11.461  18.306  68.454  1.00  0.00     0.833 OA 
HETATM   25  N   UNL     1      -9.494  19.008  69.349  1.00  0.00    -0.033 N  
HETATM   26  H   UNL     1      -9.626  19.956  68.996  1.00  0.00     0.000 HD 
HETATM   27  C   UNL     1      -8.311  18.684  70.020  1.00  0.00     1.625 A  
HETATM   28  C   UNL     1      -7.367  19.680  70.262  1.00  0.00     0.505 A  
HETATM   29  C   UNL     1      -6.163  19.335  70.862  1.00  0.00     0.214 A  
HETATM   30  O   UNL     1      -5.203  20.261  71.136  1.00  0.00    -0.239 OA 
HETATM   31  C   UNL     1      -5.886  18.013  71.201  1.00  0.00     0.583 A  
HETATM   32  H   UNL     1      -4.380  20.025  71.547  1.00  0.00     0.000 HD 
ENDBRANCH  16  19
ENDBRANCH  15  16
ENDBRANCH  13  15
ENDBRANCH   6   9
ENDBRANCH   2   3
TORSDOF 5
ENDMDL
