MODEL        1
REMARK 921   NORMALIZED FREE ENERGY PREDICTED BY IDOCK:   -7.78 KCAL/MOL
REMARK 922        TOTAL FREE ENERGY PREDICTED BY IDOCK:  -10.16 KCAL/MOL
REMARK 923 INTER-LIGAND FREE ENERGY PREDICTED BY IDOCK:   -9.60 KCAL/MOL
REMARK 924 INTRA-LIGAND FREE ENERGY PREDICTED BY IDOCK:   -0.55 KCAL/MOL
REMARK 927      BINDING AFFINITY PREDICTED BY RF-SCORE:    0.00 PKD
ROOT
HETATM    1  C   UNL     1     -12.041  16.116  72.428  1.00  0.00    -0.540 C  
HETATM    2  N   UNL     1     -12.699  15.212  71.477  1.00  0.00    -0.328 NA 
HETATM    3  C   UNL     1     -14.151  15.340  71.611  1.00  0.00    -0.541 C  
ENDROOT
BRANCH   2   4
HETATM    4  C   UNL     1     -12.285  15.459  70.078  1.00  0.00    -0.361 C  
BRANCH   4   5
HETATM    5  C   UNL     1     -11.571  14.238  69.477  1.00  0.00    -0.353 C  
BRANCH   5   6
HETATM    6  C   UNL     1     -11.813  12.919  70.174  1.00  0.00    -0.319 C  
HETATM    7  C   UNL     1     -11.731  11.692  69.603  1.00  0.00    -0.418 C  
HETATM    8  C   UNL     1     -11.926  10.518  70.480  1.00  0.00    -0.436 A  
HETATM    9  C   UNL     1     -13.158  10.241  71.085  1.00  0.00    -0.481 A  
HETATM   10  C   UNL     1     -13.321   9.077  71.837  1.00  0.00    -0.474 A  
HETATM   11  C   UNL     1     -12.256   8.187  71.985  1.00  0.00    -0.385 A  
HETATM   12  C   UNL     1     -11.026   8.460  71.387  1.00  0.00    -0.311 A  
HETATM   13  C   UNL     1     -10.852   9.628  70.633  1.00  0.00    -0.386 A  
HETATM   14  C   UNL     1      -9.541   9.954  69.962  1.00  0.00    -0.214 C  
HETATM   15  O   UNL     1      -9.581   9.763  68.548  1.00  0.00    -0.146 OA 
HETATM   16  C   UNL     1     -10.299  10.642  67.777  1.00  0.00    -0.204 A  
HETATM   17  C   UNL     1     -11.322  11.516  68.183  1.00  0.00    -0.367 A  
HETATM   18  C   UNL     1     -12.033  12.223  67.187  1.00  0.00    -0.207 A  
HETATM   19  C   UNL     1     -11.655  12.197  65.838  1.00  0.00    -0.425 A  
HETATM   20  C   UNL     1     -10.602  11.359  65.463  1.00  0.00    -0.328 A  
HETATM   21  C   UNL     1      -9.955  10.571  66.419  1.00  0.00    -0.271 A  
BRANCH  19  22
HETATM   22  C   UNL     1     -12.412  12.996  64.800  1.00  0.00    -0.485 C  
HETATM   23  C   UNL     1     -11.994  14.432  64.548  1.00  0.00    -0.472 C  
HETATM   24  O   UNL     1     -12.654  15.182  63.831  1.00  0.00    -0.794 OA 
HETATM   25  O   UNL     1     -10.849  14.856  65.119  1.00  0.00    -0.358 OA 
ENDBRANCH  19  22
ENDBRANCH   5   6
ENDBRANCH   4   5
ENDBRANCH   2   4
TORSDOF 4
ENDMDL
MODEL        2
REMARK 921   NORMALIZED FREE ENERGY PREDICTED BY IDOCK:   -7.61 KCAL/MOL
REMARK 922        TOTAL FREE ENERGY PREDICTED BY IDOCK:   -9.94 KCAL/MOL
REMARK 923 INTER-LIGAND FREE ENERGY PREDICTED BY IDOCK:   -9.50 KCAL/MOL
REMARK 924 INTRA-LIGAND FREE ENERGY PREDICTED BY IDOCK:   -0.44 KCAL/MOL
REMARK 927      BINDING AFFINITY PREDICTED BY RF-SCORE:    0.00 PKD
ROOT
HETATM    1  C   UNL     1     -12.383  15.872  73.998  1.00  0.00    -0.609 C  
HETATM    2  N   UNL     1     -12.929  15.574  72.669  1.00  0.00    -0.403 NA 
HETATM    3  C   UNL     1     -11.876  15.739  71.664  1.00  0.00    -0.464 C  
ENDROOT
BRANCH   2   4
HETATM    4  C   UNL     1     -13.515  14.218  72.585  1.00  0.00    -0.525 C  
BRANCH   4   5
HETATM    5  C   UNL     1     -12.718  13.317  71.627  1.00  0.00    -0.327 C  
BRANCH   5   6
HETATM    6  C   UNL     1     -12.966  11.832  71.754  1.00  0.00    -0.466 C  
HETATM    7  C   UNL     1     -12.522  10.877  70.900  1.00  0.00    -0.507 C  
HETATM    8  C   UNL     1     -12.806   9.468  71.246  1.00  0.00    -0.414 A  
HETATM    9  C   UNL     1     -14.109   8.957  71.264  1.00  0.00    -0.193 A  
HETATM   10  C   UNL     1     -14.325   7.601  71.514  1.00  0.00    -0.589 A  
HETATM   11  C   UNL     1     -13.241   6.753  71.744  1.00  0.00    -0.212 A  
HETATM   12  C   UNL     1     -11.940   7.258  71.730  1.00  0.00    -0.342 A  
HETATM   13  C   UNL     1     -11.714   8.619  71.483  1.00  0.00    -0.369 A  
HETATM   14  C   UNL     1     -10.324   9.200  71.449  1.00  0.00    -0.338 C  
HETATM   15  O   UNL     1      -9.882   9.502  70.126  1.00  0.00    -0.212 OA 
HETATM   16  C   UNL     1     -10.442  10.565  69.462  1.00  0.00    -0.235 A  
HETATM   17  C   UNL     1     -11.661  11.210  69.732  1.00  0.00    -0.409 A  
HETATM   18  C   UNL     1     -12.117  12.189  68.820  1.00  0.00    -0.166 A  
HETATM   19  C   UNL     1     -11.330  12.638  67.751  1.00  0.00    -0.349 A  
HETATM   20  C   UNL     1     -10.099  12.017  67.531  1.00  0.00    -0.205 A  
HETATM   21  C   UNL     1      -9.678  10.974  68.360  1.00  0.00    -0.181 A  
BRANCH  19  22
HETATM   22  C   UNL     1     -11.830  13.715  66.814  1.00  0.00    -0.452 C  
HETATM   23  C   UNL     1     -12.354  13.301  65.451  1.00  0.00    -0.479 C  
HETATM   24  O   UNL     1     -12.637  14.129  64.588  1.00  0.00    -0.627 OA 
HETATM   25  O   UNL     1     -12.525  11.983  65.226  1.00  0.00    -0.427 OA 
ENDBRANCH  19  22
ENDBRANCH   5   6
ENDBRANCH   4   5
ENDBRANCH   2   4
TORSDOF 4
ENDMDL
MODEL        3
REMARK 921   NORMALIZED FREE ENERGY PREDICTED BY IDOCK:   -7.23 KCAL/MOL
REMARK 922        TOTAL FREE ENERGY PREDICTED BY IDOCK:   -9.47 KCAL/MOL
REMARK 923 INTER-LIGAND FREE ENERGY PREDICTED BY IDOCK:   -8.92 KCAL/MOL
REMARK 924 INTRA-LIGAND FREE ENERGY PREDICTED BY IDOCK:   -0.55 KCAL/MOL
REMARK 927      BINDING AFFINITY PREDICTED BY RF-SCORE:    0.00 PKD
ROOT
HETATM    1  C   UNL     1      -9.095  15.303  68.450  1.00  0.00    -0.189 C  
HETATM    2  N   UNL     1      -9.732  16.186  69.433  1.00  0.00    -0.242 NA 
HETATM    3  C   UNL     1     -10.281  17.359  68.749  1.00  0.00    -0.361 C  
ENDROOT
BRANCH   2   4
HETATM    4  C   UNL     1     -10.789  15.502  70.212  1.00  0.00    -0.339 C  
BRANCH   4   5
HETATM    5  C   UNL     1     -11.455  14.382  69.396  1.00  0.00    -0.330 C  
BRANCH   5   6
HETATM    6  C   UNL     1     -11.721  13.092  70.136  1.00  0.00    -0.250 C  
HETATM    7  C   UNL     1     -11.683  11.847  69.601  1.00  0.00    -0.413 C  
HETATM    8  C   UNL     1     -11.896  10.705  70.515  1.00  0.00    -0.453 A  
HETATM    9  C   UNL     1     -13.124  10.481  71.148  1.00  0.00    -0.450 A  
HETATM   10  C   UNL     1     -13.306   9.344  71.937  1.00  0.00    -0.508 A  
HETATM   11  C   UNL     1     -12.264   8.429  72.093  1.00  0.00    -0.434 A  
HETATM   12  C   UNL     1     -11.037   8.650  71.467  1.00  0.00    -0.358 A  
HETATM   13  C   UNL     1     -10.844   9.790  70.676  1.00  0.00    -0.396 A  
HETATM   14  C   UNL     1      -9.537  10.058  69.974  1.00  0.00    -0.156 C  
HETATM   15  O   UNL     1      -9.607   9.828  68.567  1.00  0.00    -0.146 OA 
HETATM   16  C   UNL     1     -10.314  10.704  67.782  1.00  0.00    -0.204 A  
HETATM   17  C   UNL     1     -11.304  11.618  68.179  1.00  0.00    -0.358 A  
HETATM   18  C   UNL     1     -12.013  12.316  67.175  1.00  0.00    -0.207 A  
HETATM   19  C   UNL     1     -11.659  12.240  65.821  1.00  0.00    -0.443 A  
HETATM   20  C   UNL     1     -10.638  11.362  65.454  1.00  0.00    -0.333 A  
HETATM   21  C   UNL     1      -9.996  10.584  66.421  1.00  0.00    -0.271 A  
BRANCH  19  22
HETATM   22  C   UNL     1     -12.413  13.029  64.773  1.00  0.00    -0.485 C  
HETATM   23  C   UNL     1     -11.979  14.456  64.494  1.00  0.00    -0.472 C  
HETATM   24  O   UNL     1     -12.633  15.201  63.767  1.00  0.00    -0.752 OA 
HETATM   25  O   UNL     1     -10.827  14.876  65.053  1.00  0.00    -0.371 OA 
ENDBRANCH  19  22
ENDBRANCH   5   6
ENDBRANCH   4   5
ENDBRANCH   2   4
TORSDOF 4
ENDMDL
MODEL        4
REMARK 921   NORMALIZED FREE ENERGY PREDICTED BY IDOCK:   -7.22 KCAL/MOL
REMARK 922        TOTAL FREE ENERGY PREDICTED BY IDOCK:   -9.47 KCAL/MOL
REMARK 923 INTER-LIGAND FREE ENERGY PREDICTED BY IDOCK:   -8.98 KCAL/MOL
REMARK 924 INTRA-LIGAND FREE ENERGY PREDICTED BY IDOCK:   -0.49 KCAL/MOL
REMARK 927      BINDING AFFINITY PREDICTED BY RF-SCORE:    0.00 PKD
ROOT
HETATM    1  C   UNL     1     -13.889  14.919  71.376  1.00  0.00    -0.459 C  
HETATM    2  N   UNL     1     -12.844  15.798  71.915  1.00  0.00    -0.448 NA 
HETATM    3  C   UNL     1     -12.888  15.764  73.378  1.00  0.00    -0.564 C  
ENDROOT
BRANCH   2   4
HETATM    4  C   UNL     1     -11.493  15.437  71.430  1.00  0.00    -0.406 C  
BRANCH   4   5
HETATM    5  C   UNL     1     -11.353  15.677  69.918  1.00  0.00    -0.340 C  
BRANCH   5   6
HETATM    6  C   UNL     1     -10.439  16.809  69.509  1.00  0.00    -0.263 C  
HETATM    7  C   UNL     1      -9.802  16.924  68.318  1.00  0.00    -0.266 C  
HETATM    8  C   UNL     1      -9.013  18.152  68.082  1.00  0.00    -0.298 A  
HETATM    9  C   UNL     1      -7.858  18.443  68.817  1.00  0.00    -0.286 A  
HETATM   10  C   UNL     1      -7.098  19.571  68.505  1.00  0.00    -0.352 A  
HETATM   11  C   UNL     1      -7.487  20.407  67.458  1.00  0.00    -0.357 A  
HETATM   12  C   UNL     1      -8.640  20.122  66.725  1.00  0.00    -0.378 A  
HETATM   13  C   UNL     1      -9.411  18.995  67.033  1.00  0.00    -0.358 A  
HETATM   14  C   UNL     1     -10.656  18.647  66.257  1.00  0.00    -0.348 C  
HETATM   15  O   UNL     1     -10.469  17.537  65.379  1.00  0.00    -0.647 OA 
HETATM   16  C   UNL     1     -10.340  16.280  65.912  1.00  0.00    -0.365 A  
HETATM   17  C   UNL     1      -9.995  15.928  67.228  1.00  0.00    -0.240 A  
HETATM   18  C   UNL     1      -9.767  14.563  67.519  1.00  0.00    -0.211 A  
HETATM   19  C   UNL     1     -10.021  13.548  66.585  1.00  0.00    -0.282 A  
HETATM   20  C   UNL     1     -10.412  13.919  65.298  1.00  0.00    -0.386 A  
HETATM   21  C   UNL     1     -10.540  15.269  64.961  1.00  0.00    -0.444 A  
BRANCH  19  22
HETATM   22  C   UNL     1      -9.805  12.093  66.939  1.00  0.00    -0.213 C  
HETATM   23  C   UNL     1     -10.943  11.333  67.594  1.00  0.00    -0.259 C  
HETATM   24  O   UNL     1     -10.790  10.197  68.040  1.00  0.00    -0.239 OA 
HETATM   25  O   UNL     1     -12.145  11.938  67.648  1.00  0.00    -0.568 OA 
ENDBRANCH  19  22
ENDBRANCH   5   6
ENDBRANCH   4   5
ENDBRANCH   2   4
TORSDOF 4
ENDMDL
MODEL        5
REMARK 921   NORMALIZED FREE ENERGY PREDICTED BY IDOCK:   -7.13 KCAL/MOL
REMARK 922        TOTAL FREE ENERGY PREDICTED BY IDOCK:   -9.35 KCAL/MOL
REMARK 923 INTER-LIGAND FREE ENERGY PREDICTED BY IDOCK:   -9.30 KCAL/MOL
REMARK 924 INTRA-LIGAND FREE ENERGY PREDICTED BY IDOCK:   -0.05 KCAL/MOL
REMARK 927      BINDING AFFINITY PREDICTED BY RF-SCORE:    0.00 PKD
ROOT
HETATM    1  C   UNL     1     -12.757  13.907  65.304  1.00  0.00    -0.449 C  
HETATM    2  N   UNL     1     -12.539  12.460  65.188  1.00  0.00    -0.599 NA 
HETATM    3  C   UNL     1     -12.231  12.126  63.796  1.00  0.00    -0.531 C  
ENDROOT
BRANCH   2   4
HETATM    4  C   UNL     1     -11.469  11.972  66.085  1.00  0.00    -0.339 C  
BRANCH   4   5
HETATM    5  C   UNL     1     -11.816  12.219  67.563  1.00  0.00    -0.331 C  
BRANCH   5   6
HETATM    6  C   UNL     1     -11.426  11.122  68.527  1.00  0.00    -0.371 C  
HETATM    7  C   UNL     1     -11.499  11.192  69.879  1.00  0.00    -0.386 C  
HETATM    8  C   UNL     1     -11.144   9.977  70.644  1.00  0.00    -0.408 A  
HETATM    9  C   UNL     1      -9.841   9.466  70.661  1.00  0.00    -0.340 A  
HETATM   10  C   UNL     1      -9.533   8.365  71.462  1.00  0.00    -0.267 A  
HETATM   11  C   UNL     1     -10.523   7.776  72.249  1.00  0.00    -0.303 A  
HETATM   12  C   UNL     1     -11.824   8.280  72.233  1.00  0.00    -0.451 A  
HETATM   13  C   UNL     1     -12.144   9.382  71.428  1.00  0.00    -0.442 A  
HETATM   14  C   UNL     1     -13.535   9.962  71.392  1.00  0.00    -0.302 C  
HETATM   15  O   UNL     1     -13.636  11.203  72.091  1.00  0.00    -0.281 OA 
HETATM   16  C   UNL     1     -13.055  12.322  71.549  1.00  0.00    -0.257 A  
HETATM   17  C   UNL     1     -12.046  12.389  70.573  1.00  0.00    -0.363 A  
HETATM   18  C   UNL     1     -11.487  13.652  70.274  1.00  0.00    -0.049 A  
HETATM   19  C   UNL     1     -12.005  14.843  70.802  1.00  0.00    -0.372 A  
HETATM   20  C   UNL     1     -13.042  14.756  71.733  1.00  0.00    -0.421 A  
HETATM   21  C   UNL     1     -13.537  13.509  72.121  1.00  0.00    -0.651 A  
BRANCH  19  22
HETATM   22  C   UNL     1     -11.409  16.183  70.432  1.00  0.00    -0.377 C  
HETATM   23  C   UNL     1     -11.068  16.446  68.977  1.00  0.00    -0.315 C  
HETATM   24  O   UNL     1     -10.449  17.449  68.629  1.00  0.00    -0.352 OA 
HETATM   25  O   UNL     1     -11.494  15.547  68.068  1.00  0.00    -0.342 OA 
ENDBRANCH  19  22
ENDBRANCH   5   6
ENDBRANCH   4   5
ENDBRANCH   2   4
TORSDOF 4
ENDMDL
MODEL        6
REMARK 921   NORMALIZED FREE ENERGY PREDICTED BY IDOCK:   -6.99 KCAL/MOL
REMARK 922        TOTAL FREE ENERGY PREDICTED BY IDOCK:   -9.18 KCAL/MOL
REMARK 923 INTER-LIGAND FREE ENERGY PREDICTED BY IDOCK:   -8.75 KCAL/MOL
REMARK 924 INTRA-LIGAND FREE ENERGY PREDICTED BY IDOCK:   -0.43 KCAL/MOL
REMARK 927      BINDING AFFINITY PREDICTED BY RF-SCORE:    0.00 PKD
ROOT
HETATM    1  C   UNL     1     -12.069  12.874  63.526  1.00  0.00    -0.555 C  
HETATM    2  N   UNL     1     -11.406  13.301  64.764  1.00  0.00    -0.315 NA 
HETATM    3  C   UNL     1     -12.324  14.137  65.542  1.00  0.00    -0.458 C  
ENDROOT
BRANCH   2   4
HETATM    4  C   UNL     1     -10.931  12.161  65.578  1.00  0.00    -0.301 C  
BRANCH   4   5
HETATM    5  C   UNL     1     -11.896  11.851  66.734  1.00  0.00    -0.170 C  
BRANCH   5   6
HETATM    6  C   UNL     1     -11.351  10.969  67.833  1.00  0.00    -0.381 C  
HETATM    7  C   UNL     1     -11.238  11.309  69.141  1.00  0.00    -0.337 C  
HETATM    8  C   UNL     1     -10.753  10.271  70.075  1.00  0.00    -0.345 A  
HETATM    9  C   UNL     1      -9.448   9.767  70.012  1.00  0.00    -0.278 A  
HETATM   10  C   UNL     1      -9.007   8.849  70.966  1.00  0.00    -0.298 A  
HETATM   11  C   UNL     1      -9.865   8.435  71.985  1.00  0.00    -0.354 A  
HETATM   12  C   UNL     1     -11.167   8.932  72.051  1.00  0.00    -0.422 A  
HETATM   13  C   UNL     1     -11.621   9.851  71.095  1.00  0.00    -0.468 A  
HETATM   14  C   UNL     1     -13.016  10.419  71.139  1.00  0.00    -0.412 C  
HETATM   15  O   UNL     1     -13.048  11.776  71.583  1.00  0.00    -0.441 OA 
HETATM   16  C   UNL     1     -12.574  12.760  70.753  1.00  0.00    -0.225 A  
HETATM   17  C   UNL     1     -11.712  12.624  69.652  1.00  0.00    -0.373 A  
HETATM   18  C   UNL     1     -11.228  13.799  69.031  1.00  0.00    -0.313 A  
HETATM   19  C   UNL     1     -11.696  15.074  69.378  1.00  0.00    -0.351 A  
HETATM   20  C   UNL     1     -12.592  15.181  70.443  1.00  0.00    -0.405 A  
HETATM   21  C   UNL     1     -13.000  14.040  71.138  1.00  0.00    -0.402 A  
BRANCH  19  22
HETATM   22  C   UNL     1     -11.188  16.310  68.668  1.00  0.00    -0.354 C  
HETATM   23  C   UNL     1      -9.748  16.732  68.895  1.00  0.00    -0.257 C  
HETATM   24  O   UNL     1      -9.313  17.800  68.470  1.00  0.00    -0.283 OA 
HETATM   25  O   UNL     1      -8.947  15.876  69.559  1.00  0.00    -0.249 OA 
ENDBRANCH  19  22
ENDBRANCH   5   6
ENDBRANCH   4   5
ENDBRANCH   2   4
TORSDOF 4
ENDMDL
MODEL        7
REMARK 921   NORMALIZED FREE ENERGY PREDICTED BY IDOCK:   -6.87 KCAL/MOL
REMARK 922        TOTAL FREE ENERGY PREDICTED BY IDOCK:   -9.03 KCAL/MOL
REMARK 923 INTER-LIGAND FREE ENERGY PREDICTED BY IDOCK:   -8.71 KCAL/MOL
REMARK 924 INTRA-LIGAND FREE ENERGY PREDICTED BY IDOCK:   -0.32 KCAL/MOL
REMARK 927      BINDING AFFINITY PREDICTED BY RF-SCORE:    0.00 PKD
ROOT
HETATM    1  C   UNL     1     -12.370  12.057  63.458  1.00  0.00    -0.551 C  
HETATM    2  N   UNL     1     -11.208  11.628  64.246  1.00  0.00    -0.338 NA 
HETATM    3  C   UNL     1     -10.034  11.548  63.375  1.00  0.00    -0.417 C  
ENDROOT
BRANCH   2   4
HETATM    4  C   UNL     1     -10.939  12.522  65.394  1.00  0.00    -0.294 C  
BRANCH   4   5
HETATM    5  C   UNL     1     -11.879  12.225  66.573  1.00  0.00    -0.378 C  
BRANCH   5   6
HETATM    6  C   UNL     1     -11.342  11.284  67.627  1.00  0.00    -0.352 C  
HETATM    7  C   UNL     1     -11.170  11.577  68.939  1.00  0.00    -0.308 C  
HETATM    8  C   UNL     1     -10.706  10.489  69.826  1.00  0.00    -0.314 A  
HETATM    9  C   UNL     1      -9.431   9.925  69.703  1.00  0.00    -0.252 A  
HETATM   10  C   UNL     1      -9.004   8.957  70.614  1.00  0.00    -0.237 A  
HETATM   11  C   UNL     1      -9.847   8.554  71.650  1.00  0.00    -0.317 A  
HETATM   12  C   UNL     1     -11.121   9.111  71.774  1.00  0.00    -0.437 A  
HETATM   13  C   UNL     1     -11.559  10.080  70.862  1.00  0.00    -0.463 A  
HETATM   14  C   UNL     1     -12.923  10.713  70.970  1.00  0.00    -0.363 C  
HETATM   15  O   UNL     1     -12.874  12.055  71.455  1.00  0.00    -0.381 OA 
HETATM   16  C   UNL     1     -12.379  13.041  70.638  1.00  0.00    -0.310 A  
HETATM   17  C   UNL     1     -11.562  12.898  69.505  1.00  0.00    -0.348 A  
HETATM   18  C   UNL     1     -11.042  14.066  68.902  1.00  0.00    -0.296 A  
HETATM   19  C   UNL     1     -11.434  15.351  69.302  1.00  0.00    -0.344 A  
HETATM   20  C   UNL     1     -12.288  15.468  70.400  1.00  0.00    -0.451 A  
HETATM   21  C   UNL     1     -12.729  14.327  71.075  1.00  0.00    -0.430 A  
BRANCH  19  22
HETATM   22  C   UNL     1     -10.890  16.582  68.612  1.00  0.00    -0.345 C  
HETATM   23  C   UNL     1      -9.419  16.913  68.779  1.00  0.00    -0.264 C  
HETATM   24  O   UNL     1      -8.943  17.970  68.371  1.00  0.00    -0.269 OA 
HETATM   25  O   UNL     1      -8.637  15.988  69.371  1.00  0.00    -0.247 OA 
ENDBRANCH  19  22
ENDBRANCH   5   6
ENDBRANCH   4   5
ENDBRANCH   2   4
TORSDOF 4
ENDMDL
MODEL        8
REMARK 921   NORMALIZED FREE ENERGY PREDICTED BY IDOCK:   -6.83 KCAL/MOL
REMARK 922        TOTAL FREE ENERGY PREDICTED BY IDOCK:   -8.99 KCAL/MOL
REMARK 923 INTER-LIGAND FREE ENERGY PREDICTED BY IDOCK:   -8.53 KCAL/MOL
REMARK 924 INTRA-LIGAND FREE ENERGY PREDICTED BY IDOCK:   -0.45 KCAL/MOL
REMARK 927      BINDING AFFINITY PREDICTED BY RF-SCORE:    0.00 PKD
ROOT
HETATM    1  C   UNL     1     -11.560  12.442  63.521  1.00  0.00    -0.497 C  
HETATM    2  N   UNL     1     -10.670  11.347  63.926  1.00  0.00    -0.375 NA 
HETATM    3  C   UNL     1      -9.580  11.224  62.956  1.00  0.00    -0.377 C  
ENDROOT
BRANCH   2   4
HETATM    4  C   UNL     1     -10.128  11.531  65.291  1.00  0.00    -0.269 C  
BRANCH   4   5
HETATM    5  C   UNL     1     -11.223  11.376  66.359  1.00  0.00    -0.250 C  
BRANCH   5   6
HETATM    6  C   UNL     1     -10.837  10.598  67.595  1.00  0.00    -0.346 C  
HETATM    7  C   UNL     1     -10.793  11.087  68.859  1.00  0.00    -0.262 C  
HETATM    8  C   UNL     1     -10.467  10.138  69.946  1.00  0.00    -0.322 A  
HETATM    9  C   UNL     1      -9.209   9.535  70.051  1.00  0.00    -0.264 A  
HETATM   10  C   UNL     1      -8.918   8.711  71.139  1.00  0.00    -0.253 A  
HETATM   11  C   UNL     1      -9.880   8.491  72.124  1.00  0.00    -0.388 A  
HETATM   12  C   UNL     1     -11.137   9.088  72.022  1.00  0.00    -0.371 A  
HETATM   13  C   UNL     1     -11.440   9.913  70.932  1.00  0.00    -0.456 A  
HETATM   14  C   UNL     1     -12.782  10.585  70.792  1.00  0.00    -0.381 C  
HETATM   15  O   UNL     1     -12.733  11.984  71.070  1.00  0.00    -0.334 OA 
HETATM   16  C   UNL     1     -12.118  12.821  70.173  1.00  0.00    -0.298 A  
HETATM   17  C   UNL     1     -11.191  12.487  69.171  1.00  0.00    -0.297 A  
HETATM   18  C   UNL     1     -10.566  13.536  68.460  1.00  0.00    -0.257 A  
HETATM   19  C   UNL     1     -10.949  14.876  68.615  1.00  0.00    -0.263 A  
HETATM   20  C   UNL     1     -11.909  15.180  69.582  1.00  0.00    -0.362 A  
HETATM   21  C   UNL     1     -12.462  14.166  70.369  1.00  0.00    -0.424 A  
BRANCH  19  22
HETATM   22  C   UNL     1     -10.288  15.973  67.811  1.00  0.00    -0.279 C  
HETATM   23  C   UNL     1     -10.486  15.985  66.306  1.00  0.00    -0.320 C  
HETATM   24  O   UNL     1      -9.863  16.755  65.578  1.00  0.00    -0.564 OA 
HETATM   25  O   UNL     1     -11.395  15.134  65.792  1.00  0.00    -0.324 OA 
ENDBRANCH  19  22
ENDBRANCH   5   6
ENDBRANCH   4   5
ENDBRANCH   2   4
TORSDOF 4
ENDMDL
MODEL        9
REMARK 921   NORMALIZED FREE ENERGY PREDICTED BY IDOCK:   -6.79 KCAL/MOL
REMARK 922        TOTAL FREE ENERGY PREDICTED BY IDOCK:   -8.93 KCAL/MOL
REMARK 923 INTER-LIGAND FREE ENERGY PREDICTED BY IDOCK:   -8.47 KCAL/MOL
REMARK 924 INTRA-LIGAND FREE ENERGY PREDICTED BY IDOCK:   -0.45 KCAL/MOL
REMARK 927      BINDING AFFINITY PREDICTED BY RF-SCORE:    0.00 PKD
ROOT
HETATM    1  C   UNL     1     -14.114  14.330  71.872  1.00  0.00    -0.499 C  
HETATM    2  N   UNL     1     -13.222  15.495  71.848  1.00  0.00    -0.435 NA 
HETATM    3  C   UNL     1     -12.977  15.947  73.219  1.00  0.00    -0.570 C  
ENDROOT
BRANCH   2   4
HETATM    4  C   UNL     1     -11.942  15.218  71.159  1.00  0.00    -0.345 C  
BRANCH   4   5
HETATM    5  C   UNL     1     -11.927  15.808  69.739  1.00  0.00    -0.337 C  
BRANCH   5   6
HETATM    6  C   UNL     1     -10.740  16.679  69.397  1.00  0.00    -0.331 C  
HETATM    7  C   UNL     1     -10.091  16.704  68.208  1.00  0.00    -0.268 C  
HETATM    8  C   UNL     1      -8.999  17.689  68.047  1.00  0.00    -0.264 A  
HETATM    9  C   UNL     1      -7.811  17.605  68.783  1.00  0.00    -0.242 A  
HETATM   10  C   UNL     1      -6.774  18.507  68.541  1.00  0.00    -0.267 A  
HETATM   11  C   UNL     1      -6.920  19.491  67.562  1.00  0.00    -0.242 A  
HETATM   12  C   UNL     1      -8.103  19.580  66.828  1.00  0.00    -0.313 A  
HETATM   13  C   UNL     1      -9.152  18.681  67.067  1.00  0.00    -0.295 A  
HETATM   14  C   UNL     1     -10.441  18.738  66.288  1.00  0.00    -0.435 C  
HETATM   15  O   UNL     1     -10.555  17.686  65.330  1.00  0.00    -0.657 OA 
HETATM   16  C   UNL     1     -10.771  16.404  65.771  1.00  0.00    -0.238 A  
HETATM   17  C   UNL     1     -10.539  15.878  67.053  1.00  0.00    -0.306 A  
HETATM   18  C   UNL     1     -10.689  14.486  67.243  1.00  0.00    -0.287 A  
HETATM   19  C   UNL     1     -11.202  13.647  66.244  1.00  0.00    -0.313 A  
HETATM   20  C   UNL     1     -11.473  14.200  64.992  1.00  0.00    -0.352 A  
HETATM   21  C   UNL     1     -11.231  15.556  64.754  1.00  0.00    -0.399 A  
BRANCH  19  22
HETATM   22  C   UNL     1     -11.387  12.165  66.490  1.00  0.00    -0.405 C  
HETATM   23  C   UNL     1     -10.235  11.231  66.172  1.00  0.00    -0.245 C  
HETATM   24  O   UNL     1     -10.364  10.009  66.207  1.00  0.00    -0.223 OA 
HETATM   25  O   UNL     1      -9.046  11.790  65.872  1.00  0.00    -0.205 OA 
ENDBRANCH  19  22
ENDBRANCH   5   6
ENDBRANCH   4   5
ENDBRANCH   2   4
TORSDOF 4
ENDMDL
MODEL       10
REMARK 921   NORMALIZED FREE ENERGY PREDICTED BY IDOCK:   -6.75 KCAL/MOL
REMARK 922        TOTAL FREE ENERGY PREDICTED BY IDOCK:   -8.89 KCAL/MOL
REMARK 923 INTER-LIGAND FREE ENERGY PREDICTED BY IDOCK:   -8.41 KCAL/MOL
REMARK 924 INTRA-LIGAND FREE ENERGY PREDICTED BY IDOCK:   -0.48 KCAL/MOL
REMARK 927      BINDING AFFINITY PREDICTED BY RF-SCORE:    0.00 PKD
ROOT
HETATM    1  C   UNL     1     -12.032  15.956  71.975  1.00  0.00    -0.513 C  
HETATM    2  N   UNL     1     -12.749  14.675  71.953  1.00  0.00    -0.320 NA 
HETATM    3  C   UNL     1     -14.191  14.926  71.942  1.00  0.00    -0.548 C  
ENDROOT
BRANCH   2   4
HETATM    4  C   UNL     1     -12.363  13.828  70.803  1.00  0.00    -0.379 C  
BRANCH   4   5
HETATM    5  C   UNL     1     -12.166  14.663  69.528  1.00  0.00    -0.297 C  
BRANCH   5   6
HETATM    6  C   UNL     1     -12.151  13.894  68.227  1.00  0.00    -0.322 C  
HETATM    7  C   UNL     1     -11.246  14.040  67.229  1.00  0.00    -0.328 C  
HETATM    8  C   UNL     1     -11.359  13.132  66.067  1.00  0.00    -0.337 A  
HETATM    9  C   UNL     1     -12.450  13.180  65.192  1.00  0.00    -0.539 A  
HETATM   10  C   UNL     1     -12.476  12.361  64.062  1.00  0.00    -0.554 A  
HETATM   11  C   UNL     1     -11.412  11.496  63.803  1.00  0.00    -0.380 A  
HETATM   12  C   UNL     1     -10.323  11.443  64.674  1.00  0.00    -0.362 A  
HETATM   13  C   UNL     1     -10.291  12.258  65.813  1.00  0.00    -0.287 A  
HETATM   14  C   UNL     1      -9.128  12.237  66.772  1.00  0.00    -0.211 C  
HETATM   15  O   UNL     1      -8.294  13.390  66.657  1.00  0.00     0.026 OA 
HETATM   16  C   UNL     1      -8.763  14.599  67.108  1.00  0.00    -0.222 A  
HETATM   17  C   UNL     1     -10.095  14.977  67.346  1.00  0.00    -0.228 A  
HETATM   18  C   UNL     1     -10.361  16.329  67.662  1.00  0.00    -0.284 A  
HETATM   19  C   UNL     1      -9.336  17.258  67.892  1.00  0.00    -0.258 A  
HETATM   20  C   UNL     1      -8.016  16.846  67.699  1.00  0.00    -0.186 A  
HETATM   21  C   UNL     1      -7.739  15.541  67.283  1.00  0.00    -0.244 A  
BRANCH  19  22
HETATM   22  C   UNL     1      -9.651  18.689  68.267  1.00  0.00    -0.382 C  
HETATM   23  C   UNL     1      -9.719  19.727  67.162  1.00  0.00    -0.376 C  
HETATM   24  O   UNL     1      -9.824  20.927  67.408  1.00  0.00    -0.444 OA 
HETATM   25  O   UNL     1      -9.687  19.283  65.890  1.00  0.00    -0.435 OA 
ENDBRANCH  19  22
ENDBRANCH   5   6
ENDBRANCH   4   5
ENDBRANCH   2   4
TORSDOF 4
ENDMDL
MODEL       11
REMARK 921   NORMALIZED FREE ENERGY PREDICTED BY IDOCK:   -6.69 KCAL/MOL
REMARK 922        TOTAL FREE ENERGY PREDICTED BY IDOCK:   -8.81 KCAL/MOL
REMARK 923 INTER-LIGAND FREE ENERGY PREDICTED BY IDOCK:   -8.44 KCAL/MOL
REMARK 924 INTRA-LIGAND FREE ENERGY PREDICTED BY IDOCK:   -0.37 KCAL/MOL
REMARK 927      BINDING AFFINITY PREDICTED BY RF-SCORE:    0.00 PKD
ROOT
HETATM    1  C   UNL     1      -8.433  11.316  66.523  1.00  0.00    -0.171 C  
HETATM    2  N   UNL     1      -9.491  12.092  67.182  1.00  0.00    -0.184 NA 
HETATM    3  C   UNL     1      -9.153  13.516  67.129  1.00  0.00    -0.232 C  
ENDROOT
BRANCH   2   4
HETATM    4  C   UNL     1     -10.825  11.855  66.586  1.00  0.00    -0.276 C  
BRANCH   4   5
HETATM    5  C   UNL     1     -11.850  11.430  67.650  1.00  0.00    -0.157 C  
BRANCH   5   6
HETATM    6  C   UNL     1     -11.349  10.478  68.711  1.00  0.00    -0.310 C  
HETATM    7  C   UNL     1     -11.413  10.677  70.050  1.00  0.00    -0.404 C  
HETATM    8  C   UNL     1     -10.937   9.585  70.925  1.00  0.00    -0.407 A  
HETATM    9  C   UNL     1      -9.592   9.201  70.967  1.00  0.00    -0.350 A  
HETATM   10  C   UNL     1      -9.173   8.221  71.869  1.00  0.00    -0.272 A  
HETATM   11  C   UNL     1     -10.094   7.626  72.730  1.00  0.00    -0.311 A  
HETATM   12  C   UNL     1     -11.437   8.003  72.690  1.00  0.00    -0.465 A  
HETATM   13  C   UNL     1     -11.868   8.983  71.786  1.00  0.00    -0.442 A  
HETATM   14  C   UNL     1     -13.308   9.425  71.720  1.00  0.00    -0.415 C  
HETATM   15  O   UNL     1     -13.517  10.716  72.293  1.00  0.00    -0.333 OA 
HETATM   16  C   UNL     1     -13.050  11.823  71.630  1.00  0.00    -0.338 A  
HETATM   17  C   UNL     1     -12.063  11.883  70.632  1.00  0.00    -0.389 A  
HETATM   18  C   UNL     1     -11.628  13.156  70.196  1.00  0.00    -0.147 A  
HETATM   19  C   UNL     1     -12.250  14.341  70.613  1.00  0.00    -0.427 A  
HETATM   20  C   UNL     1     -13.264  14.254  71.569  1.00  0.00    -0.420 A  
HETATM   21  C   UNL     1     -13.635  13.012  72.090  1.00  0.00    -0.618 A  
BRANCH  19  22
HETATM   22  C   UNL     1     -11.787  15.686  70.099  1.00  0.00    -0.381 C  
HETATM   23  C   UNL     1     -11.608  15.865  68.603  1.00  0.00    -0.380 C  
HETATM   24  O   UNL     1     -11.097  16.878  68.129  1.00  0.00    -0.347 OA 
HETATM   25  O   UNL     1     -12.057  14.879  67.801  1.00  0.00    -0.260 OA 
ENDBRANCH  19  22
ENDBRANCH   5   6
ENDBRANCH   4   5
ENDBRANCH   2   4
TORSDOF 4
ENDMDL
MODEL       12
REMARK 921   NORMALIZED FREE ENERGY PREDICTED BY IDOCK:   -6.67 KCAL/MOL
REMARK 922        TOTAL FREE ENERGY PREDICTED BY IDOCK:   -8.78 KCAL/MOL
REMARK 923 INTER-LIGAND FREE ENERGY PREDICTED BY IDOCK:   -8.22 KCAL/MOL
REMARK 924 INTRA-LIGAND FREE ENERGY PREDICTED BY IDOCK:   -0.55 KCAL/MOL
REMARK 927      BINDING AFFINITY PREDICTED BY RF-SCORE:    0.00 PKD
ROOT
HETATM    1  C   UNL     1     -10.688   7.161  67.013  1.00  0.00    -0.350 C  
HETATM    2  N   UNL     1     -10.197   7.829  68.224  1.00  0.00    -0.196 NA 
HETATM    3  C   UNL     1      -9.992   6.834  69.279  1.00  0.00    -0.160 C  
ENDROOT
BRANCH   2   4
HETATM    4  C   UNL     1      -8.952   8.594  67.986  1.00  0.00    -0.141 C  
BRANCH   4   5
HETATM    5  C   UNL     1      -9.183  10.106  68.132  1.00  0.00    -0.137 C  
BRANCH   5   6
HETATM    6  C   UNL     1      -9.827  10.796  66.952  1.00  0.00    -0.224 C  
HETATM    7  C   UNL     1     -10.867  11.663  67.009  1.00  0.00    -0.311 C  
HETATM    8  C   UNL     1     -11.301  12.293  65.744  1.00  0.00    -0.400 A  
HETATM    9  C   UNL     1     -11.874  11.551  64.705  1.00  0.00     0.016 A  
HETATM   10  C   UNL     1     -12.345  12.198  63.561  1.00  0.00    -0.682 A  
HETATM   11  C   UNL     1     -12.247  13.586  63.455  1.00  0.00    -0.410 A  
HETATM   12  C   UNL     1     -11.673  14.329  64.487  1.00  0.00    -0.431 A  
HETATM   13  C   UNL     1     -11.194  13.688  65.637  1.00  0.00    -0.305 A  
HETATM   14  C   UNL     1     -10.578  14.457  66.778  1.00  0.00    -0.282 C  
HETATM   15  O   UNL     1     -11.438  14.546  67.914  1.00  0.00    -0.294 OA 
HETATM   16  C   UNL     1     -11.662  13.424  68.670  1.00  0.00    -0.349 A  
HETATM   17  C   UNL     1     -11.467  12.081  68.306  1.00  0.00    -0.361 A  
HETATM   18  C   UNL     1     -11.911  11.075  69.194  1.00  0.00    -0.394 A  
HETATM   19  C   UNL     1     -12.395  11.371  70.477  1.00  0.00    -0.439 A  
HETATM   20  C   UNL     1     -12.533  12.712  70.836  1.00  0.00    -0.368 A  
HETATM   21  C   UNL     1     -12.198  13.723  69.931  1.00  0.00    -0.383 A  
BRANCH  19  22
HETATM   22  C   UNL     1     -12.827  10.270  71.419  1.00  0.00    -0.544 C  
HETATM   23  C   UNL     1     -11.802   9.232  71.836  1.00  0.00    -0.356 C  
HETATM   24  O   UNL     1     -12.118   8.232  72.478  1.00  0.00    -0.385 OA 
HETATM   25  O   UNL     1     -10.517   9.457  71.499  1.00  0.00    -0.337 OA 
ENDBRANCH  19  22
ENDBRANCH   5   6
ENDBRANCH   4   5
ENDBRANCH   2   4
TORSDOF 4
ENDMDL
MODEL       13
REMARK 921   NORMALIZED FREE ENERGY PREDICTED BY IDOCK:   -6.57 KCAL/MOL
REMARK 922        TOTAL FREE ENERGY PREDICTED BY IDOCK:   -8.66 KCAL/MOL
REMARK 923 INTER-LIGAND FREE ENERGY PREDICTED BY IDOCK:   -8.07 KCAL/MOL
REMARK 924 INTRA-LIGAND FREE ENERGY PREDICTED BY IDOCK:   -0.59 KCAL/MOL
REMARK 927      BINDING AFFINITY PREDICTED BY RF-SCORE:    0.00 PKD
ROOT
HETATM    1  C   UNL     1     -10.523   7.581  67.246  1.00  0.00    -0.321 C  
HETATM    2  N   UNL     1     -10.041   7.990  68.570  1.00  0.00    -0.194 NA 
HETATM    3  C   UNL     1      -9.761   6.799  69.375  1.00  0.00    -0.152 C  
ENDROOT
BRANCH   2   4
HETATM    4  C   UNL     1      -8.843   8.857  68.497  1.00  0.00    -0.134 C  
BRANCH   4   5
HETATM    5  C   UNL     1      -9.176  10.311  68.865  1.00  0.00    -0.176 C  
BRANCH   5   6
HETATM    6  C   UNL     1      -9.791  11.149  67.767  1.00  0.00    -0.186 C  
HETATM    7  C   UNL     1     -10.912  11.903  67.878  1.00  0.00    -0.270 C  
HETATM    8  C   UNL     1     -11.306  12.714  66.706  1.00  0.00    -0.373 A  
HETATM    9  C   UNL     1     -11.723  12.129  65.505  1.00  0.00    -0.384 A  
HETATM   10  C   UNL     1     -12.165  12.932  64.453  1.00  0.00    -0.484 A  
HETATM   11  C   UNL     1     -12.194  14.319  64.599  1.00  0.00    -0.470 A  
HETATM   12  C   UNL     1     -11.776  14.908  65.793  1.00  0.00    -0.179 A  
HETATM   13  C   UNL     1     -11.327  14.110  66.853  1.00  0.00    -0.343 A  
HETATM   14  C   UNL     1     -10.878  14.707  68.163  1.00  0.00    -0.252 C  
HETATM   15  O   UNL     1     -11.827  14.519  69.212  1.00  0.00    -0.291 OA 
HETATM   16  C   UNL     1     -11.999  13.263  69.738  1.00  0.00    -0.324 A  
HETATM   17  C   UNL     1     -11.648  12.029  69.166  1.00  0.00    -0.370 A  
HETATM   18  C   UNL     1     -12.060  10.846  69.821  1.00  0.00    -0.409 A  
HETATM   19  C   UNL     1     -12.667  10.864  71.084  1.00  0.00    -0.530 A  
HETATM   20  C   UNL     1     -12.961  12.102  71.657  1.00  0.00    -0.427 A  
HETATM   21  C   UNL     1     -12.657  13.284  70.976  1.00  0.00    -0.408 A  
BRANCH  19  22
HETATM   22  C   UNL     1     -13.062   9.579  71.778  1.00  0.00    -0.504 C  
HETATM   23  C   UNL     1     -11.972   8.585  72.133  1.00  0.00    -0.383 C  
HETATM   24  O   UNL     1     -12.234   7.463  72.561  1.00  0.00    -0.159 OA 
HETATM   25  O   UNL     1     -10.694   8.987  71.987  1.00  0.00    -0.349 OA 
ENDBRANCH  19  22
ENDBRANCH   5   6
ENDBRANCH   4   5
ENDBRANCH   2   4
TORSDOF 4
ENDMDL
MODEL       14
REMARK 921   NORMALIZED FREE ENERGY PREDICTED BY IDOCK:   -6.56 KCAL/MOL
REMARK 922        TOTAL FREE ENERGY PREDICTED BY IDOCK:   -8.65 KCAL/MOL
REMARK 923 INTER-LIGAND FREE ENERGY PREDICTED BY IDOCK:   -8.36 KCAL/MOL
REMARK 924 INTRA-LIGAND FREE ENERGY PREDICTED BY IDOCK:   -0.29 KCAL/MOL
REMARK 927      BINDING AFFINITY PREDICTED BY RF-SCORE:    0.00 PKD
ROOT
HETATM    1  C   UNL     1     -13.342   9.739  71.710  1.00  0.00    -0.413 C  
HETATM    2  N   UNL     1     -11.902   9.459  71.679  1.00  0.00    -0.374 NA 
HETATM    3  C   UNL     1     -11.690   8.011  71.609  1.00  0.00    -0.283 C  
ENDROOT
BRANCH   2   4
HETATM    4  C   UNL     1     -11.215  10.135  70.556  1.00  0.00    -0.336 C  
BRANCH   4   5
HETATM    5  C   UNL     1     -12.114  11.198  69.903  1.00  0.00    -0.418 C  
BRANCH   5   6
HETATM    6  C   UNL     1     -11.950  11.379  68.411  1.00  0.00    -0.270 C  
HETATM    7  C   UNL     1     -11.620  12.534  67.784  1.00  0.00    -0.401 C  
HETATM    8  C   UNL     1     -11.430  12.484  66.318  1.00  0.00    -0.421 A  
HETATM    9  C   UNL     1     -12.489  12.218  65.442  1.00  0.00    -0.010 A  
HETATM   10  C   UNL     1     -12.282  12.262  64.063  1.00  0.00    -0.569 A  
HETATM   11  C   UNL     1     -11.020  12.574  63.556  1.00  0.00    -0.472 A  
HETATM   12  C   UNL     1      -9.961  12.837  64.426  1.00  0.00    -0.177 A  
HETATM   13  C   UNL     1     -10.158  12.791  65.812  1.00  0.00    -0.296 A  
HETATM   14  C   UNL     1      -9.042  13.080  66.784  1.00  0.00    -0.210 C  
HETATM   15  O   UNL     1      -9.170  14.356  67.411  1.00  0.00    -0.186 OA 
HETATM   16  C   UNL     1     -10.157  14.542  68.347  1.00  0.00    -0.241 A  
HETATM   17  C   UNL     1     -11.320  13.780  68.543  1.00  0.00    -0.318 A  
HETATM   18  C   UNL     1     -12.279  14.247  69.470  1.00  0.00    -0.341 A  
HETATM   19  C   UNL     1     -12.040  15.351  70.300  1.00  0.00    -0.402 A  
HETATM   20  C   UNL     1     -10.854  16.065  70.122  1.00  0.00    -0.349 A  
HETATM   21  C   UNL     1      -9.940  15.680  69.137  1.00  0.00    -0.244 A  
BRANCH  19  22
HETATM   22  C   UNL     1     -13.070  15.804  71.310  1.00  0.00    -0.407 C  
HETATM   23  C   UNL     1     -12.722  15.719  72.785  1.00  0.00    -0.454 C  
HETATM   24  O   UNL     1     -13.559  15.930  73.660  1.00  0.00    -0.413 OA 
HETATM   25  O   UNL     1     -11.446  15.429  73.106  1.00  0.00    -0.355 OA 
ENDBRANCH  19  22
ENDBRANCH   5   6
ENDBRANCH   4   5
ENDBRANCH   2   4
TORSDOF 4
ENDMDL
MODEL       15
REMARK 921   NORMALIZED FREE ENERGY PREDICTED BY IDOCK:   -6.51 KCAL/MOL
REMARK 922        TOTAL FREE ENERGY PREDICTED BY IDOCK:   -8.59 KCAL/MOL
REMARK 923 INTER-LIGAND FREE ENERGY PREDICTED BY IDOCK:   -8.12 KCAL/MOL
REMARK 924 INTRA-LIGAND FREE ENERGY PREDICTED BY IDOCK:   -0.47 KCAL/MOL
REMARK 927      BINDING AFFINITY PREDICTED BY RF-SCORE:    0.00 PKD
ROOT
HETATM    1  C   UNL     1     -13.998  15.170  71.730  1.00  0.00    -0.529 C  
HETATM    2  N   UNL     1     -12.691  15.778  71.456  1.00  0.00    -0.455 NA 
HETATM    3  C   UNL     1     -11.927  15.872  72.702  1.00  0.00    -0.504 C  
ENDROOT
BRANCH   2   4
HETATM    4  C   UNL     1     -11.921  15.034  70.434  1.00  0.00    -0.323 C  
BRANCH   4   5
HETATM    5  C   UNL     1     -11.841  15.812  69.110  1.00  0.00    -0.367 C  
BRANCH   5   6
HETATM    6  C   UNL     1     -11.894  14.981  67.849  1.00  0.00    -0.243 C  
HETATM    7  C   UNL     1     -10.869  14.790  66.982  1.00  0.00    -0.315 C  
HETATM    8  C   UNL     1     -11.101  13.873  65.845  1.00  0.00    -0.291 A  
HETATM    9  C   UNL     1     -12.013  14.171  64.826  1.00  0.00    -0.441 A  
HETATM   10  C   UNL     1     -12.139  13.317  63.729  1.00  0.00    -0.546 A  
HETATM   11  C   UNL     1     -11.354  12.166  63.647  1.00  0.00    -0.545 A  
HETATM   12  C   UNL     1     -10.446  11.863  64.663  1.00  0.00    -0.340 A  
HETATM   13  C   UNL     1     -10.315  12.713  65.769  1.00  0.00    -0.298 A  
HETATM   14  C   UNL     1      -9.338  12.426  66.880  1.00  0.00    -0.213 C  
HETATM   15  O   UNL     1      -8.194  13.279  66.846  1.00  0.00    -0.096 OA 
HETATM   16  C   UNL     1      -8.337  14.600  67.189  1.00  0.00    -0.211 A  
HETATM   17  C   UNL     1      -9.517  15.362  67.228  1.00  0.00    -0.215 A  
HETATM   18  C   UNL     1      -9.410  16.752  67.462  1.00  0.00    -0.231 A  
HETATM   19  C   UNL     1      -8.194  17.360  67.802  1.00  0.00    -0.216 A  
HETATM   20  C   UNL     1      -7.041  16.573  67.807  1.00  0.00    -0.154 A  
HETATM   21  C   UNL     1      -7.111  15.218  67.474  1.00  0.00    -0.224 A  
BRANCH  19  22
HETATM   22  C   UNL     1      -8.117  18.844  68.085  1.00  0.00    -0.333 C  
HETATM   23  C   UNL     1      -7.784  19.781  66.939  1.00  0.00    -0.272 C  
HETATM   24  O   UNL     1      -7.561  20.976  67.124  1.00  0.00    -0.305 OA 
HETATM   25  O   UNL     1      -7.766  19.261  65.696  1.00  0.00    -0.450 OA 
ENDBRANCH  19  22
ENDBRANCH   5   6
ENDBRANCH   4   5
ENDBRANCH   2   4
TORSDOF 4
ENDMDL
MODEL       16
REMARK 921   NORMALIZED FREE ENERGY PREDICTED BY IDOCK:   -6.46 KCAL/MOL
REMARK 922        TOTAL FREE ENERGY PREDICTED BY IDOCK:   -8.52 KCAL/MOL
REMARK 923 INTER-LIGAND FREE ENERGY PREDICTED BY IDOCK:   -8.02 KCAL/MOL
REMARK 924 INTRA-LIGAND FREE ENERGY PREDICTED BY IDOCK:   -0.51 KCAL/MOL
REMARK 927      BINDING AFFINITY PREDICTED BY RF-SCORE:    0.00 PKD
ROOT
HETATM    1  C   UNL     1     -12.625  11.982  63.412  1.00  0.00    -0.469 C  
HETATM    2  N   UNL     1     -11.540  12.357  64.326  1.00  0.00    -0.344 NA 
HETATM    3  C   UNL     1     -10.251  12.093  63.683  1.00  0.00    -0.433 C  
ENDROOT
BRANCH   2   4
HETATM    4  C   UNL     1     -11.621  13.771  64.756  1.00  0.00    -0.362 C  
BRANCH   4   5
HETATM    5  C   UNL     1     -12.364  13.911  66.095  1.00  0.00    -0.504 C  
BRANCH   5   6
HETATM    6  C   UNL     1     -12.141  12.800  67.096  1.00  0.00    -0.236 C  
HETATM    7  C   UNL     1     -11.565  12.935  68.316  1.00  0.00    -0.374 C  
HETATM    8  C   UNL     1     -11.512  11.737  69.180  1.00  0.00    -0.358 A  
HETATM    9  C   UNL     1     -10.737  10.618  68.851  1.00  0.00    -0.254 A  
HETATM   10  C   UNL     1     -10.650   9.543  69.736  1.00  0.00    -0.257 A  
HETATM   11  C   UNL     1     -11.334   9.583  70.952  1.00  0.00    -0.410 A  
HETATM   12  C   UNL     1     -12.111  10.694  71.283  1.00  0.00    -0.401 A  
HETATM   13  C   UNL     1     -12.207  11.777  70.399  1.00  0.00    -0.416 A  
HETATM   14  C   UNL     1     -13.026  12.999  70.726  1.00  0.00     0.033 C  
HETATM   15  O   UNL     1     -12.223  14.127  71.073  1.00  0.00    -0.329 OA 
HETATM   16  C   UNL     1     -11.502  14.760  70.092  1.00  0.00    -0.266 A  
HETATM   17  C   UNL     1     -11.128  14.261  68.833  1.00  0.00    -0.283 A  
HETATM   18  C   UNL     1     -10.250  15.033  68.040  1.00  0.00    -0.228 A  
HETATM   19  C   UNL     1      -9.866  16.333  68.399  1.00  0.00    -0.229 A  
HETATM   20  C   UNL     1     -10.291  16.829  69.633  1.00  0.00    -0.151 A  
HETATM   21  C   UNL     1     -11.074  16.038  70.478  1.00  0.00    -0.370 A  
BRANCH  19  22
HETATM   22  C   UNL     1      -8.955  17.150  67.510  1.00  0.00    -0.221 C  
HETATM   23  C   UNL     1      -9.561  18.282  66.701  1.00  0.00    -0.315 C  
HETATM   24  O   UNL     1      -8.912  18.890  65.852  1.00  0.00    -0.455 OA 
HETATM   25  O   UNL     1     -10.838  18.621  66.966  1.00  0.00    -0.382 OA 
ENDBRANCH  19  22
ENDBRANCH   5   6
ENDBRANCH   4   5
ENDBRANCH   2   4
TORSDOF 4
ENDMDL
MODEL       17
REMARK 921   NORMALIZED FREE ENERGY PREDICTED BY IDOCK:   -6.38 KCAL/MOL
REMARK 922        TOTAL FREE ENERGY PREDICTED BY IDOCK:   -8.43 KCAL/MOL
REMARK 923 INTER-LIGAND FREE ENERGY PREDICTED BY IDOCK:   -8.15 KCAL/MOL
REMARK 924 INTRA-LIGAND FREE ENERGY PREDICTED BY IDOCK:   -0.27 KCAL/MOL
REMARK 927      BINDING AFFINITY PREDICTED BY RF-SCORE:    0.00 PKD
ROOT
HETATM    1  C   UNL     1     -12.461  15.238  73.450  1.00  0.00    -0.517 C  
HETATM    2  N   UNL     1     -12.614  14.607  72.134  1.00  0.00    -0.325 NA 
HETATM    3  C   UNL     1     -13.594  13.522  72.227  1.00  0.00    -0.592 C  
ENDROOT
BRANCH   2   4
HETATM    4  C   UNL     1     -13.009  15.571  71.083  1.00  0.00    -0.496 C  
BRANCH   4   5
HETATM    5  C   UNL     1     -12.222  15.343  69.783  1.00  0.00    -0.336 C  
BRANCH   5   6
HETATM    6  C   UNL     1     -10.726  15.535  69.872  1.00  0.00    -0.321 C  
HETATM    7  C   UNL     1      -9.877  15.656  68.822  1.00  0.00    -0.213 C  
HETATM    8  C   UNL     1      -8.453  15.918  69.123  1.00  0.00    -0.254 A  
HETATM    9  C   UNL     1      -7.646  14.974  69.768  1.00  0.00    -0.072 A  
HETATM   10  C   UNL     1      -6.287  15.231  69.958  1.00  0.00    -0.147 A  
HETATM   11  C   UNL     1      -5.732  16.427  69.501  1.00  0.00    -0.161 A  
HETATM   12  C   UNL     1      -6.534  17.372  68.860  1.00  0.00    -0.208 A  
HETATM   13  C   UNL     1      -7.900  17.125  68.669  1.00  0.00    -0.265 A  
HETATM   14  C   UNL     1      -8.796  18.116  67.971  1.00  0.00    -0.279 C  
HETATM   15  O   UNL     1      -9.150  17.708  66.649  1.00  0.00    -0.250 OA 
HETATM   16  C   UNL     1     -10.024  16.662  66.486  1.00  0.00    -0.285 A  
HETATM   17  C   UNL     1     -10.367  15.667  67.416  1.00  0.00    -0.275 A  
HETATM   18  C   UNL     1     -11.176  14.593  66.980  1.00  0.00    -0.348 A  
HETATM   19  C   UNL     1     -11.765  14.569  65.708  1.00  0.00    -0.344 A  
HETATM   20  C   UNL     1     -11.450  15.596  64.816  1.00  0.00    -0.284 A  
HETATM   21  C   UNL     1     -10.567  16.612  65.194  1.00  0.00    -0.181 A  
BRANCH  19  22
HETATM   22  C   UNL     1     -12.658  13.425  65.283  1.00  0.00    -0.518 C  
HETATM   23  C   UNL     1     -12.241  12.589  64.087  1.00  0.00    -0.467 C  
HETATM   24  O   UNL     1     -12.986  11.742  63.598  1.00  0.00    -0.591 OA 
HETATM   25  O   UNL     1     -11.005  12.790  63.589  1.00  0.00    -0.425 OA 
ENDBRANCH  19  22
ENDBRANCH   5   6
ENDBRANCH   4   5
ENDBRANCH   2   4
TORSDOF 4
ENDMDL
MODEL       18
REMARK 921   NORMALIZED FREE ENERGY PREDICTED BY IDOCK:   -6.38 KCAL/MOL
REMARK 922        TOTAL FREE ENERGY PREDICTED BY IDOCK:   -8.42 KCAL/MOL
REMARK 923 INTER-LIGAND FREE ENERGY PREDICTED BY IDOCK:   -7.98 KCAL/MOL
REMARK 924 INTRA-LIGAND FREE ENERGY PREDICTED BY IDOCK:   -0.45 KCAL/MOL
REMARK 927      BINDING AFFINITY PREDICTED BY RF-SCORE:    0.00 PKD
ROOT
HETATM    1  C   UNL     1      -6.909  15.746  67.557  1.00  0.00    -0.189 C  
HETATM    2  N   UNL     1      -7.783  16.477  68.482  1.00  0.00    -0.192 NA 
HETATM    3  C   UNL     1      -8.738  17.280  67.717  1.00  0.00    -0.226 C  
ENDROOT
BRANCH   2   4
HETATM    4  C   UNL     1      -8.496  15.581  69.419  1.00  0.00    -0.256 C  
BRANCH   4   5
HETATM    5  C   UNL     1      -9.682  14.881  68.737  1.00  0.00    -0.225 C  
BRANCH   5   6
HETATM    6  C   UNL     1     -10.415  13.855  69.571  1.00  0.00     0.200 C  
HETATM    7  C   UNL     1     -11.149  12.821  69.093  1.00  0.00    -0.245 C  
HETATM    8  C   UNL     1     -11.723  11.879  70.078  1.00  0.00    -0.366 A  
HETATM    9  C   UNL     1     -12.716  12.267  70.984  1.00  0.00    -0.319 A  
HETATM   10  C   UNL     1     -13.288  11.325  71.840  1.00  0.00    -0.413 A  
HETATM   11  C   UNL     1     -12.872   9.994  71.790  1.00  0.00    -0.546 A  
HETATM   12  C   UNL     1     -11.880   9.603  70.891  1.00  0.00    -0.403 A  
HETATM   13  C   UNL     1     -11.297  10.542  70.030  1.00  0.00    -0.392 A  
HETATM   14  C   UNL     1     -10.231  10.156  69.037  1.00  0.00    -0.206 C  
HETATM   15  O   UNL     1     -10.713  10.116  67.694  1.00  0.00    -0.246 OA 
HETATM   16  C   UNL     1     -11.009  11.295  67.057  1.00  0.00    -0.294 A  
HETATM   17  C   UNL     1     -11.264  12.551  67.633  1.00  0.00    -0.332 A  
HETATM   18  C   UNL     1     -11.702  13.598  66.790  1.00  0.00    -0.426 A  
HETATM   19  C   UNL     1     -11.743  13.467  65.395  1.00  0.00    -0.354 A  
HETATM   20  C   UNL     1     -11.437  12.223  64.840  1.00  0.00    -0.382 A  
HETATM   21  C   UNL     1     -11.104  11.146  65.666  1.00  0.00    -0.078 A  
BRANCH  19  22
HETATM   22  C   UNL     1     -12.179  14.618  64.517  1.00  0.00    -0.473 C  
HETATM   23  C   UNL     1     -11.270  15.828  64.407  1.00  0.00    -0.236 C  
HETATM   24  O   UNL     1     -11.626  16.855  63.833  1.00  0.00    -0.982 OA 
HETATM   25  O   UNL     1     -10.037  15.729  64.942  1.00  0.00    -0.399 OA 
ENDBRANCH  19  22
ENDBRANCH   5   6
ENDBRANCH   4   5
ENDBRANCH   2   4
TORSDOF 4
ENDMDL
MODEL       19
REMARK 921   NORMALIZED FREE ENERGY PREDICTED BY IDOCK:   -6.34 KCAL/MOL
REMARK 922        TOTAL FREE ENERGY PREDICTED BY IDOCK:   -8.38 KCAL/MOL
REMARK 923 INTER-LIGAND FREE ENERGY PREDICTED BY IDOCK:   -7.92 KCAL/MOL
REMARK 924 INTRA-LIGAND FREE ENERGY PREDICTED BY IDOCK:   -0.45 KCAL/MOL
REMARK 927      BINDING AFFINITY PREDICTED BY RF-SCORE:    0.00 PKD
ROOT
HETATM    1  C   UNL     1     -11.909  13.173  63.608  1.00  0.00    -0.488 C  
HETATM    2  N   UNL     1     -11.716  13.980  64.818  1.00  0.00    -0.374 NA 
HETATM    3  C   UNL     1     -11.474  15.374  64.439  1.00  0.00    -0.255 C  
ENDROOT
BRANCH   2   4
HETATM    4  C   UNL     1     -12.862  13.891  65.750  1.00  0.00    -0.391 C  
BRANCH   4   5
HETATM    5  C   UNL     1     -12.394  13.740  67.207  1.00  0.00    -0.203 C  
BRANCH   5   6
HETATM    6  C   UNL     1     -11.133  12.932  67.417  1.00  0.00    -0.307 C  
HETATM    7  C   UNL     1     -10.775  12.304  68.564  1.00  0.00    -0.261 C  
HETATM    8  C   UNL     1      -9.537  11.497  68.541  1.00  0.00    -0.180 A  
HETATM    9  C   UNL     1      -8.275  12.079  68.372  1.00  0.00    -0.151 A  
HETATM   10  C   UNL     1      -7.127  11.288  68.440  1.00  0.00    -0.081 A  
HETATM   11  C   UNL     1      -7.236   9.918  68.678  1.00  0.00    -0.072 A  
HETATM   12  C   UNL     1      -8.492   9.333  68.844  1.00  0.00    -0.129 A  
HETATM   13  C   UNL     1      -9.651  10.118  68.774  1.00  0.00    -0.170 A  
HETATM   14  C   UNL     1     -11.024   9.525  68.959  1.00  0.00    -0.100 C  
HETATM   15  O   UNL     1     -11.602   9.850  70.222  1.00  0.00    -0.254 OA 
HETATM   16  C   UNL     1     -12.026  11.135  70.450  1.00  0.00    -0.378 A  
HETATM   17  C   UNL     1     -11.656  12.304  69.764  1.00  0.00    -0.314 A  
HETATM   18  C   UNL     1     -12.099  13.547  70.271  1.00  0.00    -0.425 A  
HETATM   19  C   UNL     1     -13.010  13.639  71.333  1.00  0.00    -0.427 A  
HETATM   20  C   UNL     1     -13.404  12.460  71.968  1.00  0.00    -0.511 A  
HETATM   21  C   UNL     1     -12.893  11.229  71.549  1.00  0.00    -0.519 A  
BRANCH  19  22
HETATM   22  C   UNL     1     -13.496  14.983  71.828  1.00  0.00    -0.504 C  
HETATM   23  C   UNL     1     -12.950  15.510  73.142  1.00  0.00    -0.521 C  
HETATM   24  O   UNL     1     -13.408  16.519  73.675  1.00  0.00    -0.547 OA 
HETATM   25  O   UNL     1     -11.919  14.843  73.698  1.00  0.00    -0.358 OA 
ENDBRANCH  19  22
ENDBRANCH   5   6
ENDBRANCH   4   5
ENDBRANCH   2   4
TORSDOF 4
ENDMDL
MODEL       20
REMARK 921   NORMALIZED FREE ENERGY PREDICTED BY IDOCK:   -6.33 KCAL/MOL
REMARK 922        TOTAL FREE ENERGY PREDICTED BY IDOCK:   -8.36 KCAL/MOL
REMARK 923 INTER-LIGAND FREE ENERGY PREDICTED BY IDOCK:   -7.82 KCAL/MOL
REMARK 924 INTRA-LIGAND FREE ENERGY PREDICTED BY IDOCK:   -0.53 KCAL/MOL
REMARK 927      BINDING AFFINITY PREDICTED BY RF-SCORE:    0.00 PKD
ROOT
HETATM    1  C   UNL     1     -12.357  12.181  63.401  1.00  0.00    -0.538 C  
HETATM    2  N   UNL     1     -12.744  13.085  64.490  1.00  0.00    -0.701 NA 
HETATM    3  C   UNL     1     -12.157  12.611  65.746  1.00  0.00    -0.423 C  
ENDROOT
BRANCH   2   4
HETATM    4  C   UNL     1     -12.347  14.488  64.233  1.00  0.00    -0.369 C  
BRANCH   4   5
HETATM    5  C   UNL     1     -10.915  14.767  64.716  1.00  0.00    -0.393 C  
BRANCH   5   6
HETATM    6  C   UNL     1     -10.666  16.142  65.292  1.00  0.00    -0.386 C  
HETATM    7  C   UNL     1      -9.802  16.438  66.293  1.00  0.00    -0.336 C  
HETATM    8  C   UNL     1      -9.645  17.862  66.659  1.00  0.00    -0.311 A  
HETATM    9  C   UNL     1     -10.687  18.599  67.235  1.00  0.00    -0.449 A  
HETATM   10  C   UNL     1     -10.470  19.916  67.641  1.00  0.00    -0.521 A  
HETATM   11  C   UNL     1      -9.213  20.499  67.477  1.00  0.00    -0.442 A  
HETATM   12  C   UNL     1      -8.172  19.770  66.901  1.00  0.00    -0.342 A  
HETATM   13  C   UNL     1      -8.381  18.448  66.486  1.00  0.00    -0.290 A  
HETATM   14  C   UNL     1      -7.279  17.624  65.870  1.00  0.00    -0.200 C  
HETATM   15  O   UNL     1      -6.768  16.631  66.759  1.00  0.00    -0.206 OA 
HETATM   16  C   UNL     1      -7.543  15.539  67.056  1.00  0.00    -0.193 A  
HETATM   17  C   UNL     1      -8.934  15.399  66.912  1.00  0.00    -0.273 A  
HETATM   18  C   UNL     1      -9.547  14.234  67.428  1.00  0.00    -0.214 A  
HETATM   19  C   UNL     1      -8.802  13.161  67.936  1.00  0.00    -0.196 A  
HETATM   20  C   UNL     1      -7.416  13.302  68.024  1.00  0.00    -0.138 A  
HETATM   21  C   UNL     1      -6.802  14.488  67.616  1.00  0.00    -0.203 A  
BRANCH  19  22
HETATM   22  C   UNL     1      -9.485  11.911  68.446  1.00  0.00    -0.189 C  
HETATM   23  C   UNL     1      -9.618  10.726  67.508  1.00  0.00    -0.158 C  
HETATM   24  O   UNL     1     -10.287   9.738  67.804  1.00  0.00    -0.195 OA 
HETATM   25  O   UNL     1      -8.950  10.781  66.339  1.00  0.00    -0.158 OA 
ENDBRANCH  19  22
ENDBRANCH   5   6
ENDBRANCH   4   5
ENDBRANCH   2   4
TORSDOF 4
ENDMDL
MODEL       21
REMARK 921   NORMALIZED FREE ENERGY PREDICTED BY IDOCK:   -6.31 KCAL/MOL
REMARK 922        TOTAL FREE ENERGY PREDICTED BY IDOCK:   -8.34 KCAL/MOL
REMARK 923 INTER-LIGAND FREE ENERGY PREDICTED BY IDOCK:   -7.75 KCAL/MOL
REMARK 924 INTRA-LIGAND FREE ENERGY PREDICTED BY IDOCK:   -0.59 KCAL/MOL
REMARK 927      BINDING AFFINITY PREDICTED BY RF-SCORE:    0.00 PKD
ROOT
HETATM    1  C   UNL     1      -7.555  13.701  68.310  1.00  0.00    -0.130 C  
HETATM    2  N   UNL     1      -7.286  12.353  67.797  1.00  0.00    -0.110 NA 
HETATM    3  C   UNL     1      -5.848  12.199  67.567  1.00  0.00    -0.122 C  
ENDROOT
BRANCH   2   4
HETATM    4  C   UNL     1      -7.782  11.291  68.701  1.00  0.00    -0.136 C  
BRANCH   4   5
HETATM    5  C   UNL     1      -8.857  10.428  68.021  1.00  0.00    -0.130 C  
BRANCH   5   6
HETATM    6  C   UNL     1      -9.597  11.074  66.873  1.00  0.00    -0.205 C  
HETATM    7  C   UNL     1     -10.739  11.798  66.973  1.00  0.00    -0.286 C  
HETATM    8  C   UNL     1     -11.264  12.415  65.736  1.00  0.00    -0.370 A  
HETATM    9  C   UNL     1     -11.751  11.646  64.673  1.00  0.00    -0.157 A  
HETATM   10  C   UNL     1     -12.314  12.271  63.559  1.00  0.00    -0.670 A  
HETATM   11  C   UNL     1     -12.395  13.663  63.507  1.00  0.00    -0.265 A  
HETATM   12  C   UNL     1     -11.908  14.434  64.563  1.00  0.00    -0.463 A  
HETATM   13  C   UNL     1     -11.337  13.816  65.683  1.00  0.00    -0.311 A  
HETATM   14  C   UNL     1     -10.811  14.613  66.849  1.00  0.00    -0.305 C  
HETATM   15  O   UNL     1     -11.661  14.548  67.994  1.00  0.00    -0.320 OA 
HETATM   16  C   UNL     1     -11.731  13.378  68.707  1.00  0.00    -0.340 A  
HETATM   17  C   UNL     1     -11.371  12.086  68.289  1.00  0.00    -0.342 A  
HETATM   18  C   UNL     1     -11.673  10.998  69.140  1.00  0.00    -0.403 A  
HETATM   19  C   UNL     1     -12.175  11.181  70.436  1.00  0.00    -0.457 A  
HETATM   20  C   UNL     1     -12.479  12.479  70.850  1.00  0.00    -0.361 A  
HETATM   21  C   UNL     1     -12.286  13.558  69.983  1.00  0.00    -0.381 A  
BRANCH  19  22
HETATM   22  C   UNL     1     -12.453   9.999  71.338  1.00  0.00    -0.510 C  
HETATM   23  C   UNL     1     -11.289   9.115  71.749  1.00  0.00    -0.381 C  
HETATM   24  O   UNL     1     -11.461   8.060  72.356  1.00  0.00    -0.334 OA 
HETATM   25  O   UNL     1     -10.047   9.543  71.448  1.00  0.00    -0.258 OA 
ENDBRANCH  19  22
ENDBRANCH   5   6
ENDBRANCH   4   5
ENDBRANCH   2   4
TORSDOF 4
ENDMDL
MODEL       22
REMARK 921   NORMALIZED FREE ENERGY PREDICTED BY IDOCK:   -6.30 KCAL/MOL
REMARK 922        TOTAL FREE ENERGY PREDICTED BY IDOCK:   -8.32 KCAL/MOL
REMARK 923 INTER-LIGAND FREE ENERGY PREDICTED BY IDOCK:   -7.86 KCAL/MOL
REMARK 924 INTRA-LIGAND FREE ENERGY PREDICTED BY IDOCK:   -0.46 KCAL/MOL
REMARK 927      BINDING AFFINITY PREDICTED BY RF-SCORE:    0.00 PKD
ROOT
HETATM    1  C   UNL     1      -9.480   6.695  69.831  1.00  0.00    -0.156 C  
HETATM    2  N   UNL     1      -8.821   7.870  69.246  1.00  0.00    -0.141 NA 
HETATM    3  C   UNL     1      -7.620   7.444  68.526  1.00  0.00    -0.114 C  
ENDROOT
BRANCH   2   4
HETATM    4  C   UNL     1      -9.716   8.637  68.351  1.00  0.00    -0.162 C  
BRANCH   4   5
HETATM    5  C   UNL     1      -9.305  10.116  68.275  1.00  0.00    -0.136 C  
BRANCH   5   6
HETATM    6  C   UNL     1      -9.929  10.921  67.159  1.00  0.00    -0.221 C  
HETATM    7  C   UNL     1     -10.956  11.796  67.289  1.00  0.00    -0.318 C  
HETATM    8  C   UNL     1     -11.370  12.546  66.084  1.00  0.00    -0.388 A  
HETATM    9  C   UNL     1     -11.947  11.912  64.978  1.00  0.00    -0.150 A  
HETATM   10  C   UNL     1     -12.399  12.668  63.896  1.00  0.00    -0.546 A  
HETATM   11  C   UNL     1     -12.279  14.058  63.918  1.00  0.00    -0.336 A  
HETATM   12  C   UNL     1     -11.701  14.695  65.017  1.00  0.00    -0.385 A  
HETATM   13  C   UNL     1     -11.241  13.943  66.106  1.00  0.00    -0.303 A  
HETATM   14  C   UNL     1     -10.621  14.595  67.316  1.00  0.00    -0.284 C  
HETATM   15  O   UNL     1     -11.488  14.594  68.450  1.00  0.00    -0.282 OA 
HETATM   16  C   UNL     1     -11.735  13.410  69.100  1.00  0.00    -0.326 A  
HETATM   17  C   UNL     1     -11.559  12.103  68.615  1.00  0.00    -0.372 A  
HETATM   18  C   UNL     1     -12.026  11.028  69.405  1.00  0.00    -0.408 A  
HETATM   19  C   UNL     1     -12.515  11.214  70.706  1.00  0.00    -0.479 A  
HETATM   20  C   UNL     1     -12.634  12.519  71.186  1.00  0.00    -0.349 A  
HETATM   21  C   UNL     1     -12.276  13.602  70.379  1.00  0.00    -0.434 A  
BRANCH  19  22
HETATM   22  C   UNL     1     -12.971  10.038  71.542  1.00  0.00    -0.535 C  
HETATM   23  C   UNL     1     -11.936   9.022  71.986  1.00  0.00    -0.363 C  
HETATM   24  O   UNL     1     -12.256   7.971  72.538  1.00  0.00    -0.318 OA 
HETATM   25  O   UNL     1     -10.639   9.324  71.777  1.00  0.00    -0.355 OA 
ENDBRANCH  19  22
ENDBRANCH   5   6
ENDBRANCH   4   5
ENDBRANCH   2   4
TORSDOF 4
ENDMDL
MODEL       23
REMARK 921   NORMALIZED FREE ENERGY PREDICTED BY IDOCK:   -6.30 KCAL/MOL
REMARK 922        TOTAL FREE ENERGY PREDICTED BY IDOCK:   -8.32 KCAL/MOL
REMARK 923 INTER-LIGAND FREE ENERGY PREDICTED BY IDOCK:   -7.63 KCAL/MOL
REMARK 924 INTRA-LIGAND FREE ENERGY PREDICTED BY IDOCK:   -0.70 KCAL/MOL
REMARK 927      BINDING AFFINITY PREDICTED BY RF-SCORE:    0.00 PKD
ROOT
HETATM    1  C   UNL     1      -8.315   6.808  67.793  1.00  0.00    -0.119 C  
HETATM    2  N   UNL     1      -8.727   7.490  69.025  1.00  0.00    -0.136 NA 
HETATM    3  C   UNL     1      -8.811   6.516  70.115  1.00  0.00    -0.144 C  
ENDROOT
BRANCH   2   4
HETATM    4  C   UNL     1      -7.818   8.599  69.393  1.00  0.00    -0.096 C  
BRANCH   4   5
HETATM    5  C   UNL     1      -8.590   9.792  69.977  1.00  0.00    -0.229 C  
BRANCH   5   6
HETATM    6  C   UNL     1      -9.295  10.679  68.977  1.00  0.00    -0.191 C  
HETATM    7  C   UNL     1     -10.609  11.012  68.998  1.00  0.00    -0.258 C  
HETATM    8  C   UNL     1     -11.089  11.960  67.971  1.00  0.00    -0.293 A  
HETATM    9  C   UNL     1     -11.113  11.631  66.611  1.00  0.00    -0.364 A  
HETATM   10  C   UNL     1     -11.651  12.525  65.684  1.00  0.00    -0.435 A  
HETATM   11  C   UNL     1     -12.168  13.748  66.114  1.00  0.00    -0.499 A  
HETATM   12  C   UNL     1     -12.144  14.082  67.469  1.00  0.00    -0.361 A  
HETATM   13  C   UNL     1     -11.602  13.192  68.406  1.00  0.00    -0.372 A  
HETATM   14  C   UNL     1     -11.567  13.512  69.878  1.00  0.00    -0.201 C  
HETATM   15  O   UNL     1     -12.531  12.774  70.628  1.00  0.00    -0.322 OA 
HETATM   16  C   UNL     1     -12.338  11.430  70.822  1.00  0.00    -0.386 A  
HETATM   17  C   UNL     1     -11.514  10.558  70.090  1.00  0.00    -0.405 A  
HETATM   18  C   UNL     1     -11.587   9.175  70.369  1.00  0.00    -0.181 A  
HETATM   19  C   UNL     1     -12.332   8.667  71.443  1.00  0.00    -0.344 A  
HETATM   20  C   UNL     1     -13.105   9.559  72.189  1.00  0.00    -0.522 A  
HETATM   21  C   UNL     1     -13.128  10.917  71.861  1.00  0.00    -0.537 A  
BRANCH  19  22
HETATM   22  C   UNL     1     -12.360   7.184  71.741  1.00  0.00    -0.385 C  
HETATM   23  C   UNL     1     -11.384   6.635  72.764  1.00  0.00    -0.186 C  
HETATM   24  O   UNL     1     -11.250   5.427  72.947  1.00  0.00    -0.280 OA 
HETATM   25  O   UNL     1     -10.680   7.525  73.492  1.00  0.00    -0.378 OA 
ENDBRANCH  19  22
ENDBRANCH   5   6
ENDBRANCH   4   5
ENDBRANCH   2   4
TORSDOF 4
ENDMDL
MODEL       24
REMARK 921   NORMALIZED FREE ENERGY PREDICTED BY IDOCK:   -6.04 KCAL/MOL
REMARK 922        TOTAL FREE ENERGY PREDICTED BY IDOCK:   -8.01 KCAL/MOL
REMARK 923 INTER-LIGAND FREE ENERGY PREDICTED BY IDOCK:   -7.50 KCAL/MOL
REMARK 924 INTRA-LIGAND FREE ENERGY PREDICTED BY IDOCK:   -0.51 KCAL/MOL
REMARK 927      BINDING AFFINITY PREDICTED BY RF-SCORE:    0.00 PKD
ROOT
HETATM    1  C   UNL     1     -11.956   9.163  71.726  1.00  0.00    -0.379 C  
HETATM    2  N   UNL     1     -12.405  10.218  70.809  1.00  0.00    -0.326 NA 
HETATM    3  C   UNL     1     -12.967  11.326  71.583  1.00  0.00    -0.432 C  
ENDROOT
BRANCH   2   4
HETATM    4  C   UNL     1     -11.320  10.703  69.926  1.00  0.00    -0.313 C  
BRANCH   4   5
HETATM    5  C   UNL     1     -11.876  11.274  68.612  1.00  0.00    -0.369 C  
BRANCH   5   6
HETATM    6  C   UNL     1     -11.420  12.670  68.251  1.00  0.00    -0.356 C  
HETATM    7  C   UNL     1     -10.700  13.010  67.155  1.00  0.00    -0.266 C  
HETATM    8  C   UNL     1     -10.422  14.447  66.941  1.00  0.00    -0.269 A  
HETATM    9  C   UNL     1      -9.600  15.180  67.806  1.00  0.00    -0.203 A  
HETATM   10  C   UNL     1      -9.298  16.512  67.520  1.00  0.00    -0.218 A  
HETATM   11  C   UNL     1      -9.812  17.113  66.371  1.00  0.00    -0.312 A  
HETATM   12  C   UNL     1     -10.634  16.387  65.508  1.00  0.00    -0.346 A  
HETATM   13  C   UNL     1     -10.946  15.051  65.788  1.00  0.00    -0.351 A  
HETATM   14  C   UNL     1     -11.821  14.230  64.875  1.00  0.00    -0.410 C  
HETATM   15  O   UNL     1     -11.084  13.273  64.115  1.00  0.00    -0.378 OA 
HETATM   16  C   UNL     1     -10.562  12.175  64.752  1.00  0.00    -0.296 A  
HETATM   17  C   UNL     1     -10.318  12.005  66.125  1.00  0.00    -0.257 A  
HETATM   18  C   UNL     1      -9.629  10.845  66.544  1.00  0.00    -0.224 A  
HETATM   19  C   UNL     1      -9.320   9.800  65.662  1.00  0.00    -0.285 A  
HETATM   20  C   UNL     1      -9.617   9.969  64.309  1.00  0.00    -0.301 A  
HETATM   21  C   UNL     1     -10.203  11.155  63.859  1.00  0.00    -0.420 A  
BRANCH  19  22
HETATM   22  C   UNL     1      -8.615   8.552  66.148  1.00  0.00    -0.154 C  
HETATM   23  C   UNL     1      -9.417   7.528  66.929  1.00  0.00    -0.171 C  
HETATM   24  O   UNL     1      -8.879   6.568  67.478  1.00  0.00    -0.114 OA 
HETATM   25  O   UNL     1     -10.753   7.692  66.979  1.00  0.00    -0.348 OA 
ENDBRANCH  19  22
ENDBRANCH   5   6
ENDBRANCH   4   5
ENDBRANCH   2   4
TORSDOF 4
ENDMDL
MODEL       25
REMARK 921   NORMALIZED FREE ENERGY PREDICTED BY IDOCK:   -6.03 KCAL/MOL
REMARK 922        TOTAL FREE ENERGY PREDICTED BY IDOCK:   -8.00 KCAL/MOL
REMARK 923 INTER-LIGAND FREE ENERGY PREDICTED BY IDOCK:   -7.94 KCAL/MOL
REMARK 924 INTRA-LIGAND FREE ENERGY PREDICTED BY IDOCK:   -0.06 KCAL/MOL
REMARK 927      BINDING AFFINITY PREDICTED BY RF-SCORE:    0.00 PKD
ROOT
HETATM    1  C   UNL     1     -12.635  16.209  73.824  1.00  0.00    -0.588 C  
HETATM    2  N   UNL     1     -12.832  15.081  72.906  1.00  0.00    -0.406 NA 
HETATM    3  C   UNL     1     -14.056  15.293  72.131  1.00  0.00    -0.560 C  
ENDROOT
BRANCH   2   4
HETATM    4  C   UNL     1     -11.678  14.875  72.002  1.00  0.00    -0.289 C  
BRANCH   4   5
HETATM    5  C   UNL     1     -11.967  15.406  70.589  1.00  0.00    -0.396 C  
BRANCH   5   6
HETATM    6  C   UNL     1     -10.833  16.143  69.913  1.00  0.00    -0.355 C  
HETATM    7  C   UNL     1     -10.237  15.786  68.750  1.00  0.00    -0.217 C  
HETATM    8  C   UNL     1      -9.195  16.688  68.213  1.00  0.00    -0.217 A  
HETATM    9  C   UNL     1      -7.975  16.886  68.869  1.00  0.00    -0.224 A  
HETATM   10  C   UNL     1      -6.988  17.681  68.285  1.00  0.00    -0.220 A  
HETATM   11  C   UNL     1      -7.216  18.277  67.045  1.00  0.00    -0.220 A  
HETATM   12  C   UNL     1      -8.432  18.085  66.388  1.00  0.00    -0.262 A  
HETATM   13  C   UNL     1      -9.431  17.292  66.968  1.00  0.00    -0.264 A  
HETATM   14  C   UNL     1     -10.753  17.052  66.285  1.00  0.00    -0.086 C  
HETATM   15  O   UNL     1     -10.864  15.738  65.739  1.00  0.00    -0.322 OA 
HETATM   16  C   UNL     1     -11.007  14.672  66.592  1.00  0.00    -0.323 A  
HETATM   17  C   UNL     1     -10.699  14.611  67.961  1.00  0.00    -0.246 A  
HETATM   18  C   UNL     1     -10.782  13.358  68.611  1.00  0.00    -0.275 A  
HETATM   19  C   UNL     1     -11.301  12.221  67.977  1.00  0.00    -0.348 A  
HETATM   20  C   UNL     1     -11.648  12.317  66.628  1.00  0.00    -0.438 A  
HETATM   21  C   UNL     1     -11.473  13.521  65.941  1.00  0.00    -0.338 A  
BRANCH  19  22
HETATM   22  C   UNL     1     -11.413  10.903  68.711  1.00  0.00    -0.376 C  
HETATM   23  C   UNL     1     -11.933  10.912  70.136  1.00  0.00    -0.352 C  
HETATM   24  O   UNL     1     -11.912   9.903  70.839  1.00  0.00    -0.300 OA 
HETATM   25  O   UNL     1     -12.449  12.066  70.602  1.00  0.00    -0.315 OA 
ENDBRANCH  19  22
ENDBRANCH   5   6
ENDBRANCH   4   5
ENDBRANCH   2   4
TORSDOF 4
ENDMDL
MODEL       26
REMARK 921   NORMALIZED FREE ENERGY PREDICTED BY IDOCK:   -6.03 KCAL/MOL
REMARK 922        TOTAL FREE ENERGY PREDICTED BY IDOCK:   -7.99 KCAL/MOL
REMARK 923 INTER-LIGAND FREE ENERGY PREDICTED BY IDOCK:   -7.49 KCAL/MOL
REMARK 924 INTRA-LIGAND FREE ENERGY PREDICTED BY IDOCK:   -0.50 KCAL/MOL
REMARK 927      BINDING AFFINITY PREDICTED BY RF-SCORE:    0.00 PKD
ROOT
HETATM    1  C   UNL     1     -12.479  13.254  70.760  1.00  0.00    -0.324 C  
HETATM    2  N   UNL     1     -12.786  14.652  70.434  1.00  0.00    -0.340 NA 
HETATM    3  C   UNL     1     -13.209  15.352  71.649  1.00  0.00    -0.478 C  
ENDROOT
BRANCH   2   4
HETATM    4  C   UNL     1     -11.644  15.353  69.806  1.00  0.00    -0.323 C  
BRANCH   4   5
HETATM    5  C   UNL     1     -11.899  15.620  68.313  1.00  0.00    -0.153 C  
BRANCH   5   6
HETATM    6  C   UNL     1     -11.674  14.449  67.384  1.00  0.00    -0.424 C  
HETATM    7  C   UNL     1     -10.529  14.178  66.711  1.00  0.00    -0.277 C  
HETATM    8  C   UNL     1     -10.486  12.935  65.911  1.00  0.00    -0.294 A  
HETATM    9  C   UNL     1     -11.287  12.755  64.778  1.00  0.00    -0.346 A  
HETATM   10  C   UNL     1     -11.154  11.601  64.005  1.00  0.00    -0.458 A  
HETATM   11  C   UNL     1     -10.221  10.627  64.360  1.00  0.00    -0.400 A  
HETATM   12  C   UNL     1      -9.422  10.801  65.491  1.00  0.00    -0.253 A  
HETATM   13  C   UNL     1      -9.551  11.954  66.276  1.00  0.00    -0.243 A  
HETATM   14  C   UNL     1      -8.699  12.183  67.498  1.00  0.00    -0.173 C  
HETATM   15  O   UNL     1      -7.683  13.164  67.289  1.00  0.00    -0.160 OA 
HETATM   16  C   UNL     1      -8.043  14.484  67.179  1.00  0.00    -0.168 A  
HETATM   17  C   UNL     1      -9.308  15.014  66.875  1.00  0.00    -0.258 A  
HETATM   18  C   UNL     1      -9.416  16.407  66.661  1.00  0.00    -0.277 A  
HETATM   19  C   UNL     1      -8.346  17.284  66.890  1.00  0.00    -0.253 A  
HETATM   20  C   UNL     1      -7.110  16.738  67.241  1.00  0.00    -0.205 A  
HETATM   21  C   UNL     1      -6.957  15.354  67.354  1.00  0.00    -0.222 A  
BRANCH  19  22
HETATM   22  C   UNL     1      -8.504  18.775  66.689  1.00  0.00    -0.299 C  
HETATM   23  C   UNL     1      -9.419  19.537  67.629  1.00  0.00    -0.324 C  
HETATM   24  O   UNL     1      -9.708  20.716  67.436  1.00  0.00    -0.457 OA 
HETATM   25  O   UNL     1      -9.888  18.880  68.708  1.00  0.00    -0.379 OA 
ENDBRANCH  19  22
ENDBRANCH   5   6
ENDBRANCH   4   5
ENDBRANCH   2   4
TORSDOF 4
ENDMDL
MODEL       27
REMARK 921   NORMALIZED FREE ENERGY PREDICTED BY IDOCK:   -6.02 KCAL/MOL
REMARK 922        TOTAL FREE ENERGY PREDICTED BY IDOCK:   -7.98 KCAL/MOL
REMARK 923 INTER-LIGAND FREE ENERGY PREDICTED BY IDOCK:   -7.31 KCAL/MOL
REMARK 924 INTRA-LIGAND FREE ENERGY PREDICTED BY IDOCK:   -0.67 KCAL/MOL
REMARK 927      BINDING AFFINITY PREDICTED BY RF-SCORE:    0.00 PKD
ROOT
HETATM    1  C   UNL     1     -12.816  13.908  65.335  1.00  0.00    -0.427 C  
HETATM    2  N   UNL     1     -12.139  12.719  64.805  1.00  0.00    -0.406 NA 
HETATM    3  C   UNL     1     -13.001  12.071  63.814  1.00  0.00    -0.206 C  
ENDROOT
BRANCH   2   4
HETATM    4  C   UNL     1     -10.819  13.033  64.214  1.00  0.00    -0.405 C  
BRANCH   4   5
HETATM    5  C   UNL     1      -9.799  13.434  65.292  1.00  0.00    -0.106 C  
BRANCH   5   6
HETATM    6  C   UNL     1      -9.552  12.417  66.382  1.00  0.00    -0.249 C  
HETATM    7  C   UNL     1      -9.798  12.594  67.703  1.00  0.00    -0.210 C  
HETATM    8  C   UNL     1      -9.562  11.443  68.601  1.00  0.00    -0.179 A  
HETATM    9  C   UNL     1      -8.279  10.930  68.827  1.00  0.00    -0.151 A  
HETATM   10  C   UNL     1      -8.092   9.896  69.746  1.00  0.00    -0.185 A  
HETATM   11  C   UNL     1      -9.184   9.375  70.441  1.00  0.00    -0.305 A  
HETATM   12  C   UNL     1     -10.465   9.881  70.217  1.00  0.00    -0.348 A  
HETATM   13  C   UNL     1     -10.663  10.916  69.294  1.00  0.00    -0.271 A  
HETATM   14  C   UNL     1     -12.029  11.497  69.032  1.00  0.00    -0.311 C  
HETATM   15  O   UNL     1     -12.202  12.790  69.612  1.00  0.00    -0.234 OA 
HETATM   16  C   UNL     1     -11.540  13.860  69.064  1.00  0.00    -0.310 A  
HETATM   17  C   UNL     1     -10.414  13.845  68.224  1.00  0.00    -0.252 A  
HETATM   18  C   UNL     1      -9.802  15.078  67.901  1.00  0.00    -0.217 A  
HETATM   19  C   UNL     1     -10.367  16.309  68.263  1.00  0.00    -0.272 A  
HETATM   20  C   UNL     1     -11.516  16.301  69.055  1.00  0.00    -0.268 A  
HETATM   21  C   UNL     1     -12.075  15.090  69.473  1.00  0.00    -0.311 A  
BRANCH  19  22
HETATM   22  C   UNL     1      -9.710  17.614  67.869  1.00  0.00    -0.295 C  
HETATM   23  C   UNL     1      -9.728  18.019  66.407  1.00  0.00    -0.321 C  
HETATM   24  O   UNL     1      -9.089  18.986  65.996  1.00  0.00    -0.459 OA 
HETATM   25  O   UNL     1     -10.495  17.293  65.570  1.00  0.00    -0.609 OA 
ENDBRANCH  19  22
ENDBRANCH   5   6
ENDBRANCH   4   5
ENDBRANCH   2   4
TORSDOF 4
ENDMDL
MODEL       28
REMARK 921   NORMALIZED FREE ENERGY PREDICTED BY IDOCK:   -5.97 KCAL/MOL
REMARK 922        TOTAL FREE ENERGY PREDICTED BY IDOCK:   -7.91 KCAL/MOL
REMARK 923 INTER-LIGAND FREE ENERGY PREDICTED BY IDOCK:   -7.54 KCAL/MOL
REMARK 924 INTRA-LIGAND FREE ENERGY PREDICTED BY IDOCK:   -0.38 KCAL/MOL
REMARK 927      BINDING AFFINITY PREDICTED BY RF-SCORE:    0.00 PKD
ROOT
HETATM    1  C   UNL     1      -6.714   9.045  66.263  1.00  0.00    -0.070 C  
HETATM    2  N   UNL     1      -7.124   8.976  67.671  1.00  0.00    -0.075 NA 
HETATM    3  C   UNL     1      -5.999   8.506  68.481  1.00  0.00    -0.045 C  
ENDROOT
BRANCH   2   4
HETATM    4  C   UNL     1      -7.622  10.272  68.182  1.00  0.00    -0.087 C  
BRANCH   4   5
HETATM    5  C   UNL     1      -9.159  10.312  68.216  1.00  0.00    -0.139 C  
BRANCH   5   6
HETATM    6  C   UNL     1      -9.827  11.064  67.088  1.00  0.00    -0.211 C  
HETATM    7  C   UNL     1     -10.893  11.893  67.209  1.00  0.00    -0.294 C  
HETATM    8  C   UNL     1     -11.349  12.598  65.992  1.00  0.00    -0.369 A  
HETATM    9  C   UNL     1     -11.904  11.915  64.903  1.00  0.00    -0.236 A  
HETATM   10  C   UNL     1     -12.398  12.628  63.810  1.00  0.00    -0.568 A  
HETATM   11  C   UNL     1     -12.342  14.022  63.802  1.00  0.00    -0.195 A  
HETATM   12  C   UNL     1     -11.787  14.707  64.884  1.00  0.00    -0.403 A  
HETATM   13  C   UNL     1     -11.285  14.000  65.985  1.00  0.00    -0.310 A  
HETATM   14  C   UNL     1     -10.688  14.704  67.176  1.00  0.00    -0.292 C  
HETATM   15  O   UNL     1     -11.546  14.687  68.317  1.00  0.00    -0.296 OA 
HETATM   16  C   UNL     1     -11.734  13.507  68.992  1.00  0.00    -0.327 A  
HETATM   17  C   UNL     1     -11.500  12.199  68.533  1.00  0.00    -0.349 A  
HETATM   18  C   UNL     1     -11.912  11.120  69.348  1.00  0.00    -0.420 A  
HETATM   19  C   UNL     1     -12.399  11.310  70.648  1.00  0.00    -0.477 A  
HETATM   20  C   UNL     1     -12.576  12.617  71.103  1.00  0.00    -0.354 A  
HETATM   21  C   UNL     1     -12.274  13.699  70.272  1.00  0.00    -0.423 A  
BRANCH  19  22
HETATM   22  C   UNL     1     -12.795  10.132  71.511  1.00  0.00    -0.548 C  
HETATM   23  C   UNL     1     -11.728   9.121  71.887  1.00  0.00    -0.366 C  
HETATM   24  O   UNL     1     -12.007   8.068  72.458  1.00  0.00    -0.358 OA 
HETATM   25  O   UNL     1     -10.450   9.429  71.595  1.00  0.00    -0.325 OA 
ENDBRANCH  19  22
ENDBRANCH   5   6
ENDBRANCH   4   5
ENDBRANCH   2   4
TORSDOF 4
ENDMDL
MODEL       29
REMARK 921   NORMALIZED FREE ENERGY PREDICTED BY IDOCK:   -5.94 KCAL/MOL
REMARK 922        TOTAL FREE ENERGY PREDICTED BY IDOCK:   -7.89 KCAL/MOL
REMARK 923 INTER-LIGAND FREE ENERGY PREDICTED BY IDOCK:   -7.66 KCAL/MOL
REMARK 924 INTRA-LIGAND FREE ENERGY PREDICTED BY IDOCK:   -0.23 KCAL/MOL
REMARK 927      BINDING AFFINITY PREDICTED BY RF-SCORE:    0.00 PKD
ROOT
HETATM    1  C   UNL     1     -14.342  15.129  71.752  1.00  0.00    -0.597 C  
HETATM    2  N   UNL     1     -13.015  14.588  71.432  1.00  0.00    -0.315 NA 
HETATM    3  C   UNL     1     -12.008  15.250  72.264  1.00  0.00    -0.421 C  
ENDROOT
BRANCH   2   4
HETATM    4  C   UNL     1     -12.943  13.120  71.603  1.00  0.00    -0.335 C  
BRANCH   4   5
HETATM    5  C   UNL     1     -12.338  12.437  70.365  1.00  0.00    -0.307 C  
BRANCH   5   6
HETATM    6  C   UNL     1     -11.889  11.006  70.551  1.00  0.00    -0.464 C  
HETATM    7  C   UNL     1     -11.107  10.303  69.696  1.00  0.00    -0.323 C  
HETATM    8  C   UNL     1     -10.712   8.936  70.101  1.00  0.00    -0.245 A  
HETATM    9  C   UNL     1     -11.646   7.901  70.224  1.00  0.00    -0.022 A  
HETATM   10  C   UNL     1     -11.218   6.607  70.528  1.00  0.00    -0.388 A  
HETATM   11  C   UNL     1      -9.860   6.345  70.706  1.00  0.00    -0.206 A  
HETATM   12  C   UNL     1      -8.926   7.375  70.587  1.00  0.00    -0.155 A  
HETATM   13  C   UNL     1      -9.345   8.678  70.287  1.00  0.00    -0.180 A  
HETATM   14  C   UNL     1      -8.366   9.814  70.140  1.00  0.00    -0.175 C  
HETATM   15  O   UNL     1      -8.172  10.205  68.780  1.00  0.00    -0.101 OA 
HETATM   16  C   UNL     1      -9.181  10.868  68.127  1.00  0.00    -0.158 A  
HETATM   17  C   UNL     1     -10.544  10.918  68.463  1.00  0.00    -0.219 A  
HETATM   18  C   UNL     1     -11.435  11.537  67.557  1.00  0.00    -0.355 A  
HETATM   19  C   UNL     1     -10.986  12.229  66.423  1.00  0.00    -0.326 A  
HETATM   20  C   UNL     1      -9.620  12.209  66.136  1.00  0.00    -0.250 A  
HETATM   21  C   UNL     1      -8.736  11.511  66.963  1.00  0.00    -0.169 A  
BRANCH  19  22
HETATM   22  C   UNL     1     -11.961  12.915  65.492  1.00  0.00    -0.482 C  
HETATM   23  C   UNL     1     -12.043  12.440  64.053  1.00  0.00    -0.475 C  
HETATM   24  O   UNL     1     -12.701  13.044  63.209  1.00  0.00    -0.663 OA 
HETATM   25  O   UNL     1     -11.386  11.308  63.735  1.00  0.00    -0.328 OA 
ENDBRANCH  19  22
ENDBRANCH   5   6
ENDBRANCH   4   5
ENDBRANCH   2   4
TORSDOF 4
ENDMDL
MODEL       30
REMARK 921   NORMALIZED FREE ENERGY PREDICTED BY IDOCK:   -5.93 KCAL/MOL
REMARK 922        TOTAL FREE ENERGY PREDICTED BY IDOCK:   -7.87 KCAL/MOL
REMARK 923 INTER-LIGAND FREE ENERGY PREDICTED BY IDOCK:   -7.26 KCAL/MOL
REMARK 924 INTRA-LIGAND FREE ENERGY PREDICTED BY IDOCK:   -0.61 KCAL/MOL
REMARK 927      BINDING AFFINITY PREDICTED BY RF-SCORE:    0.00 PKD
ROOT
HETATM    1  C   UNL     1     -14.256   8.539  71.976  1.00  0.00    -0.453 C  
HETATM    2  N   UNL     1     -13.096   9.308  72.442  1.00  0.00    -0.423 NA 
HETATM    3  C   UNL     1     -11.869   8.568  72.140  1.00  0.00    -0.379 C  
ENDROOT
BRANCH   2   4
HETATM    4  C   UNL     1     -13.039  10.664  71.853  1.00  0.00    -0.458 C  
BRANCH   4   5
HETATM    5  C   UNL     1     -12.641  10.619  70.369  1.00  0.00    -0.395 C  
BRANCH   5   6
HETATM    6  C   UNL     1     -12.153  11.919  69.773  1.00  0.00    -0.321 C  
HETATM    7  C   UNL     1     -11.257  12.042  68.764  1.00  0.00    -0.316 C  
HETATM    8  C   UNL     1     -10.970  13.406  68.270  1.00  0.00    -0.282 A  
HETATM    9  C   UNL     1     -10.326  14.363  69.064  1.00  0.00    -0.204 A  
HETATM   10  C   UNL     1     -10.001  15.610  68.529  1.00  0.00    -0.211 A  
HETATM   11  C   UNL     1     -10.315  15.904  67.202  1.00  0.00    -0.300 A  
HETATM   12  C   UNL     1     -10.960  14.955  66.408  1.00  0.00    -0.336 A  
HETATM   13  C   UNL     1     -11.294  13.701  66.936  1.00  0.00    -0.345 A  
HETATM   14  C   UNL     1     -11.980  12.646  66.107  1.00  0.00    -0.395 C  
HETATM   15  O   UNL     1     -11.104  11.585  65.726  1.00  0.00    -0.284 OA 
HETATM   16  C   UNL     1     -10.684  10.692  66.681  1.00  0.00    -0.181 A  
HETATM   17  C   UNL     1     -10.683  10.853  68.076  1.00  0.00    -0.263 A  
HETATM   18  C   UNL     1     -10.058   9.860  68.865  1.00  0.00    -0.194 A  
HETATM   19  C   UNL     1      -9.581   8.662  68.316  1.00  0.00    -0.160 A  
HETATM   20  C   UNL     1      -9.638   8.501  66.930  1.00  0.00    -0.257 A  
HETATM   21  C   UNL     1     -10.156   9.518  66.124  1.00  0.00    -0.326 A  
BRANCH  19  22
HETATM   22  C   UNL     1      -8.951   7.600  69.191  1.00  0.00    -0.135 C  
HETATM   23  C   UNL     1      -9.843   6.515  69.764  1.00  0.00    -0.165 C  
HETATM   24  O   UNL     1      -9.430   5.711  70.597  1.00  0.00    -0.158 OA 
HETATM   25  O   UNL     1     -11.109   6.444  69.307  1.00  0.00    -0.320 OA 
ENDBRANCH  19  22
ENDBRANCH   5   6
ENDBRANCH   4   5
ENDBRANCH   2   4
TORSDOF 4
ENDMDL
MODEL       31
REMARK 921   NORMALIZED FREE ENERGY PREDICTED BY IDOCK:   -5.91 KCAL/MOL
REMARK 922        TOTAL FREE ENERGY PREDICTED BY IDOCK:   -7.84 KCAL/MOL
REMARK 923 INTER-LIGAND FREE ENERGY PREDICTED BY IDOCK:   -7.42 KCAL/MOL
REMARK 924 INTRA-LIGAND FREE ENERGY PREDICTED BY IDOCK:   -0.42 KCAL/MOL
REMARK 927      BINDING AFFINITY PREDICTED BY RF-SCORE:    0.00 PKD
ROOT
HETATM    1  C   UNL     1      -5.754  12.023  69.522  1.00  0.00    -0.085 C  
HETATM    2  N   UNL     1      -6.200  13.420  69.470  1.00  0.00    -0.109 NA 
HETATM    3  C   UNL     1      -5.650  14.148  70.615  1.00  0.00    -0.158 C  
ENDROOT
BRANCH   2   4
HETATM    4  C   UNL     1      -5.827  14.089  68.204  1.00  0.00    -0.125 C  
BRANCH   4   5
HETATM    5  C   UNL     1      -7.062  14.394  67.342  1.00  0.00    -0.121 C  
BRANCH   5   6
HETATM    6  C   UNL     1      -7.537  15.829  67.349  1.00  0.00    -0.220 C  
HETATM    7  C   UNL     1      -8.825  16.239  67.236  1.00  0.00    -0.204 C  
HETATM    8  C   UNL     1      -9.090  17.690  67.347  1.00  0.00    -0.239 A  
HETATM    9  C   UNL     1      -8.632  18.603  66.390  1.00  0.00    -0.284 A  
HETATM   10  C   UNL     1      -8.976  19.952  66.491  1.00  0.00    -0.442 A  
HETATM   11  C   UNL     1      -9.780  20.390  67.543  1.00  0.00    -0.571 A  
HETATM   12  C   UNL     1     -10.236  19.484  68.501  1.00  0.00    -0.517 A  
HETATM   13  C   UNL     1      -9.893  18.129  68.411  1.00  0.00    -0.380 A  
HETATM   14  C   UNL     1     -10.375  17.118  69.420  1.00  0.00    -0.195 C  
HETATM   15  O   UNL     1     -11.406  16.273  68.908  1.00  0.00    -0.342 OA 
HETATM   16  C   UNL     1     -11.085  15.323  67.971  1.00  0.00    -0.312 A  
HETATM   17  C   UNL     1      -9.950  15.270  67.144  1.00  0.00    -0.233 A  
HETATM   18  C   UNL     1      -9.900  14.277  66.139  1.00  0.00    -0.335 A  
HETATM   19  C   UNL     1     -10.863  13.263  66.042  1.00  0.00    -0.284 A  
HETATM   20  C   UNL     1     -11.957  13.306  66.908  1.00  0.00    -0.430 A  
HETATM   21  C   UNL     1     -12.078  14.341  67.839  1.00  0.00    -0.296 A  
BRANCH  19  22
HETATM   22  C   UNL     1     -10.761  12.191  64.979  1.00  0.00    -0.338 C  
HETATM   23  C   UNL     1     -11.693  12.268  63.784  1.00  0.00    -0.478 C  
HETATM   24  O   UNL     1     -11.767  11.357  62.962  1.00  0.00    -0.012 OA 
HETATM   25  O   UNL     1     -12.425  13.390  63.638  1.00  0.00    -0.711 OA 
ENDBRANCH  19  22
ENDBRANCH   5   6
ENDBRANCH   4   5
ENDBRANCH   2   4
TORSDOF 4
ENDMDL
MODEL       32
REMARK 921   NORMALIZED FREE ENERGY PREDICTED BY IDOCK:   -5.89 KCAL/MOL
REMARK 922        TOTAL FREE ENERGY PREDICTED BY IDOCK:   -7.82 KCAL/MOL
REMARK 923 INTER-LIGAND FREE ENERGY PREDICTED BY IDOCK:   -7.37 KCAL/MOL
REMARK 924 INTRA-LIGAND FREE ENERGY PREDICTED BY IDOCK:   -0.44 KCAL/MOL
REMARK 927      BINDING AFFINITY PREDICTED BY RF-SCORE:    0.00 PKD
ROOT
HETATM    1  C   UNL     1     -13.812   9.215  72.182  1.00  0.00    -0.446 C  
HETATM    2  N   UNL     1     -12.939  10.071  71.371  1.00  0.00    -0.387 NA 
HETATM    3  C   UNL     1     -13.081  11.462  71.807  1.00  0.00    -0.418 C  
ENDROOT
BRANCH   2   4
HETATM    4  C   UNL     1     -11.520   9.655  71.430  1.00  0.00    -0.385 C  
BRANCH   4   5
HETATM    5  C   UNL     1     -10.815   9.860  70.079  1.00  0.00    -0.339 C  
BRANCH   5   6
HETATM    6  C   UNL     1     -10.617   8.620  69.239  1.00  0.00    -0.204 C  
HETATM    7  C   UNL     1     -10.285   8.596  67.925  1.00  0.00    -0.273 C  
HETATM    8  C   UNL     1     -10.060   7.274  67.303  1.00  0.00    -0.291 A  
HETATM    9  C   UNL     1     -11.094   6.345  67.140  1.00  0.00    -0.422 A  
HETATM   10  C   UNL     1     -10.855   5.143  66.473  1.00  0.00    -0.146 A  
HETATM   11  C   UNL     1      -9.585   4.867  65.965  1.00  0.00    -0.185 A  
HETATM   12  C   UNL     1      -8.549   5.789  66.129  1.00  0.00    -0.135 A  
HETATM   13  C   UNL     1      -8.779   6.996  66.801  1.00  0.00    -0.124 A  
HETATM   14  C   UNL     1      -7.690   8.022  66.987  1.00  0.00    -0.100 C  
HETATM   15  O   UNL     1      -7.847   9.157  66.137  1.00  0.00    -0.101 OA 
HETATM   16  C   UNL     1      -8.857  10.049  66.396  1.00  0.00    -0.143 A  
HETATM   17  C   UNL     1     -10.017   9.846  67.162  1.00  0.00    -0.252 A  
HETATM   18  C   UNL     1     -11.003  10.859  67.167  1.00  0.00    -0.334 A  
HETATM   19  C   UNL     1     -10.795  12.106  66.562  1.00  0.00    -0.307 A  
HETATM   20  C   UNL     1      -9.613  12.304  65.847  1.00  0.00    -0.207 A  
HETATM   21  C   UNL     1      -8.672  11.276  65.743  1.00  0.00    -0.111 A  
BRANCH  19  22
HETATM   22  C   UNL     1     -11.854  13.185  66.618  1.00  0.00    -0.449 C  
HETATM   23  C   UNL     1     -12.755  13.375  65.412  1.00  0.00    -0.426 C  
HETATM   24  O   UNL     1     -13.534  14.322  65.329  1.00  0.00    -0.564 OA 
HETATM   25  O   UNL     1     -12.692  12.447  64.436  1.00  0.00    -0.626 OA 
ENDBRANCH  19  22
ENDBRANCH   5   6
ENDBRANCH   4   5
ENDBRANCH   2   4
TORSDOF 4
ENDMDL
MODEL       33
REMARK 921   NORMALIZED FREE ENERGY PREDICTED BY IDOCK:   -5.88 KCAL/MOL
REMARK 922        TOTAL FREE ENERGY PREDICTED BY IDOCK:   -7.81 KCAL/MOL
REMARK 923 INTER-LIGAND FREE ENERGY PREDICTED BY IDOCK:   -7.29 KCAL/MOL
REMARK 924 INTRA-LIGAND FREE ENERGY PREDICTED BY IDOCK:   -0.52 KCAL/MOL
REMARK 927      BINDING AFFINITY PREDICTED BY RF-SCORE:    0.00 PKD
ROOT
HETATM    1  C   UNL     1     -10.328  14.190  64.908  1.00  0.00    -0.408 C  
HETATM    2  N   UNL     1     -11.449  13.451  64.317  1.00  0.00    -0.384 NA 
HETATM    3  C   UNL     1     -10.929  12.364  63.485  1.00  0.00    -0.450 C  
ENDROOT
BRANCH   2   4
HETATM    4  C   UNL     1     -12.381  12.920  65.337  1.00  0.00    -0.485 C  
BRANCH   4   5
HETATM    5  C   UNL     1     -11.629  12.407  66.576  1.00  0.00    -0.447 C  
BRANCH   5   6
HETATM    6  C   UNL     1     -12.023  13.030  67.895  1.00  0.00    -0.338 C  
HETATM    7  C   UNL     1     -11.174  13.584  68.796  1.00  0.00    -0.311 C  
HETATM    8  C   UNL     1     -11.769  14.214  69.994  1.00  0.00    -0.358 A  
HETATM    9  C   UNL     1     -12.441  13.467  70.968  1.00  0.00    -0.451 A  
HETATM   10  C   UNL     1     -12.914  14.091  72.124  1.00  0.00    -0.458 A  
HETATM   11  C   UNL     1     -12.715  15.459  72.310  1.00  0.00    -0.466 A  
HETATM   12  C   UNL     1     -12.048  16.209  71.340  1.00  0.00    -0.384 A  
HETATM   13  C   UNL     1     -11.573  15.592  70.175  1.00  0.00    -0.366 A  
HETATM   14  C   UNL     1     -10.838  16.365  69.109  1.00  0.00    -0.329 C  
HETATM   15  O   UNL     1      -9.435  16.102  69.102  1.00  0.00    -0.236 OA 
HETATM   16  C   UNL     1      -8.988  14.884  68.657  1.00  0.00    -0.184 A  
HETATM   17  C   UNL     1      -9.712  13.686  68.535  1.00  0.00    -0.184 A  
HETATM   18  C   UNL     1      -9.007  12.508  68.198  1.00  0.00    -0.199 A  
HETATM   19  C   UNL     1      -7.653  12.526  67.838  1.00  0.00    -0.133 A  
HETATM   20  C   UNL     1      -6.964  13.737  67.918  1.00  0.00    -0.158 A  
HETATM   21  C   UNL     1      -7.619  14.893  68.351  1.00  0.00    -0.113 A  
BRANCH  19  22
HETATM   22  C   UNL     1      -6.935  11.253  67.445  1.00  0.00    -0.101 C  
HETATM   23  C   UNL     1      -7.444  10.479  66.243  1.00  0.00    -0.133 C  
HETATM   24  O   UNL     1      -7.004   9.367  65.957  1.00  0.00    -0.087 OA 
HETATM   25  O   UNL     1      -8.384  11.067  65.478  1.00  0.00    -0.132 OA 
ENDBRANCH  19  22
ENDBRANCH   5   6
ENDBRANCH   4   5
ENDBRANCH   2   4
TORSDOF 4
ENDMDL
MODEL       34
REMARK 921   NORMALIZED FREE ENERGY PREDICTED BY IDOCK:   -5.78 KCAL/MOL
REMARK 922        TOTAL FREE ENERGY PREDICTED BY IDOCK:   -7.68 KCAL/MOL
REMARK 923 INTER-LIGAND FREE ENERGY PREDICTED BY IDOCK:   -7.31 KCAL/MOL
REMARK 924 INTRA-LIGAND FREE ENERGY PREDICTED BY IDOCK:   -0.37 KCAL/MOL
REMARK 927      BINDING AFFINITY PREDICTED BY RF-SCORE:    0.00 PKD
ROOT
HETATM    1  C   UNL     1     -10.813  16.449  69.709  1.00  0.00    -0.343 C  
HETATM    2  N   UNL     1      -9.969  16.217  68.531  1.00  0.00    -0.223 NA 
HETATM    3  C   UNL     1      -9.365  17.482  68.109  1.00  0.00    -0.276 C  
ENDROOT
BRANCH   2   4
HETATM    4  C   UNL     1      -8.922  15.199  68.773  1.00  0.00    -0.197 C  
BRANCH   4   5
HETATM    5  C   UNL     1      -9.106  13.973  67.865  1.00  0.00    -0.188 C  
BRANCH   5   6
HETATM    6  C   UNL     1      -9.517  12.693  68.556  1.00  0.00    -0.094 C  
HETATM    7  C   UNL     1     -10.144  11.642  67.972  1.00  0.00    -0.198 C  
HETATM    8  C   UNL     1     -10.389  10.445  68.806  1.00  0.00    -0.213 A  
HETATM    9  C   UNL     1     -11.269  10.468  69.894  1.00  0.00    -0.374 A  
HETATM   10  C   UNL     1     -11.534   9.295  70.602  1.00  0.00    -0.327 A  
HETATM   11  C   UNL     1     -10.923   8.099  70.225  1.00  0.00    -0.240 A  
HETATM   12  C   UNL     1     -10.042   8.072  69.143  1.00  0.00    -0.202 A  
HETATM   13  C   UNL     1      -9.767   9.246  68.428  1.00  0.00    -0.168 A  
HETATM   14  C   UNL     1      -8.830   9.256  67.247  1.00  0.00    -0.124 C  
HETATM   15  O   UNL     1      -9.513   9.368  65.999  1.00  0.00    -0.200 OA 
HETATM   16  C   UNL     1     -10.096  10.565  65.664  1.00  0.00    -0.268 A  
HETATM   17  C   UNL     1     -10.451  11.624  66.516  1.00  0.00    -0.276 A  
HETATM   18  C   UNL     1     -11.184  12.703  65.972  1.00  0.00    -0.345 A  
HETATM   19  C   UNL     1     -11.432  12.821  64.597  1.00  0.00    -0.367 A  
HETATM   20  C   UNL     1     -11.025  11.780  63.762  1.00  0.00    -0.500 A  
HETATM   21  C   UNL     1     -10.393  10.654  64.296  1.00  0.00    -0.325 A  
BRANCH  19  22
HETATM   22  C   UNL     1     -12.187  14.008  64.040  1.00  0.00    -0.395 C  
HETATM   23  C   UNL     1     -11.604  15.394  64.245  1.00  0.00    -0.191 C  
HETATM   24  O   UNL     1     -12.232  16.410  63.950  1.00  0.00    -0.902 OA 
HETATM   25  O   UNL     1     -10.353  15.476  64.739  1.00  0.00    -0.376 OA 
ENDBRANCH  19  22
ENDBRANCH   5   6
ENDBRANCH   4   5
ENDBRANCH   2   4
TORSDOF 4
ENDMDL
MODEL       35
REMARK 921   NORMALIZED FREE ENERGY PREDICTED BY IDOCK:   -5.71 KCAL/MOL
REMARK 922        TOTAL FREE ENERGY PREDICTED BY IDOCK:   -7.60 KCAL/MOL
REMARK 923 INTER-LIGAND FREE ENERGY PREDICTED BY IDOCK:   -6.93 KCAL/MOL
REMARK 924 INTRA-LIGAND FREE ENERGY PREDICTED BY IDOCK:   -0.67 KCAL/MOL
REMARK 927      BINDING AFFINITY PREDICTED BY RF-SCORE:    0.00 PKD
ROOT
HETATM    1  C   UNL     1      -8.411   7.559  65.601  1.00  0.00    -0.132 C  
HETATM    2  N   UNL     1      -8.587   8.234  66.892  1.00  0.00    -0.117 NA 
HETATM    3  C   UNL     1      -8.707   7.232  67.952  1.00  0.00    -0.123 C  
ENDROOT
BRANCH   2   4
HETATM    4  C   UNL     1      -7.487   9.177  67.195  1.00  0.00    -0.087 C  
BRANCH   4   5
HETATM    5  C   UNL     1      -8.022  10.577  67.537  1.00  0.00    -0.107 C  
BRANCH   5   6
HETATM    6  C   UNL     1      -8.960  11.194  66.524  1.00  0.00    -0.185 C  
HETATM    7  C   UNL     1     -10.260  11.512  66.737  1.00  0.00    -0.254 C  
HETATM    8  C   UNL     1     -10.987  12.183  65.638  1.00  0.00    -0.337 A  
HETATM    9  C   UNL     1     -11.261  11.537  64.427  1.00  0.00    -0.327 A  
HETATM   10  C   UNL     1     -12.021  12.180  63.449  1.00  0.00    -0.578 A  
HETATM   11  C   UNL     1     -12.511  13.466  63.679  1.00  0.00    -0.316 A  
HETATM   12  C   UNL     1     -12.238  14.115  64.884  1.00  0.00    -0.451 A  
HETATM   13  C   UNL     1     -11.472  13.480  65.870  1.00  0.00    -0.338 A  
HETATM   14  C   UNL     1     -11.164  14.143  67.188  1.00  0.00    -0.317 C  
HETATM   15  O   UNL     1     -11.918  13.599  68.271  1.00  0.00    -0.354 OA 
HETATM   16  C   UNL     1     -11.615  12.341  68.729  1.00  0.00    -0.330 A  
HETATM   17  C   UNL     1     -10.904  11.326  68.067  1.00  0.00    -0.266 A  
HETATM   18  C   UNL     1     -10.842  10.049  68.669  1.00  0.00    -0.265 A  
HETATM   19  C   UNL     1     -11.331   9.808  69.961  1.00  0.00    -0.269 A  
HETATM   20  C   UNL     1     -11.990  10.846  70.621  1.00  0.00    -0.467 A  
HETATM   21  C   UNL     1     -12.154  12.086  69.998  1.00  0.00    -0.355 A  
BRANCH  19  22
HETATM   22  C   UNL     1     -11.216   8.439  70.595  1.00  0.00    -0.275 C  
HETATM   23  C   UNL     1      -9.992   8.135  71.439  1.00  0.00    -0.180 C  
HETATM   24  O   UNL     1      -9.762   7.004  71.861  1.00  0.00    -0.158 OA 
HETATM   25  O   UNL     1      -9.173   9.162  71.738  1.00  0.00    -0.338 OA 
ENDBRANCH  19  22
ENDBRANCH   5   6
ENDBRANCH   4   5
ENDBRANCH   2   4
TORSDOF 4
ENDMDL
MODEL       36
REMARK 921   NORMALIZED FREE ENERGY PREDICTED BY IDOCK:   -5.68 KCAL/MOL
REMARK 922        TOTAL FREE ENERGY PREDICTED BY IDOCK:   -7.57 KCAL/MOL
REMARK 923 INTER-LIGAND FREE ENERGY PREDICTED BY IDOCK:   -7.06 KCAL/MOL
REMARK 924 INTRA-LIGAND FREE ENERGY PREDICTED BY IDOCK:   -0.51 KCAL/MOL
REMARK 927      BINDING AFFINITY PREDICTED BY RF-SCORE:    0.00 PKD
ROOT
HETATM    1  C   UNL     1     -10.329   4.918  65.972  1.00  0.00    -0.271 C  
HETATM    2  N   UNL     1      -9.851   6.067  66.749  1.00  0.00    -0.155 NA 
HETATM    3  C   UNL     1      -8.793   6.752  66.003  1.00  0.00    -0.135 C  
ENDROOT
BRANCH   2   4
HETATM    4  C   UNL     1     -10.936   7.013  67.092  1.00  0.00    -0.323 C  
BRANCH   4   5
HETATM    5  C   UNL     1     -10.427   8.157  67.985  1.00  0.00    -0.242 C  
BRANCH   5   6
HETATM    6  C   UNL     1      -9.998   7.767  69.380  1.00  0.00    -0.188 C  
HETATM    7  C   UNL     1     -10.216   8.487  70.508  1.00  0.00    -0.220 C  
HETATM    8  C   UNL     1      -9.786   7.892  71.791  1.00  0.00    -0.223 A  
HETATM    9  C   UNL     1      -8.436   7.679  72.094  1.00  0.00    -0.141 A  
HETATM   10  C   UNL     1      -8.071   7.192  73.350  1.00  0.00    -0.128 A  
HETATM   11  C   UNL     1      -9.051   6.920  74.305  1.00  0.00    -0.238 A  
HETATM   12  C   UNL     1     -10.398   7.127  74.006  1.00  0.00    -0.243 A  
HETATM   13  C   UNL     1     -10.775   7.612  72.747  1.00  0.00    -0.401 A  
HETATM   14  C   UNL     1     -12.218   7.860  72.390  1.00  0.00    -0.247 C  
HETATM   15  O   UNL     1     -12.551   9.248  72.360  1.00  0.00    -0.351 OA 
HETATM   16  C   UNL     1     -12.069  10.026  71.338  1.00  0.00    -0.407 A  
HETATM   17  C   UNL     1     -10.984   9.763  70.486  1.00  0.00    -0.384 A  
HETATM   18  C   UNL     1     -10.566  10.781  69.599  1.00  0.00    -0.222 A  
HETATM   19  C   UNL     1     -11.286  11.973  69.438  1.00  0.00    -0.317 A  
HETATM   20  C   UNL     1     -12.392  12.192  70.260  1.00  0.00    -0.269 A  
HETATM   21  C   UNL     1     -12.758  11.242  71.217  1.00  0.00    -0.510 A  
BRANCH  19  22
HETATM   22  C   UNL     1     -10.835  13.028  68.452  1.00  0.00    -0.280 C  
HETATM   23  C   UNL     1     -11.234  12.874  66.996  1.00  0.00    -0.288 C  
HETATM   24  O   UNL     1     -10.783  13.609  66.120  1.00  0.00    -0.282 OA 
HETATM   25  O   UNL     1     -12.129  11.912  66.695  1.00  0.00    -0.587 OA 
ENDBRANCH  19  22
ENDBRANCH   5   6
ENDBRANCH   4   5
ENDBRANCH   2   4
TORSDOF 4
ENDMDL
MODEL       37
REMARK 921   NORMALIZED FREE ENERGY PREDICTED BY IDOCK:   -5.66 KCAL/MOL
REMARK 922        TOTAL FREE ENERGY PREDICTED BY IDOCK:   -7.54 KCAL/MOL
REMARK 923 INTER-LIGAND FREE ENERGY PREDICTED BY IDOCK:   -6.73 KCAL/MOL
REMARK 924 INTRA-LIGAND FREE ENERGY PREDICTED BY IDOCK:   -0.81 KCAL/MOL
REMARK 927      BINDING AFFINITY PREDICTED BY RF-SCORE:    0.00 PKD
ROOT
HETATM    1  C   UNL     1     -10.067   9.335  68.147  1.00  0.00    -0.187 C  
HETATM    2  N   UNL     1      -9.906  10.794  68.143  1.00  0.00    -0.154 NA 
HETATM    3  C   UNL     1     -10.800  11.384  69.142  1.00  0.00    -0.213 C  
ENDROOT
BRANCH   2   4
HETATM    4  C   UNL     1      -8.508  11.212  68.390  1.00  0.00    -0.151 C  
BRANCH   4   5
HETATM    5  C   UNL     1      -8.019  12.205  67.323  1.00  0.00    -0.176 C  
BRANCH   5   6
HETATM    6  C   UNL     1      -8.201  13.670  67.648  1.00  0.00    -0.178 C  
HETATM    7  C   UNL     1      -9.228  14.452  67.237  1.00  0.00    -0.214 C  
HETATM    8  C   UNL     1      -9.264  15.845  67.731  1.00  0.00    -0.201 A  
HETATM    9  C   UNL     1      -8.296  16.787  67.365  1.00  0.00    -0.197 A  
HETATM   10  C   UNL     1      -8.415  18.112  67.788  1.00  0.00    -0.251 A  
HETATM   11  C   UNL     1      -9.500  18.499  68.574  1.00  0.00    -0.375 A  
HETATM   12  C   UNL     1     -10.467  17.562  68.945  1.00  0.00    -0.286 A  
HETATM   13  C   UNL     1     -10.354  16.229  68.528  1.00  0.00    -0.261 A  
HETATM   14  C   UNL     1     -11.382  15.191  68.898  1.00  0.00    -0.301 C  
HETATM   15  O   UNL     1     -12.227  14.834  67.804  1.00  0.00    -0.219 OA 
HETATM   16  C   UNL     1     -11.707  14.086  66.777  1.00  0.00    -0.407 A  
HETATM   17  C   UNL     1     -10.357  13.906  66.435  1.00  0.00    -0.289 A  
HETATM   18  C   UNL     1     -10.056  13.215  65.239  1.00  0.00    -0.250 A  
HETATM   19  C   UNL     1     -11.045  12.580  64.474  1.00  0.00    -0.357 A  
HETATM   20  C   UNL     1     -12.377  12.731  64.861  1.00  0.00    -0.551 A  
HETATM   21  C   UNL     1     -12.702  13.500  65.982  1.00  0.00    -0.307 A  
BRANCH  19  22
HETATM   22  C   UNL     1     -10.688  11.815  63.219  1.00  0.00    -0.414 C  
HETATM   23  C   UNL     1      -9.930  10.508  63.361  1.00  0.00    -0.188 C  
HETATM   24  O   UNL     1      -9.481   9.911  62.385  1.00  0.00    -0.278 OA 
HETATM   25  O   UNL     1      -9.788  10.004  64.603  1.00  0.00    -0.318 OA 
ENDBRANCH  19  22
ENDBRANCH   5   6
ENDBRANCH   4   5
ENDBRANCH   2   4
TORSDOF 4
ENDMDL
MODEL       38
REMARK 921   NORMALIZED FREE ENERGY PREDICTED BY IDOCK:   -5.55 KCAL/MOL
REMARK 922        TOTAL FREE ENERGY PREDICTED BY IDOCK:   -7.40 KCAL/MOL
REMARK 923 INTER-LIGAND FREE ENERGY PREDICTED BY IDOCK:   -7.06 KCAL/MOL
REMARK 924 INTRA-LIGAND FREE ENERGY PREDICTED BY IDOCK:   -0.34 KCAL/MOL
REMARK 927      BINDING AFFINITY PREDICTED BY RF-SCORE:    0.00 PKD
ROOT
HETATM    1  C   UNL     1     -14.397  15.089  71.603  1.00  0.00    -0.584 C  
HETATM    2  N   UNL     1     -13.136  14.404  71.913  1.00  0.00    -0.335 NA 
HETATM    3  C   UNL     1     -12.470  15.093  73.021  1.00  0.00    -0.421 C  
ENDROOT
BRANCH   2   4
HETATM    4  C   UNL     1     -13.331  12.974  72.237  1.00  0.00    -0.506 C  
BRANCH   4   5
HETATM    5  C   UNL     1     -12.615  12.064  71.226  1.00  0.00    -0.357 C  
BRANCH   5   6
HETATM    6  C   UNL     1     -12.525  10.602  71.598  1.00  0.00    -0.416 C  
HETATM    7  C   UNL     1     -11.634   9.710  71.100  1.00  0.00    -0.456 C  
HETATM    8  C   UNL     1     -11.659   8.339  71.654  1.00  0.00    -0.337 A  
HETATM    9  C   UNL     1     -12.747   7.480  71.461  1.00  0.00    -0.391 A  
HETATM   10  C   UNL     1     -12.693   6.167  71.931  1.00  0.00     0.217 A  
HETATM   11  C   UNL     1     -11.553   5.709  72.592  1.00  0.00    -0.307 A  
HETATM   12  C   UNL     1     -10.467   6.563  72.790  1.00  0.00    -0.240 A  
HETATM   13  C   UNL     1     -10.513   7.884  72.325  1.00  0.00    -0.322 A  
HETATM   14  C   UNL     1      -9.356   8.833  72.510  1.00  0.00    -0.007 C  
HETATM   15  O   UNL     1      -8.633   9.066  71.301  1.00  0.00    -0.212 OA 
HETATM   16  C   UNL     1      -9.214   9.820  70.313  1.00  0.00    -0.172 A  
HETATM   17  C   UNL     1     -10.576  10.116  70.135  1.00  0.00    -0.337 A  
HETATM   18  C   UNL     1     -10.967  10.786  68.954  1.00  0.00    -0.289 A  
HETATM   19  C   UNL     1     -10.034  11.294  68.039  1.00  0.00    -0.191 A  
HETATM   20  C   UNL     1      -8.681  11.032  68.262  1.00  0.00    -0.144 A  
HETATM   21  C   UNL     1      -8.282  10.279  69.369  1.00  0.00    -0.171 A  
BRANCH  19  22
HETATM   22  C   UNL     1     -10.482  12.042  66.803  1.00  0.00    -0.243 C  
HETATM   23  C   UNL     1     -10.353  11.355  65.456  1.00  0.00    -0.266 C  
HETATM   24  O   UNL     1     -10.558  11.953  64.402  1.00  0.00    -0.279 OA 
HETATM   25  O   UNL     1     -10.028  10.047  65.455  1.00  0.00    -0.297 OA 
ENDBRANCH  19  22
ENDBRANCH   5   6
ENDBRANCH   4   5
ENDBRANCH   2   4
TORSDOF 4
ENDMDL
MODEL       39
REMARK 921   NORMALIZED FREE ENERGY PREDICTED BY IDOCK:   -5.54 KCAL/MOL
REMARK 922        TOTAL FREE ENERGY PREDICTED BY IDOCK:   -7.39 KCAL/MOL
REMARK 923 INTER-LIGAND FREE ENERGY PREDICTED BY IDOCK:   -6.95 KCAL/MOL
REMARK 924 INTRA-LIGAND FREE ENERGY PREDICTED BY IDOCK:   -0.44 KCAL/MOL
REMARK 927      BINDING AFFINITY PREDICTED BY RF-SCORE:    0.00 PKD
ROOT
HETATM    1  C   UNL     1      -5.911  13.720  68.089  1.00  0.00    -0.123 C  
HETATM    2  N   UNL     1      -5.484  12.496  68.779  1.00  0.00    -0.057 NA 
HETATM    3  C   UNL     1      -5.777  12.618  70.208  1.00  0.00    -0.164 C  
ENDROOT
BRANCH   2   4
HETATM    4  C   UNL     1      -6.119  11.280  68.223  1.00  0.00    -0.045 C  
BRANCH   4   5
HETATM    5  C   UNL     1      -7.612  11.208  68.584  1.00  0.00    -0.127 C  
BRANCH   5   6
HETATM    6  C   UNL     1      -8.579  11.545  67.472  1.00  0.00    -0.143 C  
HETATM    7  C   UNL     1      -9.926  11.403  67.523  1.00  0.00    -0.201 C  
HETATM    8  C   UNL     1     -10.704  11.867  66.354  1.00  0.00    -0.303 A  
HETATM    9  C   UNL     1     -10.606  11.245  65.104  1.00  0.00    -0.343 A  
HETATM   10  C   UNL     1     -11.421  11.662  64.050  1.00  0.00    -0.404 A  
HETATM   11  C   UNL     1     -12.335  12.698  64.243  1.00  0.00    -0.517 A  
HETATM   12  C   UNL     1     -12.434  13.324  65.487  1.00  0.00    -0.531 A  
HETATM   13  C   UNL     1     -11.618  12.914  66.549  1.00  0.00    -0.425 A  
HETATM   14  C   UNL     1     -11.703  13.557  67.910  1.00  0.00    -0.357 C  
HETATM   15  O   UNL     1     -12.350  12.728  68.875  1.00  0.00    -0.073 OA 
HETATM   16  C   UNL     1     -11.698  11.613  69.341  1.00  0.00    -0.340 A  
HETATM   17  C   UNL     1     -10.619  10.933  68.754  1.00  0.00    -0.231 A  
HETATM   18  C   UNL     1     -10.203   9.711  69.331  1.00  0.00    -0.220 A  
HETATM   19  C   UNL     1     -10.727   9.242  70.544  1.00  0.00    -0.313 A  
HETATM   20  C   UNL     1     -11.766   9.961  71.136  1.00  0.00    -0.478 A  
HETATM   21  C   UNL     1     -12.263  11.115  70.524  1.00  0.00    -0.475 A  
BRANCH  19  22
HETATM   22  C   UNL     1     -10.235   7.950  71.157  1.00  0.00    -0.221 C  
HETATM   23  C   UNL     1     -10.963   6.663  70.814  1.00  0.00    -0.270 C  
HETATM   24  O   UNL     1     -10.711   5.605  71.387  1.00  0.00    -0.247 OA 
HETATM   25  O   UNL     1     -11.884   6.714  69.832  1.00  0.00    -0.340 OA 
ENDBRANCH  19  22
ENDBRANCH   5   6
ENDBRANCH   4   5
ENDBRANCH   2   4
TORSDOF 4
ENDMDL
MODEL       40
REMARK 921   NORMALIZED FREE ENERGY PREDICTED BY IDOCK:   -5.50 KCAL/MOL
REMARK 922        TOTAL FREE ENERGY PREDICTED BY IDOCK:   -7.34 KCAL/MOL
REMARK 923 INTER-LIGAND FREE ENERGY PREDICTED BY IDOCK:   -6.91 KCAL/MOL
REMARK 924 INTRA-LIGAND FREE ENERGY PREDICTED BY IDOCK:   -0.43 KCAL/MOL
REMARK 927      BINDING AFFINITY PREDICTED BY RF-SCORE:    0.00 PKD
ROOT
HETATM    1  C   UNL     1     -11.421   8.999  70.741  1.00  0.00    -0.282 C  
HETATM    2  N   UNL     1     -12.391  10.095  70.640  1.00  0.00    -0.299 NA 
HETATM    3  C   UNL     1     -13.102  10.233  71.913  1.00  0.00    -0.463 C  
ENDROOT
BRANCH   2   4
HETATM    4  C   UNL     1     -11.762  11.379  70.259  1.00  0.00    -0.306 C  
BRANCH   4   5
HETATM    5  C   UNL     1     -12.009  11.711  68.779  1.00  0.00    -0.326 C  
BRANCH   5   6
HETATM    6  C   UNL     1     -11.538  13.071  68.317  1.00  0.00    -0.375 C  
HETATM    7  C   UNL     1     -10.860  13.330  67.172  1.00  0.00    -0.268 C  
HETATM    8  C   UNL     1     -10.559  14.744  66.862  1.00  0.00    -0.294 A  
HETATM    9  C   UNL     1      -9.683  15.504  67.646  1.00  0.00    -0.212 A  
HETATM   10  C   UNL     1      -9.363  16.810  67.270  1.00  0.00    -0.234 A  
HETATM   11  C   UNL     1      -9.915  17.356  66.110  1.00  0.00    -0.281 A  
HETATM   12  C   UNL     1     -10.791  16.603  65.328  1.00  0.00    -0.194 A  
HETATM   13  C   UNL     1     -11.121  15.293  65.700  1.00  0.00    -0.308 A  
HETATM   14  C   UNL     1     -12.054  14.444  64.875  1.00  0.00    -0.436 C  
HETATM   15  O   UNL     1     -11.374  13.426  64.141  1.00  0.00    -0.378 OA 
HETATM   16  C   UNL     1     -10.850  12.354  64.819  1.00  0.00    -0.304 A  
HETATM   17  C   UNL     1     -10.548  12.257  66.187  1.00  0.00    -0.281 A  
HETATM   18  C   UNL     1      -9.867  11.106  66.643  1.00  0.00    -0.231 A  
HETATM   19  C   UNL     1      -9.622  10.004  65.812  1.00  0.00    -0.291 A  
HETATM   20  C   UNL     1      -9.976  10.103  64.465  1.00  0.00    -0.275 A  
HETATM   21  C   UNL     1     -10.555  11.275  63.972  1.00  0.00    -0.450 A  
BRANCH  19  22
HETATM   22  C   UNL     1      -8.925   8.770  66.339  1.00  0.00    -0.194 C  
HETATM   23  C   UNL     1      -7.454   8.579  66.020  1.00  0.00    -0.085 C  
HETATM   24  O   UNL     1      -6.864   7.535  66.289  1.00  0.00    -0.058 OA 
HETATM   25  O   UNL     1      -6.802   9.613  65.452  1.00  0.00    -0.085 OA 
ENDBRANCH  19  22
ENDBRANCH   5   6
ENDBRANCH   4   5
ENDBRANCH   2   4
TORSDOF 4
ENDMDL
MODEL       41
REMARK 921   NORMALIZED FREE ENERGY PREDICTED BY IDOCK:   -5.50 KCAL/MOL
REMARK 922        TOTAL FREE ENERGY PREDICTED BY IDOCK:   -7.34 KCAL/MOL
REMARK 923 INTER-LIGAND FREE ENERGY PREDICTED BY IDOCK:   -7.08 KCAL/MOL
REMARK 924 INTRA-LIGAND FREE ENERGY PREDICTED BY IDOCK:   -0.26 KCAL/MOL
REMARK 927      BINDING AFFINITY PREDICTED BY RF-SCORE:    0.00 PKD
ROOT
HETATM    1  C   UNL     1     -10.388   9.381  71.164  1.00  0.00    -0.307 C  
HETATM    2  N   UNL     1     -11.347  10.088  70.307  1.00  0.00    -0.286 NA 
HETATM    3  C   UNL     1     -12.469  10.559  71.121  1.00  0.00    -0.412 C  
ENDROOT
BRANCH   2   4
HETATM    4  C   UNL     1     -10.730  11.217  69.575  1.00  0.00    -0.095 C  
BRANCH   4   5
HETATM    5  C   UNL     1     -10.494  10.869  68.096  1.00  0.00    -0.211 C  
BRANCH   5   6
HETATM    6  C   UNL     1     -10.273   9.406  67.787  1.00  0.00    -0.273 C  
HETATM    7  C   UNL     1     -10.015   8.883  66.563  1.00  0.00    -0.358 C  
HETATM    8  C   UNL     1      -9.749   7.431  66.484  1.00  0.00    -0.225 A  
HETATM    9  C   UNL     1     -10.735   6.480  66.770  1.00  0.00    -0.344 A  
HETATM   10  C   UNL     1     -10.464   5.121  66.603  1.00  0.00    -0.328 A  
HETATM   11  C   UNL     1      -9.211   4.710  66.147  1.00  0.00    -0.140 A  
HETATM   12  C   UNL     1      -8.224   5.655  65.864  1.00  0.00    -0.119 A  
HETATM   13  C   UNL     1      -8.485   7.021  66.033  1.00  0.00    -0.141 A  
HETATM   14  C   UNL     1      -7.448   8.072  65.727  1.00  0.00    -0.081 C  
HETATM   15  O   UNL     1      -7.720   8.782  64.519  1.00  0.00    -0.109 OA 
HETATM   16  C   UNL     1      -8.764   9.672  64.489  1.00  0.00    -0.202 A  
HETATM   17  C   UNL     1      -9.864   9.746  65.360  1.00  0.00    -0.365 A  
HETATM   18  C   UNL     1     -10.906  10.650  65.047  1.00  0.00     0.058 A  
HETATM   19  C   UNL     1     -10.806  11.570  63.994  1.00  0.00    -0.453 A  
HETATM   20  C   UNL     1      -9.680  11.511  63.172  1.00  0.00    -0.412 A  
HETATM   21  C   UNL     1      -8.689  10.554  63.401  1.00  0.00    -0.190 A  
BRANCH  19  22
HETATM   22  C   UNL     1     -11.922  12.551  63.709  1.00  0.00    -0.598 C  
HETATM   23  C   UNL     1     -11.731  14.000  64.116  1.00  0.00    -0.315 C  
HETATM   24  O   UNL     1     -12.647  14.817  64.049  1.00  0.00    -0.822 OA 
HETATM   25  O   UNL     1     -10.504  14.372  64.531  1.00  0.00    -0.349 OA 
ENDBRANCH  19  22
ENDBRANCH   5   6
ENDBRANCH   4   5
ENDBRANCH   2   4
TORSDOF 4
ENDMDL
MODEL       42
REMARK 921   NORMALIZED FREE ENERGY PREDICTED BY IDOCK:   -5.48 KCAL/MOL
REMARK 922        TOTAL FREE ENERGY PREDICTED BY IDOCK:   -7.31 KCAL/MOL
REMARK 923 INTER-LIGAND FREE ENERGY PREDICTED BY IDOCK:   -6.70 KCAL/MOL
REMARK 924 INTRA-LIGAND FREE ENERGY PREDICTED BY IDOCK:   -0.62 KCAL/MOL
REMARK 927      BINDING AFFINITY PREDICTED BY RF-SCORE:    0.00 PKD
ROOT
HETATM    1  C   UNL     1     -12.201  13.416  70.503  1.00  0.00    -0.352 C  
HETATM    2  N   UNL     1     -11.457  13.975  69.368  1.00  0.00    -0.276 NA 
HETATM    3  C   UNL     1     -12.401  14.487  68.373  1.00  0.00     0.024 C  
ENDROOT
BRANCH   2   4
HETATM    4  C   UNL     1     -10.511  15.037  69.777  1.00  0.00    -0.186 C  
BRANCH   4   5
HETATM    5  C   UNL     1      -9.106  14.793  69.202  1.00  0.00    -0.085 C  
BRANCH   5   6
HETATM    6  C   UNL     1      -8.462  15.968  68.504  1.00  0.00    -0.189 C  
HETATM    7  C   UNL     1      -8.624  16.303  67.200  1.00  0.00    -0.207 C  
HETATM    8  C   UNL     1      -7.968  17.540  66.727  1.00  0.00    -0.273 A  
HETATM    9  C   UNL     1      -6.575  17.665  66.667  1.00  0.00    -0.243 A  
HETATM   10  C   UNL     1      -5.999  18.820  66.137  1.00  0.00    -0.198 A  
HETATM   11  C   UNL     1      -6.812  19.850  65.662  1.00  0.00    -0.315 A  
HETATM   12  C   UNL     1      -8.201  19.732  65.722  1.00  0.00    -0.111 A  
HETATM   13  C   UNL     1      -8.788  18.578  66.257  1.00  0.00    -0.221 A  
HETATM   14  C   UNL     1     -10.284  18.408  66.329  1.00  0.00    -0.406 C  
HETATM   15  O   UNL     1     -10.784  17.488  65.359  1.00  0.00    -0.612 OA 
HETATM   16  C   UNL     1     -10.532  16.148  65.519  1.00  0.00    -0.386 A  
HETATM   17  C   UNL     1      -9.538  15.541  66.304  1.00  0.00    -0.338 A  
HETATM   18  C   UNL     1      -9.361  14.143  66.198  1.00  0.00    -0.166 A  
HETATM   19  C   UNL     1     -10.235  13.334  65.459  1.00  0.00    -0.298 A  
HETATM   20  C   UNL     1     -11.248  13.954  64.726  1.00  0.00    -0.369 A  
HETATM   21  C   UNL     1     -11.373  15.345  64.735  1.00  0.00    -0.381 A  
BRANCH  19  22
HETATM   22  C   UNL     1     -10.043  11.834  65.396  1.00  0.00    -0.291 C  
HETATM   23  C   UNL     1      -9.697  11.206  64.059  1.00  0.00    -0.283 C  
HETATM   24  O   UNL     1      -9.672   9.987  63.904  1.00  0.00    -0.257 OA 
HETATM   25  O   UNL     1      -9.390  12.037  63.043  1.00  0.00    -0.281 OA 
ENDBRANCH  19  22
ENDBRANCH   5   6
ENDBRANCH   4   5
ENDBRANCH   2   4
TORSDOF 4
ENDMDL
MODEL       43
REMARK 921   NORMALIZED FREE ENERGY PREDICTED BY IDOCK:   -5.47 KCAL/MOL
REMARK 922        TOTAL FREE ENERGY PREDICTED BY IDOCK:   -7.30 KCAL/MOL
REMARK 923 INTER-LIGAND FREE ENERGY PREDICTED BY IDOCK:   -6.86 KCAL/MOL
REMARK 924 INTRA-LIGAND FREE ENERGY PREDICTED BY IDOCK:   -0.44 KCAL/MOL
REMARK 927      BINDING AFFINITY PREDICTED BY RF-SCORE:    0.00 PKD
ROOT
HETATM    1  C   UNL     1     -13.273  10.286  71.618  1.00  0.00    -0.408 C  
HETATM    2  N   UNL     1     -11.850   9.938  71.701  1.00  0.00    -0.359 NA 
HETATM    3  C   UNL     1     -11.715   8.542  72.122  1.00  0.00    -0.378 C  
ENDROOT
BRANCH   2   4
HETATM    4  C   UNL     1     -11.134  10.164  70.425  1.00  0.00    -0.324 C  
BRANCH   4   5
HETATM    5  C   UNL     1     -11.940  11.068  69.479  1.00  0.00    -0.413 C  
BRANCH   5   6
HETATM    6  C   UNL     1     -11.413  12.473  69.296  1.00  0.00    -0.353 C  
HETATM    7  C   UNL     1     -10.769  12.943  68.200  1.00  0.00    -0.258 C  
HETATM    8  C   UNL     1     -10.402  14.375  68.186  1.00  0.00    -0.231 A  
HETATM    9  C   UNL     1      -9.454  14.906  69.068  1.00  0.00    -0.196 A  
HETATM   10  C   UNL     1      -9.077  16.246  68.965  1.00  0.00    -0.255 A  
HETATM   11  C   UNL     1      -9.644  17.056  67.981  1.00  0.00    -0.260 A  
HETATM   12  C   UNL     1     -10.592  16.532  67.101  1.00  0.00    -0.270 A  
HETATM   13  C   UNL     1     -10.980  15.189  67.200  1.00  0.00    -0.326 A  
HETATM   14  C   UNL     1     -11.992  14.584  66.261  1.00  0.00    -0.322 C  
HETATM   15  O   UNL     1     -11.401  13.719  65.292  1.00  0.00    -0.297 OA 
HETATM   16  C   UNL     1     -10.910  12.503  65.694  1.00  0.00    -0.277 A  
HETATM   17  C   UNL     1     -10.559  12.097  66.993  1.00  0.00    -0.256 A  
HETATM   18  C   UNL     1      -9.925  10.844  67.154  1.00  0.00    -0.221 A  
HETATM   19  C   UNL     1      -9.777   9.939  66.094  1.00  0.00    -0.297 A  
HETATM   20  C   UNL     1     -10.179  10.344  64.820  1.00  0.00    -0.319 A  
HETATM   21  C   UNL     1     -10.711  11.621  64.622  1.00  0.00    -0.371 A  
BRANCH  19  22
HETATM   22  C   UNL     1      -9.129   8.589  66.306  1.00  0.00    -0.232 C  
HETATM   23  C   UNL     1      -7.686   8.404  65.873  1.00  0.00    -0.086 C  
HETATM   24  O   UNL     1      -7.146   7.300  65.880  1.00  0.00    -0.063 OA 
HETATM   25  O   UNL     1      -7.002   9.504  65.503  1.00  0.00    -0.084 OA 
ENDBRANCH  19  22
ENDBRANCH   5   6
ENDBRANCH   4   5
ENDBRANCH   2   4
TORSDOF 4
ENDMDL
MODEL       44
REMARK 921   NORMALIZED FREE ENERGY PREDICTED BY IDOCK:   -5.42 KCAL/MOL
REMARK 922        TOTAL FREE ENERGY PREDICTED BY IDOCK:   -7.23 KCAL/MOL
REMARK 923 INTER-LIGAND FREE ENERGY PREDICTED BY IDOCK:   -7.21 KCAL/MOL
REMARK 924 INTRA-LIGAND FREE ENERGY PREDICTED BY IDOCK:   -0.03 KCAL/MOL
REMARK 927      BINDING AFFINITY PREDICTED BY RF-SCORE:    0.00 PKD
ROOT
HETATM    1  C   UNL     1     -13.444  15.953  73.186  1.00  0.00    -0.563 C  
HETATM    2  N   UNL     1     -12.803  15.192  72.107  1.00  0.00    -0.321 NA 
HETATM    3  C   UNL     1     -11.350  15.349  72.200  1.00  0.00    -0.356 C  
ENDROOT
BRANCH   2   4
HETATM    4  C   UNL     1     -13.170  13.759  72.126  1.00  0.00    -0.447 C  
BRANCH   4   5
HETATM    5  C   UNL     1     -12.988  13.112  70.744  1.00  0.00    -0.073 C  
BRANCH   5   6
HETATM    6  C   UNL     1     -12.362  13.984  69.681  1.00  0.00    -0.309 C  
HETATM    7  C   UNL     1     -11.558  13.557  68.676  1.00  0.00    -0.365 C  
HETATM    8  C   UNL     1     -11.110  14.562  67.688  1.00  0.00    -0.314 A  
HETATM    9  C   UNL     1     -10.252  15.612  68.035  1.00  0.00    -0.227 A  
HETATM   10  C   UNL     1      -9.788  16.489  67.053  1.00  0.00    -0.259 A  
HETATM   11  C   UNL     1     -10.177  16.317  65.725  1.00  0.00    -0.390 A  
HETATM   12  C   UNL     1     -11.035  15.274  65.374  1.00  0.00    -0.380 A  
HETATM   13  C   UNL     1     -11.509  14.391  66.354  1.00  0.00    -0.365 A  
HETATM   14  C   UNL     1     -12.428  13.245  66.013  1.00  0.00    -0.321 C  
HETATM   15  O   UNL     1     -11.769  11.979  66.045  1.00  0.00    -0.460 OA 
HETATM   16  C   UNL     1     -11.404  11.448  67.257  1.00  0.00    -0.275 A  
HETATM   17  C   UNL     1     -11.245  12.115  68.483  1.00  0.00    -0.307 A  
HETATM   18  C   UNL     1     -10.711  11.392  69.574  1.00  0.00    -0.098 A  
HETATM   19  C   UNL     1     -10.481  10.011  69.514  1.00  0.00    -0.260 A  
HETATM   20  C   UNL     1     -10.695   9.358  68.299  1.00  0.00    -0.220 A  
HETATM   21  C   UNL     1     -11.122  10.076  67.179  1.00  0.00    -0.065 A  
BRANCH  19  22
HETATM   22  C   UNL     1      -9.945   9.257  70.712  1.00  0.00    -0.357 C  
HETATM   23  C   UNL     1      -8.456   9.321  70.997  1.00  0.00    -0.089 C  
HETATM   24  O   UNL     1      -7.932   8.620  71.860  1.00  0.00    -0.204 OA 
HETATM   25  O   UNL     1      -7.724  10.200  70.285  1.00  0.00    -0.184 OA 
ENDBRANCH  19  22
ENDBRANCH   5   6
ENDBRANCH   4   5
ENDBRANCH   2   4
TORSDOF 4
ENDMDL
MODEL       45
REMARK 921   NORMALIZED FREE ENERGY PREDICTED BY IDOCK:   -5.36 KCAL/MOL
REMARK 922        TOTAL FREE ENERGY PREDICTED BY IDOCK:   -7.16 KCAL/MOL
REMARK 923 INTER-LIGAND FREE ENERGY PREDICTED BY IDOCK:   -6.71 KCAL/MOL
REMARK 924 INTRA-LIGAND FREE ENERGY PREDICTED BY IDOCK:   -0.45 KCAL/MOL
REMARK 927      BINDING AFFINITY PREDICTED BY RF-SCORE:    0.00 PKD
ROOT
HETATM    1  C   UNL     1      -8.042   8.801  63.824  1.00  0.00    -0.165 C  
HETATM    2  N   UNL     1      -8.421  10.207  63.646  1.00  0.00    -0.172 NA 
HETATM    3  C   UNL     1      -7.879  10.699  62.377  1.00  0.00    -0.168 C  
ENDROOT
BRANCH   2   4
HETATM    4  C   UNL     1      -9.886  10.412  63.695  1.00  0.00    -0.223 C  
BRANCH   4   5
HETATM    5  C   UNL     1     -10.301  11.216  64.938  1.00  0.00    -0.375 C  
BRANCH   5   6
HETATM    6  C   UNL     1      -9.963  10.593  66.273  1.00  0.00    -0.274 C  
HETATM    7  C   UNL     1     -10.005  11.221  67.474  1.00  0.00    -0.203 C  
HETATM    8  C   UNL     1      -9.714  10.410  68.677  1.00  0.00    -0.178 A  
HETATM    9  C   UNL     1      -8.446   9.867  68.915  1.00  0.00    -0.127 A  
HETATM   10  C   UNL     1      -8.194   9.179  70.103  1.00  0.00    -0.161 A  
HETATM   11  C   UNL     1      -9.204   9.035  71.055  1.00  0.00    -0.331 A  
HETATM   12  C   UNL     1     -10.470   9.573  70.820  1.00  0.00    -0.384 A  
HETATM   13  C   UNL     1     -10.734  10.262  69.629  1.00  0.00    -0.299 A  
HETATM   14  C   UNL     1     -12.085  10.867  69.343  1.00  0.00    -0.290 C  
HETATM   15  O   UNL     1     -12.092  12.289  69.465  1.00  0.00    -0.273 OA 
HETATM   16  C   UNL     1     -11.451  13.042  68.513  1.00  0.00    -0.304 A  
HETATM   17  C   UNL     1     -10.460  12.632  67.606  1.00  0.00    -0.226 A  
HETATM   18  C   UNL     1      -9.827  13.617  66.815  1.00  0.00    -0.271 A  
HETATM   19  C   UNL     1     -10.257  14.951  66.798  1.00  0.00    -0.259 A  
HETATM   20  C   UNL     1     -11.278  15.327  67.672  1.00  0.00    -0.320 A  
HETATM   21  C   UNL     1     -11.845  14.388  68.538  1.00  0.00    -0.369 A  
BRANCH  19  22
HETATM   22  C   UNL     1      -9.583  15.976  65.912  1.00  0.00    -0.370 C  
HETATM   23  C   UNL     1      -8.555  16.903  66.532  1.00  0.00    -0.270 C  
HETATM   24  O   UNL     1      -8.079  17.850  65.909  1.00  0.00    -0.524 OA 
HETATM   25  O   UNL     1      -8.156  16.635  67.791  1.00  0.00    -0.172 OA 
ENDBRANCH  19  22
ENDBRANCH   5   6
ENDBRANCH   4   5
ENDBRANCH   2   4
TORSDOF 4
ENDMDL
MODEL       46
REMARK 921   NORMALIZED FREE ENERGY PREDICTED BY IDOCK:   -5.35 KCAL/MOL
REMARK 922        TOTAL FREE ENERGY PREDICTED BY IDOCK:   -7.15 KCAL/MOL
REMARK 923 INTER-LIGAND FREE ENERGY PREDICTED BY IDOCK:   -6.65 KCAL/MOL
REMARK 924 INTRA-LIGAND FREE ENERGY PREDICTED BY IDOCK:   -0.50 KCAL/MOL
REMARK 927      BINDING AFFINITY PREDICTED BY RF-SCORE:    0.00 PKD
ROOT
HETATM    1  C   UNL     1     -12.401  13.830  71.251  1.00  0.00    -0.308 C  
HETATM    2  N   UNL     1     -12.107  15.246  71.002  1.00  0.00    -0.310 NA 
HETATM    3  C   UNL     1     -12.209  15.991  72.258  1.00  0.00    -0.519 C  
ENDROOT
BRANCH   2   4
HETATM    4  C   UNL     1     -10.777  15.450  70.387  1.00  0.00    -0.286 C  
BRANCH   4   5
HETATM    5  C   UNL     1     -10.878  16.249  69.077  1.00  0.00    -0.315 C  
BRANCH   5   6
HETATM    6  C   UNL     1     -11.366  15.482  67.870  1.00  0.00    -0.309 C  
HETATM    7  C   UNL     1     -10.591  14.772  67.014  1.00  0.00    -0.290 C  
HETATM    8  C   UNL     1     -11.274  14.024  65.936  1.00  0.00    -0.308 A  
HETATM    9  C   UNL     1     -11.958  14.674  64.902  1.00  0.00    -0.402 A  
HETATM   10  C   UNL     1     -12.518  13.932  63.861  1.00  0.00    -0.221 A  
HETATM   11  C   UNL     1     -12.392  12.542  63.848  1.00  0.00    -0.576 A  
HETATM   12  C   UNL     1     -11.713  11.890  64.879  1.00  0.00    -0.262 A  
HETATM   13  C   UNL     1     -11.152  12.626  65.931  1.00  0.00    -0.323 A  
HETATM   14  C   UNL     1     -10.401  11.960  67.055  1.00  0.00    -0.212 C  
HETATM   15  O   UNL     1      -8.989  12.147  66.966  1.00  0.00    -0.187 OA 
HETATM   16  C   UNL     1      -8.463  13.387  67.227  1.00  0.00    -0.200 A  
HETATM   17  C   UNL     1      -9.124  14.627  67.222  1.00  0.00    -0.215 A  
HETATM   18  C   UNL     1      -8.349  15.800  67.369  1.00  0.00    -0.189 A  
HETATM   19  C   UNL     1      -6.980  15.758  67.669  1.00  0.00    -0.194 A  
HETATM   20  C   UNL     1      -6.353  14.512  67.720  1.00  0.00    -0.169 A  
HETATM   21  C   UNL     1      -7.083  13.346  67.472  1.00  0.00    -0.154 A  
BRANCH  19  22
HETATM   22  C   UNL     1      -6.185  17.031  67.860  1.00  0.00    -0.147 C  
HETATM   23  C   UNL     1      -5.853  17.471  69.274  1.00  0.00    -0.215 C  
HETATM   24  O   UNL     1      -5.341  18.563  69.508  1.00  0.00    -0.191 OA 
HETATM   25  O   UNL     1      -6.117  16.604  70.272  1.00  0.00    -0.151 OA 
ENDBRANCH  19  22
ENDBRANCH   5   6
ENDBRANCH   4   5
ENDBRANCH   2   4
TORSDOF 4
ENDMDL
MODEL       47
REMARK 921   NORMALIZED FREE ENERGY PREDICTED BY IDOCK:   -5.34 KCAL/MOL
REMARK 922        TOTAL FREE ENERGY PREDICTED BY IDOCK:   -7.14 KCAL/MOL
REMARK 923 INTER-LIGAND FREE ENERGY PREDICTED BY IDOCK:   -6.82 KCAL/MOL
REMARK 924 INTRA-LIGAND FREE ENERGY PREDICTED BY IDOCK:   -0.32 KCAL/MOL
REMARK 927      BINDING AFFINITY PREDICTED BY RF-SCORE:    0.00 PKD
ROOT
HETATM    1  C   UNL     1     -11.446  15.835  70.428  1.00  0.00    -0.365 C  
HETATM    2  N   UNL     1     -11.581  14.852  71.509  1.00  0.00    -0.339 NA 
HETATM    3  C   UNL     1     -12.233  15.481  72.660  1.00  0.00    -0.420 C  
ENDROOT
BRANCH   2   4
HETATM    4  C   UNL     1     -12.329  13.645  71.090  1.00  0.00    -0.318 C  
BRANCH   4   5
HETATM    5  C   UNL     1     -12.192  13.392  69.580  1.00  0.00    -0.279 C  
BRANCH   5   6
HETATM    6  C   UNL     1     -11.637  12.044  69.182  1.00  0.00    -0.370 C  
HETATM    7  C   UNL     1     -10.570  11.833  68.373  1.00  0.00    -0.239 C  
HETATM    8  C   UNL     1     -10.135  10.434  68.169  1.00  0.00    -0.179 A  
HETATM    9  C   UNL     1     -10.931   9.501  67.494  1.00  0.00    -0.125 A  
HETATM   10  C   UNL     1     -10.447   8.215  67.252  1.00  0.00    -0.379 A  
HETATM   11  C   UNL     1      -9.167   7.860  67.679  1.00  0.00    -0.147 A  
HETATM   12  C   UNL     1      -8.371   8.785  68.355  1.00  0.00    -0.126 A  
HETATM   13  C   UNL     1      -8.850  10.078  68.606  1.00  0.00    -0.132 A  
HETATM   14  C   UNL     1      -8.017  11.109  69.323  1.00  0.00     0.025 C  
HETATM   15  O   UNL     1      -7.508  12.115  68.447  1.00  0.00    -0.102 OA 
HETATM   16  C   UNL     1      -8.373  13.044  67.925  1.00  0.00    -0.170 A  
HETATM   17  C   UNL     1      -9.772  12.961  67.818  1.00  0.00    -0.214 A  
HETATM   18  C   UNL     1     -10.450  13.973  67.102  1.00  0.00    -0.270 A  
HETATM   19  C   UNL     1      -9.797  15.122  66.633  1.00  0.00    -0.265 A  
HETATM   20  C   UNL     1      -8.413  15.206  66.795  1.00  0.00    -0.272 A  
HETATM   21  C   UNL     1      -7.710  14.165  67.407  1.00  0.00    -0.189 A  
BRANCH  19  22
HETATM   22  C   UNL     1     -10.557  16.207  65.903  1.00  0.00    -0.322 C  
HETATM   23  C   UNL     1     -11.209  15.865  64.576  1.00  0.00    -0.312 C  
HETATM   24  O   UNL     1     -11.714  16.729  63.862  1.00  0.00    -1.076 OA 
HETATM   25  O   UNL     1     -11.241  14.567  64.216  1.00  0.00    -0.240 OA 
ENDBRANCH  19  22
ENDBRANCH   5   6
ENDBRANCH   4   5
ENDBRANCH   2   4
TORSDOF 4
ENDMDL
MODEL       48
REMARK 921   NORMALIZED FREE ENERGY PREDICTED BY IDOCK:   -5.34 KCAL/MOL
REMARK 922        TOTAL FREE ENERGY PREDICTED BY IDOCK:   -7.14 KCAL/MOL
REMARK 923 INTER-LIGAND FREE ENERGY PREDICTED BY IDOCK:   -7.58 KCAL/MOL
REMARK 924 INTRA-LIGAND FREE ENERGY PREDICTED BY IDOCK:    0.44 KCAL/MOL
REMARK 927      BINDING AFFINITY PREDICTED BY RF-SCORE:    0.00 PKD
ROOT
HETATM    1  C   UNL     1     -11.171  11.672  64.604  1.00  0.00    -0.253 C  
HETATM    2  N   UNL     1     -10.394  10.550  65.143  1.00  0.00    -0.284 NA 
HETATM    3  C   UNL     1      -9.170  10.384  64.357  1.00  0.00    -0.251 C  
ENDROOT
BRANCH   2   4
HETATM    4  C   UNL     1     -10.067  10.721  66.577  1.00  0.00    -0.228 C  
BRANCH   4   5
HETATM    5  C   UNL     1     -10.893   9.773  67.461  1.00  0.00    -0.286 C  
BRANCH   5   6
HETATM    6  C   UNL     1     -10.103   8.852  68.362  1.00  0.00    -0.215 C  
HETATM    7  C   UNL     1     -10.250   8.737  69.705  1.00  0.00    -0.210 C  
HETATM    8  C   UNL     1      -9.433   7.716  70.395  1.00  0.00    -0.164 A  
HETATM    9  C   UNL     1      -8.039   7.813  70.476  1.00  0.00    -0.103 A  
HETATM   10  C   UNL     1      -7.315   6.871  71.209  1.00  0.00    -0.081 A  
HETATM   11  C   UNL     1      -7.981   5.834  71.863  1.00  0.00    -0.107 A  
HETATM   12  C   UNL     1      -9.370   5.732  71.783  1.00  0.00    -0.163 A  
HETATM   13  C   UNL     1     -10.106   6.671  71.046  1.00  0.00    -0.207 A  
HETATM   14  C   UNL     1     -11.608   6.601  70.945  1.00  0.00    -0.361 C  
HETATM   15  O   UNL     1     -12.263   7.597  71.731  1.00  0.00    -0.290 OA 
HETATM   16  C   UNL     1     -12.204   8.908  71.330  1.00  0.00    -0.318 A  
HETATM   17  C   UNL     1     -11.289   9.504  70.447  1.00  0.00    -0.318 A  
HETATM   18  C   UNL     1     -11.321  10.909  70.296  1.00  0.00    -0.342 A  
HETATM   19  C   UNL     1     -12.323  11.699  70.875  1.00  0.00    -0.436 A  
HETATM   20  C   UNL     1     -13.254  11.078  71.709  1.00  0.00    -0.505 A  
HETATM   21  C   UNL     1     -13.174   9.705  71.955  1.00  0.00    -0.538 A  
BRANCH  19  22
HETATM   22  C   UNL     1     -12.354  13.197  70.664  1.00  0.00    -0.405 C  
HETATM   23  C   UNL     1     -13.300  14.027  71.511  1.00  0.00    -0.350 C  
HETATM   24  O   UNL     1     -13.484  15.223  71.293  1.00  0.00    -0.454 OA 
HETATM   25  O   UNL     1     -13.919  13.410  72.537  1.00  0.00    -0.707 OA 
ENDBRANCH  19  22
ENDBRANCH   5   6
ENDBRANCH   4   5
ENDBRANCH   2   4
TORSDOF 4
ENDMDL
MODEL       49
REMARK 921   NORMALIZED FREE ENERGY PREDICTED BY IDOCK:   -5.29 KCAL/MOL
REMARK 922        TOTAL FREE ENERGY PREDICTED BY IDOCK:   -7.08 KCAL/MOL
REMARK 923 INTER-LIGAND FREE ENERGY PREDICTED BY IDOCK:   -6.48 KCAL/MOL
REMARK 924 INTRA-LIGAND FREE ENERGY PREDICTED BY IDOCK:   -0.60 KCAL/MOL
REMARK 927      BINDING AFFINITY PREDICTED BY RF-SCORE:    0.00 PKD
ROOT
HETATM    1  C   UNL     1      -5.500  10.831  65.311  1.00  0.00    -0.124 C  
HETATM    2  N   UNL     1      -6.318  10.208  64.264  1.00  0.00    -0.132 NA 
HETATM    3  C   UNL     1      -5.620  10.302  62.981  1.00  0.00    -0.135 C  
ENDROOT
BRANCH   2   4
HETATM    4  C   UNL     1      -6.653   8.798  64.568  1.00  0.00    -0.070 C  
BRANCH   4   5
HETATM    5  C   UNL     1      -8.170   8.557  64.523  1.00  0.00    -0.158 C  
BRANCH   5   6
HETATM    6  C   UNL     1      -9.030   9.780  64.300  1.00  0.00    -0.276 C  
HETATM    7  C   UNL     1      -9.913  10.301  65.186  1.00  0.00    -0.395 C  
HETATM    8  C   UNL     1     -10.601  11.554  64.806  1.00  0.00    -0.362 A  
HETATM    9  C   UNL     1     -11.513  11.607  63.746  1.00  0.00    -0.457 A  
HETATM   10  C   UNL     1     -12.201  12.790  63.475  1.00  0.00    -0.613 A  
HETATM   11  C   UNL     1     -11.983  13.920  64.263  1.00  0.00    -0.477 A  
HETATM   12  C   UNL     1     -11.072  13.873  65.319  1.00  0.00    -0.318 A  
HETATM   13  C   UNL     1     -10.373  12.691  65.596  1.00  0.00    -0.293 A  
HETATM   14  C   UNL     1      -9.390  12.597  66.735  1.00  0.00    -0.232 C  
HETATM   15  O   UNL     1      -9.894  11.851  67.842  1.00  0.00    -0.180 OA 
HETATM   16  C   UNL     1     -10.028  10.491  67.724  1.00  0.00    -0.171 A  
HETATM   17  C   UNL     1     -10.089   9.725  66.548  1.00  0.00    -0.307 A  
HETATM   18  C   UNL     1     -10.385   8.347  66.660  1.00  0.00    -0.298 A  
HETATM   19  C   UNL     1     -10.467   7.699  67.900  1.00  0.00    -0.270 A  
HETATM   20  C   UNL     1     -10.352   8.472  69.057  1.00  0.00    -0.229 A  
HETATM   21  C   UNL     1     -10.165   9.854  68.966  1.00  0.00    -0.213 A  
BRANCH  19  22
HETATM   22  C   UNL     1     -10.746   6.215  67.987  1.00  0.00    -0.370 C  
HETATM   23  C   UNL     1      -9.569   5.259  68.013  1.00  0.00    -0.132 C  
HETATM   24  O   UNL     1      -9.722   4.042  67.934  1.00  0.00    -0.159 OA 
HETATM   25  O   UNL     1      -8.339   5.791  68.154  1.00  0.00    -0.107 OA 
ENDBRANCH  19  22
ENDBRANCH   5   6
ENDBRANCH   4   5
ENDBRANCH   2   4
TORSDOF 4
ENDMDL
MODEL       50
REMARK 921   NORMALIZED FREE ENERGY PREDICTED BY IDOCK:   -5.27 KCAL/MOL
REMARK 922        TOTAL FREE ENERGY PREDICTED BY IDOCK:   -7.05 KCAL/MOL
REMARK 923 INTER-LIGAND FREE ENERGY PREDICTED BY IDOCK:   -6.52 KCAL/MOL
REMARK 924 INTRA-LIGAND FREE ENERGY PREDICTED BY IDOCK:   -0.53 KCAL/MOL
REMARK 927      BINDING AFFINITY PREDICTED BY RF-SCORE:    0.00 PKD
ROOT
HETATM    1  C   UNL     1     -12.892   8.673  71.985  1.00  0.00    -0.379 C  
HETATM    2  N   UNL     1     -12.622   9.803  71.088  1.00  0.00    -0.332 NA 
HETATM    3  C   UNL     1     -13.116  11.038  71.699  1.00  0.00    -0.438 C  
ENDROOT
BRANCH   2   4
HETATM    4  C   UNL     1     -11.186   9.931  70.753  1.00  0.00    -0.353 C  
BRANCH   4   5
HETATM    5  C   UNL     1     -10.899   9.469  69.315  1.00  0.00    -0.211 C  
BRANCH   5   6
HETATM    6  C   UNL     1     -11.302  10.426  68.218  1.00  0.00    -0.292 C  
HETATM    7  C   UNL     1     -10.455  11.105  67.406  1.00  0.00    -0.255 C  
HETATM    8  C   UNL     1     -11.053  11.935  66.338  1.00  0.00    -0.359 A  
HETATM    9  C   UNL     1     -11.818  13.072  66.623  1.00  0.00    -0.455 A  
HETATM   10  C   UNL     1     -12.293  13.872  65.583  1.00  0.00    -0.511 A  
HETATM   11  C   UNL     1     -12.004  13.541  64.259  1.00  0.00    -0.479 A  
HETATM   12  C   UNL     1     -11.245  12.406  63.970  1.00  0.00    -0.458 A  
HETATM   13  C   UNL     1     -10.766  11.594  65.007  1.00  0.00    -0.351 A  
HETATM   14  C   UNL     1      -9.934  10.367  64.736  1.00  0.00    -0.339 C  
HETATM   15  O   UNL     1      -8.554  10.553  65.052  1.00  0.00    -0.176 OA 
HETATM   16  C   UNL     1      -8.177  10.631  66.369  1.00  0.00    -0.146 A  
HETATM   17  C   UNL     1      -8.980  10.922  67.484  1.00  0.00    -0.136 A  
HETATM   18  C   UNL     1      -8.348  11.103  68.736  1.00  0.00    -0.136 A  
HETATM   19  C   UNL     1      -6.981  10.853  68.925  1.00  0.00    -0.084 A  
HETATM   20  C   UNL     1      -6.211  10.515  67.811  1.00  0.00    -0.055 A  
HETATM   21  C   UNL     1      -6.799  10.436  66.546  1.00  0.00    -0.107 A  
BRANCH  19  22
HETATM   22  C   UNL     1      -6.340  11.018  70.286  1.00  0.00    -0.120 C  
HETATM   23  C   UNL     1      -6.263   9.808  71.199  1.00  0.00    -0.017 C  
HETATM   24  O   UNL     1      -5.892   9.902  72.367  1.00  0.00    -0.293 OA 
HETATM   25  O   UNL     1      -6.592   8.611  70.674  1.00  0.00    -0.036 OA 
ENDBRANCH  19  22
ENDBRANCH   5   6
ENDBRANCH   4   5
ENDBRANCH   2   4
TORSDOF 4
ENDMDL
MODEL       51
REMARK 921   NORMALIZED FREE ENERGY PREDICTED BY IDOCK:   -5.26 KCAL/MOL
REMARK 922        TOTAL FREE ENERGY PREDICTED BY IDOCK:   -7.05 KCAL/MOL
REMARK 923 INTER-LIGAND FREE ENERGY PREDICTED BY IDOCK:   -7.34 KCAL/MOL
REMARK 924 INTRA-LIGAND FREE ENERGY PREDICTED BY IDOCK:    0.29 KCAL/MOL
REMARK 927      BINDING AFFINITY PREDICTED BY RF-SCORE:    0.00 PKD
ROOT
HETATM    1  C   UNL     1     -12.534  12.428  63.972  1.00  0.00    -0.459 C  
HETATM    2  N   UNL     1     -11.497  12.037  64.933  1.00  0.00    -0.316 NA 
HETATM    3  C   UNL     1     -10.180  12.161  64.303  1.00  0.00    -0.324 C  
ENDROOT
BRANCH   2   4
HETATM    4  C   UNL     1     -11.549  12.830  66.181  1.00  0.00    -0.379 C  
BRANCH   4   5
HETATM    5  C   UNL     1     -11.716  11.929  67.415  1.00  0.00    -0.326 C  
BRANCH   5   6
HETATM    6  C   UNL     1     -10.511  11.103  67.801  1.00  0.00    -0.225 C  
HETATM    7  C   UNL     1     -10.311  10.502  68.999  1.00  0.00    -0.232 C  
HETATM    8  C   UNL     1      -9.099   9.669  69.150  1.00  0.00    -0.154 A  
HETATM    9  C   UNL     1      -7.812  10.219  69.123  1.00  0.00    -0.127 A  
HETATM   10  C   UNL     1      -6.700   9.408  69.352  1.00  0.00    -0.048 A  
HETATM   11  C   UNL     1      -6.870   8.048  69.612  1.00  0.00    -0.042 A  
HETATM   12  C   UNL     1      -8.150   7.494  69.638  1.00  0.00    -0.127 A  
HETATM   13  C   UNL     1      -9.273   8.300  69.404  1.00  0.00    -0.155 A  
HETATM   14  C   UNL     1     -10.672   7.740  69.434  1.00  0.00    -0.171 C  
HETATM   15  O   UNL     1     -11.393   8.115  70.608  1.00  0.00    -0.268 OA 
HETATM   16  C   UNL     1     -11.810   9.414  70.748  1.00  0.00    -0.256 A  
HETATM   17  C   UNL     1     -11.331  10.555  70.082  1.00  0.00    -0.400 A  
HETATM   18  C   UNL     1     -11.804  11.821  70.496  1.00  0.00    -0.288 A  
HETATM   19  C   UNL     1     -12.835  11.962  71.435  1.00  0.00    -0.411 A  
HETATM   20  C   UNL     1     -13.332  10.811  72.049  1.00  0.00    -0.403 A  
HETATM   21  C   UNL     1     -12.803   9.558  71.728  1.00  0.00    -0.496 A  
BRANCH  19  22
HETATM   22  C   UNL     1     -13.346  13.330  71.831  1.00  0.00    -0.540 C  
HETATM   23  C   UNL     1     -13.035  14.507  70.925  1.00  0.00    -0.361 C  
HETATM   24  O   UNL     1     -13.290  15.663  71.256  1.00  0.00    -0.508 OA 
HETATM   25  O   UNL     1     -12.489  14.239  69.722  1.00  0.00    -0.323 OA 
ENDBRANCH  19  22
ENDBRANCH   5   6
ENDBRANCH   4   5
ENDBRANCH   2   4
TORSDOF 4
ENDMDL
MODEL       52
REMARK 921   NORMALIZED FREE ENERGY PREDICTED BY IDOCK:   -5.23 KCAL/MOL
REMARK 922        TOTAL FREE ENERGY PREDICTED BY IDOCK:   -7.01 KCAL/MOL
REMARK 923 INTER-LIGAND FREE ENERGY PREDICTED BY IDOCK:   -6.54 KCAL/MOL
REMARK 924 INTRA-LIGAND FREE ENERGY PREDICTED BY IDOCK:   -0.47 KCAL/MOL
REMARK 927      BINDING AFFINITY PREDICTED BY RF-SCORE:    0.00 PKD
ROOT
HETATM    1  C   UNL     1     -12.579   7.782  71.848  1.00  0.00    -0.311 C  
HETATM    2  N   UNL     1     -12.603   9.085  71.173  1.00  0.00    -0.260 NA 
HETATM    3  C   UNL     1     -13.301  10.057  72.017  1.00  0.00    -0.409 C  
ENDROOT
BRANCH   2   4
HETATM    4  C   UNL     1     -11.248   9.575  70.835  1.00  0.00    -0.341 C  
BRANCH   4   5
HETATM    5  C   UNL     1     -11.299  10.696  69.783  1.00  0.00    -0.371 C  
BRANCH   5   6
HETATM    6  C   UNL     1     -10.578  10.419  68.485  1.00  0.00    -0.237 C  
HETATM    7  C   UNL     1      -9.871  11.322  67.761  1.00  0.00    -0.186 C  
HETATM    8  C   UNL     1      -9.170  10.831  66.556  1.00  0.00    -0.187 A  
HETATM    9  C   UNL     1      -9.864  10.359  65.435  1.00  0.00    -0.347 A  
HETATM   10  C   UNL     1      -9.164   9.983  64.288  1.00  0.00    -0.318 A  
HETATM   11  C   UNL     1      -7.773  10.081  64.255  1.00  0.00    -0.141 A  
HETATM   12  C   UNL     1      -7.077  10.548  65.371  1.00  0.00    -0.072 A  
HETATM   13  C   UNL     1      -7.770  10.924  66.529  1.00  0.00    -0.149 A  
HETATM   14  C   UNL     1      -7.055  11.444  67.750  1.00  0.00    -0.081 C  
HETATM   15  O   UNL     1      -7.208  12.853  67.923  1.00  0.00    -0.097 OA 
HETATM   16  C   UNL     1      -8.427  13.347  68.313  1.00  0.00    -0.166 A  
HETATM   17  C   UNL     1      -9.683  12.724  68.227  1.00  0.00    -0.216 A  
HETATM   18  C   UNL     1     -10.832  13.483  68.548  1.00  0.00    -0.283 A  
HETATM   19  C   UNL     1     -10.747  14.773  69.089  1.00  0.00    -0.258 A  
HETATM   20  C   UNL     1      -9.484  15.355  69.213  1.00  0.00    -0.261 A  
HETATM   21  C   UNL     1      -8.344  14.659  68.802  1.00  0.00    -0.163 A  
BRANCH  19  22
HETATM   22  C   UNL     1     -11.993  15.547  69.459  1.00  0.00    -0.372 C  
HETATM   23  C   UNL     1     -12.600  15.325  70.832  1.00  0.00    -0.412 C  
HETATM   24  O   UNL     1     -13.688  15.805  71.144  1.00  0.00    -0.560 OA 
HETATM   25  O   UNL     1     -11.887  14.600  71.716  1.00  0.00    -0.338 OA 
ENDBRANCH  19  22
ENDBRANCH   5   6
ENDBRANCH   4   5
ENDBRANCH   2   4
TORSDOF 4
ENDMDL
MODEL       53
REMARK 921   NORMALIZED FREE ENERGY PREDICTED BY IDOCK:   -5.16 KCAL/MOL
REMARK 922        TOTAL FREE ENERGY PREDICTED BY IDOCK:   -6.92 KCAL/MOL
REMARK 923 INTER-LIGAND FREE ENERGY PREDICTED BY IDOCK:   -6.84 KCAL/MOL
REMARK 924 INTRA-LIGAND FREE ENERGY PREDICTED BY IDOCK:   -0.09 KCAL/MOL
REMARK 927      BINDING AFFINITY PREDICTED BY RF-SCORE:    0.00 PKD
ROOT
HETATM    1  C   UNL     1      -6.522  20.811  64.442  1.00  0.00    -0.260 C  
HETATM    2  N   UNL     1      -6.152  19.642  63.635  1.00  0.00    -0.350 NA 
HETATM    3  C   UNL     1      -5.548  20.090  62.379  1.00  0.00    -0.290 C  
ENDROOT
BRANCH   2   4
HETATM    4  C   UNL     1      -5.236  18.725  64.350  1.00  0.00    -0.194 C  
BRANCH   4   5
HETATM    5  C   UNL     1      -5.951  17.994  65.498  1.00  0.00    -0.195 C  
BRANCH   5   6
HETATM    6  C   UNL     1      -5.667  18.509  66.890  1.00  0.00    -0.163 C  
HETATM    7  C   UNL     1      -6.416  18.266  67.994  1.00  0.00    -0.193 C  
HETATM    8  C   UNL     1      -5.923  18.797  69.282  1.00  0.00    -0.257 A  
HETATM    9  C   UNL     1      -5.848  20.171  69.538  1.00  0.00    -0.354 A  
HETATM   10  C   UNL     1      -5.456  20.627  70.798  1.00  0.00    -0.228 A  
HETATM   11  C   UNL     1      -5.140  19.713  71.803  1.00  0.00    -0.387 A  
HETATM   12  C   UNL     1      -5.210  18.342  71.552  1.00  0.00    -0.161 A  
HETATM   13  C   UNL     1      -5.599  17.875  70.289  1.00  0.00    -0.236 A  
HETATM   14  C   UNL     1      -5.697  16.402  69.982  1.00  0.00    -0.198 C  
HETATM   15  O   UNL     1      -7.046  15.942  69.906  1.00  0.00    -0.111 OA 
HETATM   16  C   UNL     1      -7.817  16.311  68.833  1.00  0.00    -0.224 A  
HETATM   17  C   UNL     1      -7.614  17.384  67.948  1.00  0.00    -0.196 A  
HETATM   18  C   UNL     1      -8.624  17.672  67.002  1.00  0.00    -0.252 A  
HETATM   19  C   UNL     1      -9.737  16.838  66.820  1.00  0.00    -0.273 A  
HETATM   20  C   UNL     1      -9.892  15.748  67.677  1.00  0.00    -0.232 A  
HETATM   21  C   UNL     1      -8.958  15.508  68.689  1.00  0.00    -0.194 A  
BRANCH  19  22
HETATM   22  C   UNL     1     -10.782  17.152  65.772  1.00  0.00    -0.140 C  
HETATM   23  C   UNL     1     -11.077  16.108  64.711  1.00  0.00    -0.333 C  
HETATM   24  O   UNL     1     -11.802  16.351  63.749  1.00  0.00    -1.002 OA 
HETATM   25  O   UNL     1     -10.535  14.885  64.875  1.00  0.00    -0.414 OA 
ENDBRANCH  19  22
ENDBRANCH   5   6
ENDBRANCH   4   5
ENDBRANCH   2   4
TORSDOF 4
ENDMDL
MODEL       54
REMARK 921   NORMALIZED FREE ENERGY PREDICTED BY IDOCK:   -5.16 KCAL/MOL
REMARK 922        TOTAL FREE ENERGY PREDICTED BY IDOCK:   -6.91 KCAL/MOL
REMARK 923 INTER-LIGAND FREE ENERGY PREDICTED BY IDOCK:   -6.30 KCAL/MOL
REMARK 924 INTRA-LIGAND FREE ENERGY PREDICTED BY IDOCK:   -0.61 KCAL/MOL
REMARK 927      BINDING AFFINITY PREDICTED BY RF-SCORE:    0.00 PKD
ROOT
HETATM    1  C   UNL     1      -7.129   6.372  72.043  1.00  0.00    -0.082 C  
HETATM    2  N   UNL     1      -6.339   7.294  71.218  1.00  0.00    -0.037 NA 
HETATM    3  C   UNL     1      -6.569   6.997  69.802  1.00  0.00    -0.044 C  
ENDROOT
BRANCH   2   4
HETATM    4  C   UNL     1      -6.642   8.714  71.503  1.00  0.00    -0.075 C  
BRANCH   4   5
HETATM    5  C   UNL     1      -7.696   9.272  70.532  1.00  0.00    -0.160 C  
BRANCH   5   6
HETATM    6  C   UNL     1      -9.113   9.326  71.054  1.00  0.00    -0.253 C  
HETATM    7  C   UNL     1     -10.219   8.908  70.390  1.00  0.00    -0.236 C  
HETATM    8  C   UNL     1     -11.510   8.973  71.109  1.00  0.00    -0.376 A  
HETATM    9  C   UNL     1     -12.094  10.191  71.475  1.00  0.00    -0.442 A  
HETATM   10  C   UNL     1     -13.353  10.209  72.078  1.00  0.00    -0.492 A  
HETATM   11  C   UNL     1     -14.031   9.012  72.313  1.00  0.00    -0.522 A  
HETATM   12  C   UNL     1     -13.451   7.795  71.952  1.00  0.00    -0.318 A  
HETATM   13  C   UNL     1     -12.186   7.767  71.350  1.00  0.00    -0.343 A  
HETATM   14  C   UNL     1     -11.532   6.474  70.936  1.00  0.00    -0.351 C  
HETATM   15  O   UNL     1     -11.547   6.273  69.522  1.00  0.00    -0.423 OA 
HETATM   16  C   UNL     1     -10.734   7.045  68.731  1.00  0.00    -0.194 A  
HETATM   17  C   UNL     1     -10.133   8.275  69.045  1.00  0.00    -0.208 A  
HETATM   18  C   UNL     1      -9.458   8.972  68.019  1.00  0.00    -0.157 A  
HETATM   19  C   UNL     1      -9.240   8.411  66.752  1.00  0.00    -0.214 A  
HETATM   20  C   UNL     1      -9.804   7.164  66.477  1.00  0.00    -0.189 A  
HETATM   21  C   UNL     1     -10.566   6.507  67.447  1.00  0.00    -0.364 A  
BRANCH  19  22
HETATM   22  C   UNL     1      -8.479   9.167  65.685  1.00  0.00    -0.151 C  
HETATM   23  C   UNL     1      -9.239  10.152  64.817  1.00  0.00    -0.242 C  
HETATM   24  O   UNL     1      -8.720  10.688  63.840  1.00  0.00    -0.173 OA 
HETATM   25  O   UNL     1     -10.507  10.442  65.170  1.00  0.00    -0.255 OA 
ENDBRANCH  19  22
ENDBRANCH   5   6
ENDBRANCH   4   5
ENDBRANCH   2   4
TORSDOF 4
ENDMDL
MODEL       55
REMARK 921   NORMALIZED FREE ENERGY PREDICTED BY IDOCK:   -5.11 KCAL/MOL
REMARK 922        TOTAL FREE ENERGY PREDICTED BY IDOCK:   -6.86 KCAL/MOL
REMARK 923 INTER-LIGAND FREE ENERGY PREDICTED BY IDOCK:   -6.27 KCAL/MOL
REMARK 924 INTRA-LIGAND FREE ENERGY PREDICTED BY IDOCK:   -0.58 KCAL/MOL
REMARK 927      BINDING AFFINITY PREDICTED BY RF-SCORE:    0.00 PKD
ROOT
HETATM    1  C   UNL     1     -10.959  11.231  63.629  1.00  0.00    -0.287 C  
HETATM    2  N   UNL     1     -10.583  12.091  64.757  1.00  0.00    -0.283 NA 
HETATM    3  C   UNL     1      -9.278  11.673  65.274  1.00  0.00    -0.027 C  
ENDROOT
BRANCH   2   4
HETATM    4  C   UNL     1     -10.559  13.526  64.395  1.00  0.00    -0.377 C  
BRANCH   4   5
HETATM    5  C   UNL     1     -11.576  14.333  65.218  1.00  0.00    -0.348 C  
BRANCH   5   6
HETATM    6  C   UNL     1     -11.033  15.548  65.935  1.00  0.00    -0.264 C  
HETATM    7  C   UNL     1     -10.303  15.534  67.077  1.00  0.00    -0.279 C  
HETATM    8  C   UNL     1      -9.797  16.830  67.578  1.00  0.00    -0.255 A  
HETATM    9  C   UNL     1     -10.656  17.831  68.045  1.00  0.00    -0.372 A  
HETATM   10  C   UNL     1     -10.132  19.006  68.586  1.00  0.00    -0.449 A  
HETATM   11  C   UNL     1      -8.750  19.182  68.663  1.00  0.00    -0.394 A  
HETATM   12  C   UNL     1      -7.889  18.188  68.195  1.00  0.00    -0.287 A  
HETATM   13  C   UNL     1      -8.407  17.007  67.647  1.00  0.00    -0.196 A  
HETATM   14  C   UNL     1      -7.510  15.906  67.142  1.00  0.00    -0.227 C  
HETATM   15  O   UNL     1      -7.474  14.777  68.014  1.00  0.00    -0.107 OA 
HETATM   16  C   UNL     1      -8.577  13.965  68.100  1.00  0.00    -0.180 A  
HETATM   17  C   UNL     1      -9.901  14.261  67.734  1.00  0.00    -0.223 A  
HETATM   18  C   UNL     1     -10.909  13.324  68.055  1.00  0.00    -0.261 A  
HETATM   19  C   UNL     1     -10.613  12.058  68.581  1.00  0.00    -0.253 A  
HETATM   20  C   UNL     1      -9.284  11.766  68.890  1.00  0.00     0.089 A  
HETATM   21  C   UNL     1      -8.286  12.721  68.679  1.00  0.00     0.012 A  
BRANCH  19  22
HETATM   22  C   UNL     1     -11.712  11.061  68.878  1.00  0.00    -0.400 C  
HETATM   23  C   UNL     1     -12.383  11.109  70.238  1.00  0.00    -0.315 C  
HETATM   24  O   UNL     1     -13.175  10.242  70.599  1.00  0.00    -0.354 OA 
HETATM   25  O   UNL     1     -12.099  12.159  71.034  1.00  0.00    -0.236 OA 
ENDBRANCH  19  22
ENDBRANCH   5   6
ENDBRANCH   4   5
ENDBRANCH   2   4
TORSDOF 4
ENDMDL
MODEL       56
REMARK 921   NORMALIZED FREE ENERGY PREDICTED BY IDOCK:   -5.08 KCAL/MOL
REMARK 922        TOTAL FREE ENERGY PREDICTED BY IDOCK:   -6.83 KCAL/MOL
REMARK 923 INTER-LIGAND FREE ENERGY PREDICTED BY IDOCK:   -5.98 KCAL/MOL
REMARK 924 INTRA-LIGAND FREE ENERGY PREDICTED BY IDOCK:   -0.85 KCAL/MOL
REMARK 927      BINDING AFFINITY PREDICTED BY RF-SCORE:    0.00 PKD
ROOT
HETATM    1  C   UNL     1      -6.529  10.693  66.260  1.00  0.00    -0.126 C  
HETATM    2  N   UNL     1      -5.803  11.033  67.489  1.00  0.00    -0.044 NA 
HETATM    3  C   UNL     1      -6.072  12.429  67.841  1.00  0.00    -0.093 C  
ENDROOT
BRANCH   2   4
HETATM    4  C   UNL     1      -6.148  10.141  68.619  1.00  0.00    -0.044 C  
BRANCH   4   5
HETATM    5  C   UNL     1      -7.134  10.813  69.588  1.00  0.00    -0.136 C  
BRANCH   5   6
HETATM    6  C   UNL     1      -8.230   9.929  70.137  1.00  0.00    -0.162 C  
HETATM    7  C   UNL     1      -9.429   9.695  69.549  1.00  0.00    -0.211 C  
HETATM    8  C   UNL     1     -10.336   8.732  70.211  1.00  0.00    -0.227 A  
HETATM    9  C   UNL     1     -10.910   8.992  71.461  1.00  0.00    -0.416 A  
HETATM   10  C   UNL     1     -11.824   8.093  72.011  1.00  0.00    -0.392 A  
HETATM   11  C   UNL     1     -12.169   6.935  71.313  1.00  0.00    -0.427 A  
HETATM   12  C   UNL     1     -11.597   6.670  70.068  1.00  0.00    -0.423 A  
HETATM   13  C   UNL     1     -10.675   7.565  69.510  1.00  0.00    -0.222 A  
HETATM   14  C   UNL     1     -10.044   7.319  68.163  1.00  0.00    -0.173 C  
HETATM   15  O   UNL     1     -10.574   8.162  67.141  1.00  0.00    -0.322 OA 
HETATM   16  C   UNL     1     -10.258   9.498  67.148  1.00  0.00    -0.242 A  
HETATM   17  C   UNL     1      -9.775  10.268  68.220  1.00  0.00    -0.154 A  
HETATM   18  C   UNL     1      -9.663  11.666  68.043  1.00  0.00    -0.182 A  
HETATM   19  C   UNL     1      -9.870  12.280  66.800  1.00  0.00    -0.218 A  
HETATM   20  C   UNL     1     -10.301  11.487  65.735  1.00  0.00    -0.295 A  
HETATM   21  C   UNL     1     -10.519  10.119  65.919  1.00  0.00    -0.141 A  
BRANCH  19  22
HETATM   22  C   UNL     1      -9.705  13.775  66.632  1.00  0.00    -0.293 C  
HETATM   23  C   UNL     1     -10.944  14.649  66.690  1.00  0.00    -0.323 C  
HETATM   24  O   UNL     1     -10.903  15.847  66.416  1.00  0.00    -0.288 OA 
HETATM   25  O   UNL     1     -12.096  14.070  67.080  1.00  0.00    -0.427 OA 
ENDBRANCH  19  22
ENDBRANCH   5   6
ENDBRANCH   4   5
ENDBRANCH   2   4
TORSDOF 4
ENDMDL
MODEL       57
REMARK 921   NORMALIZED FREE ENERGY PREDICTED BY IDOCK:   -5.06 KCAL/MOL
REMARK 922        TOTAL FREE ENERGY PREDICTED BY IDOCK:   -6.80 KCAL/MOL
REMARK 923 INTER-LIGAND FREE ENERGY PREDICTED BY IDOCK:   -6.17 KCAL/MOL
REMARK 924 INTRA-LIGAND FREE ENERGY PREDICTED BY IDOCK:   -0.63 KCAL/MOL
REMARK 927      BINDING AFFINITY PREDICTED BY RF-SCORE:    0.00 PKD
ROOT
HETATM    1  C   UNL     1     -12.298   7.982  71.607  1.00  0.00    -0.314 C  
HETATM    2  N   UNL     1     -11.692   9.081  70.846  1.00  0.00    -0.284 NA 
HETATM    3  C   UNL     1     -12.379  10.333  71.171  1.00  0.00    -0.395 C  
ENDROOT
BRANCH   2   4
HETATM    4  C   UNL     1     -10.238   9.210  71.094  1.00  0.00    -0.314 C  
BRANCH   4   5
HETATM    5  C   UNL     1      -9.453   9.355  69.780  1.00  0.00    -0.216 C  
BRANCH   5   6
HETATM    6  C   UNL     1      -9.502   8.169  68.845  1.00  0.00    -0.151 C  
HETATM    7  C   UNL     1      -9.712   8.221  67.507  1.00  0.00    -0.212 C  
HETATM    8  C   UNL     1      -9.643   6.950  66.755  1.00  0.00    -0.215 A  
HETATM    9  C   UNL     1     -10.580   5.927  66.942  1.00  0.00    -0.384 A  
HETATM   10  C   UNL     1     -10.525   4.777  66.152  1.00  0.00    -0.332 A  
HETATM   11  C   UNL     1      -9.539   4.649  65.174  1.00  0.00    -0.139 A  
HETATM   12  C   UNL     1      -8.601   5.665  64.987  1.00  0.00    -0.108 A  
HETATM   13  C   UNL     1      -8.645   6.820  65.777  1.00  0.00    -0.144 A  
HETATM   14  C   UNL     1      -7.656   7.944  65.598  1.00  0.00    -0.084 C  
HETATM   15  O   UNL     1      -8.226   9.085  64.956  1.00  0.00    -0.135 OA 
HETATM   16  C   UNL     1      -9.122   9.861  65.648  1.00  0.00    -0.178 A  
HETATM   17  C   UNL     1      -9.866   9.516  66.789  1.00  0.00    -0.277 A  
HETATM   18  C   UNL     1     -10.849  10.423  67.246  1.00  0.00    -0.324 A  
HETATM   19  C   UNL     1     -10.997  11.704  66.696  1.00  0.00    -0.349 A  
HETATM   20  C   UNL     1     -10.211  12.045  65.594  1.00  0.00    -0.284 A  
HETATM   21  C   UNL     1      -9.307  11.121  65.062  1.00  0.00    -0.232 A  
BRANCH  19  22
HETATM   22  C   UNL     1     -12.033  12.668  67.233  1.00  0.00    -0.321 C  
HETATM   23  C   UNL     1     -11.642  13.584  68.378  1.00  0.00    -0.343 C  
HETATM   24  O   UNL     1     -12.470  14.284  68.958  1.00  0.00    -0.200 OA 
HETATM   25  O   UNL     1     -10.340  13.627  68.723  1.00  0.00    -0.231 OA 
ENDBRANCH  19  22
ENDBRANCH   5   6
ENDBRANCH   4   5
ENDBRANCH   2   4
TORSDOF 4
ENDMDL
MODEL       58
REMARK 921   NORMALIZED FREE ENERGY PREDICTED BY IDOCK:   -5.03 KCAL/MOL
REMARK 922        TOTAL FREE ENERGY PREDICTED BY IDOCK:   -6.76 KCAL/MOL
REMARK 923 INTER-LIGAND FREE ENERGY PREDICTED BY IDOCK:   -6.37 KCAL/MOL
REMARK 924 INTRA-LIGAND FREE ENERGY PREDICTED BY IDOCK:   -0.39 KCAL/MOL
REMARK 927      BINDING AFFINITY PREDICTED BY RF-SCORE:    0.00 PKD
ROOT
HETATM    1  C   UNL     1     -11.321   6.409  69.414  1.00  0.00    -0.377 C  
HETATM    2  N   UNL     1     -10.392   6.439  68.279  1.00  0.00    -0.171 NA 
HETATM    3  C   UNL     1     -11.144   6.293  67.031  1.00  0.00    -0.297 C  
ENDROOT
BRANCH   2   4
HETATM    4  C   UNL     1      -9.573   7.671  68.247  1.00  0.00    -0.153 C  
BRANCH   4   5
HETATM    5  C   UNL     1     -10.374   8.894  68.721  1.00  0.00    -0.232 C  
BRANCH   5   6
HETATM    6  C   UNL     1     -10.906   9.800  67.634  1.00  0.00    -0.301 C  
HETATM    7  C   UNL     1     -10.170  10.659  66.887  1.00  0.00    -0.272 C  
HETATM    8  C   UNL     1     -10.869  11.401  65.815  1.00  0.00    -0.290 A  
HETATM    9  C   UNL     1     -11.850  12.360  66.095  1.00  0.00    -0.442 A  
HETATM   10  C   UNL     1     -12.424  13.095  65.058  1.00  0.00    -0.516 A  
HETATM   11  C   UNL     1     -12.019  12.877  63.741  1.00  0.00    -0.582 A  
HETATM   12  C   UNL     1     -11.044  11.921  63.456  1.00  0.00    -0.506 A  
HETATM   13  C   UNL     1     -10.464  11.174  64.491  1.00  0.00    -0.415 A  
HETATM   14  C   UNL     1      -9.400  10.140  64.225  1.00  0.00    -0.295 C  
HETATM   15  O   UNL     1      -8.097  10.573  64.616  1.00  0.00    -0.148 OA 
HETATM   16  C   UNL     1      -7.800  10.669  65.953  1.00  0.00    -0.150 A  
HETATM   17  C   UNL     1      -8.692  10.758  67.034  1.00  0.00    -0.136 A  
HETATM   18  C   UNL     1      -8.162  11.006  68.321  1.00  0.00    -0.130 A  
HETATM   19  C   UNL     1      -6.783  11.014  68.572  1.00  0.00    -0.061 A  
HETATM   20  C   UNL     1      -5.914  10.873  67.488  1.00  0.00    -0.045 A  
HETATM   21  C   UNL     1      -6.420  10.733  66.193  1.00  0.00    -0.129 A  
BRANCH  19  22
HETATM   22  C   UNL     1      -6.246  11.244  69.968  1.00  0.00    -0.149 C  
HETATM   23  C   UNL     1      -6.005  12.671  70.423  1.00  0.00    -0.103 C  
HETATM   24  O   UNL     1      -5.436  12.925  71.482  1.00  0.00    -0.348 OA 
HETATM   25  O   UNL     1      -6.465  13.661  69.633  1.00  0.00    -0.118 OA 
ENDBRANCH  19  22
ENDBRANCH   5   6
ENDBRANCH   4   5
ENDBRANCH   2   4
TORSDOF 4
ENDMDL
MODEL       59
REMARK 921   NORMALIZED FREE ENERGY PREDICTED BY IDOCK:   -5.02 KCAL/MOL
REMARK 922        TOTAL FREE ENERGY PREDICTED BY IDOCK:   -6.74 KCAL/MOL
REMARK 923 INTER-LIGAND FREE ENERGY PREDICTED BY IDOCK:   -6.22 KCAL/MOL
REMARK 924 INTRA-LIGAND FREE ENERGY PREDICTED BY IDOCK:   -0.52 KCAL/MOL
REMARK 927      BINDING AFFINITY PREDICTED BY RF-SCORE:    0.00 PKD
ROOT
HETATM    1  C   UNL     1     -12.230  16.218  72.834  1.00  0.00    -0.514 C  
HETATM    2  N   UNL     1     -12.473  15.017  72.026  1.00  0.00    -0.320 NA 
HETATM    3  C   UNL     1     -12.976  13.946  72.889  1.00  0.00    -0.245 C  
ENDROOT
BRANCH   2   4
HETATM    4  C   UNL     1     -13.411  15.263  70.908  1.00  0.00    -0.419 C  
BRANCH   4   5
HETATM    5  C   UNL     1     -12.747  15.001  69.547  1.00  0.00     0.088 C  
BRANCH   5   6
HETATM    6  C   UNL     1     -11.721  16.018  69.103  1.00  0.00    -0.310 C  
HETATM    7  C   UNL     1     -10.646  15.769  68.316  1.00  0.00    -0.271 C  
HETATM    8  C   UNL     1      -9.803  16.921  67.929  1.00  0.00    -0.263 A  
HETATM    9  C   UNL     1      -9.050  17.637  68.867  1.00  0.00    -0.134 A  
HETATM   10  C   UNL     1      -8.205  18.664  68.446  1.00  0.00    -0.361 A  
HETATM   11  C   UNL     1      -8.107  18.976  67.089  1.00  0.00    -0.280 A  
HETATM   12  C   UNL     1      -8.858  18.267  66.151  1.00  0.00    -0.113 A  
HETATM   13  C   UNL     1      -9.713  17.237  66.565  1.00  0.00    -0.298 A  
HETATM   14  C   UNL     1     -10.532  16.440  65.581  1.00  0.00    -0.347 C  
HETATM   15  O   UNL     1     -10.022  15.123  65.374  1.00  0.00    -0.344 OA 
HETATM   16  C   UNL     1     -10.153  14.194  66.376  1.00  0.00    -0.293 A  
HETATM   17  C   UNL     1     -10.391  14.419  67.742  1.00  0.00    -0.238 A  
HETATM   18  C   UNL     1     -10.335  13.316  68.623  1.00  0.00    -0.206 A  
HETATM   19  C   UNL     1     -10.201  11.998  68.162  1.00  0.00    -0.203 A  
HETATM   20  C   UNL     1     -10.015  11.793  66.794  1.00  0.00    -0.224 A  
HETATM   21  C   UNL     1      -9.962  12.881  65.919  1.00  0.00    -0.273 A  
BRANCH  19  22
HETATM   22  C   UNL     1     -10.182  10.833  69.128  1.00  0.00    -0.229 C  
HETATM   23  C   UNL     1      -8.842  10.235  69.511  1.00  0.00    -0.148 C  
HETATM   24  O   UNL     1      -8.761   9.200  70.171  1.00  0.00    -0.145 OA 
HETATM   25  O   UNL     1      -7.733  10.895  69.125  1.00  0.00    -0.132 OA 
ENDBRANCH  19  22
ENDBRANCH   5   6
ENDBRANCH   4   5
ENDBRANCH   2   4
TORSDOF 4
ENDMDL
MODEL       60
REMARK 921   NORMALIZED FREE ENERGY PREDICTED BY IDOCK:   -5.01 KCAL/MOL
REMARK 922        TOTAL FREE ENERGY PREDICTED BY IDOCK:   -6.74 KCAL/MOL
REMARK 923 INTER-LIGAND FREE ENERGY PREDICTED BY IDOCK:   -6.38 KCAL/MOL
REMARK 924 INTRA-LIGAND FREE ENERGY PREDICTED BY IDOCK:   -0.35 KCAL/MOL
REMARK 927      BINDING AFFINITY PREDICTED BY RF-SCORE:    0.00 PKD
ROOT
HETATM    1  C   UNL     1      -7.598   6.491  65.315  1.00  0.00    -0.088 C  
HETATM    2  N   UNL     1      -8.851   6.911  65.953  1.00  0.00    -0.139 NA 
HETATM    3  C   UNL     1      -9.550   5.733  66.473  1.00  0.00    -0.156 C  
ENDROOT
BRANCH   2   4
HETATM    4  C   UNL     1      -8.635   7.901  67.032  1.00  0.00    -0.128 C  
BRANCH   4   5
HETATM    5  C   UNL     1      -9.644   7.716  68.177  1.00  0.00    -0.158 C  
BRANCH   5   6
HETATM    6  C   UNL     1      -9.059   7.646  69.569  1.00  0.00    -0.146 C  
HETATM    7  C   UNL     1      -9.470   8.370  70.640  1.00  0.00    -0.191 C  
HETATM    8  C   UNL     1      -8.819   8.096  71.938  1.00  0.00    -0.214 A  
HETATM    9  C   UNL     1      -7.467   8.380  72.165  1.00  0.00    -0.146 A  
HETATM   10  C   UNL     1      -6.914   8.182  73.431  1.00  0.00    -0.152 A  
HETATM   11  C   UNL     1      -7.709   7.704  74.473  1.00  0.00    -0.213 A  
HETATM   12  C   UNL     1      -9.057   7.416  74.251  1.00  0.00    -0.223 A  
HETATM   13  C   UNL     1      -9.620   7.608  72.982  1.00  0.00    -0.292 A  
HETATM   14  C   UNL     1     -11.073   7.319  72.706  1.00  0.00    -0.319 C  
HETATM   15  O   UNL     1     -11.858   8.504  72.574  1.00  0.00    -0.384 OA 
HETATM   16  C   UNL     1     -11.704   9.283  71.454  1.00  0.00    -0.361 A  
HETATM   17  C   UNL     1     -10.625   9.306  70.556  1.00  0.00    -0.309 A  
HETATM   18  C   UNL     1     -10.608  10.303  69.553  1.00  0.00    -0.270 A  
HETATM   19  C   UNL     1     -11.695  11.161  69.335  1.00  0.00    -0.402 A  
HETATM   20  C   UNL     1     -12.780  11.087  70.210  1.00  0.00    -0.256 A  
HETATM   21  C   UNL     1     -12.768  10.179  71.272  1.00  0.00    -0.509 A  
BRANCH  19  22
HETATM   22  C   UNL     1     -11.664  12.192  68.229  1.00  0.00    -0.401 C  
HETATM   23  C   UNL     1     -11.630  13.660  68.611  1.00  0.00    -0.329 C  
HETATM   24  O   UNL     1     -11.751  14.550  67.772  1.00  0.00    -0.349 OA 
HETATM   25  O   UNL     1     -11.433  13.960  69.910  1.00  0.00    -0.248 OA 
ENDBRANCH  19  22
ENDBRANCH   5   6
ENDBRANCH   4   5
ENDBRANCH   2   4
TORSDOF 4
ENDMDL
MODEL       61
REMARK 921   NORMALIZED FREE ENERGY PREDICTED BY IDOCK:   -4.96 KCAL/MOL
REMARK 922        TOTAL FREE ENERGY PREDICTED BY IDOCK:   -6.67 KCAL/MOL
REMARK 923 INTER-LIGAND FREE ENERGY PREDICTED BY IDOCK:   -6.39 KCAL/MOL
REMARK 924 INTRA-LIGAND FREE ENERGY PREDICTED BY IDOCK:   -0.27 KCAL/MOL
REMARK 927      BINDING AFFINITY PREDICTED BY RF-SCORE:    0.00 PKD
ROOT
HETATM    1  C   UNL     1     -12.106  13.034  63.538  1.00  0.00    -0.542 C  
HETATM    2  N   UNL     1     -11.460  13.346  64.819  1.00  0.00    -0.324 NA 
HETATM    3  C   UNL     1     -10.679  12.190  65.263  1.00  0.00    -0.288 C  
ENDROOT
BRANCH   2   4
HETATM    4  C   UNL     1     -10.603  14.551  64.744  1.00  0.00    -0.377 C  
BRANCH   4   5
HETATM    5  C   UNL     1     -11.401  15.830  65.044  1.00  0.00    -0.222 C  
BRANCH   5   6
HETATM    6  C   UNL     1     -10.586  17.044  65.427  1.00  0.00    -0.147 C  
HETATM    7  C   UNL     1      -9.838  17.177  66.550  1.00  0.00    -0.305 C  
HETATM    8  C   UNL     1      -9.049  18.418  66.700  1.00  0.00    -0.301 A  
HETATM    9  C   UNL     1      -9.657  19.668  66.863  1.00  0.00    -0.465 A  
HETATM   10  C   UNL     1      -8.874  20.802  67.085  1.00  0.00    -0.247 A  
HETATM   11  C   UNL     1      -7.485  20.689  67.148  1.00  0.00    -0.381 A  
HETATM   12  C   UNL     1      -6.874  19.446  66.984  1.00  0.00    -0.206 A  
HETATM   13  C   UNL     1      -7.652  18.302  66.756  1.00  0.00    -0.245 A  
HETATM   14  C   UNL     1      -7.030  16.940  66.584  1.00  0.00    -0.246 C  
HETATM   15  O   UNL     1      -7.208  16.102  67.726  1.00  0.00    -0.123 OA 
HETATM   16  C   UNL     1      -8.456  15.600  67.996  1.00  0.00    -0.146 A  
HETATM   17  C   UNL     1      -9.697  16.067  67.532  1.00  0.00    -0.228 A  
HETATM   18  C   UNL     1     -10.872  15.489  68.064  1.00  0.00    -0.300 A  
HETATM   19  C   UNL     1     -10.838  14.375  68.915  1.00  0.00    -0.266 A  
HETATM   20  C   UNL     1      -9.592  13.896  69.324  1.00  0.00     0.386 A  
HETATM   21  C   UNL     1      -8.420  14.521  68.892  1.00  0.00    -0.110 A  
BRANCH  19  22
HETATM   22  C   UNL     1     -12.114  13.754  69.437  1.00  0.00    -0.377 C  
HETATM   23  C   UNL     1     -12.589  14.139  70.826  1.00  0.00    -0.362 C  
HETATM   24  O   UNL     1     -13.531  13.566  71.370  1.00  0.00    -0.273 OA 
HETATM   25  O   UNL     1     -11.954  15.157  71.440  1.00  0.00    -0.298 OA 
ENDBRANCH  19  22
ENDBRANCH   5   6
ENDBRANCH   4   5
ENDBRANCH   2   4
TORSDOF 4
ENDMDL
MODEL       62
REMARK 921   NORMALIZED FREE ENERGY PREDICTED BY IDOCK:   -4.95 KCAL/MOL
REMARK 922        TOTAL FREE ENERGY PREDICTED BY IDOCK:   -6.66 KCAL/MOL
REMARK 923 INTER-LIGAND FREE ENERGY PREDICTED BY IDOCK:   -6.20 KCAL/MOL
REMARK 924 INTRA-LIGAND FREE ENERGY PREDICTED BY IDOCK:   -0.46 KCAL/MOL
REMARK 927      BINDING AFFINITY PREDICTED BY RF-SCORE:    0.00 PKD
ROOT
HETATM    1  C   UNL     1     -13.300  10.082  71.747  1.00  0.00    -0.393 C  
HETATM    2  N   UNL     1     -12.986  11.312  71.009  1.00  0.00    -0.279 NA 
HETATM    3  C   UNL     1     -13.211  12.470  71.876  1.00  0.00    -0.392 C  
ENDROOT
BRANCH   2   4
HETATM    4  C   UNL     1     -11.603  11.322  70.482  1.00  0.00    -0.133 C  
BRANCH   4   5
HETATM    5  C   UNL     1     -11.293  12.630  69.736  1.00  0.00    -0.108 C  
BRANCH   5   6
HETATM    6  C   UNL     1     -11.651  12.656  68.268  1.00  0.00    -0.377 C  
HETATM    7  C   UNL     1     -10.783  12.846  67.244  1.00  0.00    -0.260 C  
HETATM    8  C   UNL     1     -11.322  12.756  65.869  1.00  0.00    -0.363 A  
HETATM    9  C   UNL     1     -12.239  13.688  65.370  1.00  0.00    -0.474 A  
HETATM   10  C   UNL     1     -12.657  13.614  64.041  1.00  0.00    -0.147 A  
HETATM   11  C   UNL     1     -12.159  12.612  63.208  1.00  0.00    -0.524 A  
HETATM   12  C   UNL     1     -11.247  11.678  63.702  1.00  0.00    -0.497 A  
HETATM   13  C   UNL     1     -10.824  11.743  65.036  1.00  0.00    -0.350 A  
HETATM   14  C   UNL     1      -9.832  10.760  65.604  1.00  0.00    -0.245 C  
HETATM   15  O   UNL     1      -8.536  11.328  65.793  1.00  0.00    -0.160 OA 
HETATM   16  C   UNL     1      -8.349  12.240  66.801  1.00  0.00    -0.087 A  
HETATM   17  C   UNL     1      -9.321  12.999  67.474  1.00  0.00    -0.200 A  
HETATM   18  C   UNL     1      -8.885  13.996  68.377  1.00  0.00    -0.180 A  
HETATM   19  C   UNL     1      -7.537  14.145  68.732  1.00  0.00    -0.125 A  
HETATM   20  C   UNL     1      -6.593  13.344  68.087  1.00  0.00    -0.118 A  
HETATM   21  C   UNL     1      -6.994  12.426  67.113  1.00  0.00    -0.079 A  
BRANCH  19  22
HETATM   22  C   UNL     1      -7.106  15.195  69.731  1.00  0.00    -0.169 C  
HETATM   23  C   UNL     1      -6.895  16.616  69.240  1.00  0.00    -0.232 C  
HETATM   24  O   UNL     1      -6.406  17.483  69.961  1.00  0.00    -0.146 OA 
HETATM   25  O   UNL     1      -7.291  16.904  67.985  1.00  0.00    -0.163 OA 
ENDBRANCH  19  22
ENDBRANCH   5   6
ENDBRANCH   4   5
ENDBRANCH   2   4
TORSDOF 4
ENDMDL
MODEL       63
REMARK 921   NORMALIZED FREE ENERGY PREDICTED BY IDOCK:   -4.95 KCAL/MOL
REMARK 922        TOTAL FREE ENERGY PREDICTED BY IDOCK:   -6.66 KCAL/MOL
REMARK 923 INTER-LIGAND FREE ENERGY PREDICTED BY IDOCK:   -6.50 KCAL/MOL
REMARK 924 INTRA-LIGAND FREE ENERGY PREDICTED BY IDOCK:   -0.16 KCAL/MOL
REMARK 927      BINDING AFFINITY PREDICTED BY RF-SCORE:    0.00 PKD
ROOT
HETATM    1  C   UNL     1     -11.908  11.608  69.483  1.00  0.00    -0.348 C  
HETATM    2  N   UNL     1     -11.319  12.924  69.207  1.00  0.00    -0.260 NA 
HETATM    3  C   UNL     1     -11.434  13.217  67.777  1.00  0.00    -0.317 C  
ENDROOT
BRANCH   2   4
HETATM    4  C   UNL     1     -11.939  14.003  70.007  1.00  0.00    -0.339 C  
BRANCH   4   5
HETATM    5  C   UNL     1     -10.905  15.061  70.425  1.00  0.00    -0.182 C  
BRANCH   5   6
HETATM    6  C   UNL     1     -10.905  16.341  69.621  1.00  0.00    -0.345 C  
HETATM    7  C   UNL     1      -9.917  16.756  68.791  1.00  0.00    -0.269 C  
HETATM    8  C   UNL     1     -10.145  18.005  68.031  1.00  0.00    -0.370 A  
HETATM    9  C   UNL     1     -10.245  19.249  68.664  1.00  0.00    -0.438 A  
HETATM   10  C   UNL     1     -10.377  20.411  67.902  1.00  0.00    -0.312 A  
HETATM   11  C   UNL     1     -10.407  20.333  66.510  1.00  0.00    -0.420 A  
HETATM   12  C   UNL     1     -10.311  19.094  65.875  1.00  0.00    -0.463 A  
HETATM   13  C   UNL     1     -10.182  17.922  66.631  1.00  0.00    -0.371 A  
HETATM   14  C   UNL     1     -10.064  16.566  65.982  1.00  0.00    -0.348 C  
HETATM   15  O   UNL     1      -8.740  16.037  66.042  1.00  0.00    -0.331 OA 
HETATM   16  C   UNL     1      -8.249  15.604  67.249  1.00  0.00    -0.191 A  
HETATM   17  C   UNL     1      -8.707  15.927  68.537  1.00  0.00    -0.194 A  
HETATM   18  C   UNL     1      -7.951  15.487  69.647  1.00  0.00    -0.123 A  
HETATM   19  C   UNL     1      -6.858  14.620  69.509  1.00  0.00    -0.165 A  
HETATM   20  C   UNL     1      -6.450  14.271  68.221  1.00  0.00    -0.116 A  
HETATM   21  C   UNL     1      -7.121  14.782  67.107  1.00  0.00     0.113 A  
BRANCH  19  22
HETATM   22  C   UNL     1      -6.091  14.135  70.720  1.00  0.00    -0.165 C  
HETATM   23  C   UNL     1      -5.726  12.664  70.801  1.00  0.00    -0.113 C  
HETATM   24  O   UNL     1      -5.236  12.175  71.817  1.00  0.00    -0.346 OA 
HETATM   25  O   UNL     1      -5.933  11.911  69.704  1.00  0.00    -0.089 OA 
ENDBRANCH  19  22
ENDBRANCH   5   6
ENDBRANCH   4   5
ENDBRANCH   2   4
TORSDOF 4
ENDMDL
MODEL       64
REMARK 921   NORMALIZED FREE ENERGY PREDICTED BY IDOCK:   -4.95 KCAL/MOL
REMARK 922        TOTAL FREE ENERGY PREDICTED BY IDOCK:   -6.66 KCAL/MOL
REMARK 923 INTER-LIGAND FREE ENERGY PREDICTED BY IDOCK:   -6.05 KCAL/MOL
REMARK 924 INTRA-LIGAND FREE ENERGY PREDICTED BY IDOCK:   -0.61 KCAL/MOL
REMARK 927      BINDING AFFINITY PREDICTED BY RF-SCORE:    0.00 PKD
ROOT
HETATM    1  C   UNL     1      -6.818   8.407  71.483  1.00  0.00    -0.073 C  
HETATM    2  N   UNL     1      -6.459   9.827  71.579  1.00  0.00    -0.309 NA 
HETATM    3  C   UNL     1      -5.327   9.980  72.496  1.00  0.00     0.138 C  
ENDROOT
BRANCH   2   4
HETATM    4  C   UNL     1      -6.142  10.424  70.263  1.00  0.00    -0.107 C  
BRANCH   4   5
HETATM    5  C   UNL     1      -7.279  11.333  69.768  1.00  0.00     0.124 C  
BRANCH   5   6
HETATM    6  C   UNL     1      -7.720  11.123  68.338  1.00  0.00    -0.125 C  
HETATM    7  C   UNL     1      -8.957  10.740  67.937  1.00  0.00    -0.139 C  
HETATM    8  C   UNL     1      -9.211  10.668  66.482  1.00  0.00    -0.187 A  
HETATM    9  C   UNL     1      -8.569   9.731  65.663  1.00  0.00    -0.154 A  
HETATM   10  C   UNL     1      -8.900   9.643  64.310  1.00  0.00    -0.260 A  
HETATM   11  C   UNL     1      -9.872  10.487  63.773  1.00  0.00    -0.363 A  
HETATM   12  C   UNL     1     -10.512  11.425  64.585  1.00  0.00    -0.373 A  
HETATM   13  C   UNL     1     -10.184  11.524  65.943  1.00  0.00    -0.286 A  
HETATM   14  C   UNL     1     -10.860  12.516  66.855  1.00  0.00    -0.248 C  
HETATM   15  O   UNL     1     -11.797  11.905  67.741  1.00  0.00    -0.518 OA 
HETATM   16  C   UNL     1     -11.330  11.133  68.776  1.00  0.00    -0.277 A  
HETATM   17  C   UNL     1     -10.066  10.535  68.908  1.00  0.00    -0.215 A  
HETATM   18  C   UNL     1      -9.854   9.651  69.991  1.00  0.00    -0.286 A  
HETATM   19  C   UNL     1     -10.803   9.474  71.008  1.00  0.00    -0.423 A  
HETATM   20  C   UNL     1     -12.034  10.119  70.881  1.00  0.00    -0.461 A  
HETATM   21  C   UNL     1     -12.302  10.913  69.763  1.00  0.00    -0.326 A  
BRANCH  19  22
HETATM   22  C   UNL     1     -10.531   8.550  72.174  1.00  0.00    -0.412 C  
HETATM   23  C   UNL     1     -10.911   7.087  72.041  1.00  0.00    -0.232 C  
HETATM   24  O   UNL     1     -10.856   6.314  72.995  1.00  0.00    -0.243 OA 
HETATM   25  O   UNL     1     -11.290   6.652  70.823  1.00  0.00    -0.292 OA 
ENDBRANCH  19  22
ENDBRANCH   5   6
ENDBRANCH   4   5
ENDBRANCH   2   4
TORSDOF 4
ENDMDL
MODEL       65
REMARK 921   NORMALIZED FREE ENERGY PREDICTED BY IDOCK:   -4.92 KCAL/MOL
REMARK 922        TOTAL FREE ENERGY PREDICTED BY IDOCK:   -6.62 KCAL/MOL
REMARK 923 INTER-LIGAND FREE ENERGY PREDICTED BY IDOCK:   -6.31 KCAL/MOL
REMARK 924 INTRA-LIGAND FREE ENERGY PREDICTED BY IDOCK:   -0.31 KCAL/MOL
REMARK 927      BINDING AFFINITY PREDICTED BY RF-SCORE:    0.00 PKD
ROOT
HETATM    1  C   UNL     1      -6.730  16.135  67.457  1.00  0.00    -0.169 C  
HETATM    2  N   UNL     1      -6.233  15.011  68.260  1.00  0.00    -0.111 NA 
HETATM    3  C   UNL     1      -5.327  15.515  69.294  1.00  0.00    -0.097 C  
ENDROOT
BRANCH   2   4
HETATM    4  C   UNL     1      -7.326  14.222  68.871  1.00  0.00    -0.126 C  
BRANCH   4   5
HETATM    5  C   UNL     1      -7.487  12.855  68.186  1.00  0.00    -0.126 C  
BRANCH   5   6
HETATM    6  C   UNL     1      -8.433  12.811  67.009  1.00  0.00    -0.154 C  
HETATM    7  C   UNL     1      -9.633  12.182  66.978  1.00  0.00    -0.207 C  
HETATM    8  C   UNL     1     -10.447  12.325  65.752  1.00  0.00    -0.287 A  
HETATM    9  C   UNL     1     -10.042  11.783  64.526  1.00  0.00    -0.312 A  
HETATM   10  C   UNL     1     -10.880  11.870  63.413  1.00  0.00    -0.469 A  
HETATM   11  C   UNL     1     -12.123  12.495  63.523  1.00  0.00    -0.653 A  
HETATM   12  C   UNL     1     -12.529  13.040  64.742  1.00  0.00    -0.485 A  
HETATM   13  C   UNL     1     -11.693  12.961  65.863  1.00  0.00    -0.449 A  
HETATM   14  C   UNL     1     -12.100  13.527  67.200  1.00  0.00    -0.340 C  
HETATM   15  O   UNL     1     -12.460  12.517  68.142  1.00  0.00    -0.011 OA 
HETATM   16  C   UNL     1     -11.476  11.722  68.676  1.00  0.00    -0.288 A  
HETATM   17  C   UNL     1     -10.185  11.489  68.175  1.00  0.00    -0.205 A  
HETATM   18  C   UNL     1      -9.388  10.508  68.807  1.00  0.00    -0.181 A  
HETATM   19  C   UNL     1      -9.783   9.877  69.996  1.00  0.00    -0.274 A  
HETATM   20  C   UNL     1     -11.051  10.162  70.504  1.00  0.00    -0.400 A  
HETATM   21  C   UNL     1     -11.896  11.051  69.833  1.00  0.00    -0.431 A  
BRANCH  19  22
HETATM   22  C   UNL     1      -8.891   8.859  70.671  1.00  0.00    -0.234 C  
HETATM   23  C   UNL     1      -7.458   9.248  70.984  1.00  0.00    -0.064 C  
HETATM   24  O   UNL     1      -6.640   8.428  71.394  1.00  0.00    -0.049 OA 
HETATM   25  O   UNL     1      -7.115  10.541  70.820  1.00  0.00    -0.187 OA 
ENDBRANCH  19  22
ENDBRANCH   5   6
ENDBRANCH   4   5
ENDBRANCH   2   4
TORSDOF 4
ENDMDL
MODEL       66
REMARK 921   NORMALIZED FREE ENERGY PREDICTED BY IDOCK:   -4.85 KCAL/MOL
REMARK 922        TOTAL FREE ENERGY PREDICTED BY IDOCK:   -6.54 KCAL/MOL
REMARK 923 INTER-LIGAND FREE ENERGY PREDICTED BY IDOCK:   -6.06 KCAL/MOL
REMARK 924 INTRA-LIGAND FREE ENERGY PREDICTED BY IDOCK:   -0.47 KCAL/MOL
REMARK 927      BINDING AFFINITY PREDICTED BY RF-SCORE:    0.00 PKD
ROOT
HETATM    1  C   UNL     1      -9.277   8.087  66.863  1.00  0.00    -0.154 C  
HETATM    2  N   UNL     1      -9.504   9.499  67.194  1.00  0.00    -0.145 NA 
HETATM    3  C   UNL     1     -10.873   9.669  67.685  1.00  0.00    -0.212 C  
ENDROOT
BRANCH   2   4
HETATM    4  C   UNL     1      -8.533  10.014  68.185  1.00  0.00    -0.114 C  
BRANCH   4   5
HETATM    5  C   UNL     1      -9.118  10.005  69.606  1.00  0.00    -0.230 C  
BRANCH   5   6
HETATM    6  C   UNL     1      -8.663   8.877  70.504  1.00  0.00    -0.213 C  
HETATM    7  C   UNL     1      -9.452   8.162  71.342  1.00  0.00    -0.211 C  
HETATM    8  C   UNL     1      -8.826   7.043  72.079  1.00  0.00    -0.133 A  
HETATM    9  C   UNL     1      -7.845   7.253  73.054  1.00  0.00    -0.113 A  
HETATM   10  C   UNL     1      -7.341   6.175  73.783  1.00  0.00    -0.091 A  
HETATM   11  C   UNL     1      -7.818   4.886  73.541  1.00  0.00    -0.099 A  
HETATM   12  C   UNL     1      -8.794   4.671  72.567  1.00  0.00    -0.126 A  
HETATM   13  C   UNL     1      -9.303   5.747  71.828  1.00  0.00    -0.163 A  
HETATM   14  C   UNL     1     -10.365   5.556  70.776  1.00  0.00    -0.251 C  
HETATM   15  O   UNL     1     -11.650   6.015  71.196  1.00  0.00    -0.254 OA 
HETATM   16  C   UNL     1     -11.871   7.365  71.307  1.00  0.00    -0.301 A  
HETATM   17  C   UNL     1     -10.920   8.393  71.423  1.00  0.00    -0.311 A  
HETATM   18  C   UNL     1     -11.380   9.704  71.682  1.00  0.00    -0.336 A  
HETATM   19  C   UNL     1     -12.742  10.034  71.675  1.00  0.00    -0.535 A  
HETATM   20  C   UNL     1     -13.669   9.004  71.508  1.00  0.00    -0.388 A  
HETATM   21  C   UNL     1     -13.236   7.684  71.356  1.00  0.00    -0.337 A  
BRANCH  19  22
HETATM   22  C   UNL     1     -13.202  11.454  71.917  1.00  0.00    -0.485 C  
HETATM   23  C   UNL     1     -12.707  12.543  70.983  1.00  0.00    -0.225 C  
HETATM   24  O   UNL     1     -12.919  13.733  71.206  1.00  0.00    -0.338 OA 
HETATM   25  O   UNL     1     -12.043  12.157  69.876  1.00  0.00    -0.298 OA 
ENDBRANCH  19  22
ENDBRANCH   5   6
ENDBRANCH   4   5
ENDBRANCH   2   4
TORSDOF 4
ENDMDL
MODEL       67
REMARK 921   NORMALIZED FREE ENERGY PREDICTED BY IDOCK:   -4.85 KCAL/MOL
REMARK 922        TOTAL FREE ENERGY PREDICTED BY IDOCK:   -6.53 KCAL/MOL
REMARK 923 INTER-LIGAND FREE ENERGY PREDICTED BY IDOCK:   -5.94 KCAL/MOL
REMARK 924 INTRA-LIGAND FREE ENERGY PREDICTED BY IDOCK:   -0.59 KCAL/MOL
REMARK 927      BINDING AFFINITY PREDICTED BY RF-SCORE:    0.00 PKD
ROOT
HETATM    1  C   UNL     1      -8.289  15.922  66.977  1.00  0.00    -0.223 C  
HETATM    2  N   UNL     1      -6.903  15.880  67.459  1.00  0.00    -0.166 NA 
HETATM    3  C   UNL     1      -6.756  16.792  68.596  1.00  0.00    -0.174 C  
ENDROOT
BRANCH   2   4
HETATM    4  C   UNL     1      -6.472  14.515  67.833  1.00  0.00    -0.162 C  
BRANCH   4   5
HETATM    5  C   UNL     1      -7.475  13.848  68.788  1.00  0.00    -0.114 C  
BRANCH   5   6
HETATM    6  C   UNL     1      -7.808  12.403  68.496  1.00  0.00    -0.112 C  
HETATM    7  C   UNL     1      -9.019  11.930  68.111  1.00  0.00    -0.185 C  
HETATM    8  C   UNL     1      -9.119  10.489  67.796  1.00  0.00    -0.140 A  
HETATM    9  C   UNL     1      -8.957   9.503  68.777  1.00  0.00    -0.133 A  
HETATM   10  C   UNL     1      -9.141   8.158  68.452  1.00  0.00    -0.136 A  
HETATM   11  C   UNL     1      -9.490   7.796  67.150  1.00  0.00    -0.198 A  
HETATM   12  C   UNL     1      -9.649   8.775  66.169  1.00  0.00    -0.323 A  
HETATM   13  C   UNL     1      -9.462  10.127  66.485  1.00  0.00    -0.214 A  
HETATM   14  C   UNL     1      -9.636  11.215  65.455  1.00  0.00    -0.226 C  
HETATM   15  O   UNL     1     -10.841  11.959  65.634  1.00  0.00    -0.270 OA 
HETATM   16  C   UNL     1     -10.941  12.821  66.697  1.00  0.00    -0.270 A  
HETATM   17  C   UNL     1     -10.175  12.837  67.874  1.00  0.00    -0.229 A  
HETATM   18  C   UNL     1     -10.555  13.723  68.908  1.00  0.00    -0.224 A  
HETATM   19  C   UNL     1     -11.564  14.681  68.738  1.00  0.00    -0.346 A  
HETATM   20  C   UNL     1     -12.279  14.680  67.539  1.00  0.00    -0.081 A  
HETATM   21  C   UNL     1     -11.988  13.742  66.546  1.00  0.00    -0.470 A  
BRANCH  19  22
HETATM   22  C   UNL     1     -11.922  15.642  69.850  1.00  0.00    -0.376 C  
HETATM   23  C   UNL     1     -12.753  15.126  71.011  1.00  0.00    -0.392 C  
HETATM   24  O   UNL     1     -13.202  15.882  71.870  1.00  0.00    -0.451 OA 
HETATM   25  O   UNL     1     -12.961  13.797  71.084  1.00  0.00    -0.326 OA 
ENDBRANCH  19  22
ENDBRANCH   5   6
ENDBRANCH   4   5
ENDBRANCH   2   4
TORSDOF 4
ENDMDL
MODEL       68
REMARK 921   NORMALIZED FREE ENERGY PREDICTED BY IDOCK:   -4.83 KCAL/MOL
REMARK 922        TOTAL FREE ENERGY PREDICTED BY IDOCK:   -6.51 KCAL/MOL
REMARK 923 INTER-LIGAND FREE ENERGY PREDICTED BY IDOCK:   -6.07 KCAL/MOL
REMARK 924 INTRA-LIGAND FREE ENERGY PREDICTED BY IDOCK:   -0.44 KCAL/MOL
REMARK 927      BINDING AFFINITY PREDICTED BY RF-SCORE:    0.00 PKD
ROOT
HETATM    1  C   UNL     1      -6.802  15.214  67.545  1.00  0.00    -0.174 C  
HETATM    2  N   UNL     1      -6.079  14.183  68.297  1.00  0.00    -0.106 NA 
HETATM    3  C   UNL     1      -6.076  14.530  69.719  1.00  0.00    -0.131 C  
ENDROOT
BRANCH   2   4
HETATM    4  C   UNL     1      -6.646  12.830  68.097  1.00  0.00    -0.088 C  
BRANCH   4   5
HETATM    5  C   UNL     1      -8.137  12.784  68.466  1.00  0.00    -0.080 C  
BRANCH   5   6
HETATM    6  C   UNL     1      -9.101  12.621  67.313  1.00  0.00    -0.191 C  
HETATM    7  C   UNL     1     -10.175  13.408  67.059  1.00  0.00    -0.249 C  
HETATM    8  C   UNL     1     -10.948  13.129  65.830  1.00  0.00    -0.288 A  
HETATM    9  C   UNL     1     -11.677  11.946  65.666  1.00  0.00    -0.214 A  
HETATM   10  C   UNL     1     -12.460  11.761  64.525  1.00  0.00     0.042 A  
HETATM   11  C   UNL     1     -12.519  12.757  63.550  1.00  0.00    -0.474 A  
HETATM   12  C   UNL     1     -11.792  13.937  63.708  1.00  0.00    -0.234 A  
HETATM   13  C   UNL     1     -11.000  14.130  64.848  1.00  0.00    -0.405 A  
HETATM   14  C   UNL     1     -10.208  15.395  65.061  1.00  0.00    -0.260 C  
HETATM   15  O   UNL     1     -10.784  16.249  66.050  1.00  0.00    -0.295 OA 
HETATM   16  C   UNL     1     -10.719  15.877  67.369  1.00  0.00    -0.313 A  
HETATM   17  C   UNL     1     -10.491  14.596  67.899  1.00  0.00    -0.242 A  
HETATM   18  C   UNL     1     -10.620  14.415  69.295  1.00  0.00    -0.190 A  
HETATM   19  C   UNL     1     -10.816  15.491  70.172  1.00  0.00    -0.346 A  
HETATM   20  C   UNL     1     -10.990  16.764  69.627  1.00  0.00    -0.122 A  
HETATM   21  C   UNL     1     -10.971  16.946  68.242  1.00  0.00    -0.298 A  
BRANCH  19  22
HETATM   22  C   UNL     1     -10.912  15.270  71.666  1.00  0.00    -0.107 C  
HETATM   23  C   UNL     1     -12.264  15.433  72.335  1.00  0.00    -0.394 C  
HETATM   24  O   UNL     1     -12.388  15.414  73.558  1.00  0.00    -0.435 OA 
HETATM   25  O   UNL     1     -13.340  15.574  71.535  1.00  0.00    -0.473 OA 
ENDBRANCH  19  22
ENDBRANCH   5   6
ENDBRANCH   4   5
ENDBRANCH   2   4
TORSDOF 4
ENDMDL
MODEL       69
REMARK 921   NORMALIZED FREE ENERGY PREDICTED BY IDOCK:   -4.82 KCAL/MOL
REMARK 922        TOTAL FREE ENERGY PREDICTED BY IDOCK:   -6.50 KCAL/MOL
REMARK 923 INTER-LIGAND FREE ENERGY PREDICTED BY IDOCK:   -6.07 KCAL/MOL
REMARK 924 INTRA-LIGAND FREE ENERGY PREDICTED BY IDOCK:   -0.43 KCAL/MOL
REMARK 927      BINDING AFFINITY PREDICTED BY RF-SCORE:    0.00 PKD
ROOT
HETATM    1  C   UNL     1      -8.944   3.673  65.401  1.00  0.00    -0.136 C  
HETATM    2  N   UNL     1      -9.164   4.919  66.144  1.00  0.00    -0.139 NA 
HETATM    3  C   UNL     1      -8.435   6.008  65.491  1.00  0.00    -0.151 C  
ENDROOT
BRANCH   2   4
HETATM    4  C   UNL     1     -10.599   5.261  66.268  1.00  0.00    -0.248 C  
BRANCH   4   5
HETATM    5  C   UNL     1     -10.842   6.266  67.406  1.00  0.00    -0.448 C  
BRANCH   5   6
HETATM    6  C   UNL     1     -10.615   5.749  68.807  1.00  0.00    -0.321 C  
HETATM    7  C   UNL     1     -10.541   6.504  69.930  1.00  0.00    -0.282 C  
HETATM    8  C   UNL     1     -10.393   5.796  71.220  1.00  0.00    -0.281 A  
HETATM    9  C   UNL     1      -9.241   5.069  71.539  1.00  0.00    -0.181 A  
HETATM   10  C   UNL     1      -9.109   4.486  72.800  1.00  0.00    -0.134 A  
HETATM   11  C   UNL     1     -10.125   4.630  73.745  1.00  0.00    -0.211 A  
HETATM   12  C   UNL     1     -11.278   5.352  73.430  1.00  0.00    -0.270 A  
HETATM   13  C   UNL     1     -11.421   5.937  72.166  1.00  0.00    -0.333 A  
HETATM   14  C   UNL     1     -12.645   6.733  71.792  1.00  0.00    -0.325 C  
HETATM   15  O   UNL     1     -12.401   8.139  71.754  1.00  0.00    -0.295 OA 
HETATM   16  C   UNL     1     -11.641   8.657  70.735  1.00  0.00    -0.242 A  
HETATM   17  C   UNL     1     -10.741   7.979  69.896  1.00  0.00    -0.242 A  
HETATM   18  C   UNL     1      -9.946   8.743  69.011  1.00  0.00    -0.197 A  
HETATM   19  C   UNL     1     -10.135  10.121  68.838  1.00  0.00    -0.211 A  
HETATM   20  C   UNL     1     -11.071  10.766  69.648  1.00  0.00    -0.339 A  
HETATM   21  C   UNL     1     -11.791  10.045  70.604  1.00  0.00    -0.411 A  
BRANCH  19  22
HETATM   22  C   UNL     1      -9.294  10.905  67.854  1.00  0.00    -0.159 C  
HETATM   23  C   UNL     1      -9.438  10.597  66.376  1.00  0.00    -0.171 C  
HETATM   24  O   UNL     1      -8.685  11.087  65.537  1.00  0.00    -0.187 OA 
HETATM   25  O   UNL     1     -10.444   9.780  66.006  1.00  0.00    -0.157 OA 
ENDBRANCH  19  22
ENDBRANCH   5   6
ENDBRANCH   4   5
ENDBRANCH   2   4
TORSDOF 4
ENDMDL
MODEL       70
REMARK 921   NORMALIZED FREE ENERGY PREDICTED BY IDOCK:   -4.74 KCAL/MOL
REMARK 922        TOTAL FREE ENERGY PREDICTED BY IDOCK:   -6.41 KCAL/MOL
REMARK 923 INTER-LIGAND FREE ENERGY PREDICTED BY IDOCK:   -5.92 KCAL/MOL
REMARK 924 INTRA-LIGAND FREE ENERGY PREDICTED BY IDOCK:   -0.48 KCAL/MOL
REMARK 927      BINDING AFFINITY PREDICTED BY RF-SCORE:    0.00 PKD
ROOT
HETATM    1  C   UNL     1     -12.220   6.357  72.052  1.00  0.00    -0.269 C  
HETATM    2  N   UNL     1     -12.876   7.546  71.494  1.00  0.00    -0.353 NA 
HETATM    3  C   UNL     1     -14.327   7.417  71.650  1.00  0.00    -0.461 C  
ENDROOT
BRANCH   2   4
HETATM    4  C   UNL     1     -12.400   8.802  72.115  1.00  0.00    -0.389 C  
BRANCH   4   5
HETATM    5  C   UNL     1     -11.201   9.389  71.352  1.00  0.00    -0.452 C  
BRANCH   5   6
HETATM    6  C   UNL     1     -11.506  10.547  70.429  1.00  0.00    -0.427 C  
HETATM    7  C   UNL     1     -10.696  11.013  69.446  1.00  0.00    -0.247 C  
HETATM    8  C   UNL     1     -11.214  12.108  68.599  1.00  0.00    -0.318 A  
HETATM    9  C   UNL     1     -11.461  13.388  69.110  1.00  0.00    -0.351 A  
HETATM   10  C   UNL     1     -11.870  14.414  68.258  1.00  0.00    -0.361 A  
HETATM   11  C   UNL     1     -12.030  14.166  66.894  1.00  0.00    -0.479 A  
HETATM   12  C   UNL     1     -11.789  12.891  66.380  1.00  0.00    -0.478 A  
HETATM   13  C   UNL     1     -11.381  11.853  67.229  1.00  0.00    -0.393 A  
HETATM   14  C   UNL     1     -11.100  10.466  66.711  1.00  0.00     0.048 C  
HETATM   15  O   UNL     1      -9.705  10.167  66.661  1.00  0.00    -0.176 OA 
HETATM   16  C   UNL     1      -9.024   9.965  67.835  1.00  0.00    -0.128 A  
HETATM   17  C   UNL     1      -9.395  10.363  69.130  1.00  0.00    -0.211 A  
HETATM   18  C   UNL     1      -8.462  10.186  70.178  1.00  0.00     0.073 A  
HETATM   19  C   UNL     1      -7.256   9.495  69.996  1.00  0.00    -0.101 A  
HETATM   20  C   UNL     1      -6.931   9.064  68.708  1.00  0.00    -0.062 A  
HETATM   21  C   UNL     1      -7.792   9.324  67.639  1.00  0.00    -0.096 A  
BRANCH  19  22
HETATM   22  C   UNL     1      -6.296   9.287  71.146  1.00  0.00    -0.083 C  
HETATM   23  C   UNL     1      -6.565   8.151  72.115  1.00  0.00    -0.073 C  
HETATM   24  O   UNL     1      -5.914   8.015  73.149  1.00  0.00    -0.053 OA 
HETATM   25  O   UNL     1      -7.533   7.272  71.789  1.00  0.00    -0.082 OA 
ENDBRANCH  19  22
ENDBRANCH   5   6
ENDBRANCH   4   5
ENDBRANCH   2   4
TORSDOF 4
ENDMDL
MODEL       71
REMARK 921   NORMALIZED FREE ENERGY PREDICTED BY IDOCK:   -4.72 KCAL/MOL
REMARK 922        TOTAL FREE ENERGY PREDICTED BY IDOCK:   -6.37 KCAL/MOL
REMARK 923 INTER-LIGAND FREE ENERGY PREDICTED BY IDOCK:   -5.92 KCAL/MOL
REMARK 924 INTRA-LIGAND FREE ENERGY PREDICTED BY IDOCK:   -0.45 KCAL/MOL
REMARK 927      BINDING AFFINITY PREDICTED BY RF-SCORE:    0.00 PKD
ROOT
HETATM    1  C   UNL     1      -9.935  12.046  63.388  1.00  0.00    -0.357 C  
HETATM    2  N   UNL     1      -9.833  10.596  63.595  1.00  0.00    -0.326 NA 
HETATM    3  C   UNL     1      -8.540  10.124  63.094  1.00  0.00    -0.193 C  
ENDROOT
BRANCH   2   4
HETATM    4  C   UNL     1     -10.009  10.210  65.013  1.00  0.00    -0.305 C  
BRANCH   4   5
HETATM    5  C   UNL     1      -9.099  11.033  65.939  1.00  0.00    -0.214 C  
BRANCH   5   6
HETATM    6  C   UNL     1      -8.746  10.393  67.261  1.00  0.00    -0.125 C  
HETATM    7  C   UNL     1      -9.167  10.807  68.481  1.00  0.00    -0.174 C  
HETATM    8  C   UNL     1      -8.774   9.993  69.652  1.00  0.00    -0.210 A  
HETATM    9  C   UNL     1      -7.440   9.882  70.062  1.00  0.00    -0.173 A  
HETATM   10  C   UNL     1      -7.123   9.171  71.221  1.00  0.00    -0.063 A  
HETATM   11  C   UNL     1      -8.136   8.574  71.972  1.00  0.00    -0.175 A  
HETATM   12  C   UNL     1      -9.467   8.680  71.564  1.00  0.00    -0.320 A  
HETATM   13  C   UNL     1      -9.794   9.388  70.401  1.00  0.00    -0.313 A  
HETATM   14  C   UNL     1     -11.220   9.534  69.934  1.00  0.00    -0.178 C  
HETATM   15  O   UNL     1     -11.745  10.843  70.159  1.00  0.00    -0.288 OA 
HETATM   16  C   UNL     1     -11.289  11.885  69.391  1.00  0.00    -0.261 A  
HETATM   17  C   UNL     1     -10.105  11.953  68.638  1.00  0.00    -0.186 A  
HETATM   18  C   UNL     1      -9.759  13.188  68.044  1.00  0.00    -0.224 A  
HETATM   19  C   UNL     1     -10.626  14.290  68.054  1.00  0.00    -0.238 A  
HETATM   20  C   UNL     1     -11.821  14.183  68.766  1.00  0.00    -0.384 A  
HETATM   21  C   UNL     1     -12.132  13.004  69.449  1.00  0.00    -0.267 A  
BRANCH  19  22
HETATM   22  C   UNL     1     -10.244  15.588  67.375  1.00  0.00    -0.255 C  
HETATM   23  C   UNL     1      -9.806  16.754  68.241  1.00  0.00    -0.257 C  
HETATM   24  O   UNL     1      -9.625  17.876  67.772  1.00  0.00    -0.267 OA 
HETATM   25  O   UNL     1      -9.595  16.512  69.550  1.00  0.00    -0.164 OA 
ENDBRANCH  19  22
ENDBRANCH   5   6
ENDBRANCH   4   5
ENDBRANCH   2   4
TORSDOF 4
ENDMDL
MODEL       72
REMARK 921   NORMALIZED FREE ENERGY PREDICTED BY IDOCK:   -4.69 KCAL/MOL
REMARK 922        TOTAL FREE ENERGY PREDICTED BY IDOCK:   -6.34 KCAL/MOL
REMARK 923 INTER-LIGAND FREE ENERGY PREDICTED BY IDOCK:   -6.52 KCAL/MOL
REMARK 924 INTRA-LIGAND FREE ENERGY PREDICTED BY IDOCK:    0.18 KCAL/MOL
REMARK 927      BINDING AFFINITY PREDICTED BY RF-SCORE:    0.00 PKD
ROOT
HETATM    1  C   UNL     1      -5.518  17.183  70.256  1.00  0.00    -0.236 C  
HETATM    2  N   UNL     1      -6.092  16.889  68.937  1.00  0.00    -0.156 NA 
HETATM    3  C   UNL     1      -5.621  15.578  68.485  1.00  0.00    -0.101 C  
ENDROOT
BRANCH   2   4
HETATM    4  C   UNL     1      -7.571  16.933  68.938  1.00  0.00    -0.234 C  
BRANCH   4   5
HETATM    5  C   UNL     1      -8.178  15.521  68.931  1.00  0.00    -0.201 C  
BRANCH   5   6
HETATM    6  C   UNL     1      -9.269  15.264  69.945  1.00  0.00     0.062 C  
HETATM    7  C   UNL     1     -10.581  15.068  69.666  1.00  0.00    -0.252 C  
HETATM    8  C   UNL     1     -11.479  14.752  70.798  1.00  0.00    -0.273 A  
HETATM    9  C   UNL     1     -11.752  15.680  71.809  1.00  0.00    -0.535 A  
HETATM   10  C   UNL     1     -12.670  15.369  72.813  1.00  0.00    -0.510 A  
HETATM   11  C   UNL     1     -13.318  14.134  72.808  1.00  0.00    -0.618 A  
HETATM   12  C   UNL     1     -13.047  13.204  71.803  1.00  0.00    -0.478 A  
HETATM   13  C   UNL     1     -12.124  13.506  70.793  1.00  0.00    -0.351 A  
HETATM   14  C   UNL     1     -11.813  12.532  69.685  1.00  0.00    -0.314 C  
HETATM   15  O   UNL     1     -12.395  12.909  68.437  1.00  0.00    -0.071 OA 
HETATM   16  C   UNL     1     -11.881  13.987  67.760  1.00  0.00    -0.384 A  
HETATM   17  C   UNL     1     -11.087  15.029  68.266  1.00  0.00    -0.292 A  
HETATM   18  C   UNL     1     -10.797  16.123  67.419  1.00  0.00    -0.265 A  
HETATM   19  C   UNL     1     -11.145  16.128  66.060  1.00  0.00     0.064 A  
HETATM   20  C   UNL     1     -11.891  15.057  65.566  1.00  0.00    -0.071 A  
HETATM   21  C   UNL     1     -12.278  14.016  66.415  1.00  0.00    -0.492 A  
BRANCH  19  22
HETATM   22  C   UNL     1     -10.787  17.296  65.169  1.00  0.00     0.051 C  
HETATM   23  C   UNL     1     -10.719  18.681  65.785  1.00  0.00    -0.179 C  
HETATM   24  O   UNL     1     -10.580  19.689  65.097  1.00  0.00    -0.264 OA 
HETATM   25  O   UNL     1     -10.790  18.767  67.128  1.00  0.00    -0.421 OA 
ENDBRANCH  19  22
ENDBRANCH   5   6
ENDBRANCH   4   5
ENDBRANCH   2   4
TORSDOF 4
ENDMDL
MODEL       73
REMARK 921   NORMALIZED FREE ENERGY PREDICTED BY IDOCK:   -4.65 KCAL/MOL
REMARK 922        TOTAL FREE ENERGY PREDICTED BY IDOCK:   -6.29 KCAL/MOL
REMARK 923 INTER-LIGAND FREE ENERGY PREDICTED BY IDOCK:   -5.98 KCAL/MOL
REMARK 924 INTRA-LIGAND FREE ENERGY PREDICTED BY IDOCK:   -0.31 KCAL/MOL
REMARK 927      BINDING AFFINITY PREDICTED BY RF-SCORE:    0.00 PKD
ROOT
HETATM    1  C   UNL     1      -5.257  17.044  70.856  1.00  0.00    -0.189 C  
HETATM    2  N   UNL     1      -5.787  16.113  69.854  1.00  0.00    -0.175 NA 
HETATM    3  C   UNL     1      -5.734  14.748  70.382  1.00  0.00    -0.148 C  
ENDROOT
BRANCH   2   4
HETATM    4  C   UNL     1      -7.166  16.451  69.436  1.00  0.00    -0.172 C  
BRANCH   4   5
HETATM    5  C   UNL     1      -7.645  15.549  68.288  1.00  0.00    -0.115 C  
BRANCH   5   6
HETATM    6  C   UNL     1      -8.643  14.476  68.660  1.00  0.00    -0.168 C  
HETATM    7  C   UNL     1      -9.837  14.259  68.055  1.00  0.00    -0.224 C  
HETATM    8  C   UNL     1     -10.635  13.103  68.518  1.00  0.00    -0.274 A  
HETATM    9  C   UNL     1     -11.187  13.051  69.803  1.00  0.00    -0.010 A  
HETATM   10  C   UNL     1     -12.002  11.979  70.170  1.00  0.00    -0.401 A  
HETATM   11  C   UNL     1     -12.271  10.961  69.254  1.00  0.00    -0.240 A  
HETATM   12  C   UNL     1     -11.721  11.008  67.973  1.00  0.00    -0.257 A  
HETATM   13  C   UNL     1     -10.897  12.078  67.597  1.00  0.00    -0.273 A  
HETATM   14  C   UNL     1     -10.294  12.170  66.219  1.00  0.00    -0.221 C  
HETATM   15  O   UNL     1     -10.928  13.153  65.401  1.00  0.00    -0.275 OA 
HETATM   16  C   UNL     1     -10.726  14.482  65.678  1.00  0.00    -0.327 A  
HETATM   17  C   UNL     1     -10.275  15.058  66.878  1.00  0.00    -0.258 A  
HETATM   18  C   UNL     1     -10.289  16.467  66.991  1.00  0.00    -0.293 A  
HETATM   19  C   UNL     1     -10.589  17.300  65.905  1.00  0.00    -0.206 A  
HETATM   20  C   UNL     1     -10.987  16.706  64.706  1.00  0.00    -0.123 A  
HETATM   21  C   UNL     1     -11.081  15.315  64.607  1.00  0.00    -0.346 A  
BRANCH  19  22
HETATM   22  C   UNL     1     -10.558  18.806  66.047  1.00  0.00    -0.442 C  
HETATM   23  C   UNL     1      -9.221  19.481  66.293  1.00  0.00    -0.365 C  
HETATM   24  O   UNL     1      -9.140  20.677  66.564  1.00  0.00    -0.108 OA 
HETATM   25  O   UNL     1      -8.112  18.723  66.179  1.00  0.00    -0.371 OA 
ENDBRANCH  19  22
ENDBRANCH   5   6
ENDBRANCH   4   5
ENDBRANCH   2   4
TORSDOF 4
ENDMDL
MODEL       74
REMARK 921   NORMALIZED FREE ENERGY PREDICTED BY IDOCK:   -4.63 KCAL/MOL
REMARK 922        TOTAL FREE ENERGY PREDICTED BY IDOCK:   -6.27 KCAL/MOL
REMARK 923 INTER-LIGAND FREE ENERGY PREDICTED BY IDOCK:   -5.91 KCAL/MOL
REMARK 924 INTRA-LIGAND FREE ENERGY PREDICTED BY IDOCK:   -0.36 KCAL/MOL
REMARK 927      BINDING AFFINITY PREDICTED BY RF-SCORE:    0.00 PKD
ROOT
HETATM    1  C   UNL     1     -12.943  11.047  71.335  1.00  0.00    -0.414 C  
HETATM    2  N   UNL     1     -12.745   9.725  71.941  1.00  0.00    -0.404 NA 
HETATM    3  C   UNL     1     -13.827   8.832  71.522  1.00  0.00    -0.340 C  
ENDROOT
BRANCH   2   4
HETATM    4  C   UNL     1     -11.430   9.136  71.602  1.00  0.00    -0.381 C  
BRANCH   4   5
HETATM    5  C   UNL     1     -10.847   9.755  70.321  1.00  0.00    -0.356 C  
BRANCH   5   6
HETATM    6  C   UNL     1      -9.821   8.920  69.590  1.00  0.00    -0.182 C  
HETATM    7  C   UNL     1      -9.053   9.336  68.553  1.00  0.00    -0.132 C  
HETATM    8  C   UNL     1      -8.048   8.388  68.026  1.00  0.00    -0.123 A  
HETATM    9  C   UNL     1      -8.415   7.201  67.381  1.00  0.00    -0.122 A  
HETATM   10  C   UNL     1      -7.436   6.377  66.826  1.00  0.00    -0.087 A  
HETATM   11  C   UNL     1      -6.090   6.737  66.910  1.00  0.00    -0.036 A  
HETATM   12  C   UNL     1      -5.720   7.918  67.554  1.00  0.00    -0.038 A  
HETATM   13  C   UNL     1      -6.695   8.750  68.119  1.00  0.00    -0.065 A  
HETATM   14  C   UNL     1      -6.336  10.039  68.813  1.00  0.00    -0.041 C  
HETATM   15  O   UNL     1      -6.657  11.194  68.037  1.00  0.00    -0.057 OA 
HETATM   16  C   UNL     1      -7.974  11.542  67.874  1.00  0.00    -0.126 A  
HETATM   17  C   UNL     1      -9.111  10.735  68.047  1.00  0.00    -0.150 A  
HETATM   18  C   UNL     1     -10.369  11.261  67.673  1.00  0.00    -0.212 A  
HETATM   19  C   UNL     1     -10.533  12.598  67.283  1.00  0.00    -0.237 A  
HETATM   20  C   UNL     1      -9.395  13.396  67.166  1.00  0.00    -0.240 A  
HETATM   21  C   UNL     1      -8.130  12.863  67.430  1.00  0.00    -0.181 A  
BRANCH  19  22
HETATM   22  C   UNL     1     -11.899  13.142  66.925  1.00  0.00    -0.444 C  
HETATM   23  C   UNL     1     -12.181  13.488  65.475  1.00  0.00    -0.451 C  
HETATM   24  O   UNL     1     -13.210  14.069  65.137  1.00  0.00    -0.768 OA 
HETATM   25  O   UNL     1     -11.270  13.109  64.557  1.00  0.00    -0.324 OA 
ENDBRANCH  19  22
ENDBRANCH   5   6
ENDBRANCH   4   5
ENDBRANCH   2   4
TORSDOF 4
ENDMDL
MODEL       75
REMARK 921   NORMALIZED FREE ENERGY PREDICTED BY IDOCK:   -4.60 KCAL/MOL
REMARK 922        TOTAL FREE ENERGY PREDICTED BY IDOCK:   -6.22 KCAL/MOL
REMARK 923 INTER-LIGAND FREE ENERGY PREDICTED BY IDOCK:   -5.66 KCAL/MOL
REMARK 924 INTRA-LIGAND FREE ENERGY PREDICTED BY IDOCK:   -0.57 KCAL/MOL
REMARK 927      BINDING AFFINITY PREDICTED BY RF-SCORE:    0.00 PKD
ROOT
HETATM    1  C   UNL     1      -7.660  15.688  67.316  1.00  0.00    -0.214 C  
HETATM    2  N   UNL     1      -6.759  14.537  67.443  1.00  0.00    -0.282 NA 
HETATM    3  C   UNL     1      -6.221  14.488  68.804  1.00  0.00    -0.087 C  
ENDROOT
BRANCH   2   4
HETATM    4  C   UNL     1      -7.421  13.257  67.103  1.00  0.00     0.060 C  
BRANCH   4   5
HETATM    5  C   UNL     1      -8.756  13.097  67.849  1.00  0.00    -0.192 C  
BRANCH   5   6
HETATM    6  C   UNL     1      -9.156  11.682  68.195  1.00  0.00    -0.183 C  
HETATM    7  C   UNL     1      -9.855  10.837  67.398  1.00  0.00    -0.204 C  
HETATM    8  C   UNL     1     -10.076   9.461  67.892  1.00  0.00    -0.239 A  
HETATM    9  C   UNL     1     -10.876   9.194  69.009  1.00  0.00    -0.115 A  
HETATM   10  C   UNL     1     -11.125   7.875  69.391  1.00  0.00     0.068 A  
HETATM   11  C   UNL     1     -10.580   6.821  68.656  1.00  0.00    -0.263 A  
HETATM   12  C   UNL     1      -9.780   7.082  67.543  1.00  0.00    -0.167 A  
HETATM   13  C   UNL     1      -9.521   8.403  67.155  1.00  0.00    -0.209 A  
HETATM   14  C   UNL     1      -8.671   8.726  65.953  1.00  0.00    -0.170 C  
HETATM   15  O   UNL     1      -9.438   9.183  64.839  1.00  0.00    -0.113 OA 
HETATM   16  C   UNL     1     -10.006  10.431  64.888  1.00  0.00    -0.339 A  
HETATM   17  C   UNL     1     -10.266  11.221  66.020  1.00  0.00    -0.295 A  
HETATM   18  C   UNL     1     -11.003  12.415  65.849  1.00  0.00    -0.323 A  
HETATM   19  C   UNL     1     -11.344  12.907  64.581  1.00  0.00    -0.361 A  
HETATM   20  C   UNL     1     -11.031  12.129  63.465  1.00  0.00    -0.521 A  
HETATM   21  C   UNL     1     -10.397  10.894  63.623  1.00  0.00    -0.364 A  
BRANCH  19  22
HETATM   22  C   UNL     1     -12.100  14.209  64.428  1.00  0.00    -0.486 C  
HETATM   23  C   UNL     1     -11.327  15.509  64.539  1.00  0.00    -0.314 C  
HETATM   24  O   UNL     1     -11.895  16.599  64.572  1.00  0.00    -0.357 OA 
HETATM   25  O   UNL     1      -9.982  15.432  64.574  1.00  0.00     0.013 OA 
ENDBRANCH  19  22
ENDBRANCH   5   6
ENDBRANCH   4   5
ENDBRANCH   2   4
TORSDOF 4
ENDMDL
MODEL       76
REMARK 921   NORMALIZED FREE ENERGY PREDICTED BY IDOCK:   -4.59 KCAL/MOL
REMARK 922        TOTAL FREE ENERGY PREDICTED BY IDOCK:   -6.21 KCAL/MOL
REMARK 923 INTER-LIGAND FREE ENERGY PREDICTED BY IDOCK:   -5.76 KCAL/MOL
REMARK 924 INTRA-LIGAND FREE ENERGY PREDICTED BY IDOCK:   -0.45 KCAL/MOL
REMARK 927      BINDING AFFINITY PREDICTED BY RF-SCORE:    0.00 PKD
ROOT
HETATM    1  C   UNL     1      -8.560   9.107  70.400  1.00  0.00    -0.209 C  
HETATM    2  N   UNL     1      -7.361   9.736  70.965  1.00  0.00    -0.304 NA 
HETATM    3  C   UNL     1      -6.492   8.703  71.532  1.00  0.00    -0.069 C  
ENDROOT
BRANCH   2   4
HETATM    4  C   UNL     1      -6.621  10.545  69.972  1.00  0.00    -0.144 C  
BRANCH   4   5
HETATM    5  C   UNL     1      -7.575  11.239  68.986  1.00  0.00    -0.106 C  
BRANCH   5   6
HETATM    6  C   UNL     1      -7.493  12.747  68.934  1.00  0.00     0.022 C  
HETATM    7  C   UNL     1      -8.286  13.560  68.194  1.00  0.00    -0.162 C  
HETATM    8  C   UNL     1      -8.096  15.019  68.344  1.00  0.00    -0.141 A  
HETATM    9  C   UNL     1      -6.921  15.660  67.934  1.00  0.00    -0.155 A  
HETATM   10  C   UNL     1      -6.817  17.049  68.018  1.00  0.00    -0.166 A  
HETATM   11  C   UNL     1      -7.885  17.800  68.509  1.00  0.00    -0.290 A  
HETATM   12  C   UNL     1      -9.057  17.165  68.922  1.00  0.00    -0.192 A  
HETATM   13  C   UNL     1      -9.169  15.771  68.845  1.00  0.00    -0.227 A  
HETATM   14  C   UNL     1     -10.423  15.050  69.271  1.00  0.00    -0.249 C  
HETATM   15  O   UNL     1     -11.190  14.573  68.166  1.00  0.00    -0.262 OA 
HETATM   16  C   UNL     1     -10.717  13.511  67.435  1.00  0.00    -0.263 A  
HETATM   17  C   UNL     1      -9.401  13.025  67.366  1.00  0.00    -0.209 A  
HETATM   18  C   UNL     1      -9.110  12.011  66.425  1.00  0.00    -0.193 A  
HETATM   19  C   UNL     1     -10.112  11.378  65.675  1.00  0.00    -0.293 A  
HETATM   20  C   UNL     1     -11.422  11.845  65.797  1.00  0.00    -0.326 A  
HETATM   21  C   UNL     1     -11.712  12.917  66.645  1.00  0.00    -0.452 A  
BRANCH  19  22
HETATM   22  C   UNL     1      -9.774  10.269  64.703  1.00  0.00    -0.398 C  
HETATM   23  C   UNL     1      -9.588  10.624  63.239  1.00  0.00    -0.344 C  
HETATM   24  O   UNL     1      -9.459   9.759  62.376  1.00  0.00    -0.259 OA 
HETATM   25  O   UNL     1      -9.542  11.932  62.918  1.00  0.00    -0.367 OA 
ENDBRANCH  19  22
ENDBRANCH   5   6
ENDBRANCH   4   5
ENDBRANCH   2   4
TORSDOF 4
ENDMDL
MODEL       77
REMARK 921   NORMALIZED FREE ENERGY PREDICTED BY IDOCK:   -4.54 KCAL/MOL
REMARK 922        TOTAL FREE ENERGY PREDICTED BY IDOCK:   -6.15 KCAL/MOL
REMARK 923 INTER-LIGAND FREE ENERGY PREDICTED BY IDOCK:   -5.49 KCAL/MOL
REMARK 924 INTRA-LIGAND FREE ENERGY PREDICTED BY IDOCK:   -0.66 KCAL/MOL
REMARK 927      BINDING AFFINITY PREDICTED BY RF-SCORE:    0.00 PKD
ROOT
HETATM    1  C   UNL     1     -13.254   7.256  71.354  1.00  0.00    -0.346 C  
HETATM    2  N   UNL     1     -12.303   8.347  71.596  1.00  0.00    -0.307 NA 
HETATM    3  C   UNL     1     -13.041   9.589  71.837  1.00  0.00    -0.428 C  
ENDROOT
BRANCH   2   4
HETATM    4  C   UNL     1     -11.386   8.064  72.722  1.00  0.00    -0.374 C  
BRANCH   4   5
HETATM    5  C   UNL     1      -9.965   7.750  72.228  1.00  0.00    -0.259 C  
BRANCH   5   6
HETATM    6  C   UNL     1      -9.266   8.858  71.475  1.00  0.00    -0.322 C  
HETATM    7  C   UNL     1      -9.080   8.911  70.133  1.00  0.00    -0.189 C  
HETATM    8  C   UNL     1      -8.440  10.125  69.581  1.00  0.00    -0.172 A  
HETATM    9  C   UNL     1      -7.108  10.451  69.857  1.00  0.00    -0.160 A  
HETATM   10  C   UNL     1      -6.519  11.561  69.249  1.00  0.00    -0.103 A  
HETATM   11  C   UNL     1      -7.259  12.343  68.362  1.00  0.00    -0.110 A  
HETATM   12  C   UNL     1      -8.589  12.024  68.085  1.00  0.00    -0.173 A  
HETATM   13  C   UNL     1      -9.189  10.914  68.695  1.00  0.00    -0.187 A  
HETATM   14  C   UNL     1     -10.619  10.530  68.413  1.00  0.00    -0.199 C  
HETATM   15  O   UNL     1     -10.729   9.377  67.579  1.00  0.00    -0.280 OA 
HETATM   16  C   UNL     1     -10.403   8.147  68.094  1.00  0.00    -0.201 A  
HETATM   17  C   UNL     1      -9.621   7.862  69.225  1.00  0.00    -0.157 A  
HETATM   18  C   UNL     1      -9.285   6.514  69.485  1.00  0.00    -0.142 A  
HETATM   19  C   UNL     1      -9.829   5.453  68.747  1.00  0.00    -0.208 A  
HETATM   20  C   UNL     1     -10.645   5.758  67.656  1.00  0.00    -0.313 A  
HETATM   21  C   UNL     1     -10.902   7.090  67.320  1.00  0.00    -0.403 A  
BRANCH  19  22
HETATM   22  C   UNL     1      -9.481   4.018  69.073  1.00  0.00    -0.243 C  
HETATM   23  C   UNL     1      -8.399   3.333  68.259  1.00  0.00    -0.078 C  
HETATM   24  O   UNL     1      -8.168   2.131  68.370  1.00  0.00    -0.056 OA 
HETATM   25  O   UNL     1      -7.673   4.100  67.422  1.00  0.00    -0.082 OA 
ENDBRANCH  19  22
ENDBRANCH   5   6
ENDBRANCH   4   5
ENDBRANCH   2   4
TORSDOF 4
ENDMDL
MODEL       78
REMARK 921   NORMALIZED FREE ENERGY PREDICTED BY IDOCK:   -4.50 KCAL/MOL
REMARK 922        TOTAL FREE ENERGY PREDICTED BY IDOCK:   -6.11 KCAL/MOL
REMARK 923 INTER-LIGAND FREE ENERGY PREDICTED BY IDOCK:   -5.62 KCAL/MOL
REMARK 924 INTRA-LIGAND FREE ENERGY PREDICTED BY IDOCK:   -0.49 KCAL/MOL
REMARK 927      BINDING AFFINITY PREDICTED BY RF-SCORE:    0.00 PKD
ROOT
HETATM    1  C   UNL     1     -10.397   4.603  66.538  1.00  0.00    -0.194 C  
HETATM    2  N   UNL     1      -9.106   4.978  65.949  1.00  0.00    -0.146 NA 
HETATM    3  C   UNL     1      -9.109   4.650  64.522  1.00  0.00    -0.132 C  
ENDROOT
BRANCH   2   4
HETATM    4  C   UNL     1      -8.785   6.409  66.148  1.00  0.00    -0.146 C  
BRANCH   4   5
HETATM    5  C   UNL     1     -10.017   7.205  66.609  1.00  0.00    -0.234 C  
BRANCH   5   6
HETATM    6  C   UNL     1      -9.922   8.708  66.480  1.00  0.00    -0.353 C  
HETATM    7  C   UNL     1      -9.931   9.594  67.506  1.00  0.00    -0.231 C  
HETATM    8  C   UNL     1      -9.746  11.023  67.173  1.00  0.00    -0.198 A  
HETATM    9  C   UNL     1     -10.696  11.742  66.438  1.00  0.00    -0.306 A  
HETATM   10  C   UNL     1     -10.520  13.109  66.218  1.00  0.00    -0.291 A  
HETATM   11  C   UNL     1      -9.399  13.760  66.733  1.00  0.00    -0.276 A  
HETATM   12  C   UNL     1      -8.447  13.047  67.463  1.00  0.00    -0.190 A  
HETATM   13  C   UNL     1      -8.613  11.674  67.686  1.00  0.00    -0.142 A  
HETATM   14  C   UNL     1      -7.614  10.871  68.479  1.00  0.00    -0.111 C  
HETATM   15  O   UNL     1      -8.087  10.530  69.782  1.00  0.00    -0.116 OA 
HETATM   16  C   UNL     1      -9.079   9.590  69.906  1.00  0.00    -0.216 A  
HETATM   17  C   UNL     1      -9.983   9.149  68.925  1.00  0.00    -0.189 A  
HETATM   18  C   UNL     1     -11.027   8.281  69.318  1.00  0.00     0.031 A  
HETATM   19  C   UNL     1     -11.097   7.732  70.606  1.00  0.00    -0.264 A  
HETATM   20  C   UNL     1     -10.157   8.145  71.552  1.00  0.00    -0.243 A  
HETATM   21  C   UNL     1      -9.181   9.085  71.211  1.00  0.00    -0.314 A  
BRANCH  19  22
HETATM   22  C   UNL     1     -12.205   6.774  70.985  1.00  0.00    -0.405 C  
HETATM   23  C   UNL     1     -13.489   7.345  71.556  1.00  0.00    -0.372 C  
HETATM   24  O   UNL     1     -14.368   6.622  72.020  1.00  0.00    -0.225 OA 
HETATM   25  O   UNL     1     -13.648   8.683  71.513  1.00  0.00    -0.354 OA 
ENDBRANCH  19  22
ENDBRANCH   5   6
ENDBRANCH   4   5
ENDBRANCH   2   4
TORSDOF 4
ENDMDL
MODEL       79
REMARK 921   NORMALIZED FREE ENERGY PREDICTED BY IDOCK:   -4.49 KCAL/MOL
REMARK 922        TOTAL FREE ENERGY PREDICTED BY IDOCK:   -6.10 KCAL/MOL
REMARK 923 INTER-LIGAND FREE ENERGY PREDICTED BY IDOCK:   -5.43 KCAL/MOL
REMARK 924 INTRA-LIGAND FREE ENERGY PREDICTED BY IDOCK:   -0.67 KCAL/MOL
REMARK 927      BINDING AFFINITY PREDICTED BY RF-SCORE:    0.00 PKD
ROOT
HETATM    1  C   UNL     1      -6.753   6.792  68.720  1.00  0.00    -0.056 C  
HETATM    2  N   UNL     1      -6.090   7.173  67.467  1.00  0.00    -0.039 NA 
HETATM    3  C   UNL     1      -6.477   6.238  66.409  1.00  0.00    -0.047 C  
ENDROOT
BRANCH   2   4
HETATM    4  C   UNL     1      -6.394   8.564  67.064  1.00  0.00    -0.057 C  
BRANCH   4   5
HETATM    5  C   UNL     1      -7.489   8.613  65.987  1.00  0.00    -0.085 C  
BRANCH   5   6
HETATM    6  C   UNL     1      -8.480   9.749  66.100  1.00  0.00    -0.130 C  
HETATM    7  C   UNL     1      -9.686   9.692  66.716  1.00  0.00    -0.252 C  
HETATM    8  C   UNL     1     -10.475  10.941  66.787  1.00  0.00    -0.302 A  
HETATM    9  C   UNL     1     -10.999  11.552  65.642  1.00  0.00    -0.296 A  
HETATM   10  C   UNL     1     -11.808  12.684  65.763  1.00  0.00    -0.497 A  
HETATM   11  C   UNL     1     -12.095  13.204  67.025  1.00  0.00    -0.366 A  
HETATM   12  C   UNL     1     -11.572  12.600  68.169  1.00  0.00    -0.386 A  
HETATM   13  C   UNL     1     -10.756  11.466  68.057  1.00  0.00    -0.240 A  
HETATM   14  C   UNL     1     -10.181  10.779  69.269  1.00  0.00    -0.194 C  
HETATM   15  O   UNL     1     -10.832   9.543  69.566  1.00  0.00    -0.231 OA 
HETATM   16  C   UNL     1     -10.624   8.466  68.742  1.00  0.00    -0.125 A  
HETATM   17  C   UNL     1     -10.148   8.465  67.420  1.00  0.00    -0.301 A  
HETATM   18  C   UNL     1     -10.159   7.246  66.705  1.00  0.00    -0.291 A  
HETATM   19  C   UNL     1     -10.482   6.025  67.315  1.00  0.00    -0.319 A  
HETATM   20  C   UNL     1     -10.904   6.043  68.645  1.00  0.00    -0.379 A  
HETATM   21  C   UNL     1     -11.001   7.253  69.337  1.00  0.00    -0.157 A  
BRANCH  19  22
HETATM   22  C   UNL     1     -10.447   4.730  66.533  1.00  0.00    -0.251 C  
HETATM   23  C   UNL     1      -9.350   3.729  66.843  1.00  0.00    -0.193 C  
HETATM   24  O   UNL     1      -9.174   2.728  66.151  1.00  0.00    -0.140 OA 
HETATM   25  O   UNL     1      -8.586   3.960  67.929  1.00  0.00    -0.093 OA 
ENDBRANCH  19  22
ENDBRANCH   5   6
ENDBRANCH   4   5
ENDBRANCH   2   4
TORSDOF 4
ENDMDL
MODEL       80
REMARK 921   NORMALIZED FREE ENERGY PREDICTED BY IDOCK:   -4.46 KCAL/MOL
REMARK 922        TOTAL FREE ENERGY PREDICTED BY IDOCK:   -6.05 KCAL/MOL
REMARK 923 INTER-LIGAND FREE ENERGY PREDICTED BY IDOCK:   -5.74 KCAL/MOL
REMARK 924 INTRA-LIGAND FREE ENERGY PREDICTED BY IDOCK:   -0.31 KCAL/MOL
REMARK 927      BINDING AFFINITY PREDICTED BY RF-SCORE:    0.00 PKD
ROOT
HETATM    1  C   UNL     1     -10.000  16.098  68.600  1.00  0.00    -0.228 C  
HETATM    2  N   UNL     1      -9.138  15.422  67.623  1.00  0.00    -0.181 NA 
HETATM    3  C   UNL     1      -8.185  16.385  67.068  1.00  0.00    -0.198 C  
ENDROOT
BRANCH   2   4
HETATM    4  C   UNL     1      -8.422  14.263  68.202  1.00  0.00    -0.167 C  
BRANCH   4   5
HETATM    5  C   UNL     1      -8.401  13.071  67.232  1.00  0.00    -0.186 C  
BRANCH   5   6
HETATM    6  C   UNL     1      -8.297  11.703  67.865  1.00  0.00    -0.143 C  
HETATM    7  C   UNL     1      -8.611  10.526  67.269  1.00  0.00    -0.122 C  
HETATM    8  C   UNL     1      -8.363   9.286  68.035  1.00  0.00    -0.120 A  
HETATM    9  C   UNL     1      -9.077   8.978  69.199  1.00  0.00    -0.140 A  
HETATM   10  C   UNL     1      -8.868   7.758  69.844  1.00  0.00    -0.142 A  
HETATM   11  C   UNL     1      -7.950   6.844  69.328  1.00  0.00    -0.116 A  
HETATM   12  C   UNL     1      -7.233   7.148  68.169  1.00  0.00    -0.095 A  
HETATM   13  C   UNL     1      -7.433   8.372  67.517  1.00  0.00    -0.094 A  
HETATM   14  C   UNL     1      -6.686   8.732  66.258  1.00  0.00    -0.073 C  
HETATM   15  O   UNL     1      -7.504   8.660  65.090  1.00  0.00    -0.086 OA 
HETATM   16  C   UNL     1      -8.475   9.610  64.896  1.00  0.00    -0.151 A  
HETATM   17  C   UNL     1      -9.056  10.462  65.850  1.00  0.00    -0.192 A  
HETATM   18  C   UNL     1     -10.154  11.260  65.455  1.00  0.00    -0.306 A  
HETATM   19  C   UNL     1     -10.578  11.340  64.121  1.00  0.00    -0.437 A  
HETATM   20  C   UNL     1      -9.952  10.521  63.180  1.00  0.00    -0.204 A  
HETATM   21  C   UNL     1      -8.935   9.647  63.572  1.00  0.00    -0.247 A  
BRANCH  19  22
HETATM   22  C   UNL     1     -11.732  12.233  63.722  1.00  0.00    -0.566 C  
HETATM   23  C   UNL     1     -11.643  13.714  64.041  1.00  0.00    -0.317 C  
HETATM   24  O   UNL     1     -12.600  14.468  63.880  1.00  0.00    -0.827 OA 
HETATM   25  O   UNL     1     -10.461  14.184  64.485  1.00  0.00    -0.408 OA 
ENDBRANCH  19  22
ENDBRANCH   5   6
ENDBRANCH   4   5
ENDBRANCH   2   4
TORSDOF 4
ENDMDL
MODEL       81
REMARK 921   NORMALIZED FREE ENERGY PREDICTED BY IDOCK:   -4.45 KCAL/MOL
REMARK 922        TOTAL FREE ENERGY PREDICTED BY IDOCK:   -6.04 KCAL/MOL
REMARK 923 INTER-LIGAND FREE ENERGY PREDICTED BY IDOCK:   -5.54 KCAL/MOL
REMARK 924 INTRA-LIGAND FREE ENERGY PREDICTED BY IDOCK:   -0.50 KCAL/MOL
REMARK 927      BINDING AFFINITY PREDICTED BY RF-SCORE:    0.00 PKD
ROOT
HETATM    1  C   UNL     1      -7.278   6.014  68.238  1.00  0.00    -0.084 C  
HETATM    2  N   UNL     1      -8.204   6.283  67.132  1.00  0.00    -0.109 NA 
HETATM    3  C   UNL     1      -7.601   5.835  65.874  1.00  0.00    -0.086 C  
ENDROOT
BRANCH   2   4
HETATM    4  C   UNL     1      -9.524   5.644  67.328  1.00  0.00    -0.115 C  
BRANCH   4   5
HETATM    5  C   UNL     1      -9.792   5.346  68.812  1.00  0.00    -0.208 C  
BRANCH   5   6
HETATM    6  C   UNL     1     -10.877   6.169  69.468  1.00  0.00    -0.428 C  
HETATM    7  C   UNL     1     -10.834   6.684  70.721  1.00  0.00    -0.299 C  
HETATM    8  C   UNL     1     -11.968   7.531  71.149  1.00  0.00    -0.334 A  
HETATM    9  C   UNL     1     -13.257   7.014  71.320  1.00  0.00    -0.304 A  
HETATM   10  C   UNL     1     -14.279   7.832  71.804  1.00  0.00    -0.558 A  
HETATM   11  C   UNL     1     -14.015   9.164  72.122  1.00  0.00    -0.466 A  
HETATM   12  C   UNL     1     -12.732   9.685  71.951  1.00  0.00    -0.499 A  
HETATM   13  C   UNL     1     -11.701   8.873  71.461  1.00  0.00    -0.394 A  
HETATM   14  C   UNL     1     -10.299   9.396  71.272  1.00  0.00    -0.292 C  
HETATM   15  O   UNL     1      -9.392   8.918  72.265  1.00  0.00    -0.360 OA 
HETATM   16  C   UNL     1      -9.004   7.602  72.236  1.00  0.00    -0.135 A  
HETATM   17  C   UNL     1      -9.637   6.526  71.592  1.00  0.00    -0.167 A  
HETATM   18  C   UNL     1      -9.144   5.222  71.825  1.00  0.00    -0.154 A  
HETATM   19  C   UNL     1      -7.966   4.987  72.547  1.00  0.00    -0.101 A  
HETATM   20  C   UNL     1      -7.324   6.078  73.137  1.00  0.00    -0.093 A  
HETATM   21  C   UNL     1      -7.856   7.363  73.006  1.00  0.00    -0.119 A  
BRANCH  19  22
HETATM   22  C   UNL     1      -7.442   3.582  72.747  1.00  0.00    -0.059 C  
HETATM   23  C   UNL     1      -8.036   2.741  73.862  1.00  0.00    -0.060 C  
HETATM   24  O   UNL     1      -7.559   1.652  74.174  1.00  0.00    -0.028 OA 
HETATM   25  O   UNL     1      -9.129   3.221  74.486  1.00  0.00    -0.085 OA 
ENDBRANCH  19  22
ENDBRANCH   5   6
ENDBRANCH   4   5
ENDBRANCH   2   4
TORSDOF 4
ENDMDL
MODEL       82
REMARK 921   NORMALIZED FREE ENERGY PREDICTED BY IDOCK:   -4.43 KCAL/MOL
REMARK 922        TOTAL FREE ENERGY PREDICTED BY IDOCK:   -6.02 KCAL/MOL
REMARK 923 INTER-LIGAND FREE ENERGY PREDICTED BY IDOCK:   -5.30 KCAL/MOL
REMARK 924 INTRA-LIGAND FREE ENERGY PREDICTED BY IDOCK:   -0.72 KCAL/MOL
REMARK 927      BINDING AFFINITY PREDICTED BY RF-SCORE:    0.00 PKD
ROOT
HETATM    1  C   UNL     1      -8.944  10.504  64.204  1.00  0.00    -0.218 C  
HETATM    2  N   UNL     1      -7.961   9.623  64.845  1.00  0.00    -0.118 NA 
HETATM    3  C   UNL     1      -7.744   8.444  64.004  1.00  0.00    -0.139 C  
ENDROOT
BRANCH   2   4
HETATM    4  C   UNL     1      -6.678  10.306  65.118  1.00  0.00    -0.120 C  
BRANCH   4   5
HETATM    5  C   UNL     1      -6.706  11.043  66.467  1.00  0.00    -0.135 C  
BRANCH   5   6
HETATM    6  C   UNL     1      -7.398  10.322  67.601  1.00  0.00    -0.088 C  
HETATM    7  C   UNL     1      -8.577  10.680  68.167  1.00  0.00    -0.123 C  
HETATM    8  C   UNL     1      -9.127   9.794  69.215  1.00  0.00    -0.189 A  
HETATM    9  C   UNL     1      -8.494   9.624  70.451  1.00  0.00    -0.187 A  
HETATM   10  C   UNL     1      -9.091   8.843  71.441  1.00  0.00    -0.318 A  
HETATM   11  C   UNL     1     -10.323   8.233  71.200  1.00  0.00    -0.247 A  
HETATM   12  C   UNL     1     -10.956   8.396  69.968  1.00  0.00    -0.194 A  
HETATM   13  C   UNL     1     -10.362   9.175  68.966  1.00  0.00    -0.229 A  
HETATM   14  C   UNL     1     -11.021   9.384  67.626  1.00  0.00    -0.036 C  
HETATM   15  O   UNL     1     -11.574  10.692  67.480  1.00  0.00    -0.482 OA 
HETATM   16  C   UNL     1     -10.727  11.762  67.334  1.00  0.00    -0.236 A  
HETATM   17  C   UNL     1      -9.365  11.840  67.667  1.00  0.00    -0.180 A  
HETATM   18  C   UNL     1      -8.723  13.096  67.574  1.00  0.00    -0.201 A  
HETATM   19  C   UNL     1      -9.356  14.219  67.021  1.00  0.00    -0.249 A  
HETATM   20  C   UNL     1     -10.696  14.104  66.649  1.00  0.00    -0.289 A  
HETATM   21  C   UNL     1     -11.378  12.899  66.832  1.00  0.00    -0.358 A  
BRANCH  19  22
HETATM   22  C   UNL     1      -8.630  15.540  66.899  1.00  0.00    -0.289 C  
HETATM   23  C   UNL     1      -8.888  16.606  67.948  1.00  0.00    -0.205 C  
HETATM   24  O   UNL     1      -8.449  17.748  67.831  1.00  0.00    -0.235 OA 
HETATM   25  O   UNL     1      -9.598  16.247  69.036  1.00  0.00    -0.237 OA 
ENDBRANCH  19  22
ENDBRANCH   5   6
ENDBRANCH   4   5
ENDBRANCH   2   4
TORSDOF 4
ENDMDL
MODEL       83
REMARK 921   NORMALIZED FREE ENERGY PREDICTED BY IDOCK:   -4.40 KCAL/MOL
REMARK 922        TOTAL FREE ENERGY PREDICTED BY IDOCK:   -5.98 KCAL/MOL
REMARK 923 INTER-LIGAND FREE ENERGY PREDICTED BY IDOCK:   -5.47 KCAL/MOL
REMARK 924 INTRA-LIGAND FREE ENERGY PREDICTED BY IDOCK:   -0.50 KCAL/MOL
REMARK 927      BINDING AFFINITY PREDICTED BY RF-SCORE:    0.00 PKD
ROOT
HETATM    1  C   UNL     1     -10.907   7.582  73.034  1.00  0.00    -0.392 C  
HETATM    2  N   UNL     1     -11.363   6.757  71.909  1.00  0.00    -0.258 NA 
HETATM    3  C   UNL     1     -12.767   7.059  71.623  1.00  0.00    -0.377 C  
ENDROOT
BRANCH   2   4
HETATM    4  C   UNL     1     -10.536   6.944  70.696  1.00  0.00    -0.222 C  
BRANCH   4   5
HETATM    5  C   UNL     1     -11.388   6.878  69.418  1.00  0.00    -0.172 C  
BRANCH   5   6
HETATM    6  C   UNL     1     -10.839   6.023  68.299  1.00  0.00    -0.366 C  
HETATM    7  C   UNL     1     -10.019   6.446  67.306  1.00  0.00    -0.184 C  
HETATM    8  C   UNL     1      -9.527   5.432  66.350  1.00  0.00    -0.164 A  
HETATM    9  C   UNL     1     -10.385   4.769  65.465  1.00  0.00    -0.162 A  
HETATM   10  C   UNL     1      -9.867   3.880  64.522  1.00  0.00    -0.191 A  
HETATM   11  C   UNL     1      -8.492   3.653  64.460  1.00  0.00    -0.097 A  
HETATM   12  C   UNL     1      -7.632   4.309  65.342  1.00  0.00    -0.085 A  
HETATM   13  C   UNL     1      -8.144   5.200  66.294  1.00  0.00    -0.108 A  
HETATM   14  C   UNL     1      -7.247   5.936  67.257  1.00  0.00    -0.076 C  
HETATM   15  O   UNL     1      -7.093   7.316  66.926  1.00  0.00    -0.081 OA 
HETATM   16  C   UNL     1      -8.152   8.169  67.117  1.00  0.00    -0.116 A  
HETATM   17  C   UNL     1      -9.512   7.845  67.252  1.00  0.00    -0.188 A  
HETATM   18  C   UNL     1     -10.452   8.900  67.286  1.00  0.00    -0.348 A  
HETATM   19  C   UNL     1     -10.062  10.246  67.341  1.00  0.00    -0.246 A  
HETATM   20  C   UNL     1      -8.701  10.543  67.255  1.00  0.00    -0.126 A  
HETATM   21  C   UNL     1      -7.763   9.517  67.115  1.00  0.00    -0.091 A  
BRANCH  19  22
HETATM   22  C   UNL     1     -11.091  11.352  67.415  1.00  0.00    -0.349 C  
HETATM   23  C   UNL     1     -11.437  12.104  66.143  1.00  0.00    -0.371 C  
HETATM   24  O   UNL     1     -12.150  13.106  66.157  1.00  0.00    -0.407 OA 
HETATM   25  O   UNL     1     -10.953  11.618  64.983  1.00  0.00    -0.298 OA 
ENDBRANCH  19  22
ENDBRANCH   5   6
ENDBRANCH   4   5
ENDBRANCH   2   4
TORSDOF 4
ENDMDL
MODEL       84
REMARK 921   NORMALIZED FREE ENERGY PREDICTED BY IDOCK:   -4.39 KCAL/MOL
REMARK 922        TOTAL FREE ENERGY PREDICTED BY IDOCK:   -5.97 KCAL/MOL
REMARK 923 INTER-LIGAND FREE ENERGY PREDICTED BY IDOCK:   -5.50 KCAL/MOL
REMARK 924 INTRA-LIGAND FREE ENERGY PREDICTED BY IDOCK:   -0.46 KCAL/MOL
REMARK 927      BINDING AFFINITY PREDICTED BY RF-SCORE:    0.00 PKD
ROOT
HETATM    1  C   UNL     1      -9.429   8.470  72.362  1.00  0.00    -0.280 C  
HETATM    2  N   UNL     1     -10.587   8.402  71.462  1.00  0.00    -0.225 NA 
HETATM    3  C   UNL     1     -11.801   8.175  72.249  1.00  0.00    -0.382 C  
ENDROOT
BRANCH   2   4
HETATM    4  C   UNL     1     -10.732   9.617  70.629  1.00  0.00    -0.322 C  
BRANCH   4   5
HETATM    5  C   UNL     1     -10.689   9.281  69.129  1.00  0.00    -0.202 C  
BRANCH   5   6
HETATM    6  C   UNL     1     -10.231   7.885  68.776  1.00  0.00    -0.218 C  
HETATM    7  C   UNL     1      -9.581   7.525  67.642  1.00  0.00    -0.171 C  
HETATM    8  C   UNL     1      -9.147   6.117  67.522  1.00  0.00    -0.109 A  
HETATM    9  C   UNL     1     -10.065   5.064  67.423  1.00  0.00    -0.213 A  
HETATM   10  C   UNL     1      -9.612   3.759  67.228  1.00  0.00    -0.213 A  
HETATM   11  C   UNL     1      -8.244   3.503  67.128  1.00  0.00    -0.091 A  
HETATM   12  C   UNL     1      -7.325   4.548  67.228  1.00  0.00    -0.074 A  
HETATM   13  C   UNL     1      -7.770   5.862  67.429  1.00  0.00    -0.097 A  
HETATM   14  C   UNL     1      -6.810   7.019  67.531  1.00  0.00    -0.073 C  
HETATM   15  O   UNL     1      -6.802   7.838  66.362  1.00  0.00    -0.060 OA 
HETATM   16  C   UNL     1      -7.885   8.639  66.102  1.00  0.00    -0.098 A  
HETATM   17  C   UNL     1      -9.189   8.528  66.614  1.00  0.00    -0.223 A  
HETATM   18  C   UNL     1     -10.190   9.375  66.087  1.00  0.00    -0.264 A  
HETATM   19  C   UNL     1      -9.895  10.413  65.192  1.00  0.00    -0.378 A  
HETATM   20  C   UNL     1      -8.582  10.537  64.735  1.00  0.00    -0.173 A  
HETATM   21  C   UNL     1      -7.599   9.642  65.163  1.00  0.00    -0.114 A  
BRANCH  19  22
HETATM   22  C   UNL     1     -10.983  11.329  64.675  1.00  0.00    -0.281 C  
HETATM   23  C   UNL     1     -11.693  12.235  65.663  1.00  0.00    -0.382 C  
HETATM   24  O   UNL     1     -12.681  12.894  65.343  1.00  0.00    -0.583 OA 
HETATM   25  O   UNL     1     -11.185  12.316  66.909  1.00  0.00    -0.276 OA 
ENDBRANCH  19  22
ENDBRANCH   5   6
ENDBRANCH   4   5
ENDBRANCH   2   4
TORSDOF 4
ENDMDL
MODEL       85
REMARK 921   NORMALIZED FREE ENERGY PREDICTED BY IDOCK:   -4.37 KCAL/MOL
REMARK 922        TOTAL FREE ENERGY PREDICTED BY IDOCK:   -5.95 KCAL/MOL
REMARK 923 INTER-LIGAND FREE ENERGY PREDICTED BY IDOCK:   -5.44 KCAL/MOL
REMARK 924 INTRA-LIGAND FREE ENERGY PREDICTED BY IDOCK:   -0.51 KCAL/MOL
REMARK 927      BINDING AFFINITY PREDICTED BY RF-SCORE:    0.00 PKD
ROOT
HETATM    1  C   UNL     1     -11.008   5.394  72.976  1.00  0.00    -0.297 C  
HETATM    2  N   UNL     1     -11.624   6.720  72.859  1.00  0.00    -0.073 NA 
HETATM    3  C   UNL     1     -10.578   7.745  72.865  1.00  0.00    -0.366 C  
ENDROOT
BRANCH   2   4
HETATM    4  C   UNL     1     -12.467   6.851  71.649  1.00  0.00    -0.375 C  
BRANCH   4   5
HETATM    5  C   UNL     1     -11.715   7.560  70.512  1.00  0.00    -0.183 C  
BRANCH   5   6
HETATM    6  C   UNL     1     -11.205   6.672  69.400  1.00  0.00    -0.356 C  
HETATM    7  C   UNL     1     -10.384   7.056  68.392  1.00  0.00    -0.216 C  
HETATM    8  C   UNL     1      -9.933   6.012  67.446  1.00  0.00    -0.165 A  
HETATM    9  C   UNL     1     -10.821   5.361  66.582  1.00  0.00    -0.220 A  
HETATM   10  C   UNL     1     -10.340   4.442  65.648  1.00  0.00    -0.252 A  
HETATM   11  C   UNL     1      -8.972   4.175  65.573  1.00  0.00    -0.131 A  
HETATM   12  C   UNL     1      -8.084   4.820  66.434  1.00  0.00    -0.107 A  
HETATM   13  C   UNL     1      -8.558   5.741  67.378  1.00  0.00    -0.105 A  
HETATM   14  C   UNL     1      -7.629   6.466  68.318  1.00  0.00    -0.103 C  
HETATM   15  O   UNL     1      -7.440   7.836  67.963  1.00  0.00    -0.102 OA 
HETATM   16  C   UNL     1      -8.472   8.721  68.152  1.00  0.00    -0.130 A  
HETATM   17  C   UNL     1      -9.839   8.438  68.309  1.00  0.00    -0.189 A  
HETATM   18  C   UNL     1     -10.748   9.520  68.336  1.00  0.00    -0.230 A  
HETATM   19  C   UNL     1     -10.320  10.855  68.365  1.00  0.00    -0.196 A  
HETATM   20  C   UNL     1      -8.952  11.112  68.259  1.00  0.00    -0.166 A  
HETATM   21  C   UNL     1      -8.045  10.057  68.124  1.00  0.00    -0.108 A  
BRANCH  19  22
HETATM   22  C   UNL     1     -11.316  11.991  68.433  1.00  0.00    -0.332 C  
HETATM   23  C   UNL     1     -11.718  12.678  67.141  1.00  0.00    -0.371 C  
HETATM   24  O   UNL     1     -12.405  13.697  67.137  1.00  0.00    -0.336 OA 
HETATM   25  O   UNL     1     -11.316  12.113  65.986  1.00  0.00    -0.329 OA 
ENDBRANCH  19  22
ENDBRANCH   5   6
ENDBRANCH   4   5
ENDBRANCH   2   4
TORSDOF 4
ENDMDL
MODEL       86
REMARK 921   NORMALIZED FREE ENERGY PREDICTED BY IDOCK:   -4.37 KCAL/MOL
REMARK 922        TOTAL FREE ENERGY PREDICTED BY IDOCK:   -5.94 KCAL/MOL
REMARK 923 INTER-LIGAND FREE ENERGY PREDICTED BY IDOCK:   -5.50 KCAL/MOL
REMARK 924 INTRA-LIGAND FREE ENERGY PREDICTED BY IDOCK:   -0.44 KCAL/MOL
REMARK 927      BINDING AFFINITY PREDICTED BY RF-SCORE:    0.00 PKD
ROOT
HETATM    1  C   UNL     1     -10.519   4.227  65.074  1.00  0.00    -0.165 C  
HETATM    2  N   UNL     1     -10.377   4.727  66.447  1.00  0.00    -0.281 NA 
HETATM    3  C   UNL     1      -9.535   3.807  67.214  1.00  0.00    -0.200 C  
ENDROOT
BRANCH   2   4
HETATM    4  C   UNL     1      -9.823   6.098  66.498  1.00  0.00    -0.133 C  
BRANCH   4   5
HETATM    5  C   UNL     1     -10.675   7.018  67.388  1.00  0.00    -0.383 C  
BRANCH   5   6
HETATM    6  C   UNL     1     -10.661   8.486  67.029  1.00  0.00    -0.305 C  
HETATM    7  C   UNL     1     -10.170   9.487  67.801  1.00  0.00    -0.265 C  
HETATM    8  C   UNL     1     -10.177  10.852  67.232  1.00  0.00    -0.242 A  
HETATM    9  C   UNL     1     -11.368  11.537  66.963  1.00  0.00    -0.340 A  
HETATM   10  C   UNL     1     -11.328  12.854  66.505  1.00  0.00    -0.361 A  
HETATM   11  C   UNL     1     -10.101  13.491  66.317  1.00  0.00    -0.298 A  
HETATM   12  C   UNL     1      -8.911  12.811  66.581  1.00  0.00    -0.152 A  
HETATM   13  C   UNL     1      -8.941  11.487  67.038  1.00  0.00    -0.174 A  
HETATM   14  C   UNL     1      -7.678  10.723  67.345  1.00  0.00    -0.107 C  
HETATM   15  O   UNL     1      -7.451  10.569  68.746  1.00  0.00    -0.084 OA 
HETATM   16  C   UNL     1      -8.251   9.714  69.461  1.00  0.00    -0.136 A  
HETATM   17  C   UNL     1      -9.518   9.217  69.112  1.00  0.00    -0.157 A  
HETATM   18  C   UNL     1     -10.232   8.468  70.074  1.00  0.00    -0.201 A  
HETATM   19  C   UNL     1      -9.660   8.081  71.294  1.00  0.00    -0.191 A  
HETATM   20  C   UNL     1      -8.380   8.544  71.599  1.00  0.00    -0.218 A  
HETATM   21  C   UNL     1      -7.699   9.374  70.704  1.00  0.00    -0.172 A  
BRANCH  19  22
HETATM   22  C   UNL     1     -10.437   7.245  72.288  1.00  0.00    -0.246 C  
HETATM   23  C   UNL     1     -10.768   5.810  71.923  1.00  0.00    -0.242 C  
HETATM   24  O   UNL     1     -11.518   5.124  72.614  1.00  0.00    -0.229 OA 
HETATM   25  O   UNL     1     -10.186   5.300  70.819  1.00  0.00    -0.220 OA 
ENDBRANCH  19  22
ENDBRANCH   5   6
ENDBRANCH   4   5
ENDBRANCH   2   4
TORSDOF 4
ENDMDL
MODEL       87
REMARK 921   NORMALIZED FREE ENERGY PREDICTED BY IDOCK:   -4.33 KCAL/MOL
REMARK 922        TOTAL FREE ENERGY PREDICTED BY IDOCK:   -5.89 KCAL/MOL
REMARK 923 INTER-LIGAND FREE ENERGY PREDICTED BY IDOCK:   -5.43 KCAL/MOL
REMARK 924 INTRA-LIGAND FREE ENERGY PREDICTED BY IDOCK:   -0.47 KCAL/MOL
REMARK 927      BINDING AFFINITY PREDICTED BY RF-SCORE:    0.00 PKD
ROOT
HETATM    1  C   UNL     1      -8.556   5.024  65.650  1.00  0.00    -0.135 C  
HETATM    2  N   UNL     1      -8.592   6.440  66.036  1.00  0.00    -0.143 NA 
HETATM    3  C   UNL     1      -7.916   7.239  65.011  1.00  0.00    -0.129 C  
ENDROOT
BRANCH   2   4
HETATM    4  C   UNL     1      -9.969   6.935  66.252  1.00  0.00     0.106 C  
BRANCH   4   5
HETATM    5  C   UNL     1     -10.116   7.615  67.623  1.00  0.00    -0.249 C  
BRANCH   5   6
HETATM    6  C   UNL     1      -9.501   6.884  68.794  1.00  0.00    -0.135 C  
HETATM    7  C   UNL     1      -9.705   7.170  70.103  1.00  0.00    -0.171 C  
HETATM    8  C   UNL     1      -9.071   6.281  71.101  1.00  0.00    -0.148 A  
HETATM    9  C   UNL     1      -7.682   6.207  71.252  1.00  0.00    -0.106 A  
HETATM   10  C   UNL     1      -7.129   5.418  72.262  1.00  0.00    -0.086 A  
HETATM   11  C   UNL     1      -7.963   4.705  73.124  1.00  0.00    -0.100 A  
HETATM   12  C   UNL     1      -9.349   4.773  72.976  1.00  0.00    -0.140 A  
HETATM   13  C   UNL     1      -9.912   5.559  71.962  1.00  0.00    -0.225 A  
HETATM   14  C   UNL     1     -11.404   5.667  71.777  1.00  0.00    -0.111 C  
HETATM   15  O   UNL     1     -11.927   6.921  72.215  1.00  0.00    -0.272 OA 
HETATM   16  C   UNL     1     -11.661   8.048  71.478  1.00  0.00    -0.284 A  
HETATM   17  C   UNL     1     -10.640   8.245  70.534  1.00  0.00    -0.233 A  
HETATM   18  C   UNL     1     -10.457   9.543  70.006  1.00  0.00    -0.283 A  
HETATM   19  C   UNL     1     -11.348  10.592  70.275  1.00  0.00    -0.407 A  
HETATM   20  C   UNL     1     -12.387  10.359  71.178  1.00  0.00    -0.505 A  
HETATM   21  C   UNL     1     -12.520   9.111  71.792  1.00  0.00    -0.447 A  
BRANCH  19  22
HETATM   22  C   UNL     1     -11.147  11.961  69.664  1.00  0.00    -0.106 C  
HETATM   23  C   UNL     1     -11.341  12.119  68.167  1.00  0.00    -0.293 C  
HETATM   24  O   UNL     1     -11.053  13.163  67.585  1.00  0.00    -0.254 OA 
HETATM   25  O   UNL     1     -11.869  11.077  67.496  1.00  0.00    -0.571 OA 
ENDBRANCH  19  22
ENDBRANCH   5   6
ENDBRANCH   4   5
ENDBRANCH   2   4
TORSDOF 4
ENDMDL
MODEL       88
REMARK 921   NORMALIZED FREE ENERGY PREDICTED BY IDOCK:   -4.29 KCAL/MOL
REMARK 922        TOTAL FREE ENERGY PREDICTED BY IDOCK:   -5.84 KCAL/MOL
REMARK 923 INTER-LIGAND FREE ENERGY PREDICTED BY IDOCK:   -5.31 KCAL/MOL
REMARK 924 INTRA-LIGAND FREE ENERGY PREDICTED BY IDOCK:   -0.53 KCAL/MOL
REMARK 927      BINDING AFFINITY PREDICTED BY RF-SCORE:    0.00 PKD
ROOT
HETATM    1  C   UNL     1     -12.718   7.756  71.961  1.00  0.00    -0.258 C  
HETATM    2  N   UNL     1     -11.417   7.143  71.667  1.00  0.00    -0.257 NA 
HETATM    3  C   UNL     1     -11.022   6.283  72.784  1.00  0.00    -0.260 C  
ENDROOT
BRANCH   2   4
HETATM    4  C   UNL     1     -11.423   6.375  70.402  1.00  0.00    -0.393 C  
BRANCH   4   5
HETATM    5  C   UNL     1     -10.095   6.529  69.642  1.00  0.00    -0.209 C  
BRANCH   5   6
HETATM    6  C   UNL     1      -9.990   5.780  68.334  1.00  0.00    -0.193 C  
HETATM    7  C   UNL     1      -9.805   6.338  67.113  1.00  0.00    -0.173 C  
HETATM    8  C   UNL     1      -9.647   5.423  65.962  1.00  0.00    -0.149 A  
HETATM    9  C   UNL     1     -10.692   4.605  65.517  1.00  0.00    -0.176 A  
HETATM   10  C   UNL     1     -10.525   3.818  64.376  1.00  0.00    -0.227 A  
HETATM   11  C   UNL     1      -9.318   3.850  63.677  1.00  0.00    -0.139 A  
HETATM   12  C   UNL     1      -8.273   4.662  64.118  1.00  0.00    -0.114 A  
HETATM   13  C   UNL     1      -8.429   5.452  65.265  1.00  0.00    -0.149 A  
HETATM   14  C   UNL     1      -7.328   6.351  65.767  1.00  0.00    -0.080 C  
HETATM   15  O   UNL     1      -7.580   7.732  65.510  1.00  0.00    -0.076 OA 
HETATM   16  C   UNL     1      -8.558   8.376  66.227  1.00  0.00    -0.135 A  
HETATM   17  C   UNL     1      -9.625   7.806  66.942  1.00  0.00    -0.256 A  
HETATM   18  C   UNL     1     -10.606   8.669  67.481  1.00  0.00    -0.292 A  
HETATM   19  C   UNL     1     -10.469  10.064  67.456  1.00  0.00    -0.307 A  
HETATM   20  C   UNL     1      -9.373  10.608  66.784  1.00  0.00    -0.179 A  
HETATM   21  C   UNL     1      -8.448   9.772  66.153  1.00  0.00    -0.130 A  
BRANCH  19  22
HETATM   22  C   UNL     1     -11.517  10.961  68.076  1.00  0.00    -0.356 C  
HETATM   23  C   UNL     1     -11.669  10.958  69.586  1.00  0.00    -0.331 C  
HETATM   24  O   UNL     1     -12.593  11.546  70.144  1.00  0.00    -0.180 OA 
HETATM   25  O   UNL     1     -10.734  10.304  70.303  1.00  0.00    -0.288 OA 
ENDBRANCH  19  22
ENDBRANCH   5   6
ENDBRANCH   4   5
ENDBRANCH   2   4
TORSDOF 4
ENDMDL
MODEL       89
REMARK 921   NORMALIZED FREE ENERGY PREDICTED BY IDOCK:   -4.25 KCAL/MOL
REMARK 922        TOTAL FREE ENERGY PREDICTED BY IDOCK:   -5.80 KCAL/MOL
REMARK 923 INTER-LIGAND FREE ENERGY PREDICTED BY IDOCK:   -5.34 KCAL/MOL
REMARK 924 INTRA-LIGAND FREE ENERGY PREDICTED BY IDOCK:   -0.46 KCAL/MOL
REMARK 927      BINDING AFFINITY PREDICTED BY RF-SCORE:    0.00 PKD
ROOT
HETATM    1  C   UNL     1     -12.890  10.810  71.098  1.00  0.00    -0.414 C  
HETATM    2  N   UNL     1     -12.667   9.660  71.982  1.00  0.00    -0.390 NA 
HETATM    3  C   UNL     1     -13.955   9.059  72.332  1.00  0.00    -0.448 C  
ENDROOT
BRANCH   2   4
HETATM    4  C   UNL     1     -11.770   8.646  71.382  1.00  0.00    -0.297 C  
BRANCH   4   5
HETATM    5  C   UNL     1     -10.293   9.050  71.514  1.00  0.00    -0.412 C  
BRANCH   5   6
HETATM    6  C   UNL     1      -9.626   9.547  70.252  1.00  0.00    -0.314 C  
HETATM    7  C   UNL     1      -9.198   8.774  69.224  1.00  0.00    -0.149 C  
HETATM    8  C   UNL     1      -8.641   9.462  68.040  1.00  0.00    -0.120 A  
HETATM    9  C   UNL     1      -7.445  10.186  68.097  1.00  0.00    -0.083 A  
HETATM   10  C   UNL     1      -6.913  10.750  66.936  1.00  0.00    -0.109 A  
HETATM   11  C   UNL     1      -7.573  10.589  65.717  1.00  0.00    -0.142 A  
HETATM   12  C   UNL     1      -8.767   9.870  65.656  1.00  0.00    -0.168 A  
HETATM   13  C   UNL     1      -9.311   9.304  66.816  1.00  0.00    -0.202 A  
HETATM   14  C   UNL     1     -10.593   8.511  66.789  1.00  0.00    -0.157 C  
HETATM   15  O   UNL     1     -10.378   7.106  66.925  1.00  0.00    -0.256 OA 
HETATM   16  C   UNL     1      -9.987   6.607  68.142  1.00  0.00    -0.147 A  
HETATM   17  C   UNL     1      -9.402   7.299  69.215  1.00  0.00    -0.154 A  
HETATM   18  C   UNL     1      -8.937   6.551  70.321  1.00  0.00    -0.155 A  
HETATM   19  C   UNL     1      -9.175   5.175  70.445  1.00  0.00    -0.193 A  
HETATM   20  C   UNL     1      -9.803   4.516  69.387  1.00  0.00    -0.260 A  
HETATM   21  C   UNL     1     -10.176   5.220  68.240  1.00  0.00    -0.200 A  
BRANCH  19  22
HETATM   22  C   UNL     1      -8.698   4.408  71.659  1.00  0.00    -0.138 C  
HETATM   23  C   UNL     1      -9.607   4.338  72.872  1.00  0.00    -0.125 C  
HETATM   24  O   UNL     1      -9.225   3.860  73.938  1.00  0.00    -0.093 OA 
HETATM   25  O   UNL     1     -10.866   4.795  72.731  1.00  0.00    -0.215 OA 
ENDBRANCH  19  22
ENDBRANCH   5   6
ENDBRANCH   4   5
ENDBRANCH   2   4
TORSDOF 4
ENDMDL
MODEL       90
REMARK 921   NORMALIZED FREE ENERGY PREDICTED BY IDOCK:   -4.24 KCAL/MOL
REMARK 922        TOTAL FREE ENERGY PREDICTED BY IDOCK:   -5.78 KCAL/MOL
REMARK 923 INTER-LIGAND FREE ENERGY PREDICTED BY IDOCK:   -5.33 KCAL/MOL
REMARK 924 INTRA-LIGAND FREE ENERGY PREDICTED BY IDOCK:   -0.45 KCAL/MOL
REMARK 927      BINDING AFFINITY PREDICTED BY RF-SCORE:    0.00 PKD
ROOT
HETATM    1  C   UNL     1      -7.758   5.971  70.935  1.00  0.00    -0.098 C  
HETATM    2  N   UNL     1      -6.543   6.758  70.695  1.00  0.00    -0.051 NA 
HETATM    3  C   UNL     1      -6.194   6.692  69.274  1.00  0.00    -0.030 C  
ENDROOT
BRANCH   2   4
HETATM    4  C   UNL     1      -6.683   8.166  71.127  1.00  0.00    -0.044 C  
BRANCH   4   5
HETATM    5  C   UNL     1      -7.490   8.990  70.111  1.00  0.00    -0.072 C  
BRANCH   5   6
HETATM    6  C   UNL     1      -8.846   9.470  70.575  1.00  0.00    -0.253 C  
HETATM    7  C   UNL     1     -10.042   8.955  70.198  1.00  0.00    -0.212 C  
HETATM    8  C   UNL     1     -11.256   9.516  70.830  1.00  0.00    -0.411 A  
HETATM    9  C   UNL     1     -11.665  10.836  70.608  1.00  0.00    -0.442 A  
HETATM   10  C   UNL     1     -12.861  11.299  71.159  1.00  0.00    -0.452 A  
HETATM   11  C   UNL     1     -13.651  10.445  71.928  1.00  0.00    -0.259 A  
HETATM   12  C   UNL     1     -13.246   9.129  72.154  1.00  0.00    -0.524 A  
HETATM   13  C   UNL     1     -12.045   8.656  71.609  1.00  0.00    -0.385 A  
HETATM   14  C   UNL     1     -11.579   7.239  71.822  1.00  0.00    -0.275 C  
HETATM   15  O   UNL     1     -11.730   6.426  70.658  1.00  0.00    -0.373 OA 
HETATM   16  C   UNL     1     -10.899   6.636  69.586  1.00  0.00    -0.286 A  
HETATM   17  C   UNL     1     -10.137   7.779  69.291  1.00  0.00    -0.199 A  
HETATM   18  C   UNL     1      -9.470   7.836  68.047  1.00  0.00    -0.153 A  
HETATM   19  C   UNL     1      -9.420   6.739  67.175  1.00  0.00    -0.167 A  
HETATM   20  C   UNL     1     -10.144   5.594  67.512  1.00  0.00    -0.208 A  
HETATM   21  C   UNL     1     -10.896   5.558  68.689  1.00  0.00    -0.088 A  
BRANCH  19  22
HETATM   22  C   UNL     1      -8.665   6.817  65.866  1.00  0.00    -0.147 C  
HETATM   23  C   UNL     1      -7.433   5.948  65.690  1.00  0.00    -0.081 C  
HETATM   24  O   UNL     1      -6.691   6.068  64.717  1.00  0.00    -0.044 OA 
HETATM   25  O   UNL     1      -7.193   5.013  66.630  1.00  0.00    -0.077 OA 
ENDBRANCH  19  22
ENDBRANCH   5   6
ENDBRANCH   4   5
ENDBRANCH   2   4
TORSDOF 4
ENDMDL
MODEL       91
REMARK 921   NORMALIZED FREE ENERGY PREDICTED BY IDOCK:   -4.24 KCAL/MOL
REMARK 922        TOTAL FREE ENERGY PREDICTED BY IDOCK:   -5.78 KCAL/MOL
REMARK 923 INTER-LIGAND FREE ENERGY PREDICTED BY IDOCK:   -5.34 KCAL/MOL
REMARK 924 INTRA-LIGAND FREE ENERGY PREDICTED BY IDOCK:   -0.44 KCAL/MOL
REMARK 927      BINDING AFFINITY PREDICTED BY RF-SCORE:    0.00 PKD
ROOT
HETATM    1  C   UNL     1      -7.299  10.348  69.736  1.00  0.00    -0.154 C  
HETATM    2  N   UNL     1      -6.589  11.326  68.904  1.00  0.00    -0.061 NA 
HETATM    3  C   UNL     1      -6.303  10.734  67.596  1.00  0.00    -0.056 C  
ENDROOT
BRANCH   2   4
HETATM    4  C   UNL     1      -7.341  12.590  68.745  1.00  0.00    -0.070 C  
BRANCH   4   5
HETATM    5  C   UNL     1      -6.789  13.433  67.583  1.00  0.00    -0.172 C  
BRANCH   5   6
HETATM    6  C   UNL     1      -6.999  14.926  67.690  1.00  0.00    -0.207 C  
HETATM    7  C   UNL     1      -8.172  15.578  67.500  1.00  0.00    -0.182 C  
HETATM    8  C   UNL     1      -8.185  17.039  67.730  1.00  0.00    -0.196 A  
HETATM    9  C   UNL     1      -7.471  17.924  66.915  1.00  0.00    -0.227 A  
HETATM   10  C   UNL     1      -7.578  19.301  67.117  1.00  0.00    -0.250 A  
HETATM   11  C   UNL     1      -8.400  19.795  68.130  1.00  0.00    -0.326 A  
HETATM   12  C   UNL     1      -9.111  18.917  68.947  1.00  0.00    -0.278 A  
HETATM   13  C   UNL     1      -9.007  17.533  68.754  1.00  0.00    -0.211 A  
HETATM   14  C   UNL     1      -9.769  16.552  69.609  1.00  0.00     0.078 C  
HETATM   15  O   UNL     1     -10.872  15.960  68.923  1.00  0.00    -0.241 OA 
HETATM   16  C   UNL     1     -10.626  15.045  67.931  1.00  0.00    -0.259 A  
HETATM   17  C   UNL     1      -9.436  14.847  67.210  1.00  0.00    -0.216 A  
HETATM   18  C   UNL     1      -9.455  13.947  66.120  1.00  0.00    -0.194 A  
HETATM   19  C   UNL     1     -10.567  13.142  65.835  1.00  0.00    -0.290 A  
HETATM   20  C   UNL     1     -11.723  13.320  66.597  1.00  0.00    -0.425 A  
HETATM   21  C   UNL     1     -11.758  14.281  67.611  1.00  0.00    -0.421 A  
BRANCH  19  22
HETATM   22  C   UNL     1     -10.543  12.160  64.685  1.00  0.00    -0.340 C  
HETATM   23  C   UNL     1     -10.034  10.754  64.946  1.00  0.00    -0.312 C  
HETATM   24  O   UNL     1      -9.849   9.953  64.032  1.00  0.00    -0.135 OA 
HETATM   25  O   UNL     1      -9.814  10.401  66.227  1.00  0.00    -0.199 OA 
ENDBRANCH  19  22
ENDBRANCH   5   6
ENDBRANCH   4   5
ENDBRANCH   2   4
TORSDOF 4
ENDMDL
MODEL       92
REMARK 921   NORMALIZED FREE ENERGY PREDICTED BY IDOCK:   -4.23 KCAL/MOL
REMARK 922        TOTAL FREE ENERGY PREDICTED BY IDOCK:   -5.78 KCAL/MOL
REMARK 923 INTER-LIGAND FREE ENERGY PREDICTED BY IDOCK:   -5.44 KCAL/MOL
REMARK 924 INTRA-LIGAND FREE ENERGY PREDICTED BY IDOCK:   -0.33 KCAL/MOL
REMARK 927      BINDING AFFINITY PREDICTED BY RF-SCORE:    0.00 PKD
ROOT
HETATM    1  C   UNL     1     -11.649   9.830  71.148  1.00  0.00    -0.392 C  
HETATM    2  N   UNL     1     -10.387   9.905  70.403  1.00  0.00    -0.282 NA 
HETATM    3  C   UNL     1      -9.436   8.940  70.959  1.00  0.00    -0.252 C  
ENDROOT
BRANCH   2   4
HETATM    4  C   UNL     1     -10.568   9.673  68.952  1.00  0.00    -0.217 C  
BRANCH   4   5
HETATM    5  C   UNL     1      -9.322  10.092  68.154  1.00  0.00    -0.137 C  
BRANCH   5   6
HETATM    6  C   UNL     1      -9.100  11.579  68.005  1.00  0.00    -0.174 C  
HETATM    7  C   UNL     1      -8.922  12.241  66.835  1.00  0.00    -0.207 C  
HETATM    8  C   UNL     1      -8.800  13.713  66.897  1.00  0.00    -0.201 A  
HETATM    9  C   UNL     1      -7.709  14.341  67.509  1.00  0.00    -0.208 A  
HETATM   10  C   UNL     1      -7.592  15.731  67.472  1.00  0.00    -0.194 A  
HETATM   11  C   UNL     1      -8.560  16.496  66.822  1.00  0.00    -0.263 A  
HETATM   12  C   UNL     1      -9.651  15.874  66.212  1.00  0.00    -0.345 A  
HETATM   13  C   UNL     1      -9.780  14.480  66.248  1.00  0.00    -0.330 A  
HETATM   14  C   UNL     1     -10.937  13.771  65.592  1.00  0.00    -0.288 C  
HETATM   15  O   UNL     1     -10.567  13.106  64.385  1.00  0.00    -0.384 OA 
HETATM   16  C   UNL     1      -9.795  11.974  64.457  1.00  0.00    -0.153 A  
HETATM   17  C   UNL     1      -8.987  11.542  65.522  1.00  0.00    -0.037 A  
HETATM   18  C   UNL     1      -8.154  10.419  65.319  1.00  0.00    -0.152 A  
HETATM   19  C   UNL     1      -8.221   9.640  64.155  1.00  0.00    -0.158 A  
HETATM   20  C   UNL     1      -9.069  10.059  63.128  1.00  0.00    -0.296 A  
HETATM   21  C   UNL     1      -9.822  11.228  63.269  1.00  0.00    -0.418 A  
BRANCH  19  22
HETATM   22  C   UNL     1      -7.344   8.420  63.982  1.00  0.00    -0.105 C  
HETATM   23  C   UNL     1      -7.422   7.321  65.026  1.00  0.00    -0.089 C  
HETATM   24  O   UNL     1      -6.637   6.375  65.029  1.00  0.00    -0.037 OA 
HETATM   25  O   UNL     1      -8.406   7.403  65.942  1.00  0.00    -0.126 OA 
ENDBRANCH  19  22
ENDBRANCH   5   6
ENDBRANCH   4   5
ENDBRANCH   2   4
TORSDOF 4
ENDMDL
MODEL       93
REMARK 921   NORMALIZED FREE ENERGY PREDICTED BY IDOCK:   -4.20 KCAL/MOL
REMARK 922        TOTAL FREE ENERGY PREDICTED BY IDOCK:   -5.73 KCAL/MOL
REMARK 923 INTER-LIGAND FREE ENERGY PREDICTED BY IDOCK:   -5.23 KCAL/MOL
REMARK 924 INTRA-LIGAND FREE ENERGY PREDICTED BY IDOCK:   -0.50 KCAL/MOL
REMARK 927      BINDING AFFINITY PREDICTED BY RF-SCORE:    0.00 PKD
ROOT
HETATM    1  C   UNL     1     -10.147   4.240  65.196  1.00  0.00    -0.207 C  
HETATM    2  N   UNL     1     -10.264   4.280  66.658  1.00  0.00    -0.111 NA 
HETATM    3  C   UNL     1      -9.045   3.733  67.258  1.00  0.00    -0.159 C  
ENDROOT
BRANCH   2   4
HETATM    4  C   UNL     1     -10.524   5.644  67.171  1.00  0.00    -0.270 C  
BRANCH   4   5
HETATM    5  C   UNL     1     -10.288   5.732  68.687  1.00  0.00    -0.283 C  
BRANCH   5   6
HETATM    6  C   UNL     1     -11.098   6.773  69.425  1.00  0.00    -0.310 C  
HETATM    7  C   UNL     1     -10.596   7.808  70.141  1.00  0.00    -0.237 C  
HETATM    8  C   UNL     1     -11.561   8.766  70.723  1.00  0.00    -0.288 A  
HETATM    9  C   UNL     1     -12.454   8.396  71.735  1.00  0.00    -0.375 A  
HETATM   10  C   UNL     1     -13.290   9.353  72.313  1.00  0.00    -0.539 A  
HETATM   11  C   UNL     1     -13.233  10.679  71.884  1.00  0.00    -0.528 A  
HETATM   12  C   UNL     1     -12.346  11.052  70.873  1.00  0.00    -0.503 A  
HETATM   13  C   UNL     1     -11.506  10.098  70.284  1.00  0.00    -0.381 A  
HETATM   14  C   UNL     1     -10.528  10.464  69.198  1.00  0.00    -0.227 C  
HETATM   15  O   UNL     1      -9.176  10.493  69.656  1.00  0.00    -0.120 OA 
HETATM   16  C   UNL     1      -8.547   9.310  69.953  1.00  0.00    -0.170 A  
HETATM   17  C   UNL     1      -9.132   8.063  70.228  1.00  0.00    -0.148 A  
HETATM   18  C   UNL     1      -8.293   7.011  70.661  1.00  0.00    -0.127 A  
HETATM   19  C   UNL     1      -6.896   7.128  70.677  1.00  0.00    -0.053 A  
HETATM   20  C   UNL     1      -6.333   8.363  70.351  1.00  0.00    -0.035 A  
HETATM   21  C   UNL     1      -7.153   9.446  70.022  1.00  0.00    -0.083 A  
BRANCH  19  22
HETATM   22  C   UNL     1      -6.022   5.971  71.109  1.00  0.00    -0.030 C  
HETATM   23  C   UNL     1      -5.797   4.832  70.132  1.00  0.00    -0.017 C  
HETATM   24  O   UNL     1      -5.223   3.797  70.466  1.00  0.00    -0.003 OA 
HETATM   25  O   UNL     1      -6.226   5.005  68.866  1.00  0.00    -0.028 OA 
ENDBRANCH  19  22
ENDBRANCH   5   6
ENDBRANCH   4   5
ENDBRANCH   2   4
TORSDOF 4
ENDMDL
MODEL       94
REMARK 921   NORMALIZED FREE ENERGY PREDICTED BY IDOCK:   -4.19 KCAL/MOL
REMARK 922        TOTAL FREE ENERGY PREDICTED BY IDOCK:   -5.72 KCAL/MOL
REMARK 923 INTER-LIGAND FREE ENERGY PREDICTED BY IDOCK:   -5.23 KCAL/MOL
REMARK 924 INTRA-LIGAND FREE ENERGY PREDICTED BY IDOCK:   -0.49 KCAL/MOL
REMARK 927      BINDING AFFINITY PREDICTED BY RF-SCORE:    0.00 PKD
ROOT
HETATM    1  C   UNL     1     -11.801  12.901  67.320  1.00  0.00    -0.356 C  
HETATM    2  N   UNL     1     -11.533  12.769  68.756  1.00  0.00    -0.282 NA 
HETATM    3  C   UNL     1     -12.256  13.814  69.483  1.00  0.00    -0.293 C  
ENDROOT
BRANCH   2   4
HETATM    4  C   UNL     1     -11.892  11.433  69.281  1.00  0.00    -0.349 C  
BRANCH   4   5
HETATM    5  C   UNL     1     -10.646  10.638  69.702  1.00  0.00    -0.260 C  
BRANCH   5   6
HETATM    6  C   UNL     1      -9.436  10.781  68.808  1.00  0.00    -0.187 C  
HETATM    7  C   UNL     1      -8.883   9.796  68.058  1.00  0.00    -0.119 C  
HETATM    8  C   UNL     1      -7.746  10.161  67.186  1.00  0.00    -0.092 A  
HETATM    9  C   UNL     1      -6.511  10.565  67.707  1.00  0.00    -0.060 A  
HETATM   10  C   UNL     1      -5.440  10.820  66.850  1.00  0.00    -0.052 A  
HETATM   11  C   UNL     1      -5.599  10.669  65.472  1.00  0.00    -0.135 A  
HETATM   12  C   UNL     1      -6.828  10.269  64.947  1.00  0.00    -0.100 A  
HETATM   13  C   UNL     1      -7.910  10.015  65.800  1.00  0.00    -0.128 A  
HETATM   14  C   UNL     1      -9.251   9.570  65.273  1.00  0.00    -0.247 C  
HETATM   15  O   UNL     1      -9.510   8.187  65.513  1.00  0.00     0.071 OA 
HETATM   16  C   UNL     1      -9.773   7.771  66.794  1.00  0.00    -0.227 A  
HETATM   17  C   UNL     1      -9.475   8.432  67.998  1.00  0.00    -0.157 A  
HETATM   18  C   UNL     1      -9.699   7.744  69.212  1.00  0.00    -0.165 A  
HETATM   19  C   UNL     1     -10.343   6.500  69.258  1.00  0.00    -0.237 A  
HETATM   20  C   UNL     1     -10.677   5.884  68.051  1.00  0.00    -0.332 A  
HETATM   21  C   UNL     1     -10.367   6.502  66.836  1.00  0.00    -0.311 A  
BRANCH  19  22
HETATM   22  C   UNL     1     -10.604   5.806  70.577  1.00  0.00    -0.359 C  
HETATM   23  C   UNL     1     -11.772   6.278  71.423  1.00  0.00    -0.254 C  
HETATM   24  O   UNL     1     -11.953   5.862  72.565  1.00  0.00    -0.274 OA 
HETATM   25  O   UNL     1     -12.628   7.157  70.865  1.00  0.00    -0.329 OA 
ENDBRANCH  19  22
ENDBRANCH   5   6
ENDBRANCH   4   5
ENDBRANCH   2   4
TORSDOF 4
ENDMDL
MODEL       95
REMARK 921   NORMALIZED FREE ENERGY PREDICTED BY IDOCK:   -4.18 KCAL/MOL
REMARK 922        TOTAL FREE ENERGY PREDICTED BY IDOCK:   -5.71 KCAL/MOL
REMARK 923 INTER-LIGAND FREE ENERGY PREDICTED BY IDOCK:   -5.40 KCAL/MOL
REMARK 924 INTRA-LIGAND FREE ENERGY PREDICTED BY IDOCK:   -0.32 KCAL/MOL
REMARK 927      BINDING AFFINITY PREDICTED BY RF-SCORE:    0.00 PKD
ROOT
HETATM    1  C   UNL     1      -8.290   5.442  66.916  1.00  0.00    -0.108 C  
HETATM    2  N   UNL     1      -9.468   5.493  66.042  1.00  0.00    -0.153 NA 
HETATM    3  C   UNL     1      -9.615   4.210  65.351  1.00  0.00    -0.187 C  
ENDROOT
BRANCH   2   4
HETATM    4  C   UNL     1     -10.708   5.829  66.777  1.00  0.00    -0.297 C  
BRANCH   4   5
HETATM    5  C   UNL     1     -10.412   6.683  68.020  1.00  0.00    -0.261 C  
BRANCH   5   6
HETATM    6  C   UNL     1     -10.468   8.181  67.824  1.00  0.00    -0.279 C  
HETATM    7  C   UNL     1     -10.229   9.115  68.777  1.00  0.00    -0.228 C  
HETATM    8  C   UNL     1     -10.255  10.534  68.361  1.00  0.00    -0.192 A  
HETATM    9  C   UNL     1     -11.432  11.159  67.932  1.00  0.00    -0.359 A  
HETATM   10  C   UNL     1     -11.429  12.521  67.628  1.00  0.00    -0.392 A  
HETATM   11  C   UNL     1     -10.253  13.262  67.756  1.00  0.00    -0.228 A  
HETATM   12  C   UNL     1      -9.077  12.643  68.181  1.00  0.00    -0.204 A  
HETATM   13  C   UNL     1      -9.070  11.275  68.484  1.00  0.00    -0.173 A  
HETATM   14  C   UNL     1      -7.822  10.572  68.957  1.00  0.00    -0.129 C  
HETATM   15  O   UNL     1      -7.852  10.269  70.351  1.00  0.00    -0.153 OA 
HETATM   16  C   UNL     1      -8.690   9.280  70.801  1.00  0.00    -0.217 A  
HETATM   17  C   UNL     1      -9.816   8.739  70.157  1.00  0.00    -0.192 A  
HETATM   18  C   UNL     1     -10.627   7.831  70.875  1.00  0.00    -0.220 A  
HETATM   19  C   UNL     1     -10.264   7.343  72.138  1.00  0.00    -0.226 A  
HETATM   20  C   UNL     1      -9.113   7.858  72.739  1.00  0.00    -0.272 A  
HETATM   21  C   UNL     1      -8.356   8.835  72.088  1.00  0.00    -0.056 A  
BRANCH  19  22
HETATM   22  C   UNL     1     -11.133   6.342  72.866  1.00  0.00    -0.259 C  
HETATM   23  C   UNL     1     -10.617   4.925  73.034  1.00  0.00    -0.223 C  
HETATM   24  O   UNL     1     -11.327   4.027  73.482  1.00  0.00    -0.262 OA 
HETATM   25  O   UNL     1      -9.334   4.687  72.699  1.00  0.00    -0.128 OA 
ENDBRANCH  19  22
ENDBRANCH   5   6
ENDBRANCH   4   5
ENDBRANCH   2   4
TORSDOF 4
ENDMDL
MODEL       96
REMARK 921   NORMALIZED FREE ENERGY PREDICTED BY IDOCK:   -4.18 KCAL/MOL
REMARK 922        TOTAL FREE ENERGY PREDICTED BY IDOCK:   -5.70 KCAL/MOL
REMARK 923 INTER-LIGAND FREE ENERGY PREDICTED BY IDOCK:   -5.45 KCAL/MOL
REMARK 924 INTRA-LIGAND FREE ENERGY PREDICTED BY IDOCK:   -0.26 KCAL/MOL
REMARK 927      BINDING AFFINITY PREDICTED BY RF-SCORE:    0.00 PKD
ROOT
HETATM    1  C   UNL     1     -10.381  10.800  64.543  1.00  0.00    -0.331 C  
HETATM    2  N   UNL     1      -9.602  10.056  65.540  1.00  0.00    -0.244 NA 
HETATM    3  C   UNL     1      -8.363  10.782  65.829  1.00  0.00    -0.158 C  
ENDROOT
BRANCH   2   4
HETATM    4  C   UNL     1     -10.360   9.812  66.788  1.00  0.00    -0.218 C  
BRANCH   4   5
HETATM    5  C   UNL     1     -10.640   8.315  66.995  1.00  0.00    -0.328 C  
BRANCH   5   6
HETATM    6  C   UNL     1      -9.425   7.432  67.166  1.00  0.00    -0.187 C  
HETATM    7  C   UNL     1      -9.078   6.770  68.297  1.00  0.00    -0.124 C  
HETATM    8  C   UNL     1      -7.891   5.891  68.235  1.00  0.00    -0.105 A  
HETATM    9  C   UNL     1      -6.601   6.399  68.042  1.00  0.00    -0.066 A  
HETATM   10  C   UNL     1      -5.501   5.541  68.073  1.00  0.00    -0.011 A  
HETATM   11  C   UNL     1      -5.686   4.177  68.301  1.00  0.00    -0.021 A  
HETATM   12  C   UNL     1      -6.970   3.665  68.491  1.00  0.00    -0.050 A  
HETATM   13  C   UNL     1      -8.081   4.518  68.457  1.00  0.00    -0.082 A  
HETATM   14  C   UNL     1      -9.483   4.006  68.669  1.00  0.00    -0.154 C  
HETATM   15  O   UNL     1     -10.011   4.350  69.950  1.00  0.00    -0.222 OA 
HETATM   16  C   UNL     1     -10.351   5.655  70.201  1.00  0.00    -0.271 A  
HETATM   17  C   UNL     1      -9.928   6.808  69.518  1.00  0.00    -0.172 A  
HETATM   18  C   UNL     1     -10.285   8.069  70.048  1.00  0.00    -0.205 A  
HETATM   19  C   UNL     1     -11.163   8.202  71.133  1.00  0.00    -0.289 A  
HETATM   20  C   UNL     1     -11.611   7.042  71.766  1.00  0.00    -0.315 A  
HETATM   21  C   UNL     1     -11.185   5.787  71.321  1.00  0.00    -0.223 A  
BRANCH  19  22
HETATM   22  C   UNL     1     -11.556   9.567  71.654  1.00  0.00    -0.451 C  
HETATM   23  C   UNL     1     -13.027   9.939  71.665  1.00  0.00    -0.434 C  
HETATM   24  O   UNL     1     -13.404  11.078  71.935  1.00  0.00    -0.422 OA 
HETATM   25  O   UNL     1     -13.917   8.964  71.394  1.00  0.00    -0.363 OA 
ENDBRANCH  19  22
ENDBRANCH   5   6
ENDBRANCH   4   5
ENDBRANCH   2   4
TORSDOF 4
ENDMDL
MODEL       97
REMARK 921   NORMALIZED FREE ENERGY PREDICTED BY IDOCK:   -4.15 KCAL/MOL
REMARK 922        TOTAL FREE ENERGY PREDICTED BY IDOCK:   -5.67 KCAL/MOL
REMARK 923 INTER-LIGAND FREE ENERGY PREDICTED BY IDOCK:   -5.18 KCAL/MOL
REMARK 924 INTRA-LIGAND FREE ENERGY PREDICTED BY IDOCK:   -0.49 KCAL/MOL
REMARK 927      BINDING AFFINITY PREDICTED BY RF-SCORE:    0.00 PKD
ROOT
HETATM    1  C   UNL     1     -12.110  13.222  67.219  1.00  0.00    -0.289 C  
HETATM    2  N   UNL     1     -11.802  12.020  66.435  1.00  0.00    -0.593 NA 
HETATM    3  C   UNL     1     -11.856  12.344  65.007  1.00  0.00    -0.388 C  
ENDROOT
BRANCH   2   4
HETATM    4  C   UNL     1     -10.487  11.436  66.782  1.00  0.00    -0.244 C  
BRANCH   4   5
HETATM    5  C   UNL     1     -10.570   9.908  66.928  1.00  0.00    -0.248 C  
BRANCH   5   6
HETATM    6  C   UNL     1     -10.754   9.386  68.334  1.00  0.00    -0.213 C  
HETATM    7  C   UNL     1      -9.945   8.498  68.963  1.00  0.00    -0.197 C  
HETATM    8  C   UNL     1     -10.254   8.174  70.372  1.00  0.00    -0.203 A  
HETATM    9  C   UNL     1     -11.420   7.491  70.737  1.00  0.00    -0.305 A  
HETATM   10  C   UNL     1     -11.632   7.132  72.069  1.00  0.00    -0.317 A  
HETATM   11  C   UNL     1     -10.680   7.452  73.037  1.00  0.00    -0.413 A  
HETATM   12  C   UNL     1      -9.517   8.136  72.679  1.00  0.00    -0.346 A  
HETATM   13  C   UNL     1      -9.298   8.504  71.345  1.00  0.00    -0.274 A  
HETATM   14  C   UNL     1      -8.050   9.233  70.916  1.00  0.00    -0.124 C  
HETATM   15  O   UNL     1      -7.135   8.396  70.209  1.00  0.00    -0.039 OA 
HETATM   16  C   UNL     1      -7.448   7.993  68.935  1.00  0.00    -0.093 A  
HETATM   17  C   UNL     1      -8.711   7.970  68.319  1.00  0.00    -0.130 A  
HETATM   18  C   UNL     1      -8.824   7.368  67.045  1.00  0.00    -0.132 A  
HETATM   19  C   UNL     1      -7.704   6.935  66.321  1.00  0.00    -0.094 A  
HETATM   20  C   UNL     1      -6.452   7.014  66.933  1.00  0.00    -0.054 A  
HETATM   21  C   UNL     1      -6.334   7.509  68.235  1.00  0.00    -0.044 A  
BRANCH  19  22
HETATM   22  C   UNL     1      -7.854   6.330  64.943  1.00  0.00    -0.113 C  
HETATM   23  C   UNL     1      -7.752   7.245  63.737  1.00  0.00    -0.120 C  
HETATM   24  O   UNL     1      -8.009   6.850  62.602  1.00  0.00    -0.112 OA 
HETATM   25  O   UNL     1      -7.342   8.511  63.950  1.00  0.00    -0.097 OA 
ENDBRANCH  19  22
ENDBRANCH   5   6
ENDBRANCH   4   5
ENDBRANCH   2   4
TORSDOF 4
ENDMDL
MODEL       98
REMARK 921   NORMALIZED FREE ENERGY PREDICTED BY IDOCK:   -4.08 KCAL/MOL
REMARK 922        TOTAL FREE ENERGY PREDICTED BY IDOCK:   -5.59 KCAL/MOL
REMARK 923 INTER-LIGAND FREE ENERGY PREDICTED BY IDOCK:   -4.93 KCAL/MOL
REMARK 924 INTRA-LIGAND FREE ENERGY PREDICTED BY IDOCK:   -0.66 KCAL/MOL
REMARK 927      BINDING AFFINITY PREDICTED BY RF-SCORE:    0.00 PKD
ROOT
HETATM    1  C   UNL     1      -6.226   7.829  67.468  1.00  0.00    -0.050 C  
HETATM    2  N   UNL     1      -5.432   8.710  68.332  1.00  0.00    -0.037 NA 
HETATM    3  C   UNL     1      -5.799  10.104  68.073  1.00  0.00    -0.038 C  
ENDROOT
BRANCH   2   4
HETATM    4  C   UNL     1      -5.593   8.392  69.769  1.00  0.00    -0.029 C  
BRANCH   4   5
HETATM    5  C   UNL     1      -6.894   8.983  70.335  1.00  0.00    -0.055 C  
BRANCH   5   6
HETATM    6  C   UNL     1      -7.720   8.058  71.199  1.00  0.00    -0.087 C  
HETATM    7  C   UNL     1      -8.918   7.518  70.864  1.00  0.00    -0.149 C  
HETATM    8  C   UNL     1      -9.529   6.570  71.821  1.00  0.00    -0.155 A  
HETATM    9  C   UNL     1      -9.976   6.976  73.083  1.00  0.00    -0.242 A  
HETATM   10  C   UNL     1     -10.623   6.067  73.922  1.00  0.00    -0.236 A  
HETATM   11  C   UNL     1     -10.826   4.752  73.500  1.00  0.00    -0.369 A  
HETATM   12  C   UNL     1     -10.380   4.342  72.243  1.00  0.00    -0.230 A  
HETATM   13  C   UNL     1      -9.726   5.247  71.396  1.00  0.00    -0.219 A  
HETATM   14  C   UNL     1      -9.239   4.845  70.027  1.00  0.00    -0.127 C  
HETATM   15  O   UNL     1     -10.049   5.370  68.975  1.00  0.00    -0.179 OA 
HETATM   16  C   UNL     1      -9.996   6.714  68.701  1.00  0.00    -0.147 A  
HETATM   17  C   UNL     1      -9.536   7.750  69.530  1.00  0.00    -0.160 A  
HETATM   18  C   UNL     1      -9.718   9.084  69.099  1.00  0.00    -0.167 A  
HETATM   19  C   UNL     1     -10.198   9.396  67.819  1.00  0.00    -0.273 A  
HETATM   20  C   UNL     1     -10.602   8.348  66.992  1.00  0.00    -0.316 A  
HETATM   21  C   UNL     1     -10.529   7.027  67.442  1.00  0.00    -0.343 A  
BRANCH  19  22
HETATM   22  C   UNL     1     -10.346  10.834  67.372  1.00  0.00    -0.251 C  
HETATM   23  C   UNL     1     -11.626  11.571  67.720  1.00  0.00    -0.267 C  
HETATM   24  O   UNL     1     -11.874  12.686  67.265  1.00  0.00    -0.365 OA 
HETATM   25  O   UNL     1     -12.477  10.969  68.573  1.00  0.00    -0.440 OA 
ENDBRANCH  19  22
ENDBRANCH   5   6
ENDBRANCH   4   5
ENDBRANCH   2   4
TORSDOF 4
ENDMDL
MODEL       99
REMARK 921   NORMALIZED FREE ENERGY PREDICTED BY IDOCK:   -4.08 KCAL/MOL
REMARK 922        TOTAL FREE ENERGY PREDICTED BY IDOCK:   -5.59 KCAL/MOL
REMARK 923 INTER-LIGAND FREE ENERGY PREDICTED BY IDOCK:   -5.63 KCAL/MOL
REMARK 924 INTRA-LIGAND FREE ENERGY PREDICTED BY IDOCK:    0.04 KCAL/MOL
REMARK 927      BINDING AFFINITY PREDICTED BY RF-SCORE:    0.00 PKD
ROOT
HETATM    1  C   UNL     1     -12.010  16.007  71.669  1.00  0.00    -0.499 C  
HETATM    2  N   UNL     1     -12.804  14.956  71.023  1.00  0.00    -0.337 NA 
HETATM    3  C   UNL     1     -13.282  15.437  69.725  1.00  0.00     0.624 C  
ENDROOT
BRANCH   2   4
HETATM    4  C   UNL     1     -12.049  13.693  70.858  1.00  0.00    -0.248 C  
BRANCH   4   5
HETATM    5  C   UNL     1     -11.586  13.498  69.406  1.00  0.00    -0.369 C  
BRANCH   5   6
HETATM    6  C   UNL     1     -10.512  14.444  68.920  1.00  0.00    -0.246 C  
HETATM    7  C   UNL     1      -9.848  14.353  67.741  1.00  0.00    -0.221 C  
HETATM    8  C   UNL     1      -8.887  15.429  67.416  1.00  0.00    -0.196 A  
HETATM    9  C   UNL     1      -7.713  15.622  68.153  1.00  0.00    -0.127 A  
HETATM   10  C   UNL     1      -6.794  16.596  67.760  1.00  0.00    -0.158 A  
HETATM   11  C   UNL     1      -7.043  17.375  66.630  1.00  0.00    -0.275 A  
HETATM   12  C   UNL     1      -8.213  17.188  65.893  1.00  0.00    -0.021 A  
HETATM   13  C   UNL     1      -9.144  16.215  66.283  1.00  0.00    -0.373 A  
HETATM   14  C   UNL     1     -10.414  15.975  65.507  1.00  0.00    -0.405 C  
HETATM   15  O   UNL     1     -10.376  14.771  64.741  1.00  0.00    -0.382 OA 
HETATM   16  C   UNL     1     -10.436  13.565  65.392  1.00  0.00    -0.315 A  
HETATM   17  C   UNL     1     -10.165  13.295  66.743  1.00  0.00    -0.254 A  
HETATM   18  C   UNL     1     -10.141  11.946  67.166  1.00  0.00    -0.222 A  
HETATM   19  C   UNL     1     -10.524  10.893  66.323  1.00  0.00    -0.304 A  
HETATM   20  C   UNL     1     -10.838  11.190  64.996  1.00  0.00    -0.244 A  
HETATM   21  C   UNL     1     -10.765  12.506  64.532  1.00  0.00    -0.360 A  
BRANCH  19  22
HETATM   22  C   UNL     1     -10.524   9.462  66.816  1.00  0.00    -0.265 C  
HETATM   23  C   UNL     1      -9.271   8.630  66.620  1.00  0.00    -0.181 C  
HETATM   24  O   UNL     1      -9.250   7.425  66.860  1.00  0.00    -0.139 OA 
HETATM   25  O   UNL     1      -8.162   9.268  66.195  1.00  0.00    -0.108 OA 
ENDBRANCH  19  22
ENDBRANCH   5   6
ENDBRANCH   4   5
ENDBRANCH   2   4
TORSDOF 4
ENDMDL
MODEL      100
REMARK 921   NORMALIZED FREE ENERGY PREDICTED BY IDOCK:   -4.07 KCAL/MOL
REMARK 922        TOTAL FREE ENERGY PREDICTED BY IDOCK:   -5.58 KCAL/MOL
REMARK 923 INTER-LIGAND FREE ENERGY PREDICTED BY IDOCK:   -5.18 KCAL/MOL
REMARK 924 INTRA-LIGAND FREE ENERGY PREDICTED BY IDOCK:   -0.39 KCAL/MOL
REMARK 927      BINDING AFFINITY PREDICTED BY RF-SCORE:    0.00 PKD
ROOT
HETATM    1  C   UNL     1      -9.695   3.596  64.816  1.00  0.00    -0.178 C  
HETATM    2  N   UNL     1     -10.081   4.123  66.131  1.00  0.00    -0.177 NA 
HETATM    3  C   UNL     1      -9.337   3.416  67.175  1.00  0.00    -0.193 C  
ENDROOT
BRANCH   2   4
HETATM    4  C   UNL     1      -9.868   5.583  66.243  1.00  0.00    -0.145 C  
BRANCH   4   5
HETATM    5  C   UNL     1     -11.001   6.260  67.031  1.00  0.00    -0.442 C  
BRANCH   5   6
HETATM    6  C   UNL     1     -10.862   6.247  68.536  1.00  0.00    -0.394 C  
HETATM    7  C   UNL     1     -10.486   7.297  69.307  1.00  0.00    -0.221 C  
HETATM    8  C   UNL     1     -10.488   7.101  70.773  1.00  0.00    -0.227 A  
HETATM    9  C   UNL     1      -9.604   6.218  71.404  1.00  0.00    -0.170 A  
HETATM   10  C   UNL     1      -9.584   6.127  72.796  1.00  0.00    -0.158 A  
HETATM   11  C   UNL     1     -10.444   6.917  73.560  1.00  0.00    -0.382 A  
HETATM   12  C   UNL     1     -11.329   7.796  72.935  1.00  0.00    -0.406 A  
HETATM   13  C   UNL     1     -11.359   7.892  71.537  1.00  0.00    -0.293 A  
HETATM   14  C   UNL     1     -12.293   8.837  70.826  1.00  0.00     0.029 C  
HETATM   15  O   UNL     1     -11.624   9.979  70.291  1.00  0.00    -0.262 OA 
HETATM   16  C   UNL     1     -10.804   9.822  69.202  1.00  0.00    -0.207 A  
HETATM   17  C   UNL     1     -10.215   8.640  68.724  1.00  0.00    -0.224 A  
HETATM   18  C   UNL     1      -9.277   8.736  67.671  1.00  0.00    -0.148 A  
HETATM   19  C   UNL     1      -9.035   9.941  66.995  1.00  0.00    -0.152 A  
HETATM   20  C   UNL     1      -9.670  11.095  67.455  1.00  0.00    -0.193 A  
HETATM   21  C   UNL     1     -10.520  11.038  68.563  1.00  0.00    -0.210 A  
BRANCH  19  22
HETATM   22  C   UNL     1      -8.053  10.005  65.846  1.00  0.00    -0.126 C  
HETATM   23  C   UNL     1      -6.626  10.430  66.137  1.00  0.00    -0.112 C  
HETATM   24  O   UNL     1      -5.818  10.645  65.236  1.00  0.00    -0.135 OA 
HETATM   25  O   UNL     1      -6.262  10.538  67.430  1.00  0.00    -0.056 OA 
ENDBRANCH  19  22
ENDBRANCH   5   6
ENDBRANCH   4   5
ENDBRANCH   2   4
TORSDOF 4
ENDMDL
MODEL      101
REMARK 921   NORMALIZED FREE ENERGY PREDICTED BY IDOCK:   -4.07 KCAL/MOL
REMARK 922        TOTAL FREE ENERGY PREDICTED BY IDOCK:   -5.57 KCAL/MOL
REMARK 923 INTER-LIGAND FREE ENERGY PREDICTED BY IDOCK:   -5.13 KCAL/MOL
REMARK 924 INTRA-LIGAND FREE ENERGY PREDICTED BY IDOCK:   -0.45 KCAL/MOL
REMARK 927      BINDING AFFINITY PREDICTED BY RF-SCORE:    0.00 PKD
ROOT
HETATM    1  C   UNL     1      -6.617  11.476  66.790  1.00  0.00    -0.119 C  
HETATM    2  N   UNL     1      -6.689  12.285  68.012  1.00  0.00    -0.072 NA 
HETATM    3  C   UNL     1      -7.715  13.317  67.851  1.00  0.00    -0.152 C  
ENDROOT
BRANCH   2   4
HETATM    4  C   UNL     1      -6.961  11.471  69.218  1.00  0.00    -0.098 C  
BRANCH   4   5
HETATM    5  C   UNL     1      -8.443  11.073  69.307  1.00  0.00     0.051 C  
BRANCH   5   6
HETATM    6  C   UNL     1      -8.732   9.589  69.302  1.00  0.00    -0.151 C  
HETATM    7  C   UNL     1      -9.325   8.900  68.296  1.00  0.00    -0.149 C  
HETATM    8  C   UNL     1      -9.445   7.435  68.452  1.00  0.00    -0.143 A  
HETATM    9  C   UNL     1     -10.259   6.858  69.434  1.00  0.00    -0.194 A  
HETATM   10  C   UNL     1     -10.408   5.472  69.492  1.00  0.00    -0.357 A  
HETATM   11  C   UNL     1      -9.747   4.660  68.570  1.00  0.00    -0.208 A  
HETATM   12  C   UNL     1      -8.932   5.230  67.591  1.00  0.00    -0.109 A  
HETATM   13  C   UNL     1      -8.774   6.621  67.527  1.00  0.00    -0.118 A  
HETATM   14  C   UNL     1      -7.911   7.275  66.478  1.00  0.00    -0.109 C  
HETATM   15  O   UNL     1      -8.673   7.917  65.456  1.00  0.00    -0.148 OA 
HETATM   16  C   UNL     1      -9.348   9.074  65.755  1.00  0.00    -0.236 A  
HETATM   17  C   UNL     1      -9.717   9.559  67.020  1.00  0.00    -0.229 A  
HETATM   18  C   UNL     1     -10.547  10.702  67.083  1.00  0.00    -0.312 A  
HETATM   19  C   UNL     1     -10.883  11.445  65.943  1.00  0.00    -0.292 A  
HETATM   20  C   UNL     1     -10.462  10.971  64.699  1.00  0.00    -0.398 A  
HETATM   21  C   UNL     1      -9.730   9.784  64.608  1.00  0.00    -0.166 A  
BRANCH  19  22
HETATM   22  C   UNL     1     -11.741  12.686  66.046  1.00  0.00    -0.470 C  
HETATM   23  C   UNL     1     -11.202  13.987  65.481  1.00  0.00    -0.311 C  
HETATM   24  O   UNL     1     -11.777  15.058  65.660  1.00  0.00    -0.263 OA 
HETATM   25  O   UNL     1     -10.074  13.924  64.746  1.00  0.00    -0.373 OA 
ENDBRANCH  19  22
ENDBRANCH   5   6
ENDBRANCH   4   5
ENDBRANCH   2   4
TORSDOF 4
ENDMDL
MODEL      102
REMARK 921   NORMALIZED FREE ENERGY PREDICTED BY IDOCK:   -4.04 KCAL/MOL
REMARK 922        TOTAL FREE ENERGY PREDICTED BY IDOCK:   -5.54 KCAL/MOL
REMARK 923 INTER-LIGAND FREE ENERGY PREDICTED BY IDOCK:   -5.01 KCAL/MOL
REMARK 924 INTRA-LIGAND FREE ENERGY PREDICTED BY IDOCK:   -0.52 KCAL/MOL
REMARK 927      BINDING AFFINITY PREDICTED BY RF-SCORE:    0.00 PKD
ROOT
HETATM    1  C   UNL     1      -6.538   6.833  73.356  1.00  0.00    -0.067 C  
HETATM    2  N   UNL     1      -5.942   7.553  72.225  1.00  0.00    -0.040 NA 
HETATM    3  C   UNL     1      -5.741   6.624  71.110  1.00  0.00    -0.028 C  
ENDROOT
BRANCH   2   4
HETATM    4  C   UNL     1      -6.759   8.708  71.793  1.00  0.00    -0.082 C  
BRANCH   4   5
HETATM    5  C   UNL     1      -7.012   8.685  70.276  1.00  0.00    -0.041 C  
BRANCH   5   6
HETATM    6  C   UNL     1      -7.961   9.736  69.747  1.00  0.00    -0.169 C  
HETATM    7  C   UNL     1      -9.250   9.529  69.382  1.00  0.00    -0.181 C  
HETATM    8  C   UNL     1     -10.037  10.709  68.963  1.00  0.00    -0.226 A  
HETATM    9  C   UNL     1      -9.739  11.423  67.797  1.00  0.00    -0.184 A  
HETATM   10  C   UNL     1     -10.559  12.479  67.395  1.00  0.00    -0.242 A  
HETATM   11  C   UNL     1     -11.678  12.821  68.155  1.00  0.00    -0.392 A  
HETATM   12  C   UNL     1     -11.977  12.114  69.320  1.00  0.00    -0.318 A  
HETATM   13  C   UNL     1     -11.158  11.055  69.733  1.00  0.00    -0.303 A  
HETATM   14  C   UNL     1     -11.454  10.260  70.979  1.00  0.00    -0.302 C  
HETATM   15  O   UNL     1     -11.971   8.960  70.697  1.00  0.00    -0.210 OA 
HETATM   16  C   UNL     1     -11.131   8.007  70.178  1.00  0.00    -0.191 A  
HETATM   17  C   UNL     1      -9.901   8.198  69.527  1.00  0.00    -0.181 A  
HETATM   18  C   UNL     1      -9.276   7.078  68.933  1.00  0.00    -0.136 A  
HETATM   19  C   UNL     1      -9.762   5.774  69.103  1.00  0.00    -0.189 A  
HETATM   20  C   UNL     1     -10.960   5.602  69.797  1.00  0.00    -0.301 A  
HETATM   21  C   UNL     1     -11.649   6.709  70.301  1.00  0.00    -0.454 A  
BRANCH  19  22
HETATM   22  C   UNL     1      -9.049   4.590  68.488  1.00  0.00    -0.161 C  
HETATM   23  C   UNL     1      -9.567   4.039  67.173  1.00  0.00    -0.196 C  
HETATM   24  O   UNL     1      -9.131   2.994  66.693  1.00  0.00    -0.149 OA 
HETATM   25  O   UNL     1     -10.512   4.752  66.529  1.00  0.00    -0.268 OA 
ENDBRANCH  19  22
ENDBRANCH   5   6
ENDBRANCH   4   5
ENDBRANCH   2   4
TORSDOF 4
ENDMDL
MODEL      103
REMARK 921   NORMALIZED FREE ENERGY PREDICTED BY IDOCK:   -4.03 KCAL/MOL
REMARK 922        TOTAL FREE ENERGY PREDICTED BY IDOCK:   -5.53 KCAL/MOL
REMARK 923 INTER-LIGAND FREE ENERGY PREDICTED BY IDOCK:   -4.79 KCAL/MOL
REMARK 924 INTRA-LIGAND FREE ENERGY PREDICTED BY IDOCK:   -0.73 KCAL/MOL
REMARK 927      BINDING AFFINITY PREDICTED BY RF-SCORE:    0.00 PKD
ROOT
HETATM    1  C   UNL     1     -12.514   6.359  72.270  1.00  0.00    -0.059 C  
HETATM    2  N   UNL     1     -12.940   7.493  71.441  1.00  0.00    -0.352 NA 
HETATM    3  C   UNL     1     -14.398   7.472  71.302  1.00  0.00    -0.287 C  
ENDROOT
BRANCH   2   4
HETATM    4  C   UNL     1     -12.492   8.794  71.984  1.00  0.00    -0.386 C  
BRANCH   4   5
HETATM    5  C   UNL     1     -10.961   8.928  71.938  1.00  0.00    -0.439 C  
BRANCH   5   6
HETATM    6  C   UNL     1     -10.366   9.273  70.593  1.00  0.00    -0.326 C  
HETATM    7  C   UNL     1      -9.708   8.418  69.773  1.00  0.00    -0.180 C  
HETATM    8  C   UNL     1      -9.270   8.934  68.458  1.00  0.00    -0.137 A  
HETATM    9  C   UNL     1      -8.289   9.926  68.340  1.00  0.00    -0.107 A  
HETATM   10  C   UNL     1      -7.847  10.325  67.078  1.00  0.00    -0.107 A  
HETATM   11  C   UNL     1      -8.381   9.733  65.933  1.00  0.00    -0.128 A  
HETATM   12  C   UNL     1      -9.361   8.746  66.045  1.00  0.00    -0.296 A  
HETATM   13  C   UNL     1      -9.814   8.342  67.308  1.00  0.00    -0.264 A  
HETATM   14  C   UNL     1     -10.863   7.272  67.471  1.00  0.00    -0.214 C  
HETATM   15  O   UNL     1     -10.324   6.033  67.930  1.00  0.00    -0.162 OA 
HETATM   16  C   UNL     1      -9.891   5.935  69.229  1.00  0.00    -0.160 A  
HETATM   17  C   UNL     1      -9.550   6.976  70.109  1.00  0.00    -0.164 A  
HETATM   18  C   UNL     1      -8.978   6.638  71.357  1.00  0.00    -0.139 A  
HETATM   19  C   UNL     1      -8.884   5.311  71.800  1.00  0.00    -0.143 A  
HETATM   20  C   UNL     1      -9.276   4.294  70.927  1.00  0.00    -0.203 A  
HETATM   21  C   UNL     1      -9.745   4.605  69.648  1.00  0.00    -0.283 A  
BRANCH  19  22
HETATM   22  C   UNL     1      -8.302   4.982  73.157  1.00  0.00    -0.108 C  
HETATM   23  C   UNL     1      -6.793   4.928  73.303  1.00  0.00    -0.070 C  
HETATM   24  O   UNL     1      -6.256   4.526  74.333  1.00  0.00    -0.046 OA 
HETATM   25  O   UNL     1      -6.053   5.365  72.265  1.00  0.00    -0.031 OA 
ENDBRANCH  19  22
ENDBRANCH   5   6
ENDBRANCH   4   5
ENDBRANCH   2   4
TORSDOF 4
ENDMDL
MODEL      104
REMARK 921   NORMALIZED FREE ENERGY PREDICTED BY IDOCK:   -4.03 KCAL/MOL
REMARK 922        TOTAL FREE ENERGY PREDICTED BY IDOCK:   -5.52 KCAL/MOL
REMARK 923 INTER-LIGAND FREE ENERGY PREDICTED BY IDOCK:   -5.25 KCAL/MOL
REMARK 924 INTRA-LIGAND FREE ENERGY PREDICTED BY IDOCK:   -0.27 KCAL/MOL
REMARK 927      BINDING AFFINITY PREDICTED BY RF-SCORE:    0.00 PKD
ROOT
HETATM    1  C   UNL     1     -13.068  15.219  70.430  1.00  0.00    -0.200 C  
HETATM    2  N   UNL     1     -11.941  15.144  69.493  1.00  0.00    -0.323 NA 
HETATM    3  C   UNL     1     -10.744  15.701  70.127  1.00  0.00    -0.342 C  
ENDROOT
BRANCH   2   4
HETATM    4  C   UNL     1     -11.682  13.765  69.024  1.00  0.00    -0.331 C  
BRANCH   4   5
HETATM    5  C   UNL     1     -11.684  13.681  67.489  1.00  0.00    -0.406 C  
BRANCH   5   6
HETATM    6  C   UNL     1     -11.086  12.427  66.893  1.00  0.00    -0.335 C  
HETATM    7  C   UNL     1      -9.770  12.102  66.883  1.00  0.00    -0.213 C  
HETATM    8  C   UNL     1      -9.397  10.787  66.320  1.00  0.00    -0.205 A  
HETATM    9  C   UNL     1      -9.563  10.488  64.962  1.00  0.00    -0.331 A  
HETATM   10  C   UNL     1      -9.120   9.264  64.458  1.00  0.00    -0.145 A  
HETATM   11  C   UNL     1      -8.509   8.340  65.306  1.00  0.00    -0.179 A  
HETATM   12  C   UNL     1      -8.344   8.633  66.660  1.00  0.00    -0.108 A  
HETATM   13  C   UNL     1      -8.789   9.857  67.177  1.00  0.00    -0.146 A  
HETATM   14  C   UNL     1      -8.619  10.215  68.631  1.00  0.00    -0.123 C  
HETATM   15  O   UNL     1      -7.591  11.181  68.847  1.00  0.00    -0.120 OA 
HETATM   16  C   UNL     1      -7.804  12.479  68.458  1.00  0.00    -0.108 A  
HETATM   17  C   UNL     1      -8.746  12.964  67.535  1.00  0.00    -0.190 A  
HETATM   18  C   UNL     1      -8.685  14.328  67.169  1.00  0.00    -0.243 A  
HETATM   19  C   UNL     1      -7.823  15.233  67.803  1.00  0.00    -0.161 A  
HETATM   20  C   UNL     1      -6.929  14.739  68.754  1.00  0.00    -0.103 A  
HETATM   21  C   UNL     1      -6.902  13.374  69.052  1.00  0.00    -0.103 A  
BRANCH  19  22
HETATM   22  C   UNL     1      -7.808  16.696  67.416  1.00  0.00    -0.188 C  
HETATM   23  C   UNL     1      -6.529  17.278  66.844  1.00  0.00    -0.192 C  
HETATM   24  O   UNL     1      -6.399  18.485  66.647  1.00  0.00    -0.174 OA 
HETATM   25  O   UNL     1      -5.540  16.418  66.532  1.00  0.00    -0.278 OA 
ENDBRANCH  19  22
ENDBRANCH   5   6
ENDBRANCH   4   5
ENDBRANCH   2   4
TORSDOF 4
ENDMDL
MODEL      105
REMARK 921   NORMALIZED FREE ENERGY PREDICTED BY IDOCK:   -4.02 KCAL/MOL
REMARK 922        TOTAL FREE ENERGY PREDICTED BY IDOCK:   -5.51 KCAL/MOL
REMARK 923 INTER-LIGAND FREE ENERGY PREDICTED BY IDOCK:   -5.12 KCAL/MOL
REMARK 924 INTRA-LIGAND FREE ENERGY PREDICTED BY IDOCK:   -0.39 KCAL/MOL
REMARK 927      BINDING AFFINITY PREDICTED BY RF-SCORE:    0.00 PKD
ROOT
HETATM    1  C   UNL     1     -13.715   9.179  72.011  1.00  0.00    -0.448 C  
HETATM    2  N   UNL     1     -12.969  10.139  71.189  1.00  0.00    -0.375 NA 
HETATM    3  C   UNL     1     -13.173  11.490  71.716  1.00  0.00    -0.351 C  
ENDROOT
BRANCH   2   4
HETATM    4  C   UNL     1     -11.524   9.825  71.119  1.00  0.00    -0.398 C  
BRANCH   4   5
HETATM    5  C   UNL     1     -11.143   9.225  69.756  1.00  0.00    -0.168 C  
BRANCH   5   6
HETATM    6  C   UNL     1      -9.944   8.305  69.749  1.00  0.00    -0.191 C  
HETATM    7  C   UNL     1      -8.755   8.555  69.146  1.00  0.00    -0.134 C  
HETATM    8  C   UNL     1      -7.678   7.558  69.325  1.00  0.00    -0.112 A  
HETATM    9  C   UNL     1      -7.767   6.267  68.792  1.00  0.00    -0.100 A  
HETATM   10  C   UNL     1      -6.691   5.385  68.913  1.00  0.00    -0.053 A  
HETATM   11  C   UNL     1      -5.526   5.792  69.563  1.00  0.00    -0.004 A  
HETATM   12  C   UNL     1      -5.434   7.078  70.098  1.00  0.00    -0.023 A  
HETATM   13  C   UNL     1      -6.510   7.968  69.985  1.00  0.00    -0.033 A  
HETATM   14  C   UNL     1      -6.444   9.368  70.540  1.00  0.00    -0.078 C  
HETATM   15  O   UNL     1      -6.294  10.360  69.525  1.00  0.00    -0.047 OA 
HETATM   16  C   UNL     1      -7.357  10.637  68.702  1.00  0.00    -0.094 A  
HETATM   17  C   UNL     1      -8.487   9.842  68.448  1.00  0.00    -0.114 A  
HETATM   18  C   UNL     1      -9.387  10.258  67.441  1.00  0.00    -0.163 A  
HETATM   19  C   UNL     1      -9.270  11.501  66.802  1.00  0.00    -0.187 A  
HETATM   20  C   UNL     1      -8.165  12.298  67.106  1.00  0.00    -0.179 A  
HETATM   21  C   UNL     1      -7.208  11.855  68.023  1.00  0.00    -0.090 A  
BRANCH  19  22
HETATM   22  C   UNL     1     -10.271  11.936  65.755  1.00  0.00    -0.276 C  
HETATM   23  C   UNL     1     -11.713  12.148  66.178  1.00  0.00    -0.315 C  
HETATM   24  O   UNL     1     -12.604  12.356  65.358  1.00  0.00    -0.637 OA 
HETATM   25  O   UNL     1     -11.982  12.126  67.498  1.00  0.00    -0.544 OA 
ENDBRANCH  19  22
ENDBRANCH   5   6
ENDBRANCH   4   5
ENDBRANCH   2   4
TORSDOF 4
ENDMDL
MODEL      106
REMARK 921   NORMALIZED FREE ENERGY PREDICTED BY IDOCK:   -4.01 KCAL/MOL
REMARK 922        TOTAL FREE ENERGY PREDICTED BY IDOCK:   -5.50 KCAL/MOL
REMARK 923 INTER-LIGAND FREE ENERGY PREDICTED BY IDOCK:   -6.61 KCAL/MOL
REMARK 924 INTRA-LIGAND FREE ENERGY PREDICTED BY IDOCK:    1.11 KCAL/MOL
REMARK 927      BINDING AFFINITY PREDICTED BY RF-SCORE:    0.00 PKD
ROOT
HETATM    1  C   UNL     1      -5.407  16.952  70.613  1.00  0.00    -0.193 C  
HETATM    2  N   UNL     1      -5.689  16.095  69.456  1.00  0.00    -0.131 NA 
HETATM    3  C   UNL     1      -6.171  14.793  69.921  1.00  0.00    -0.150 C  
ENDROOT
BRANCH   2   4
HETATM    4  C   UNL     1      -6.664  16.703  68.523  1.00  0.00    -0.148 C  
BRANCH   4   5
HETATM    5  C   UNL     1      -6.763  15.906  67.212  1.00  0.00    -0.221 C  
BRANCH   5   6
HETATM    6  C   UNL     1      -8.061  15.168  66.981  1.00  0.00    -0.240 C  
HETATM    7  C   UNL     1      -9.294  15.730  66.924  1.00  0.00    -0.246 C  
HETATM    8  C   UNL     1     -10.433  14.843  66.608  1.00  0.00    -0.292 A  
HETATM    9  C   UNL     1     -10.849  13.830  67.481  1.00  0.00    -0.274 A  
HETATM   10  C   UNL     1     -11.981  13.070  67.181  1.00  0.00    -0.389 A  
HETATM   11  C   UNL     1     -12.700  13.322  66.012  1.00  0.00    -0.135 A  
HETATM   12  C   UNL     1     -12.288  14.328  65.138  1.00  0.00    -0.427 A  
HETATM   13  C   UNL     1     -11.151  15.093  65.428  1.00  0.00    -0.371 A  
HETATM   14  C   UNL     1     -10.680  16.196  64.514  1.00  0.00     0.219 C  
HETATM   15  O   UNL     1     -10.953  17.498  65.032  1.00  0.00    -0.754 OA 
HETATM   16  C   UNL     1     -10.230  17.954  66.106  1.00  0.00    -0.343 A  
HETATM   17  C   UNL     1      -9.489  17.202  67.033  1.00  0.00    -0.257 A  
HETATM   18  C   UNL     1      -8.947  17.869  68.155  1.00  0.00    -0.268 A  
HETATM   19  C   UNL     1      -8.994  19.264  68.290  1.00  0.00    -0.381 A  
HETATM   20  C   UNL     1      -9.693  19.996  67.329  1.00  0.00    -0.545 A  
HETATM   21  C   UNL     1     -10.326  19.343  66.269  1.00  0.00    -0.584 A  
BRANCH  19  22
HETATM   22  C   UNL     1      -8.370  19.952  69.484  1.00  0.00     0.431 C  
HETATM   23  C   UNL     1      -6.865  20.146  69.500  1.00  0.00    -0.157 C  
HETATM   24  O   UNL     1      -6.278  20.562  70.497  1.00  0.00    -0.506 OA 
HETATM   25  O   UNL     1      -6.190  19.870  68.367  1.00  0.00    -0.244 OA 
ENDBRANCH  19  22
ENDBRANCH   5   6
ENDBRANCH   4   5
ENDBRANCH   2   4
TORSDOF 4
ENDMDL
MODEL      107
REMARK 921   NORMALIZED FREE ENERGY PREDICTED BY IDOCK:   -3.97 KCAL/MOL
REMARK 922        TOTAL FREE ENERGY PREDICTED BY IDOCK:   -5.45 KCAL/MOL
REMARK 923 INTER-LIGAND FREE ENERGY PREDICTED BY IDOCK:   -5.09 KCAL/MOL
REMARK 924 INTRA-LIGAND FREE ENERGY PREDICTED BY IDOCK:   -0.36 KCAL/MOL
REMARK 927      BINDING AFFINITY PREDICTED BY RF-SCORE:    0.00 PKD
ROOT
HETATM    1  C   UNL     1      -6.258   8.152  66.918  1.00  0.00    -0.055 C  
HETATM    2  N   UNL     1      -6.303   9.070  68.062  1.00  0.00    -0.055 NA 
HETATM    3  C   UNL     1      -5.153   8.818  68.932  1.00  0.00    -0.033 C  
ENDROOT
BRANCH   2   4
HETATM    4  C   UNL     1      -6.336  10.491  67.649  1.00  0.00    -0.056 C  
BRANCH   4   5
HETATM    5  C   UNL     1      -7.580  11.208  68.198  1.00  0.00    -0.103 C  
BRANCH   5   6
HETATM    6  C   UNL     1      -8.578  11.686  67.168  1.00  0.00    -0.164 C  
HETATM    7  C   UNL     1      -9.891  11.354  67.120  1.00  0.00    -0.212 C  
HETATM    8  C   UNL     1     -10.719  11.994  66.076  1.00  0.00    -0.317 A  
HETATM    9  C   UNL     1     -10.524  11.736  64.714  1.00  0.00    -0.341 A  
HETATM   10  C   UNL     1     -11.381  12.297  63.766  1.00  0.00    -0.534 A  
HETATM   11  C   UNL     1     -12.436  13.113  64.177  1.00  0.00    -0.348 A  
HETATM   12  C   UNL     1     -12.633  13.375  65.533  1.00  0.00    -0.520 A  
HETATM   13  C   UNL     1     -11.775  12.819  66.491  1.00  0.00    -0.463 A  
HETATM   14  C   UNL     1     -11.961  13.070  67.966  1.00  0.00    -0.290 C  
HETATM   15  O   UNL     1     -12.490  11.939  68.657  1.00  0.00    -0.153 OA 
HETATM   16  C   UNL     1     -11.689  10.841  68.851  1.00  0.00    -0.267 A  
HETATM   17  C   UNL     1     -10.518  10.490  68.158  1.00  0.00    -0.217 A  
HETATM   18  C   UNL     1      -9.936   9.230  68.423  1.00  0.00    -0.196 A  
HETATM   19  C   UNL     1     -10.397   8.395  69.451  1.00  0.00    -0.217 A  
HETATM   20  C   UNL     1     -11.532   8.788  70.161  1.00  0.00    -0.027 A  
HETATM   21  C   UNL     1     -12.185   9.982  69.842  1.00  0.00     0.040 A  
BRANCH  19  22
HETATM   22  C   UNL     1      -9.728   7.068  69.735  1.00  0.00    -0.168 C  
HETATM   23  C   UNL     1      -9.793   5.985  68.674  1.00  0.00    -0.138 C  
HETATM   24  O   UNL     1      -9.402   4.840  68.895  1.00  0.00    -0.116 OA 
HETATM   25  O   UNL     1     -10.272   6.329  67.463  1.00  0.00    -0.138 OA 
ENDBRANCH  19  22
ENDBRANCH   5   6
ENDBRANCH   4   5
ENDBRANCH   2   4
TORSDOF 4
ENDMDL
MODEL      108
REMARK 921   NORMALIZED FREE ENERGY PREDICTED BY IDOCK:   -3.91 KCAL/MOL
REMARK 922        TOTAL FREE ENERGY PREDICTED BY IDOCK:   -5.38 KCAL/MOL
REMARK 923 INTER-LIGAND FREE ENERGY PREDICTED BY IDOCK:   -4.89 KCAL/MOL
REMARK 924 INTRA-LIGAND FREE ENERGY PREDICTED BY IDOCK:   -0.49 KCAL/MOL
REMARK 927      BINDING AFFINITY PREDICTED BY RF-SCORE:    0.00 PKD
ROOT
HETATM    1  C   UNL     1     -10.963   6.852  67.248  1.00  0.00    -0.336 C  
HETATM    2  N   UNL     1     -10.259   7.874  66.464  1.00  0.00    -0.215 NA 
HETATM    3  C   UNL     1     -10.611   9.202  66.969  1.00  0.00    -0.195 C  
ENDROOT
BRANCH   2   4
HETATM    4  C   UNL     1      -8.790   7.689  66.478  1.00  0.00    -0.147 C  
BRANCH   4   5
HETATM    5  C   UNL     1      -8.232   7.720  67.910  1.00  0.00    -0.123 C  
BRANCH   5   6
HETATM    6  C   UNL     1      -7.575   9.012  68.337  1.00  0.00    -0.090 C  
HETATM    7  C   UNL     1      -7.669   9.581  69.564  1.00  0.00    -0.100 C  
HETATM    8  C   UNL     1      -6.883  10.810  69.807  1.00  0.00    -0.151 A  
HETATM    9  C   UNL     1      -7.159  12.010  69.141  1.00  0.00    -0.032 A  
HETATM   10  C   UNL     1      -6.447  13.167  69.462  1.00  0.00    -0.074 A  
HETATM   11  C   UNL     1      -5.460  13.128  70.448  1.00  0.00    -0.145 A  
HETATM   12  C   UNL     1      -5.179  11.933  71.112  1.00  0.00    -0.102 A  
HETATM   13  C   UNL     1      -5.887  10.766  70.794  1.00  0.00    -0.081 A  
HETATM   14  C   UNL     1      -5.620   9.459  71.496  1.00  0.00    -0.073 C  
HETATM   15  O   UNL     1      -6.646   9.111  72.426  1.00  0.00    -0.301 OA 
HETATM   16  C   UNL     1      -7.869   8.711  71.950  1.00  0.00    -0.070 A  
HETATM   17  C   UNL     1      -8.417   8.930  70.675  1.00  0.00    -0.211 A  
HETATM   18  C   UNL     1      -9.763   8.562  70.451  1.00  0.00    -0.193 A  
HETATM   19  C   UNL     1     -10.512   7.855  71.402  1.00  0.00    -0.242 A  
HETATM   20  C   UNL     1      -9.930   7.603  72.646  1.00  0.00    -0.279 A  
HETATM   21  C   UNL     1      -8.636   8.053  72.923  1.00  0.00    -0.256 A  
BRANCH  19  22
HETATM   22  C   UNL     1     -11.939   7.440  71.119  1.00  0.00    -0.351 C  
HETATM   23  C   UNL     1     -13.061   8.339  71.602  1.00  0.00    -0.334 C  
HETATM   24  O   UNL     1     -14.240   7.994  71.537  1.00  0.00    -0.409 OA 
HETATM   25  O   UNL     1     -12.723   9.551  72.085  1.00  0.00    -0.380 OA 
ENDBRANCH  19  22
ENDBRANCH   5   6
ENDBRANCH   4   5
ENDBRANCH   2   4
TORSDOF 4
ENDMDL
MODEL      109
REMARK 921   NORMALIZED FREE ENERGY PREDICTED BY IDOCK:   -3.87 KCAL/MOL
REMARK 922        TOTAL FREE ENERGY PREDICTED BY IDOCK:   -5.33 KCAL/MOL
REMARK 923 INTER-LIGAND FREE ENERGY PREDICTED BY IDOCK:   -4.78 KCAL/MOL
REMARK 924 INTRA-LIGAND FREE ENERGY PREDICTED BY IDOCK:   -0.56 KCAL/MOL
REMARK 927      BINDING AFFINITY PREDICTED BY RF-SCORE:    0.00 PKD
ROOT
HETATM    1  C   UNL     1      -7.401   7.490  73.714  1.00  0.00    -0.100 C  
HETATM    2  N   UNL     1      -6.652   7.868  72.510  1.00  0.00    -0.065 NA 
HETATM    3  C   UNL     1      -6.414   6.677  71.692  1.00  0.00    -0.046 C  
ENDROOT
BRANCH   2   4
HETATM    4  C   UNL     1      -7.340   8.911  71.716  1.00  0.00     0.019 C  
BRANCH   4   5
HETATM    5  C   UNL     1      -7.401   8.537  70.226  1.00  0.00    -0.052 C  
BRANCH   5   6
HETATM    6  C   UNL     1      -8.223   9.450  69.347  1.00  0.00    -0.119 C  
HETATM    7  C   UNL     1      -9.559   9.358  69.136  1.00  0.00    -0.163 C  
HETATM    8  C   UNL     1     -10.191  10.402  68.301  1.00  0.00    -0.184 A  
HETATM    9  C   UNL     1      -9.906  10.533  66.937  1.00  0.00    -0.235 A  
HETATM   10  C   UNL     1     -10.587  11.478  66.169  1.00  0.00    -0.314 A  
HETATM   11  C   UNL     1     -11.556  12.290  66.760  1.00  0.00    -0.434 A  
HETATM   12  C   UNL     1     -11.842  12.165  68.120  1.00  0.00    -0.362 A  
HETATM   13  C   UNL     1     -11.160  11.222  68.900  1.00  0.00    -0.295 A  
HETATM   14  C   UNL     1     -11.448  11.048  70.369  1.00  0.00    -0.223 C  
HETATM   15  O   UNL     1     -12.187   9.861  70.652  1.00  0.00    -0.279 OA 
HETATM   16  C   UNL     1     -11.564   8.644  70.537  1.00  0.00    -0.139 A  
HETATM   17  C   UNL     1     -10.392   8.335  69.827  1.00  0.00    -0.216 A  
HETATM   18  C   UNL     1     -10.013   6.977  69.717  1.00  0.00    -0.179 A  
HETATM   19  C   UNL     1     -10.676   5.958  70.415  1.00  0.00    -0.373 A  
HETATM   20  C   UNL     1     -11.810   6.296  71.156  1.00  0.00    -0.234 A  
HETATM   21  C   UNL     1     -12.262   7.617  71.190  1.00  0.00    -0.310 A  
BRANCH  19  22
HETATM   22  C   UNL     1     -10.223   4.519  70.308  1.00  0.00    -0.137 C  
HETATM   23  C   UNL     1      -9.325   3.962  71.397  1.00  0.00    -0.139 C  
HETATM   24  O   UNL     1      -8.803   2.853  71.301  1.00  0.00    -0.070 OA 
HETATM   25  O   UNL     1      -9.140   4.718  72.497  1.00  0.00    -0.127 OA 
ENDBRANCH  19  22
ENDBRANCH   5   6
ENDBRANCH   4   5
ENDBRANCH   2   4
TORSDOF 4
ENDMDL
MODEL      110
REMARK 921   NORMALIZED FREE ENERGY PREDICTED BY IDOCK:   -3.87 KCAL/MOL
REMARK 922        TOTAL FREE ENERGY PREDICTED BY IDOCK:   -5.32 KCAL/MOL
REMARK 923 INTER-LIGAND FREE ENERGY PREDICTED BY IDOCK:   -4.71 KCAL/MOL
REMARK 924 INTRA-LIGAND FREE ENERGY PREDICTED BY IDOCK:   -0.61 KCAL/MOL
REMARK 927      BINDING AFFINITY PREDICTED BY RF-SCORE:    0.00 PKD
ROOT
HETATM    1  C   UNL     1     -13.763  14.651  70.536  1.00  0.00     0.350 C  
HETATM    2  N   UNL     1     -12.655  13.995  69.833  1.00  0.00    -0.241 NA 
HETATM    3  C   UNL     1     -11.600  14.975  69.567  1.00  0.00    -0.311 C  
ENDROOT
BRANCH   2   4
HETATM    4  C   UNL     1     -12.110  12.840  70.582  1.00  0.00    -0.228 C  
BRANCH   4   5
HETATM    5  C   UNL     1     -12.013  11.588  69.696  1.00  0.00    -0.407 C  
BRANCH   5   6
HETATM    6  C   UNL     1     -10.667  10.901  69.664  1.00  0.00    -0.232 C  
HETATM    7  C   UNL     1      -9.654  11.181  68.808  1.00  0.00    -0.180 C  
HETATM    8  C   UNL     1      -8.383  10.448  68.993  1.00  0.00    -0.150 A  
HETATM    9  C   UNL     1      -8.287   9.067  68.781  1.00  0.00    -0.122 A  
HETATM   10  C   UNL     1      -7.050   8.429  68.886  1.00  0.00    -0.066 A  
HETATM   11  C   UNL     1      -5.908   9.168  69.200  1.00  0.00    -0.036 A  
HETATM   12  C   UNL     1      -6.001  10.544  69.415  1.00  0.00    -0.039 A  
HETATM   13  C   UNL     1      -7.239  11.192  69.316  1.00  0.00    -0.112 A  
HETATM   14  C   UNL     1      -7.377  12.678  69.530  1.00  0.00     0.490 C  
HETATM   15  O   UNL     1      -7.579  13.396  68.313  1.00  0.00    -0.116 OA 
HETATM   16  C   UNL     1      -8.783  13.284  67.665  1.00  0.00    -0.195 A  
HETATM   17  C   UNL     1      -9.754  12.279  67.808  1.00  0.00    -0.199 A  
HETATM   18  C   UNL     1     -10.856  12.281  66.922  1.00  0.00    -0.290 A  
HETATM   19  C   UNL     1     -11.085  13.328  66.018  1.00  0.00    -0.298 A  
HETATM   20  C   UNL     1     -10.132  14.343  65.928  1.00  0.00    -0.344 A  
HETATM   21  C   UNL     1      -8.982  14.303  66.721  1.00  0.00    -0.249 A  
BRANCH  19  22
HETATM   22  C   UNL     1     -12.295  13.321  65.109  1.00  0.00    -0.516 C  
HETATM   23  C   UNL     1     -12.359  12.288  64.000  1.00  0.00    -0.475 C  
HETATM   24  O   UNL     1     -13.235  12.317  63.138  1.00  0.00    -0.506 OA 
HETATM   25  O   UNL     1     -11.430  11.312  64.005  1.00  0.00    -0.241 OA 
ENDBRANCH  19  22
ENDBRANCH   5   6
ENDBRANCH   4   5
ENDBRANCH   2   4
TORSDOF 4
ENDMDL
MODEL      111
REMARK 921   NORMALIZED FREE ENERGY PREDICTED BY IDOCK:   -3.83 KCAL/MOL
REMARK 922        TOTAL FREE ENERGY PREDICTED BY IDOCK:   -5.28 KCAL/MOL
REMARK 923 INTER-LIGAND FREE ENERGY PREDICTED BY IDOCK:   -5.19 KCAL/MOL
REMARK 924 INTRA-LIGAND FREE ENERGY PREDICTED BY IDOCK:   -0.09 KCAL/MOL
REMARK 927      BINDING AFFINITY PREDICTED BY RF-SCORE:    0.00 PKD
ROOT
HETATM    1  C   UNL     1     -10.880   6.085  66.508  1.00  0.00    -0.120 C  
HETATM    2  N   UNL     1      -9.672   6.421  67.272  1.00  0.00    -0.125 NA 
HETATM    3  C   UNL     1      -8.950   5.191  67.604  1.00  0.00    -0.109 C  
ENDROOT
BRANCH   2   4
HETATM    4  C   UNL     1      -8.786   7.361  66.549  1.00  0.00    -0.140 C  
BRANCH   4   5
HETATM    5  C   UNL     1      -8.680   8.710  67.279  1.00  0.00    -0.133 C  
BRANCH   5   6
HETATM    6  C   UNL     1      -7.898   8.704  68.572  1.00  0.00    -0.108 C  
HETATM    7  C   UNL     1      -8.337   9.168  69.767  1.00  0.00    -0.136 C  
HETATM    8  C   UNL     1      -7.445   8.998  70.934  1.00  0.00    -0.128 A  
HETATM    9  C   UNL     1      -6.220   9.668  71.035  1.00  0.00    -0.069 A  
HETATM   10  C   UNL     1      -5.449   9.542  72.192  1.00  0.00    -0.039 A  
HETATM   11  C   UNL     1      -5.900   8.752  73.249  1.00  0.00    -0.102 A  
HETATM   12  C   UNL     1      -7.119   8.080  73.152  1.00  0.00    -0.126 A  
HETATM   13  C   UNL     1      -7.899   8.196  71.993  1.00  0.00    -0.150 A  
HETATM   14  C   UNL     1      -9.226   7.495  71.854  1.00  0.00    -0.132 C  
HETATM   15  O   UNL     1     -10.336   8.385  71.969  1.00  0.00    -0.249 OA 
HETATM   16  C   UNL     1     -10.592   9.267  70.949  1.00  0.00    -0.296 A  
HETATM   17  C   UNL     1      -9.716   9.703  69.941  1.00  0.00    -0.262 A  
HETATM   18  C   UNL     1     -10.147  10.738  69.081  1.00  0.00    -0.224 A  
HETATM   19  C   UNL     1     -11.459  11.232  69.104  1.00  0.00    -0.364 A  
HETATM   20  C   UNL     1     -12.328  10.748  70.083  1.00  0.00    -0.401 A  
HETATM   21  C   UNL     1     -11.887   9.800  71.011  1.00  0.00    -0.442 A  
BRANCH  19  22
HETATM   22  C   UNL     1     -11.902  12.314  68.144  1.00  0.00    -0.372 C  
HETATM   23  C   UNL     1     -11.439  12.232  66.701  1.00  0.00    -0.373 C  
HETATM   24  O   UNL     1     -11.638  13.149  65.906  1.00  0.00    -0.326 OA 
HETATM   25  O   UNL     1     -10.823  11.100  66.309  1.00  0.00    -0.263 OA 
ENDBRANCH  19  22
ENDBRANCH   5   6
ENDBRANCH   4   5
ENDBRANCH   2   4
TORSDOF 4
ENDMDL
MODEL      112
REMARK 921   NORMALIZED FREE ENERGY PREDICTED BY IDOCK:   -3.83 KCAL/MOL
REMARK 922        TOTAL FREE ENERGY PREDICTED BY IDOCK:   -5.28 KCAL/MOL
REMARK 923 INTER-LIGAND FREE ENERGY PREDICTED BY IDOCK:   -4.95 KCAL/MOL
REMARK 924 INTRA-LIGAND FREE ENERGY PREDICTED BY IDOCK:   -0.33 KCAL/MOL
REMARK 927      BINDING AFFINITY PREDICTED BY RF-SCORE:    0.00 PKD
ROOT
HETATM    1  C   UNL     1     -12.296  13.374  66.782  1.00  0.00    -0.231 C  
HETATM    2  N   UNL     1     -11.803  12.200  66.052  1.00  0.00    -0.561 NA 
HETATM    3  C   UNL     1     -10.991  12.641  64.916  1.00  0.00    -0.293 C  
ENDROOT
BRANCH   2   4
HETATM    4  C   UNL     1     -11.028  11.278  66.912  1.00  0.00    -0.290 C  
BRANCH   4   5
HETATM    5  C   UNL     1      -9.751  10.790  66.210  1.00  0.00    -0.248 C  
BRANCH   5   6
HETATM    6  C   UNL     1      -9.697   9.316  65.882  1.00  0.00    -0.355 C  
HETATM    7  C   UNL     1      -9.333   8.326  66.734  1.00  0.00    -0.232 C  
HETATM    8  C   UNL     1      -9.424   6.935  66.241  1.00  0.00    -0.122 A  
HETATM    9  C   UNL     1      -8.604   6.458  65.212  1.00  0.00    -0.051 A  
HETATM   10  C   UNL     1      -8.665   5.116  64.834  1.00  0.00    -0.140 A  
HETATM   11  C   UNL     1      -9.542   4.248  65.485  1.00  0.00    -0.188 A  
HETATM   12  C   UNL     1     -10.364   4.720  66.510  1.00  0.00    -0.284 A  
HETATM   13  C   UNL     1     -10.312   6.066  66.893  1.00  0.00    -0.303 A  
HETATM   14  C   UNL     1     -11.175   6.611  68.002  1.00  0.00    -0.117 C  
HETATM   15  O   UNL     1     -10.443   6.863  69.201  1.00  0.00    -0.190 OA 
HETATM   16  C   UNL     1      -9.568   7.920  69.238  1.00  0.00    -0.157 A  
HETATM   17  C   UNL     1      -8.989   8.604  68.156  1.00  0.00    -0.141 A  
HETATM   18  C   UNL     1      -7.991   9.567  68.428  1.00  0.00    -0.093 A  
HETATM   19  C   UNL     1      -7.674   9.965  69.735  1.00  0.00    -0.159 A  
HETATM   20  C   UNL     1      -8.300   9.306  70.795  1.00  0.00    -0.230 A  
HETATM   21  C   UNL     1      -9.212   8.277  70.546  1.00  0.00    -0.160 A  
BRANCH  19  22
HETATM   22  C   UNL     1      -6.629  11.027  69.994  1.00  0.00    -0.134 C  
HETATM   23  C   UNL     1      -6.783  12.374  69.312  1.00  0.00    -0.067 C  
HETATM   24  O   UNL     1      -5.900  13.227  69.360  1.00  0.00    -0.083 OA 
HETATM   25  O   UNL     1      -7.942  12.616  68.670  1.00  0.00    -0.118 OA 
ENDBRANCH  19  22
ENDBRANCH   5   6
ENDBRANCH   4   5
ENDBRANCH   2   4
TORSDOF 4
ENDMDL
MODEL      113
REMARK 921   NORMALIZED FREE ENERGY PREDICTED BY IDOCK:   -3.81 KCAL/MOL
REMARK 922        TOTAL FREE ENERGY PREDICTED BY IDOCK:   -5.26 KCAL/MOL
REMARK 923 INTER-LIGAND FREE ENERGY PREDICTED BY IDOCK:   -4.67 KCAL/MOL
REMARK 924 INTRA-LIGAND FREE ENERGY PREDICTED BY IDOCK:   -0.59 KCAL/MOL
REMARK 927      BINDING AFFINITY PREDICTED BY RF-SCORE:    0.00 PKD
ROOT
HETATM    1  C   UNL     1     -11.518  15.957  71.261  1.00  0.00    -0.430 C  
HETATM    2  N   UNL     1     -12.266  14.804  71.775  1.00  0.00    -0.338 NA 
HETATM    3  C   UNL     1     -13.702  15.076  71.685  1.00  0.00    -0.462 C  
ENDROOT
BRANCH   2   4
HETATM    4  C   UNL     1     -11.933  13.548  71.066  1.00  0.00     0.008 C  
BRANCH   4   5
HETATM    5  C   UNL     1     -11.582  13.809  69.593  1.00  0.00    -0.343 C  
BRANCH   5   6
HETATM    6  C   UNL     1     -10.430  13.006  69.034  1.00  0.00    -0.023 C  
HETATM    7  C   UNL     1      -9.253  13.510  68.588  1.00  0.00    -0.022 C  
HETATM    8  C   UNL     1      -8.220  12.546  68.153  1.00  0.00    -0.170 A  
HETATM    9  C   UNL     1      -8.390  11.735  67.025  1.00  0.00    -0.172 A  
HETATM   10  C   UNL     1      -7.355  10.899  66.602  1.00  0.00    -0.139 A  
HETATM   11  C   UNL     1      -6.149  10.875  67.302  1.00  0.00    -0.062 A  
HETATM   12  C   UNL     1      -5.975  11.679  68.429  1.00  0.00    -0.049 A  
HETATM   13  C   UNL     1      -7.010  12.518  68.863  1.00  0.00    -0.088 A  
HETATM   14  C   UNL     1      -6.857  13.410  70.068  1.00  0.00     0.378 C  
HETATM   15  O   UNL     1      -6.695  14.786  69.722  1.00  0.00    -0.155 OA 
HETATM   16  C   UNL     1      -7.772  15.480  69.231  1.00  0.00    -0.223 A  
HETATM   17  C   UNL     1      -8.948  14.965  68.659  1.00  0.00    -0.184 A  
HETATM   18  C   UNL     1      -9.862  15.872  68.076  1.00  0.00    -0.218 A  
HETATM   19  C   UNL     1      -9.708  17.261  68.184  1.00  0.00    -0.284 A  
HETATM   20  C   UNL     1      -8.556  17.751  68.800  1.00  0.00    -0.206 A  
HETATM   21  C   UNL     1      -7.588  16.869  69.289  1.00  0.00    -0.086 A  
BRANCH  19  22
HETATM   22  C   UNL     1     -10.724  18.206  67.582  1.00  0.00    -0.364 C  
HETATM   23  C   UNL     1     -10.390  18.883  66.265  1.00  0.00    -0.453 C  
HETATM   24  O   UNL     1     -11.100  19.770  65.796  1.00  0.00    -0.270 OA 
HETATM   25  O   UNL     1      -9.294  18.457  65.608  1.00  0.00    -0.315 OA 
ENDBRANCH  19  22
ENDBRANCH   5   6
ENDBRANCH   4   5
ENDBRANCH   2   4
TORSDOF 4
ENDMDL
MODEL      114
REMARK 921   NORMALIZED FREE ENERGY PREDICTED BY IDOCK:   -3.80 KCAL/MOL
REMARK 922        TOTAL FREE ENERGY PREDICTED BY IDOCK:   -5.24 KCAL/MOL
REMARK 923 INTER-LIGAND FREE ENERGY PREDICTED BY IDOCK:   -5.19 KCAL/MOL
REMARK 924 INTRA-LIGAND FREE ENERGY PREDICTED BY IDOCK:   -0.06 KCAL/MOL
REMARK 927      BINDING AFFINITY PREDICTED BY RF-SCORE:    0.00 PKD
ROOT
HETATM    1  C   UNL     1      -9.292   6.348  72.912  1.00  0.00    -0.136 C  
HETATM    2  N   UNL     1      -8.352   7.475  72.920  1.00  0.00    -0.112 NA 
HETATM    3  C   UNL     1      -7.326   7.244  73.939  1.00  0.00    -0.097 C  
ENDROOT
BRANCH   2   4
HETATM    4  C   UNL     1      -7.725   7.703  71.599  1.00  0.00    -0.086 C  
BRANCH   4   5
HETATM    5  C   UNL     1      -8.589   8.617  70.715  1.00  0.00    -0.197 C  
BRANCH   5   6
HETATM    6  C   UNL     1      -8.345   8.522  69.226  1.00  0.00    -0.120 C  
HETATM    7  C   UNL     1      -8.967   9.257  68.272  1.00  0.00    -0.129 C  
HETATM    8  C   UNL     1      -8.527   9.070  66.873  1.00  0.00    -0.120 A  
HETATM    9  C   UNL     1      -8.726   7.866  66.187  1.00  0.00    -0.181 A  
HETATM   10  C   UNL     1      -8.370   7.761  64.842  1.00  0.00    -0.071 A  
HETATM   11  C   UNL     1      -7.817   8.857  64.179  1.00  0.00    -0.135 A  
HETATM   12  C   UNL     1      -7.614  10.058  64.859  1.00  0.00    -0.139 A  
HETATM   13  C   UNL     1      -7.964  10.172  66.211  1.00  0.00    -0.118 A  
HETATM   14  C   UNL     1      -7.770  11.456  66.976  1.00  0.00    -0.154 C  
HETATM   15  O   UNL     1      -8.996  12.147  67.219  1.00  0.00    -0.171 OA 
HETATM   16  C   UNL     1      -9.883  11.630  68.130  1.00  0.00    -0.191 A  
HETATM   17  C   UNL     1      -9.955  10.315  68.618  1.00  0.00    -0.183 A  
HETATM   18  C   UNL     1     -11.052   9.965  69.439  1.00  0.00    -0.237 A  
HETATM   19  C   UNL     1     -11.975  10.915  69.898  1.00  0.00    -0.430 A  
HETATM   20  C   UNL     1     -11.854  12.228  69.439  1.00  0.00    -0.370 A  
HETATM   21  C   UNL     1     -10.838  12.570  68.543  1.00  0.00    -0.271 A  
BRANCH  19  22
HETATM   22  C   UNL     1     -13.117  10.517  70.807  1.00  0.00    -0.335 C  
HETATM   23  C   UNL     1     -12.834   9.548  71.939  1.00  0.00    -0.420 C  
HETATM   24  O   UNL     1     -13.737   9.069  72.622  1.00  0.00    -0.470 OA 
HETATM   25  O   UNL     1     -11.545   9.247  72.193  1.00  0.00    -0.312 OA 
ENDBRANCH  19  22
ENDBRANCH   5   6
ENDBRANCH   4   5
ENDBRANCH   2   4
TORSDOF 4
ENDMDL
MODEL      115
REMARK 921   NORMALIZED FREE ENERGY PREDICTED BY IDOCK:   -3.74 KCAL/MOL
REMARK 922        TOTAL FREE ENERGY PREDICTED BY IDOCK:   -5.17 KCAL/MOL
REMARK 923 INTER-LIGAND FREE ENERGY PREDICTED BY IDOCK:   -4.98 KCAL/MOL
REMARK 924 INTRA-LIGAND FREE ENERGY PREDICTED BY IDOCK:   -0.19 KCAL/MOL
REMARK 927      BINDING AFFINITY PREDICTED BY RF-SCORE:    0.00 PKD
ROOT
HETATM    1  C   UNL     1      -6.620   7.843  69.496  1.00  0.00    -0.035 C  
HETATM    2  N   UNL     1      -6.692   9.250  69.082  1.00  0.00    -0.049 NA 
HETATM    3  C   UNL     1      -6.208  10.102  70.171  1.00  0.00    -0.090 C  
ENDROOT
BRANCH   2   4
HETATM    4  C   UNL     1      -5.933   9.517  67.841  1.00  0.00    -0.051 C  
BRANCH   4   5
HETATM    5  C   UNL     1      -6.649   8.942  66.607  1.00  0.00    -0.064 C  
BRANCH   5   6
HETATM    6  C   UNL     1      -7.766   9.785  66.037  1.00  0.00    -0.104 C  
HETATM    7  C   UNL     1      -9.090   9.608  66.267  1.00  0.00    -0.197 C  
HETATM    8  C   UNL     1     -10.022  10.593  65.677  1.00  0.00    -0.327 A  
HETATM    9  C   UNL     1     -10.198  10.711  64.294  1.00  0.00    -0.391 A  
HETATM   10  C   UNL     1     -11.148  11.597  63.783  1.00  0.00    -0.499 A  
HETATM   11  C   UNL     1     -11.926  12.362  64.653  1.00  0.00    -0.462 A  
HETATM   12  C   UNL     1     -11.752  12.250  66.033  1.00  0.00    -0.451 A  
HETATM   13  C   UNL     1     -10.798  11.367  66.554  1.00  0.00    -0.334 A  
HETATM   14  C   UNL     1     -10.588  11.210  68.039  1.00  0.00    -0.198 C  
HETATM   15  O   UNL     1     -11.120   9.986  68.546  1.00  0.00    -0.223 OA 
HETATM   16  C   UNL     1     -10.490   8.807  68.239  1.00  0.00    -0.187 A  
HETATM   17  C   UNL     1      -9.590   8.553  67.190  1.00  0.00    -0.232 A  
HETATM   18  C   UNL     1      -9.181   7.218  66.968  1.00  0.00    -0.170 A  
HETATM   19  C   UNL     1      -9.519   6.177  67.843  1.00  0.00    -0.115 A  
HETATM   20  C   UNL     1     -10.375   6.462  68.908  1.00  0.00    -0.237 A  
HETATM   21  C   UNL     1     -10.875   7.755  69.083  1.00  0.00    -0.066 A  
BRANCH  19  22
HETATM   22  C   UNL     1      -9.033   4.765  67.599  1.00  0.00    -0.120 C  
HETATM   23  C   UNL     1      -9.056   4.229  66.180  1.00  0.00    -0.133 C  
HETATM   24  O   UNL     1      -8.816   3.049  65.931  1.00  0.00    -0.129 OA 
HETATM   25  O   UNL     1      -9.323   5.102  65.190  1.00  0.00    -0.114 OA 
ENDBRANCH  19  22
ENDBRANCH   5   6
ENDBRANCH   4   5
ENDBRANCH   2   4
TORSDOF 4
ENDMDL
MODEL      116
REMARK 921   NORMALIZED FREE ENERGY PREDICTED BY IDOCK:   -3.73 KCAL/MOL
REMARK 922        TOTAL FREE ENERGY PREDICTED BY IDOCK:   -5.16 KCAL/MOL
REMARK 923 INTER-LIGAND FREE ENERGY PREDICTED BY IDOCK:   -5.53 KCAL/MOL
REMARK 924 INTRA-LIGAND FREE ENERGY PREDICTED BY IDOCK:    0.37 KCAL/MOL
REMARK 927      BINDING AFFINITY PREDICTED BY RF-SCORE:    0.00 PKD
ROOT
HETATM    1  C   UNL     1      -9.729  16.766  67.689  1.00  0.00    -0.251 C  
HETATM    2  N   UNL     1     -10.522  15.569  67.386  1.00  0.00    -0.275 NA 
HETATM    3  C   UNL     1     -10.009  14.942  66.166  1.00  0.00    -0.303 C  
ENDROOT
BRANCH   2   4
HETATM    4  C   UNL     1     -10.531  14.596  68.501  1.00  0.00    -0.247 C  
BRANCH   4   5
HETATM    5  C   UNL     1     -10.470  13.148  67.988  1.00  0.00    -0.245 C  
BRANCH   5   6
HETATM    6  C   UNL     1     -10.849  12.076  68.983  1.00  0.00    -0.223 C  
HETATM    7  C   UNL     1     -10.691  10.741  68.810  1.00  0.00    -0.243 C  
HETATM    8  C   UNL     1     -11.053   9.859  69.940  1.00  0.00    -0.318 A  
HETATM    9  C   UNL     1     -12.374   9.725  70.383  1.00  0.00    -0.079 A  
HETATM   10  C   UNL     1     -12.682   8.819  71.399  1.00  0.00    -0.324 A  
HETATM   11  C   UNL     1     -11.673   8.044  71.972  1.00  0.00    -0.375 A  
HETATM   12  C   UNL     1     -10.354   8.176  71.536  1.00  0.00    -0.265 A  
HETATM   13  C   UNL     1     -10.035   9.086  70.519  1.00  0.00    -0.263 A  
HETATM   14  C   UNL     1      -8.624   9.249  70.013  1.00  0.00    -0.182 C  
HETATM   15  O   UNL     1      -8.426   8.662  68.727  1.00  0.00    -0.127 OA 
HETATM   16  C   UNL     1      -8.988   9.261  67.627  1.00  0.00    -0.119 A  
HETATM   17  C   UNL     1     -10.050  10.180  67.589  1.00  0.00    -0.231 A  
HETATM   18  C   UNL     1     -10.570  10.551  66.328  1.00  0.00    -0.203 A  
HETATM   19  C   UNL     1      -9.968  10.153  65.126  1.00  0.00    -0.379 A  
HETATM   20  C   UNL     1      -8.881   9.279  65.189  1.00  0.00    -0.238 A  
HETATM   21  C   UNL     1      -8.419   8.818  66.424  1.00  0.00    -0.127 A  
BRANCH  19  22
HETATM   22  C   UNL     1     -10.525  10.598  63.791  1.00  0.00    -0.065 C  
HETATM   23  C   UNL     1     -11.741  11.505  63.783  1.00  0.00    -0.178 C  
HETATM   24  O   UNL     1     -12.332  11.784  62.742  1.00  0.00     0.050 OA 
HETATM   25  O   UNL     1     -12.140  12.021  64.962  1.00  0.00    -0.322 OA 
ENDBRANCH  19  22
ENDBRANCH   5   6
ENDBRANCH   4   5
ENDBRANCH   2   4
TORSDOF 4
ENDMDL
MODEL      117
REMARK 921   NORMALIZED FREE ENERGY PREDICTED BY IDOCK:   -3.73 KCAL/MOL
REMARK 922        TOTAL FREE ENERGY PREDICTED BY IDOCK:   -5.15 KCAL/MOL
REMARK 923 INTER-LIGAND FREE ENERGY PREDICTED BY IDOCK:   -4.72 KCAL/MOL
REMARK 924 INTRA-LIGAND FREE ENERGY PREDICTED BY IDOCK:   -0.43 KCAL/MOL
REMARK 927      BINDING AFFINITY PREDICTED BY RF-SCORE:    0.00 PKD
ROOT
HETATM    1  C   UNL     1      -7.964   7.674  62.797  1.00  0.00    -0.121 C  
HETATM    2  N   UNL     1      -7.637   8.931  63.480  1.00  0.00    -0.113 NA 
HETATM    3  C   UNL     1      -7.471   9.994  62.486  1.00  0.00    -0.124 C  
ENDROOT
BRANCH   2   4
HETATM    4  C   UNL     1      -8.655   9.317  64.482  1.00  0.00    -0.195 C  
BRANCH   4   5
HETATM    5  C   UNL     1      -8.077  10.278  65.533  1.00  0.00    -0.156 C  
BRANCH   5   6
HETATM    6  C   UNL     1      -7.699   9.659  66.859  1.00  0.00    -0.098 C  
HETATM    7  C   UNL     1      -8.336   9.860  68.039  1.00  0.00    -0.113 C  
HETATM    8  C   UNL     1      -7.857   9.097  69.211  1.00  0.00    -0.095 A  
HETATM    9  C   UNL     1      -6.591   9.311  69.768  1.00  0.00    -0.043 A  
HETATM   10  C   UNL     1      -6.212   8.627  70.924  1.00  0.00    -0.039 A  
HETATM   11  C   UNL     1      -7.097   7.732  71.527  1.00  0.00    -0.063 A  
HETATM   12  C   UNL     1      -8.359   7.514  70.974  1.00  0.00    -0.113 A  
HETATM   13  C   UNL     1      -8.747   8.192  69.811  1.00  0.00    -0.135 A  
HETATM   14  C   UNL     1     -10.105   7.992  69.189  1.00  0.00    -0.201 C  
HETATM   15  O   UNL     1     -10.982   9.097  69.407  1.00  0.00    -0.197 OA 
HETATM   16  C   UNL     1     -10.750  10.274  68.741  1.00  0.00    -0.219 A  
HETATM   17  C   UNL     1      -9.558  10.705  68.135  1.00  0.00    -0.165 A  
HETATM   18  C   UNL     1      -9.500  12.027  67.637  1.00  0.00    -0.185 A  
HETATM   19  C   UNL     1     -10.628  12.859  67.593  1.00  0.00    -0.232 A  
HETATM   20  C   UNL     1     -11.816  12.390  68.157  1.00  0.00    -0.372 A  
HETATM   21  C   UNL     1     -11.864  11.126  68.749  1.00  0.00    -0.388 A  
BRANCH  19  22
HETATM   22  C   UNL     1     -10.544  14.256  67.019  1.00  0.00    -0.280 C  
HETATM   23  C   UNL     1     -10.264  14.411  65.535  1.00  0.00    -0.363 C  
HETATM   24  O   UNL     1     -10.037  15.509  65.031  1.00  0.00    -0.352 OA 
HETATM   25  O   UNL     1     -10.299  13.298  64.777  1.00  0.00    -0.358 OA 
ENDBRANCH  19  22
ENDBRANCH   5   6
ENDBRANCH   4   5
ENDBRANCH   2   4
TORSDOF 4
ENDMDL
MODEL      118
REMARK 921   NORMALIZED FREE ENERGY PREDICTED BY IDOCK:   -3.72 KCAL/MOL
REMARK 922        TOTAL FREE ENERGY PREDICTED BY IDOCK:   -5.14 KCAL/MOL
REMARK 923 INTER-LIGAND FREE ENERGY PREDICTED BY IDOCK:   -5.34 KCAL/MOL
REMARK 924 INTRA-LIGAND FREE ENERGY PREDICTED BY IDOCK:    0.20 KCAL/MOL
REMARK 927      BINDING AFFINITY PREDICTED BY RF-SCORE:    0.00 PKD
ROOT
HETATM    1  C   UNL     1      -7.731  15.060  68.299  1.00  0.00    -0.111 C  
HETATM    2  N   UNL     1      -6.296  14.749  68.296  1.00  0.00    -0.111 NA 
HETATM    3  C   UNL     1      -5.779  14.829  69.664  1.00  0.00    -0.099 C  
ENDROOT
BRANCH   2   4
HETATM    4  C   UNL     1      -6.004  13.422  67.710  1.00  0.00    -0.139 C  
BRANCH   4   5
HETATM    5  C   UNL     1      -7.210  12.475  67.827  1.00  0.00    -0.125 C  
BRANCH   5   6
HETATM    6  C   UNL     1      -8.275  12.625  66.765  1.00  0.00     0.029 C  
HETATM    7  C   UNL     1      -9.322  11.787  66.568  1.00  0.00    -0.217 C  
HETATM    8  C   UNL     1     -10.301  12.154  65.523  1.00  0.00    -0.296 A  
HETATM    9  C   UNL     1      -9.963  12.178  64.165  1.00  0.00    -0.279 A  
HETATM   10  C   UNL     1     -10.940  12.449  63.206  1.00  0.00    -0.325 A  
HETATM   11  C   UNL     1     -12.255  12.694  63.600  1.00  0.00    -0.624 A  
HETATM   12  C   UNL     1     -12.597  12.674  64.953  1.00  0.00    -0.525 A  
HETATM   13  C   UNL     1     -11.622  12.407  65.923  1.00  0.00    -0.449 A  
HETATM   14  C   UNL     1     -11.954  12.366  67.393  1.00  0.00    -0.175 C  
HETATM   15  O   UNL     1     -11.982  11.038  67.918  1.00  0.00    -0.620 OA 
HETATM   16  C   UNL     1     -10.800  10.357  68.071  1.00  0.00    -0.270 A  
HETATM   17  C   UNL     1      -9.565  10.615  67.454  1.00  0.00    -0.180 A  
HETATM   18  C   UNL     1      -8.516   9.687  67.642  1.00  0.00    -0.125 A  
HETATM   19  C   UNL     1      -8.620   8.612  68.535  1.00  0.00    -0.135 A  
HETATM   20  C   UNL     1      -9.842   8.404  69.177  1.00  0.00    -0.183 A  
HETATM   21  C   UNL     1     -10.925   9.250  68.923  1.00  0.00    -0.050 A  
BRANCH  19  22
HETATM   22  C   UNL     1      -7.465   7.657  68.744  1.00  0.00    -0.100 C  
HETATM   23  C   UNL     1      -7.245   6.557  67.723  1.00  0.00    -0.090 C  
HETATM   24  O   UNL     1      -6.422   5.662  67.904  1.00  0.00    -0.040 OA 
HETATM   25  O   UNL     1      -7.968   6.609  66.587  1.00  0.00    -0.102 OA 
ENDBRANCH  19  22
ENDBRANCH   5   6
ENDBRANCH   4   5
ENDBRANCH   2   4
TORSDOF 4
ENDMDL
MODEL      119
REMARK 921   NORMALIZED FREE ENERGY PREDICTED BY IDOCK:   -3.68 KCAL/MOL
REMARK 922        TOTAL FREE ENERGY PREDICTED BY IDOCK:   -5.09 KCAL/MOL
REMARK 923 INTER-LIGAND FREE ENERGY PREDICTED BY IDOCK:   -4.97 KCAL/MOL
REMARK 924 INTRA-LIGAND FREE ENERGY PREDICTED BY IDOCK:   -0.12 KCAL/MOL
REMARK 927      BINDING AFFINITY PREDICTED BY RF-SCORE:    0.00 PKD
ROOT
HETATM    1  C   UNL     1      -6.753   6.286  69.251  1.00  0.00    -0.056 C  
HETATM    2  N   UNL     1      -5.844   6.664  68.163  1.00  0.00    -0.019 NA 
HETATM    3  C   UNL     1      -5.913   5.659  67.100  1.00  0.00    -0.018 C  
ENDROOT
BRANCH   2   4
HETATM    4  C   UNL     1      -6.136   8.009  67.620  1.00  0.00    -0.051 C  
BRANCH   4   5
HETATM    5  C   UNL     1      -6.261   7.984  66.088  1.00  0.00    -0.045 C  
BRANCH   5   6
HETATM    6  C   UNL     1      -7.221   8.984  65.485  1.00  0.00    -0.085 C  
HETATM    7  C   UNL     1      -8.574   8.898  65.507  1.00  0.00    -0.191 C  
HETATM    8  C   UNL     1      -9.338  10.024  64.928  1.00  0.00    -0.324 A  
HETATM    9  C   UNL     1      -9.300  10.322  63.561  1.00  0.00    -0.341 A  
HETATM   10  C   UNL     1     -10.101  11.342  63.046  1.00  0.00    -0.327 A  
HETATM   11  C   UNL     1     -10.943  12.063  63.893  1.00  0.00    -0.465 A  
HETATM   12  C   UNL     1     -10.982  11.772  65.257  1.00  0.00    -0.350 A  
HETATM   13  C   UNL     1     -10.178  10.753  65.784  1.00  0.00    -0.319 A  
HETATM   14  C   UNL     1     -10.200  10.401  67.250  1.00  0.00    -0.211 C  
HETATM   15  O   UNL     1     -10.886   9.178  67.516  1.00  0.00    -0.242 OA 
HETATM   16  C   UNL     1     -10.301   7.992  67.146  1.00  0.00    -0.325 A  
HETATM   17  C   UNL     1      -9.277   7.788  66.206  1.00  0.00    -0.217 A  
HETATM   18  C   UNL     1      -8.933   6.459  65.869  1.00  0.00    -0.111 A  
HETATM   19  C   UNL     1      -9.468   5.354  66.546  1.00  0.00    -0.158 A  
HETATM   20  C   UNL     1     -10.449   5.584  67.513  1.00  0.00    -0.269 A  
HETATM   21  C   UNL     1     -10.878   6.886  67.785  1.00  0.00    -0.312 A  
BRANCH  19  22
HETATM   22  C   UNL     1      -9.051   3.944  66.189  1.00  0.00    -0.146 C  
HETATM   23  C   UNL     1      -9.201   3.490  64.749  1.00  0.00    -0.142 C  
HETATM   24  O   UNL     1      -9.022   2.320  64.418  1.00  0.00    -0.101 OA 
HETATM   25  O   UNL     1      -9.514   4.426  63.831  1.00  0.00    -0.147 OA 
ENDBRANCH  19  22
ENDBRANCH   5   6
ENDBRANCH   4   5
ENDBRANCH   2   4
TORSDOF 4
ENDMDL
MODEL      120
REMARK 921   NORMALIZED FREE ENERGY PREDICTED BY IDOCK:   -3.66 KCAL/MOL
REMARK 922        TOTAL FREE ENERGY PREDICTED BY IDOCK:   -5.07 KCAL/MOL
REMARK 923 INTER-LIGAND FREE ENERGY PREDICTED BY IDOCK:   -5.45 KCAL/MOL
REMARK 924 INTRA-LIGAND FREE ENERGY PREDICTED BY IDOCK:    0.38 KCAL/MOL
REMARK 927      BINDING AFFINITY PREDICTED BY RF-SCORE:    0.00 PKD
ROOT
HETATM    1  C   UNL     1      -5.211   9.641  71.583  1.00  0.00    -0.074 C  
HETATM    2  N   UNL     1      -5.158  10.481  70.380  1.00  0.00    -0.041 NA 
HETATM    3  C   UNL     1      -5.142   9.625  69.192  1.00  0.00    -0.036 C  
ENDROOT
BRANCH   2   4
HETATM    4  C   UNL     1      -6.281  11.442  70.308  1.00  0.00    -0.106 C  
BRANCH   4   5
HETATM    5  C   UNL     1      -7.104  11.253  69.024  1.00  0.00    -0.116 C  
BRANCH   5   6
HETATM    6  C   UNL     1      -7.932   9.991  68.947  1.00  0.00    -0.101 C  
HETATM    7  C   UNL     1      -9.155   9.878  68.374  1.00  0.00    -0.123 C  
HETATM    8  C   UNL     1      -9.766   8.532  68.332  1.00  0.00    -0.169 A  
HETATM    9  C   UNL     1     -10.161   7.860  69.495  1.00  0.00    -0.208 A  
HETATM   10  C   UNL     1     -10.809   6.628  69.404  1.00  0.00    -0.340 A  
HETATM   11  C   UNL     1     -11.067   6.066  68.153  1.00  0.00    -0.246 A  
HETATM   12  C   UNL     1     -10.672   6.730  66.991  1.00  0.00    -0.435 A  
HETATM   13  C   UNL     1     -10.017   7.966  67.073  1.00  0.00    -0.322 A  
HETATM   14  C   UNL     1      -9.585   8.719  65.841  1.00  0.00    -0.184 C  
HETATM   15  O   UNL     1     -10.410   9.851  65.566  1.00  0.00    -0.213 OA 
HETATM   16  C   UNL     1     -10.324  10.952  66.381  1.00  0.00    -0.251 A  
HETATM   17  C   UNL     1      -9.807  11.026  67.686  1.00  0.00    -0.192 A  
HETATM   18  C   UNL     1      -9.960  12.236  68.400  1.00  0.00    -0.210 A  
HETATM   19  C   UNL     1     -10.469  13.397  67.801  1.00  0.00    -0.246 A  
HETATM   20  C   UNL     1     -10.931  13.313  66.486  1.00  0.00    -0.299 A  
HETATM   21  C   UNL     1     -10.885  12.098  65.799  1.00  0.00    -0.319 A  
BRANCH  19  22
HETATM   22  C   UNL     1     -10.586  14.688  68.580  1.00  0.00    -0.252 C  
HETATM   23  C   UNL     1     -11.675  14.802  69.631  1.00  0.00    -0.314 C  
HETATM   24  O   UNL     1     -11.920  15.866  70.195  1.00  0.00    -0.344 OA 
HETATM   25  O   UNL     1     -12.352  13.681  69.948  1.00  0.00    -0.310 OA 
ENDBRANCH  19  22
ENDBRANCH   5   6
ENDBRANCH   4   5
ENDBRANCH   2   4
TORSDOF 4
ENDMDL
MODEL      121
REMARK 921   NORMALIZED FREE ENERGY PREDICTED BY IDOCK:   -3.64 KCAL/MOL
REMARK 922        TOTAL FREE ENERGY PREDICTED BY IDOCK:   -5.04 KCAL/MOL
REMARK 923 INTER-LIGAND FREE ENERGY PREDICTED BY IDOCK:   -4.42 KCAL/MOL
REMARK 924 INTRA-LIGAND FREE ENERGY PREDICTED BY IDOCK:   -0.62 KCAL/MOL
REMARK 927      BINDING AFFINITY PREDICTED BY RF-SCORE:    0.00 PKD
ROOT
HETATM    1  C   UNL     1      -8.878   3.862  67.611  1.00  0.00    -0.115 C  
HETATM    2  N   UNL     1      -7.922   3.832  68.723  1.00  0.00    -0.062 NA 
HETATM    3  C   UNL     1      -7.649   2.442  69.092  1.00  0.00    -0.043 C  
ENDROOT
BRANCH   2   4
HETATM    4  C   UNL     1      -6.660   4.540  68.408  1.00  0.00    -0.046 C  
BRANCH   4   5
HETATM    5  C   UNL     1      -6.412   5.708  69.376  1.00  0.00    -0.045 C  
BRANCH   5   6
HETATM    6  C   UNL     1      -7.594   6.137  70.214  1.00  0.00    -0.096 C  
HETATM    7  C   UNL     1      -8.587   6.971  69.819  1.00  0.00    -0.141 C  
HETATM    8  C   UNL     1      -9.700   7.203  70.765  1.00  0.00    -0.171 A  
HETATM    9  C   UNL     1      -9.513   7.873  71.980  1.00  0.00    -0.230 A  
HETATM   10  C   UNL     1     -10.606   8.143  72.804  1.00  0.00    -0.386 A  
HETATM   11  C   UNL     1     -11.887   7.748  72.415  1.00  0.00    -0.371 A  
HETATM   12  C   UNL     1     -12.078   7.078  71.206  1.00  0.00    -0.403 A  
HETATM   13  C   UNL     1     -10.985   6.798  70.374  1.00  0.00    -0.330 A  
HETATM   14  C   UNL     1     -11.152   6.087  69.056  1.00  0.00    -0.307 C  
HETATM   15  O   UNL     1     -11.017   6.959  67.934  1.00  0.00    -0.227 OA 
HETATM   16  C   UNL     1      -9.776   7.450  67.617  1.00  0.00    -0.144 A  
HETATM   17  C   UNL     1      -8.639   7.528  68.439  1.00  0.00    -0.124 A  
HETATM   18  C   UNL     1      -7.505   8.216  67.951  1.00  0.00    -0.098 A  
HETATM   19  C   UNL     1      -7.426   8.684  66.631  1.00  0.00    -0.089 A  
HETATM   20  C   UNL     1      -8.551   8.551  65.816  1.00  0.00    -0.190 A  
HETATM   21  C   UNL     1      -9.719   7.968  66.315  1.00  0.00    -0.197 A  
BRANCH  19  22
HETATM   22  C   UNL     1      -6.183   9.383  66.126  1.00  0.00    -0.067 C  
HETATM   23  C   UNL     1      -6.152  10.900  66.137  1.00  0.00    -0.135 C  
HETATM   24  O   UNL     1      -5.240  11.532  65.608  1.00  0.00    -0.264 OA 
HETATM   25  O   UNL     1      -7.153  11.537  66.776  1.00  0.00    -0.141 OA 
ENDBRANCH  19  22
ENDBRANCH   5   6
ENDBRANCH   4   5
ENDBRANCH   2   4
TORSDOF 4
ENDMDL
MODEL      122
REMARK 921   NORMALIZED FREE ENERGY PREDICTED BY IDOCK:   -3.61 KCAL/MOL
REMARK 922        TOTAL FREE ENERGY PREDICTED BY IDOCK:   -5.00 KCAL/MOL
REMARK 923 INTER-LIGAND FREE ENERGY PREDICTED BY IDOCK:   -4.94 KCAL/MOL
REMARK 924 INTRA-LIGAND FREE ENERGY PREDICTED BY IDOCK:   -0.06 KCAL/MOL
REMARK 927      BINDING AFFINITY PREDICTED BY RF-SCORE:    0.00 PKD
ROOT
HETATM    1  C   UNL     1     -11.542  15.928  68.882  1.00  0.00    -0.388 C  
HETATM    2  N   UNL     1     -11.315  14.632  69.532  1.00  0.00    -0.268 NA 
HETATM    3  C   UNL     1     -12.006  14.608  70.823  1.00  0.00    -0.317 C  
ENDROOT
BRANCH   2   4
HETATM    4  C   UNL     1     -11.750  13.492  68.694  1.00  0.00    -0.354 C  
BRANCH   4   5
HETATM    5  C   UNL     1     -10.605  12.493  68.463  1.00  0.00    -0.262 C  
BRANCH   5   6
HETATM    6  C   UNL     1     -10.434  11.997  67.045  1.00  0.00    -0.248 C  
HETATM    7  C   UNL     1      -9.265  11.619  66.472  1.00  0.00    -0.205 C  
HETATM    8  C   UNL     1      -9.323  11.086  65.094  1.00  0.00    -0.249 A  
HETATM    9  C   UNL     1      -9.689  11.885  64.005  1.00  0.00    -0.179 A  
HETATM   10  C   UNL     1      -9.649  11.364  62.711  1.00  0.00    -0.290 A  
HETATM   11  C   UNL     1      -9.242  10.046  62.502  1.00  0.00    -0.319 A  
HETATM   12  C   UNL     1      -8.879   9.244  63.585  1.00  0.00    -0.146 A  
HETATM   13  C   UNL     1      -8.919   9.758  64.888  1.00  0.00    -0.257 A  
HETATM   14  C   UNL     1      -8.524   8.927  66.082  1.00  0.00    -0.125 C  
HETATM   15  O   UNL     1      -7.254   9.297  66.618  1.00  0.00    -0.081 OA 
HETATM   16  C   UNL     1      -7.135  10.487  67.291  1.00  0.00    -0.088 A  
HETATM   17  C   UNL     1      -7.988  11.602  67.237  1.00  0.00    -0.157 A  
HETATM   18  C   UNL     1      -7.587  12.785  67.898  1.00  0.00    -0.138 A  
HETATM   19  C   UNL     1      -6.454  12.832  68.722  1.00  0.00    -0.085 A  
HETATM   20  C   UNL     1      -5.647  11.696  68.802  1.00  0.00    -0.046 A  
HETATM   21  C   UNL     1      -5.971  10.550  68.070  1.00  0.00    -0.047 A  
BRANCH  19  22
HETATM   22  C   UNL     1      -6.072  14.103  69.449  1.00  0.00    -0.104 C  
HETATM   23  C   UNL     1      -5.811  14.031  70.942  1.00  0.00    -0.207 C  
HETATM   24  O   UNL     1      -5.641  15.044  71.618  1.00  0.00     0.008 OA 
HETATM   25  O   UNL     1      -5.743  12.808  71.502  1.00  0.00    -0.388 OA 
ENDBRANCH  19  22
ENDBRANCH   5   6
ENDBRANCH   4   5
ENDBRANCH   2   4
TORSDOF 4
ENDMDL
MODEL      123
REMARK 921   NORMALIZED FREE ENERGY PREDICTED BY IDOCK:   -3.60 KCAL/MOL
REMARK 922        TOTAL FREE ENERGY PREDICTED BY IDOCK:   -5.00 KCAL/MOL
REMARK 923 INTER-LIGAND FREE ENERGY PREDICTED BY IDOCK:   -4.77 KCAL/MOL
REMARK 924 INTRA-LIGAND FREE ENERGY PREDICTED BY IDOCK:   -0.23 KCAL/MOL
REMARK 927      BINDING AFFINITY PREDICTED BY RF-SCORE:    0.00 PKD
ROOT
HETATM    1  C   UNL     1     -10.562  11.616  66.588  1.00  0.00    -0.243 C  
HETATM    2  N   UNL     1      -9.449  10.914  65.939  1.00  0.00    -0.198 NA 
HETATM    3  C   UNL     1      -8.186  11.336  66.549  1.00  0.00    -0.165 C  
ENDROOT
BRANCH   2   4
HETATM    4  C   UNL     1      -9.588   9.442  66.007  1.00  0.00    -0.261 C  
BRANCH   4   5
HETATM    5  C   UNL     1      -8.964   8.875  67.292  1.00  0.00    -0.140 C  
BRANCH   5   6
HETATM    6  C   UNL     1      -9.803   8.993  68.544  1.00  0.00    -0.184 C  
HETATM    7  C   UNL     1     -10.361   7.962  69.225  1.00  0.00    -0.222 C  
HETATM    8  C   UNL     1     -11.082   8.281  70.475  1.00  0.00    -0.259 A  
HETATM    9  C   UNL     1     -12.266   9.028  70.479  1.00  0.00     0.098 A  
HETATM   10  C   UNL     1     -12.958   9.235  71.673  1.00  0.00    -0.447 A  
HETATM   11  C   UNL     1     -12.471   8.696  72.864  1.00  0.00     0.116 A  
HETATM   12  C   UNL     1     -11.289   7.954  72.866  1.00  0.00    -0.399 A  
HETATM   13  C   UNL     1     -10.585   7.744  71.673  1.00  0.00    -0.252 A  
HETATM   14  C   UNL     1      -9.311   6.939  71.633  1.00  0.00    -0.154 C  
HETATM   15  O   UNL     1      -9.491   5.647  71.053  1.00  0.00    -0.160 OA 
HETATM   16  C   UNL     1      -9.706   5.546  69.702  1.00  0.00    -0.172 A  
HETATM   17  C   UNL     1     -10.144   6.546  68.818  1.00  0.00    -0.178 A  
HETATM   18  C   UNL     1     -10.446   6.178  67.487  1.00  0.00    -0.301 A  
HETATM   19  C   UNL     1     -10.179   4.895  66.988  1.00  0.00    -0.233 A  
HETATM   20  C   UNL     1      -9.696   3.930  67.873  1.00  0.00    -0.133 A  
HETATM   21  C   UNL     1      -9.491   4.247  69.218  1.00  0.00    -0.254 A  
BRANCH  19  22
HETATM   22  C   UNL     1     -10.477   4.542  65.547  1.00  0.00    -0.241 C  
HETATM   23  C   UNL     1      -9.319   4.447  64.572  1.00  0.00    -0.143 C  
HETATM   24  O   UNL     1      -9.499   4.310  63.364  1.00  0.00    -0.147 OA 
HETATM   25  O   UNL     1      -8.072   4.491  65.082  1.00  0.00    -0.099 OA 
ENDBRANCH  19  22
ENDBRANCH   5   6
ENDBRANCH   4   5
ENDBRANCH   2   4
TORSDOF 4
ENDMDL
MODEL      124
REMARK 921   NORMALIZED FREE ENERGY PREDICTED BY IDOCK:   -3.59 KCAL/MOL
REMARK 922        TOTAL FREE ENERGY PREDICTED BY IDOCK:   -4.98 KCAL/MOL
REMARK 923 INTER-LIGAND FREE ENERGY PREDICTED BY IDOCK:   -4.38 KCAL/MOL
REMARK 924 INTRA-LIGAND FREE ENERGY PREDICTED BY IDOCK:   -0.60 KCAL/MOL
REMARK 927      BINDING AFFINITY PREDICTED BY RF-SCORE:    0.00 PKD
ROOT
HETATM    1  C   UNL     1     -11.079   9.601  70.075  1.00  0.00    -0.255 C  
HETATM    2  N   UNL     1     -10.400  10.476  69.111  1.00  0.00    -0.209 NA 
HETATM    3  C   UNL     1      -8.955  10.422  69.341  1.00  0.00    -0.151 C  
ENDROOT
BRANCH   2   4
HETATM    4  C   UNL     1     -10.712  10.126  67.707  1.00  0.00    -0.277 C  
BRANCH   4   5
HETATM    5  C   UNL     1     -10.725   8.603  67.495  1.00  0.00    -0.209 C  
BRANCH   5   6
HETATM    6  C   UNL     1      -9.639   8.050  66.602  1.00  0.00    -0.297 C  
HETATM    7  C   UNL     1      -8.939   6.908  66.816  1.00  0.00    -0.141 C  
HETATM    8  C   UNL     1      -7.971   6.497  65.778  1.00  0.00    -0.115 A  
HETATM    9  C   UNL     1      -6.819   7.243  65.500  1.00  0.00    -0.052 A  
HETATM   10  C   UNL     1      -5.890   6.775  64.570  1.00  0.00    -0.031 A  
HETATM   11  C   UNL     1      -6.107   5.560  63.919  1.00  0.00    -0.022 A  
HETATM   12  C   UNL     1      -7.254   4.814  64.190  1.00  0.00    -0.051 A  
HETATM   13  C   UNL     1      -8.195   5.278  65.119  1.00  0.00    -0.135 A  
HETATM   14  C   UNL     1      -9.441   4.496  65.447  1.00  0.00    -0.172 C  
HETATM   15  O   UNL     1      -9.378   3.866  66.727  1.00  0.00    -0.160 OA 
HETATM   16  C   UNL     1      -9.457   4.641  67.856  1.00  0.00    -0.152 A  
HETATM   17  C   UNL     1      -9.226   6.021  67.977  1.00  0.00    -0.115 A  
HETATM   18  C   UNL     1      -9.212   6.587  69.273  1.00  0.00    -0.139 A  
HETATM   19  C   UNL     1      -9.568   5.853  70.412  1.00  0.00    -0.204 A  
HETATM   20  C   UNL     1      -9.843   4.493  70.262  1.00  0.00    -0.299 A  
HETATM   21  C   UNL     1      -9.758   3.892  69.003  1.00  0.00    -0.129 A  
BRANCH  19  22
HETATM   22  C   UNL     1      -9.582   6.496  71.781  1.00  0.00    -0.158 C  
HETATM   23  C   UNL     1     -10.923   6.806  72.420  1.00  0.00    -0.246 C  
HETATM   24  O   UNL     1     -11.009   7.459  73.459  1.00  0.00    -0.344 OA 
HETATM   25  O   UNL     1     -12.025   6.316  71.821  1.00  0.00    -0.321 OA 
ENDBRANCH  19  22
ENDBRANCH   5   6
ENDBRANCH   4   5
ENDBRANCH   2   4
TORSDOF 4
ENDMDL
MODEL      125
REMARK 921   NORMALIZED FREE ENERGY PREDICTED BY IDOCK:   -3.56 KCAL/MOL
REMARK 922        TOTAL FREE ENERGY PREDICTED BY IDOCK:   -4.94 KCAL/MOL
REMARK 923 INTER-LIGAND FREE ENERGY PREDICTED BY IDOCK:   -5.07 KCAL/MOL
REMARK 924 INTRA-LIGAND FREE ENERGY PREDICTED BY IDOCK:    0.13 KCAL/MOL
REMARK 927      BINDING AFFINITY PREDICTED BY RF-SCORE:    0.00 PKD
ROOT
HETATM    1  C   UNL     1     -12.445  15.424  68.936  1.00  0.00     0.210 C  
HETATM    2  N   UNL     1     -12.061  15.054  70.303  1.00  0.00    -0.306 NA 
HETATM    3  C   UNL     1     -12.194  13.605  70.469  1.00  0.00    -0.368 C  
ENDROOT
BRANCH   2   4
HETATM    4  C   UNL     1     -10.688  15.488  70.645  1.00  0.00    -0.233 C  
BRANCH   4   5
HETATM    5  C   UNL     1      -9.834  15.703  69.385  1.00  0.00    -0.284 C  
BRANCH   5   6
HETATM    6  C   UNL     1      -9.497  14.462  68.592  1.00  0.00    -0.193 C  
HETATM    7  C   UNL     1      -8.514  14.355  67.664  1.00  0.00    -0.191 C  
HETATM    8  C   UNL     1      -8.294  13.025  67.055  1.00  0.00    -0.102 A  
HETATM    9  C   UNL     1      -9.248  12.421  66.229  1.00  0.00    -0.150 A  
HETATM   10  C   UNL     1      -8.964  11.203  65.608  1.00  0.00    -0.195 A  
HETATM   11  C   UNL     1      -7.727  10.590  65.809  1.00  0.00    -0.145 A  
HETATM   12  C   UNL     1      -6.774  11.187  66.635  1.00  0.00    -0.137 A  
HETATM   13  C   UNL     1      -7.052  12.407  67.265  1.00  0.00    -0.128 A  
HETATM   14  C   UNL     1      -6.044  13.089  68.155  1.00  0.00    -0.099 C  
HETATM   15  O   UNL     1      -5.444  14.229  67.540  1.00  0.00    -0.337 OA 
HETATM   16  C   UNL     1      -6.195  15.364  67.365  1.00  0.00    -0.001 A  
HETATM   17  C   UNL     1      -7.594  15.486  67.364  1.00  0.00    -0.231 A  
HETATM   18  C   UNL     1      -8.158  16.732  67.008  1.00  0.00    -0.225 A  
HETATM   19  C   UNL     1      -7.374  17.877  66.808  1.00  0.00    -0.234 A  
HETATM   20  C   UNL     1      -5.986  17.744  66.863  1.00  0.00    -0.181 A  
HETATM   21  C   UNL     1      -5.407  16.496  67.109  1.00  0.00    -0.129 A  
BRANCH  19  22
HETATM   22  C   UNL     1      -8.009  19.207  66.466  1.00  0.00    -0.296 C  
HETATM   23  C   UNL     1      -8.954  19.836  67.474  1.00  0.00    -0.326 C  
HETATM   24  O   UNL     1      -9.616  20.836  67.203  1.00  0.00    -0.433 OA 
HETATM   25  O   UNL     1      -9.023  19.273  68.696  1.00  0.00    -0.359 OA 
ENDBRANCH  19  22
ENDBRANCH   5   6
ENDBRANCH   4   5
ENDBRANCH   2   4
TORSDOF 4
ENDMDL
MODEL      126
REMARK 921   NORMALIZED FREE ENERGY PREDICTED BY IDOCK:   -3.55 KCAL/MOL
REMARK 922        TOTAL FREE ENERGY PREDICTED BY IDOCK:   -4.93 KCAL/MOL
REMARK 923 INTER-LIGAND FREE ENERGY PREDICTED BY IDOCK:   -4.50 KCAL/MOL
REMARK 924 INTRA-LIGAND FREE ENERGY PREDICTED BY IDOCK:   -0.44 KCAL/MOL
REMARK 927      BINDING AFFINITY PREDICTED BY RF-SCORE:    0.00 PKD
ROOT
HETATM    1  C   UNL     1      -7.350   9.126  71.115  1.00  0.00    -0.067 C  
HETATM    2  N   UNL     1      -6.031   9.244  70.483  1.00  0.00    -0.042 NA 
HETATM    3  C   UNL     1      -5.411   7.920  70.401  1.00  0.00    -0.023 C  
ENDROOT
BRANCH   2   4
HETATM    4  C   UNL     1      -6.097   9.867  69.142  1.00  0.00    -0.037 C  
BRANCH   4   5
HETATM    5  C   UNL     1      -7.478   9.670  68.496  1.00  0.00    -0.079 C  
BRANCH   5   6
HETATM    6  C   UNL     1      -7.599   8.513  67.531  1.00  0.00    -0.098 C  
HETATM    7  C   UNL     1      -8.464   8.434  66.491  1.00  0.00    -0.116 C  
HETATM    8  C   UNL     1      -8.369   7.248  65.613  1.00  0.00    -0.142 A  
HETATM    9  C   UNL     1      -8.678   5.961  66.070  1.00  0.00    -0.148 A  
HETATM   10  C   UNL     1      -8.655   4.882  65.186  1.00  0.00    -0.144 A  
HETATM   11  C   UNL     1      -8.327   5.085  63.845  1.00  0.00    -0.132 A  
HETATM   12  C   UNL     1      -8.015   6.365  63.386  1.00  0.00    -0.086 A  
HETATM   13  C   UNL     1      -8.032   7.455  64.267  1.00  0.00    -0.097 A  
HETATM   14  C   UNL     1      -7.713   8.854  63.807  1.00  0.00    -0.129 C  
HETATM   15  O   UNL     1      -8.871   9.683  63.710  1.00  0.00    -0.216 OA 
HETATM   16  C   UNL     1      -9.488  10.104  64.861  1.00  0.00    -0.289 A  
HETATM   17  C   UNL     1      -9.383   9.555  66.150  1.00  0.00    -0.254 A  
HETATM   18  C   UNL     1     -10.232  10.057  67.163  1.00  0.00    -0.284 A  
HETATM   19  C   UNL     1     -11.056  11.174  66.961  1.00  0.00    -0.339 A  
HETATM   20  C   UNL     1     -11.106  11.735  65.684  1.00  0.00    -0.340 A  
HETATM   21  C   UNL     1     -10.353  11.186  64.643  1.00  0.00    -0.393 A  
BRANCH  19  22
HETATM   22  C   UNL     1     -11.925  11.712  68.076  1.00  0.00    -0.187 C  
HETATM   23  C   UNL     1     -11.453  12.942  68.830  1.00  0.00    -0.303 C  
HETATM   24  O   UNL     1     -12.032  13.344  69.837  1.00  0.00    -0.316 OA 
HETATM   25  O   UNL     1     -10.386  13.600  68.338  1.00  0.00    -0.238 OA 
ENDBRANCH  19  22
ENDBRANCH   5   6
ENDBRANCH   4   5
ENDBRANCH   2   4
TORSDOF 4
ENDMDL
MODEL      127
REMARK 921   NORMALIZED FREE ENERGY PREDICTED BY IDOCK:   -3.54 KCAL/MOL
REMARK 922        TOTAL FREE ENERGY PREDICTED BY IDOCK:   -4.92 KCAL/MOL
REMARK 923 INTER-LIGAND FREE ENERGY PREDICTED BY IDOCK:   -4.33 KCAL/MOL
REMARK 924 INTRA-LIGAND FREE ENERGY PREDICTED BY IDOCK:   -0.60 KCAL/MOL
REMARK 927      BINDING AFFINITY PREDICTED BY RF-SCORE:    0.00 PKD
ROOT
HETATM    1  C   UNL     1     -11.051   6.031  69.238  1.00  0.00    -0.354 C  
HETATM    2  N   UNL     1     -10.486   5.814  67.901  1.00  0.00    -0.220 NA 
HETATM    3  C   UNL     1     -11.009   6.827  66.982  1.00  0.00    -0.368 C  
ENDROOT
BRANCH   2   4
HETATM    4  C   UNL     1      -9.007   5.830  67.899  1.00  0.00    -0.111 C  
BRANCH   4   5
HETATM    5  C   UNL     1      -8.449   6.542  69.142  1.00  0.00    -0.126 C  
BRANCH   5   6
HETATM    6  C   UNL     1      -8.053   7.989  68.954  1.00  0.00    -0.124 C  
HETATM    7  C   UNL     1      -7.893   8.902  69.943  1.00  0.00    -0.092 C  
HETATM    8  C   UNL     1      -7.423  10.250  69.556  1.00  0.00    -0.142 A  
HETATM    9  C   UNL     1      -8.204  11.113  68.778  1.00  0.00    -0.135 A  
HETATM   10  C   UNL     1      -7.756  12.406  68.507  1.00  0.00    -0.120 A  
HETATM   11  C   UNL     1      -6.531  12.841  69.013  1.00  0.00    -0.096 A  
HETATM   12  C   UNL     1      -5.748  11.984  69.786  1.00  0.00    -0.110 A  
HETATM   13  C   UNL     1      -6.187  10.682  70.061  1.00  0.00    -0.111 A  
HETATM   14  C   UNL     1      -5.375   9.730  70.902  1.00  0.00    -0.057 C  
HETATM   15  O   UNL     1      -5.916   9.546  72.209  1.00  0.00    -0.277 OA 
HETATM   16  C   UNL     1      -7.077   8.829  72.355  1.00  0.00     0.084 A  
HETATM   17  C   UNL     1      -8.044   8.537  71.378  1.00  0.00    -0.176 A  
HETATM   18  C   UNL     1      -9.243   7.912  71.789  1.00  0.00    -0.194 A  
HETATM   19  C   UNL     1      -9.432   7.443  73.096  1.00  0.00    -0.249 A  
HETATM   20  C   UNL     1      -8.436   7.700  74.040  1.00  0.00    -0.285 A  
HETATM   21  C   UNL     1      -7.288   8.411  73.677  1.00  0.00    -0.131 A  
BRANCH  19  22
HETATM   22  C   UNL     1     -10.712   6.743  73.496  1.00  0.00    -0.319 C  
HETATM   23  C   UNL     1     -10.877   5.278  73.134  1.00  0.00    -0.287 C  
HETATM   24  O   UNL     1     -11.944   4.689  73.296  1.00  0.00    -0.185 OA 
HETATM   25  O   UNL     1      -9.798   4.632  72.651  1.00  0.00    -0.142 OA 
ENDBRANCH  19  22
ENDBRANCH   5   6
ENDBRANCH   4   5
ENDBRANCH   2   4
TORSDOF 4
ENDMDL
MODEL      128
REMARK 921   NORMALIZED FREE ENERGY PREDICTED BY IDOCK:   -3.54 KCAL/MOL
REMARK 922        TOTAL FREE ENERGY PREDICTED BY IDOCK:   -4.91 KCAL/MOL
REMARK 923 INTER-LIGAND FREE ENERGY PREDICTED BY IDOCK:   -4.47 KCAL/MOL
REMARK 924 INTRA-LIGAND FREE ENERGY PREDICTED BY IDOCK:   -0.44 KCAL/MOL
REMARK 927      BINDING AFFINITY PREDICTED BY RF-SCORE:    0.00 PKD
ROOT
HETATM    1  C   UNL     1      -9.355   7.581  73.688  1.00  0.00    -0.277 C  
HETATM    2  N   UNL     1      -8.268   8.548  73.496  1.00  0.00    -0.399 NA 
HETATM    3  C   UNL     1      -7.253   8.350  74.533  1.00  0.00    -0.197 C  
ENDROOT
BRANCH   2   4
HETATM    4  C   UNL     1      -7.656   8.456  72.151  1.00  0.00    -0.113 C  
BRANCH   4   5
HETATM    5  C   UNL     1      -8.549   9.102  71.080  1.00  0.00    -0.236 C  
BRANCH   5   6
HETATM    6  C   UNL     1      -7.871   9.454  69.776  1.00  0.00    -0.115 C  
HETATM    7  C   UNL     1      -8.062   8.830  68.588  1.00  0.00    -0.116 C  
HETATM    8  C   UNL     1      -7.360   9.379  67.408  1.00  0.00    -0.087 A  
HETATM    9  C   UNL     1      -5.966   9.344  67.292  1.00  0.00    -0.049 A  
HETATM   10  C   UNL     1      -5.350   9.799  66.125  1.00  0.00    -0.040 A  
HETATM   11  C   UNL     1      -6.125  10.286  65.072  1.00  0.00    -0.130 A  
HETATM   12  C   UNL     1      -7.515  10.326  65.185  1.00  0.00    -0.130 A  
HETATM   13  C   UNL     1      -8.142   9.876  66.354  1.00  0.00    -0.118 A  
HETATM   14  C   UNL     1      -9.641   9.892  66.509  1.00  0.00    -0.190 C  
HETATM   15  O   UNL     1     -10.223   8.592  66.412  1.00  0.00    -0.282 OA 
HETATM   16  C   UNL     1     -10.034   7.700  67.438  1.00  0.00    -0.192 A  
HETATM   17  C   UNL     1      -9.045   7.722  68.435  1.00  0.00    -0.131 A  
HETATM   18  C   UNL     1      -8.945   6.612  69.304  1.00  0.00    -0.135 A  
HETATM   19  C   UNL     1      -9.886   5.573  69.300  1.00  0.00    -0.233 A  
HETATM   20  C   UNL     1     -10.891   5.596  68.331  1.00  0.00    -0.161 A  
HETATM   21  C   UNL     1     -10.943   6.632  67.395  1.00  0.00    -0.434 A  
BRANCH  19  22
HETATM   22  C   UNL     1      -9.773   4.416  70.268  1.00  0.00    -0.281 C  
HETATM   23  C   UNL     1     -10.415   4.555  71.636  1.00  0.00    -0.014 C  
HETATM   24  O   UNL     1     -10.239   3.720  72.521  1.00  0.00    -0.165 OA 
HETATM   25  O   UNL     1     -11.215   5.620  71.842  1.00  0.00    -0.249 OA 
ENDBRANCH  19  22
ENDBRANCH   5   6
ENDBRANCH   4   5
ENDBRANCH   2   4
TORSDOF 4
ENDMDL
MODEL      129
REMARK 921   NORMALIZED FREE ENERGY PREDICTED BY IDOCK:   -3.52 KCAL/MOL
REMARK 922        TOTAL FREE ENERGY PREDICTED BY IDOCK:   -4.89 KCAL/MOL
REMARK 923 INTER-LIGAND FREE ENERGY PREDICTED BY IDOCK:   -4.42 KCAL/MOL
REMARK 924 INTRA-LIGAND FREE ENERGY PREDICTED BY IDOCK:   -0.47 KCAL/MOL
REMARK 927      BINDING AFFINITY PREDICTED BY RF-SCORE:    0.00 PKD
ROOT
HETATM    1  C   UNL     1     -11.293   7.617  72.941  1.00  0.00    -0.341 C  
HETATM    2  N   UNL     1     -12.108   8.068  71.807  1.00  0.00    -0.291 NA 
HETATM    3  C   UNL     1     -13.195   8.918  72.299  1.00  0.00    -0.447 C  
ENDROOT
BRANCH   2   4
HETATM    4  C   UNL     1     -11.314   8.785  70.785  1.00  0.00    -0.272 C  
BRANCH   4   5
HETATM    5  C   UNL     1      -9.821   8.432  70.881  1.00  0.00    -0.223 C  
BRANCH   5   6
HETATM    6  C   UNL     1      -8.855   9.568  70.634  1.00  0.00    -0.208 C  
HETATM    7  C   UNL     1      -8.237   9.842  69.459  1.00  0.00    -0.163 C  
HETATM    8  C   UNL     1      -7.387  11.051  69.402  1.00  0.00    -0.092 A  
HETATM    9  C   UNL     1      -6.203  11.160  70.140  1.00  0.00    -0.147 A  
HETATM   10  C   UNL     1      -5.388  12.283  69.993  1.00  0.00    -0.099 A  
HETATM   11  C   UNL     1      -5.752  13.298  69.107  1.00  0.00    -0.076 A  
HETATM   12  C   UNL     1      -6.933  13.195  68.371  1.00  0.00    -0.104 A  
HETATM   13  C   UNL     1      -7.760  12.073  68.515  1.00  0.00    -0.127 A  
HETATM   14  C   UNL     1      -9.037  11.920  67.729  1.00  0.00    -0.180 C  
HETATM   15  O   UNL     1      -8.930  10.960  66.678  1.00  0.00    -0.156 OA 
HETATM   16  C   UNL     1      -8.858   9.627  66.997  1.00  0.00    -0.131 A  
HETATM   17  C   UNL     1      -8.506   9.049  68.228  1.00  0.00    -0.129 A  
HETATM   18  C   UNL     1      -8.348   7.645  68.288  1.00  0.00    -0.125 A  
HETATM   19  C   UNL     1      -8.676   6.810  67.211  1.00  0.00    -0.119 A  
HETATM   20  C   UNL     1      -9.072   7.405  66.012  1.00  0.00    -0.129 A  
HETATM   21  C   UNL     1      -9.132   8.796  65.901  1.00  0.00    -0.271 A  
BRANCH  19  22
HETATM   22  C   UNL     1      -8.533   5.308  67.318  1.00  0.00    -0.106 C  
HETATM   23  C   UNL     1      -9.429   4.565  68.291  1.00  0.00    -0.149 C  
HETATM   24  O   UNL     1      -9.268   3.371  68.536  1.00  0.00    -0.141 OA 
HETATM   25  O   UNL     1     -10.434   5.257  68.863  1.00  0.00    -0.193 OA 
ENDBRANCH  19  22
ENDBRANCH   5   6
ENDBRANCH   4   5
ENDBRANCH   2   4
TORSDOF 4
ENDMDL
MODEL      130
REMARK 921   NORMALIZED FREE ENERGY PREDICTED BY IDOCK:   -3.42 KCAL/MOL
REMARK 922        TOTAL FREE ENERGY PREDICTED BY IDOCK:   -4.78 KCAL/MOL
REMARK 923 INTER-LIGAND FREE ENERGY PREDICTED BY IDOCK:   -4.49 KCAL/MOL
REMARK 924 INTRA-LIGAND FREE ENERGY PREDICTED BY IDOCK:   -0.28 KCAL/MOL
REMARK 927      BINDING AFFINITY PREDICTED BY RF-SCORE:    0.00 PKD
ROOT
HETATM    1  C   UNL     1      -9.870  11.092  64.537  1.00  0.00    -0.290 C  
HETATM    2  N   UNL     1      -9.905  12.442  65.110  1.00  0.00    -0.192 NA 
HETATM    3  C   UNL     1     -10.963  13.219  64.458  1.00  0.00    -0.382 C  
ENDROOT
BRANCH   2   4
HETATM    4  C   UNL     1     -10.101  12.433  66.577  1.00  0.00    -0.232 C  
BRANCH   4   5
HETATM    5  C   UNL     1      -9.203  13.469  67.272  1.00  0.00    -0.233 C  
BRANCH   5   6
HETATM    6  C   UNL     1      -9.433  14.912  66.885  1.00  0.00    -0.251 C  
HETATM    7  C   UNL     1     -10.159  15.816  67.587  1.00  0.00    -0.247 C  
HETATM    8  C   UNL     1     -10.196  17.204  67.077  1.00  0.00    -0.313 A  
HETATM    9  C   UNL     1     -10.814  17.532  65.865  1.00  0.00     0.014 A  
HETATM   10  C   UNL     1     -10.899  18.865  65.462  1.00  0.00     0.024 A  
HETATM   11  C   UNL     1     -10.370  19.873  66.269  1.00  0.00    -0.608 A  
HETATM   12  C   UNL     1      -9.750  19.550  67.477  1.00  0.00    -0.456 A  
HETATM   13  C   UNL     1      -9.657  18.214  67.888  1.00  0.00    -0.290 A  
HETATM   14  C   UNL     1      -9.005  17.827  69.191  1.00  0.00     0.115 C  
HETATM   15  O   UNL     1      -9.949  17.442  70.189  1.00  0.00     0.652 OA 
HETATM   16  C   UNL     1     -10.609  16.245  70.057  1.00  0.00    -0.239 A  
HETATM   17  C   UNL     1     -10.781  15.475  68.895  1.00  0.00    -0.242 A  
HETATM   18  C   UNL     1     -11.631  14.347  68.959  1.00  0.00    -0.330 A  
HETATM   19  C   UNL     1     -12.179  13.893  70.167  1.00  0.00    -0.425 A  
HETATM   20  C   UNL     1     -11.953  14.646  71.320  1.00  0.00    -0.401 A  
HETATM   21  C   UNL     1     -11.202  15.823  71.256  1.00  0.00    -0.376 A  
BRANCH  19  22
HETATM   22  C   UNL     1     -13.055  12.660  70.210  1.00  0.00     0.677 C  
HETATM   23  C   UNL     1     -12.386  11.298  70.182  1.00  0.00    -0.276 C  
HETATM   24  O   UNL     1     -13.036  10.261  70.066  1.00  0.00    -0.084 OA 
HETATM   25  O   UNL     1     -11.046  11.261  70.316  1.00  0.00    -0.108 OA 
ENDBRANCH  19  22
ENDBRANCH   5   6
ENDBRANCH   4   5
ENDBRANCH   2   4
TORSDOF 4
ENDMDL
MODEL      131
REMARK 921   NORMALIZED FREE ENERGY PREDICTED BY IDOCK:   -3.41 KCAL/MOL
REMARK 922        TOTAL FREE ENERGY PREDICTED BY IDOCK:   -4.75 KCAL/MOL
REMARK 923 INTER-LIGAND FREE ENERGY PREDICTED BY IDOCK:   -4.95 KCAL/MOL
REMARK 924 INTRA-LIGAND FREE ENERGY PREDICTED BY IDOCK:    0.19 KCAL/MOL
REMARK 927      BINDING AFFINITY PREDICTED BY RF-SCORE:    0.00 PKD
ROOT
HETATM    1  C   UNL     1      -7.680  15.360  67.286  1.00  0.00    -0.213 C  
HETATM    2  N   UNL     1      -6.368  14.890  67.747  1.00  0.00    -0.166 NA 
HETATM    3  C   UNL     1      -5.980  15.635  68.946  1.00  0.00    -0.103 C  
ENDROOT
BRANCH   2   4
HETATM    4  C   UNL     1      -6.348  13.434  68.015  1.00  0.00    -0.132 C  
BRANCH   4   5
HETATM    5  C   UNL     1      -7.491  13.018  68.955  1.00  0.00     0.097 C  
BRANCH   5   6
HETATM    6  C   UNL     1      -8.119  11.671  68.679  1.00  0.00    -0.121 C  
HETATM    7  C   UNL     1      -9.248  11.454  67.960  1.00  0.00    -0.171 C  
HETATM    8  C   UNL     1      -9.654  10.050  67.736  1.00  0.00    -0.168 A  
HETATM    9  C   UNL     1     -10.069   9.222  68.786  1.00  0.00    -0.210 A  
HETATM   10  C   UNL     1     -10.522   7.930  68.519  1.00  0.00    -0.202 A  
HETATM   11  C   UNL     1     -10.566   7.463  67.205  1.00  0.00    -0.413 A  
HETATM   12  C   UNL     1     -10.151   8.284  66.155  1.00  0.00     0.055 A  
HETATM   13  C   UNL     1      -9.690   9.582  66.414  1.00  0.00    -0.295 A  
HETATM   14  C   UNL     1      -9.244  10.502  65.307  1.00  0.00    -0.200 C  
HETATM   15  O   UNL     1     -10.188  11.537  65.033  1.00  0.00    -0.252 OA 
HETATM   16  C   UNL     1     -10.344  12.555  65.941  1.00  0.00    -0.263 A  
HETATM   17  C   UNL     1      -9.981  12.568  67.298  1.00  0.00    -0.211 A  
HETATM   18  C   UNL     1     -10.377  13.672  68.087  1.00  0.00    -0.245 A  
HETATM   19  C   UNL     1     -10.981  14.809  67.531  1.00  0.00    -0.304 A  
HETATM   20  C   UNL     1     -11.288  14.794  66.169  1.00  0.00    -0.330 A  
HETATM   21  C   UNL     1     -10.999  13.668  65.394  1.00  0.00    -0.302 A  
BRANCH  19  22
HETATM   22  C   UNL     1     -11.360  15.991  68.395  1.00  0.00    -0.355 C  
HETATM   23  C   UNL     1     -10.658  17.315  68.155  1.00  0.00    -0.386 C  
HETATM   24  O   UNL     1     -10.807  18.273  68.911  1.00  0.00     0.210 OA 
HETATM   25  O   UNL     1      -9.878  17.416  67.061  1.00  0.00    -0.267 OA 
ENDBRANCH  19  22
ENDBRANCH   5   6
ENDBRANCH   4   5
ENDBRANCH   2   4
TORSDOF 4
ENDMDL
MODEL      132
REMARK 921   NORMALIZED FREE ENERGY PREDICTED BY IDOCK:   -3.37 KCAL/MOL
REMARK 922        TOTAL FREE ENERGY PREDICTED BY IDOCK:   -4.71 KCAL/MOL
REMARK 923 INTER-LIGAND FREE ENERGY PREDICTED BY IDOCK:   -4.34 KCAL/MOL
REMARK 924 INTRA-LIGAND FREE ENERGY PREDICTED BY IDOCK:   -0.38 KCAL/MOL
REMARK 927      BINDING AFFINITY PREDICTED BY RF-SCORE:    0.00 PKD
ROOT
HETATM    1  C   UNL     1      -6.952   7.998  73.599  1.00  0.00    -0.123 C  
HETATM    2  N   UNL     1      -7.667   6.876  72.979  1.00  0.00    -0.088 NA 
HETATM    3  C   UNL     1      -7.107   5.615  73.468  1.00  0.00    -0.086 C  
ENDROOT
BRANCH   2   4
HETATM    4  C   UNL     1      -9.125   6.924  73.228  1.00  0.00    -0.135 C  
BRANCH   4   5
HETATM    5  C   UNL     1      -9.882   7.515  72.028  1.00  0.00    -0.200 C  
BRANCH   5   6
HETATM    6  C   UNL     1      -9.221   8.687  71.339  1.00  0.00    -0.303 C  
HETATM    7  C   UNL     1      -9.076   8.841  70.000  1.00  0.00    -0.164 C  
HETATM    8  C   UNL     1      -8.469  10.102  69.521  1.00  0.00    -0.179 A  
HETATM    9  C   UNL     1      -7.134  10.428  69.783  1.00  0.00    -0.148 A  
HETATM   10  C   UNL     1      -6.579  11.589  69.241  1.00  0.00    -0.113 A  
HETATM   11  C   UNL     1      -7.355  12.423  68.436  1.00  0.00    -0.113 A  
HETATM   12  C   UNL     1      -8.688  12.103  68.174  1.00  0.00    -0.185 A  
HETATM   13  C   UNL     1      -9.255  10.942  68.716  1.00  0.00    -0.187 A  
HETATM   14  C   UNL     1     -10.687  10.556  68.448  1.00  0.00    -0.224 C  
HETATM   15  O   UNL     1     -10.805   9.466  67.534  1.00  0.00    -0.269 OA 
HETATM   16  C   UNL     1     -10.447   8.207  67.948  1.00  0.00    -0.197 A  
HETATM   17  C   UNL     1      -9.628   7.853  69.033  1.00  0.00    -0.155 A  
HETATM   18  C   UNL     1      -9.266   6.494  69.183  1.00  0.00    -0.135 A  
HETATM   19  C   UNL     1      -9.816   5.482  68.384  1.00  0.00    -0.186 A  
HETATM   20  C   UNL     1     -10.668   5.853  67.343  1.00  0.00    -0.370 A  
HETATM   21  C   UNL     1     -10.954   7.202  67.112  1.00  0.00    -0.342 A  
BRANCH  19  22
HETATM   22  C   UNL     1      -9.439   4.032  68.594  1.00  0.00    -0.220 C  
HETATM   23  C   UNL     1      -8.275   3.467  67.801  1.00  0.00    -0.080 C  
HETATM   24  O   UNL     1      -8.008   2.267  67.812  1.00  0.00    -0.059 OA 
HETATM   25  O   UNL     1      -7.520   4.335  67.101  1.00  0.00    -0.075 OA 
ENDBRANCH  19  22
ENDBRANCH   5   6
ENDBRANCH   4   5
ENDBRANCH   2   4
TORSDOF 4
ENDMDL
MODEL      133
REMARK 921   NORMALIZED FREE ENERGY PREDICTED BY IDOCK:   -3.35 KCAL/MOL
REMARK 922        TOTAL FREE ENERGY PREDICTED BY IDOCK:   -4.69 KCAL/MOL
REMARK 923 INTER-LIGAND FREE ENERGY PREDICTED BY IDOCK:   -5.08 KCAL/MOL
REMARK 924 INTRA-LIGAND FREE ENERGY PREDICTED BY IDOCK:    0.39 KCAL/MOL
REMARK 927      BINDING AFFINITY PREDICTED BY RF-SCORE:    0.00 PKD
ROOT
HETATM    1  C   UNL     1      -9.722   8.329  72.347  1.00  0.00    -0.303 C  
HETATM    2  N   UNL     1      -8.374   8.790  72.702  1.00  0.00    -0.400 NA 
HETATM    3  C   UNL     1      -8.137   8.547  74.127  1.00  0.00    -0.023 C  
ENDROOT
BRANCH   2   4
HETATM    4  C   UNL     1      -7.320   8.148  71.887  1.00  0.00    -0.089 C  
BRANCH   4   5
HETATM    5  C   UNL     1      -7.907   7.090  70.938  1.00  0.00    -0.096 C  
BRANCH   5   6
HETATM    6  C   UNL     1      -8.580   5.909  71.598  1.00  0.00    -0.132 C  
HETATM    7  C   UNL     1      -9.365   4.994  70.977  1.00  0.00    -0.203 C  
HETATM    8  C   UNL     1      -9.866   3.864  71.788  1.00  0.00    -0.249 A  
HETATM    9  C   UNL     1     -10.774   4.048  72.837  1.00  0.00    -0.217 A  
HETATM   10  C   UNL     1     -11.284   2.945  73.522  1.00  0.00    -0.301 A  
HETATM   11  C   UNL     1     -10.891   1.656  73.159  1.00  0.00    -0.241 A  
HETATM   12  C   UNL     1      -9.984   1.467  72.116  1.00  0.00    -0.204 A  
HETATM   13  C   UNL     1      -9.463   2.569  71.425  1.00  0.00    -0.214 A  
HETATM   14  C   UNL     1      -8.490   2.406  70.286  1.00  0.00    -0.047 C  
HETATM   15  O   UNL     1      -9.085   2.646  69.011  1.00  0.00    -0.107 OA 
HETATM   16  C   UNL     1      -9.418   3.931  68.663  1.00  0.00    -0.150 A  
HETATM   17  C   UNL     1      -9.606   5.037  69.509  1.00  0.00    -0.237 A  
HETATM   18  C   UNL     1     -10.100   6.235  68.945  1.00  0.00    -0.200 A  
HETATM   19  C   UNL     1     -10.261   6.400  67.562  1.00  0.00    -0.211 A  
HETATM   20  C   UNL     1     -10.019   5.302  66.735  1.00  0.00    -0.224 A  
HETATM   21  C   UNL     1      -9.632   4.077  67.284  1.00  0.00    -0.229 A  
BRANCH  19  22
HETATM   22  C   UNL     1     -10.755   7.708  66.985  1.00  0.00    -0.340 C  
HETATM   23  C   UNL     1      -9.744   8.645  66.351  1.00  0.00    -0.263 C  
HETATM   24  O   UNL     1     -10.049   9.782  65.997  1.00  0.00    -0.276 OA 
HETATM   25  O   UNL     1      -8.495   8.176  66.162  1.00  0.00    -0.121 OA 
ENDBRANCH  19  22
ENDBRANCH   5   6
ENDBRANCH   4   5
ENDBRANCH   2   4
TORSDOF 4
ENDMDL
MODEL      134
REMARK 921   NORMALIZED FREE ENERGY PREDICTED BY IDOCK:   -3.27 KCAL/MOL
REMARK 922        TOTAL FREE ENERGY PREDICTED BY IDOCK:   -4.59 KCAL/MOL
REMARK 923 INTER-LIGAND FREE ENERGY PREDICTED BY IDOCK:   -3.94 KCAL/MOL
REMARK 924 INTRA-LIGAND FREE ENERGY PREDICTED BY IDOCK:   -0.65 KCAL/MOL
REMARK 927      BINDING AFFINITY PREDICTED BY RF-SCORE:    0.00 PKD
ROOT
HETATM    1  C   UNL     1      -9.329   3.877  63.519  1.00  0.00    -0.131 C  
HETATM    2  N   UNL     1      -9.138   4.532  64.819  1.00  0.00    -0.151 NA 
HETATM    3  C   UNL     1     -10.368   4.415  65.606  1.00  0.00    -0.225 C  
ENDROOT
BRANCH   2   4
HETATM    4  C   UNL     1      -7.989   3.979  65.571  1.00  0.00    -0.093 C  
BRANCH   4   5
HETATM    5  C   UNL     1      -7.283   5.065  66.398  1.00  0.00    -0.077 C  
BRANCH   5   6
HETATM    6  C   UNL     1      -7.538   5.034  67.888  1.00  0.00    -0.083 C  
HETATM    7  C   UNL     1      -8.176   5.992  68.603  1.00  0.00    -0.107 C  
HETATM    8  C   UNL     1      -8.396   5.735  70.043  1.00  0.00    -0.123 A  
HETATM    9  C   UNL     1      -7.334   5.652  70.952  1.00  0.00    -0.084 A  
HETATM   10  C   UNL     1      -7.592   5.491  72.314  1.00  0.00    -0.101 A  
HETATM   11  C   UNL     1      -8.908   5.415  72.771  1.00  0.00    -0.122 A  
HETATM   12  C   UNL     1      -9.969   5.494  71.868  1.00  0.00    -0.227 A  
HETATM   13  C   UNL     1      -9.721   5.652  70.498  1.00  0.00    -0.233 A  
HETATM   14  C   UNL     1     -10.840   5.753  69.494  1.00  0.00    -0.340 C  
HETATM   15  O   UNL     1     -11.025   7.081  69.002  1.00  0.00    -0.200 OA 
HETATM   16  C   UNL     1     -10.089   7.613  68.151  1.00  0.00    -0.186 A  
HETATM   17  C   UNL     1      -8.762   7.196  67.952  1.00  0.00    -0.126 A  
HETATM   18  C   UNL     1      -7.926   7.990  67.135  1.00  0.00    -0.113 A  
HETATM   19  C   UNL     1      -8.415   9.082  66.403  1.00  0.00    -0.126 A  
HETATM   20  C   UNL     1      -9.751   9.447  66.577  1.00  0.00    -0.299 A  
HETATM   21  C   UNL     1     -10.566   8.738  67.463  1.00  0.00    -0.298 A  
BRANCH  19  22
HETATM   22  C   UNL     1      -7.504   9.889  65.506  1.00  0.00    -0.126 C  
HETATM   23  C   UNL     1      -7.236   9.380  64.102  1.00  0.00    -0.106 C  
HETATM   24  O   UNL     1      -6.395   9.903  63.374  1.00  0.00    -0.113 OA 
HETATM   25  O   UNL     1      -7.976   8.342  63.666  1.00  0.00    -0.149 OA 
ENDBRANCH  19  22
ENDBRANCH   5   6
ENDBRANCH   4   5
ENDBRANCH   2   4
TORSDOF 4
ENDMDL
MODEL      135
REMARK 921   NORMALIZED FREE ENERGY PREDICTED BY IDOCK:   -3.25 KCAL/MOL
REMARK 922        TOTAL FREE ENERGY PREDICTED BY IDOCK:   -4.56 KCAL/MOL
REMARK 923 INTER-LIGAND FREE ENERGY PREDICTED BY IDOCK:   -4.02 KCAL/MOL
REMARK 924 INTRA-LIGAND FREE ENERGY PREDICTED BY IDOCK:   -0.54 KCAL/MOL
REMARK 927      BINDING AFFINITY PREDICTED BY RF-SCORE:    0.00 PKD
ROOT
HETATM    1  C   UNL     1      -8.622   7.889  65.349  1.00  0.00    -0.095 C  
HETATM    2  N   UNL     1      -8.735   9.155  64.615  1.00  0.00    -0.184 NA 
HETATM    3  C   UNL     1      -9.848   9.935  65.159  1.00  0.00    -0.278 C  
ENDROOT
BRANCH   2   4
HETATM    4  C   UNL     1      -7.484   9.946  64.650  1.00  0.00    -0.140 C  
BRANCH   4   5
HETATM    5  C   UNL     1      -6.923  10.050  66.078  1.00  0.00    -0.110 C  
BRANCH   5   6
HETATM    6  C   UNL     1      -7.063  11.397  66.749  1.00  0.00    -0.132 C  
HETATM    7  C   UNL     1      -7.377  11.606  68.051  1.00  0.00    -0.089 C  
HETATM    8  C   UNL     1      -7.387  13.004  68.534  1.00  0.00    -0.115 A  
HETATM    9  C   UNL     1      -8.321  13.940  68.076  1.00  0.00    -0.166 A  
HETATM   10  C   UNL     1      -8.347  15.225  68.620  1.00  0.00    -0.162 A  
HETATM   11  C   UNL     1      -7.442  15.576  69.622  1.00  0.00    -0.156 A  
HETATM   12  C   UNL     1      -6.506  14.647  70.079  1.00  0.00    -0.168 A  
HETATM   13  C   UNL     1      -6.471  13.356  69.537  1.00  0.00    -0.083 A  
HETATM   14  C   UNL     1      -5.482  12.322  70.011  1.00  0.00    -0.111 C  
HETATM   15  O   UNL     1      -6.083  11.315  70.826  1.00  0.00    -0.344 OA 
HETATM   16  C   UNL     1      -6.910  10.390  70.240  1.00  0.00    -0.126 A  
HETATM   17  C   UNL     1      -7.568  10.477  69.002  1.00  0.00    -0.117 A  
HETATM   18  C   UNL     1      -8.498   9.467  68.665  1.00  0.00    -0.119 A  
HETATM   19  C   UNL     1      -8.669   8.317  69.449  1.00  0.00    -0.142 A  
HETATM   20  C   UNL     1      -7.967   8.228  70.652  1.00  0.00    -0.094 A  
HETATM   21  C   UNL     1      -7.122   9.267  71.053  1.00  0.00    -0.090 A  
BRANCH  19  22
HETATM   22  C   UNL     1      -9.645   7.235  69.042  1.00  0.00    -0.147 C  
HETATM   23  C   UNL     1     -10.927   7.081  69.839  1.00  0.00    -0.263 C  
HETATM   24  O   UNL     1     -11.691   6.135  69.659  1.00  0.00    -0.331 OA 
HETATM   25  O   UNL     1     -11.216   8.040  70.741  1.00  0.00    -0.261 OA 
ENDBRANCH  19  22
ENDBRANCH   5   6
ENDBRANCH   4   5
ENDBRANCH   2   4
TORSDOF 4
ENDMDL
MODEL      136
REMARK 921   NORMALIZED FREE ENERGY PREDICTED BY IDOCK:   -3.23 KCAL/MOL
REMARK 922        TOTAL FREE ENERGY PREDICTED BY IDOCK:   -4.54 KCAL/MOL
REMARK 923 INTER-LIGAND FREE ENERGY PREDICTED BY IDOCK:   -4.15 KCAL/MOL
REMARK 924 INTRA-LIGAND FREE ENERGY PREDICTED BY IDOCK:   -0.39 KCAL/MOL
REMARK 927      BINDING AFFINITY PREDICTED BY RF-SCORE:    0.00 PKD
ROOT
HETATM    1  C   UNL     1      -7.800   8.361  72.004  1.00  0.00    -0.127 C  
HETATM    2  N   UNL     1      -6.567   9.081  72.344  1.00  0.00    -0.302 NA 
HETATM    3  C   UNL     1      -5.638   8.166  73.012  1.00  0.00    -0.050 C  
ENDROOT
BRANCH   2   4
HETATM    4  C   UNL     1      -5.924   9.698  71.163  1.00  0.00    -0.072 C  
BRANCH   4   5
HETATM    5  C   UNL     1      -6.759   9.484  69.890  1.00  0.00    -0.063 C  
BRANCH   5   6
HETATM    6  C   UNL     1      -7.431  10.714  69.324  1.00  0.00    -0.130 C  
HETATM    7  C   UNL     1      -8.381  10.725  68.357  1.00  0.00    -0.132 C  
HETATM    8  C   UNL     1      -8.972  12.032  67.997  1.00  0.00    -0.187 A  
HETATM    9  C   UNL     1      -8.222  13.042  67.384  1.00  0.00    -0.183 A  
HETATM   10  C   UNL     1      -8.841  14.228  66.987  1.00  0.00    -0.243 A  
HETATM   11  C   UNL     1     -10.209  14.407  67.199  1.00  0.00    -0.257 A  
HETATM   12  C   UNL     1     -10.960  13.403  67.813  1.00  0.00    -0.281 A  
HETATM   13  C   UNL     1     -10.347  12.211  68.218  1.00  0.00    -0.218 A  
HETATM   14  C   UNL     1     -11.126  11.100  68.874  1.00  0.00    -0.237 C  
HETATM   15  O   UNL     1     -11.346   9.989  68.005  1.00  0.00    -0.203 OA 
HETATM   16  C   UNL     1     -10.288   9.179  67.678  1.00  0.00    -0.255 A  
HETATM   17  C   UNL     1      -8.916   9.466  67.770  1.00  0.00    -0.127 A  
HETATM   18  C   UNL     1      -7.999   8.535  67.230  1.00  0.00    -0.102 A  
HETATM   19  C   UNL     1      -8.403   7.281  66.750  1.00  0.00    -0.119 A  
HETATM   20  C   UNL     1      -9.769   6.997  66.714  1.00  0.00    -0.241 A  
HETATM   21  C   UNL     1     -10.698   7.948  67.146  1.00  0.00    -0.306 A  
BRANCH  19  22
HETATM   22  C   UNL     1      -7.393   6.290  66.214  1.00  0.00    -0.081 C  
HETATM   23  C   UNL     1      -7.295   6.101  64.711  1.00  0.00    -0.075 C  
HETATM   24  O   UNL     1      -6.606   5.212  64.215  1.00  0.00    -0.040 OA 
HETATM   25  O   UNL     1      -7.974   6.965  63.930  1.00  0.00    -0.117 OA 
ENDBRANCH  19  22
ENDBRANCH   5   6
ENDBRANCH   4   5
ENDBRANCH   2   4
TORSDOF 4
ENDMDL
MODEL      137
REMARK 921   NORMALIZED FREE ENERGY PREDICTED BY IDOCK:   -3.21 KCAL/MOL
REMARK 922        TOTAL FREE ENERGY PREDICTED BY IDOCK:   -4.51 KCAL/MOL
REMARK 923 INTER-LIGAND FREE ENERGY PREDICTED BY IDOCK:   -4.21 KCAL/MOL
REMARK 924 INTRA-LIGAND FREE ENERGY PREDICTED BY IDOCK:   -0.31 KCAL/MOL
REMARK 927      BINDING AFFINITY PREDICTED BY RF-SCORE:    0.00 PKD
ROOT
HETATM    1  C   UNL     1      -8.807   5.455  64.624  1.00  0.00     0.010 C  
HETATM    2  N   UNL     1      -9.809   5.269  65.680  1.00  0.00    -0.039 NA 
HETATM    3  C   UNL     1     -10.747   4.217  65.280  1.00  0.00    -0.087 C  
ENDROOT
BRANCH   2   4
HETATM    4  C   UNL     1      -9.202   4.948  66.990  1.00  0.00    -0.123 C  
BRANCH   4   5
HETATM    5  C   UNL     1     -10.091   5.414  68.154  1.00  0.00    -0.220 C  
BRANCH   5   6
HETATM    6  C   UNL     1      -9.868   4.719  69.478  1.00  0.00    -0.292 C  
HETATM    7  C   UNL     1      -9.629   5.330  70.664  1.00  0.00    -0.235 C  
HETATM    8  C   UNL     1      -9.517   4.472  71.863  1.00  0.00    -0.201 A  
HETATM    9  C   UNL     1      -8.465   3.563  72.028  1.00  0.00    -0.092 A  
HETATM   10  C   UNL     1      -8.353   2.833  73.212  1.00  0.00    -0.071 A  
HETATM   11  C   UNL     1      -9.287   3.010  74.233  1.00  0.00    -0.101 A  
HETATM   12  C   UNL     1     -10.340   3.912  74.071  1.00  0.00    -0.244 A  
HETATM   13  C   UNL     1     -10.463   4.647  72.884  1.00  0.00    -0.254 A  
HETATM   14  C   UNL     1     -11.579   5.639  72.676  1.00  0.00    -0.251 C  
HETATM   15  O   UNL     1     -11.139   6.994  72.764  1.00  0.00    -0.269 OA 
HETATM   16  C   UNL     1     -10.366   7.511  71.755  1.00  0.00    -0.192 A  
HETATM   17  C   UNL     1      -9.617   6.813  70.793  1.00  0.00    -0.173 A  
HETATM   18  C   UNL     1      -8.769   7.554  69.938  1.00  0.00    -0.140 A  
HETATM   19  C   UNL     1      -8.767   8.956  69.919  1.00  0.00    -0.140 A  
HETATM   20  C   UNL     1      -9.558   9.629  70.851  1.00  0.00    -0.085 A  
HETATM   21  C   UNL     1     -10.323   8.913  71.775  1.00  0.00    -0.426 A  
BRANCH  19  22
HETATM   22  C   UNL     1      -7.875   9.720  68.966  1.00  0.00    -0.087 C  
HETATM   23  C   UNL     1      -6.785  10.602  69.547  1.00  0.00    -0.101 C  
HETATM   24  O   UNL     1      -6.123  11.361  68.842  1.00  0.00    -0.047 OA 
HETATM   25  O   UNL     1      -6.546  10.504  70.869  1.00  0.00    -0.347 OA 
ENDBRANCH  19  22
ENDBRANCH   5   6
ENDBRANCH   4   5
ENDBRANCH   2   4
TORSDOF 4
ENDMDL
MODEL      138
REMARK 921   NORMALIZED FREE ENERGY PREDICTED BY IDOCK:   -3.16 KCAL/MOL
REMARK 922        TOTAL FREE ENERGY PREDICTED BY IDOCK:   -4.45 KCAL/MOL
REMARK 923 INTER-LIGAND FREE ENERGY PREDICTED BY IDOCK:   -3.87 KCAL/MOL
REMARK 924 INTRA-LIGAND FREE ENERGY PREDICTED BY IDOCK:   -0.58 KCAL/MOL
REMARK 927      BINDING AFFINITY PREDICTED BY RF-SCORE:    0.00 PKD
ROOT
HETATM    1  C   UNL     1     -11.396  10.416  68.168  1.00  0.00    -0.213 C  
HETATM    2  N   UNL     1     -10.523   9.835  67.141  1.00  0.00    -0.254 NA 
HETATM    3  C   UNL     1      -9.158  10.331  67.327  1.00  0.00    -0.138 C  
ENDROOT
BRANCH   2   4
HETATM    4  C   UNL     1     -10.541   8.355  67.151  1.00  0.00    -0.256 C  
BRANCH   4   5
HETATM    5  C   UNL     1      -9.376   7.783  67.975  1.00  0.00    -0.146 C  
BRANCH   5   6
HETATM    6  C   UNL     1      -9.728   7.266  69.351  1.00  0.00    -0.161 C  
HETATM    7  C   UNL     1      -9.461   6.023  69.824  1.00  0.00    -0.173 C  
HETATM    8  C   UNL     1      -9.818   5.739  71.230  1.00  0.00    -0.223 A  
HETATM    9  C   UNL     1     -11.148   5.705  71.666  1.00  0.00    -0.249 A  
HETATM   10  C   UNL     1     -11.442   5.351  72.983  1.00  0.00    -0.324 A  
HETATM   11  C   UNL     1     -10.412   5.027  73.866  1.00  0.00    -0.317 A  
HETATM   12  C   UNL     1      -9.084   5.061  73.437  1.00  0.00    -0.121 A  
HETATM   13  C   UNL     1      -8.778   5.420  72.117  1.00  0.00    -0.130 A  
HETATM   14  C   UNL     1      -7.358   5.458  71.613  1.00  0.00    -0.089 C  
HETATM   15  O   UNL     1      -7.046   4.362  70.754  1.00  0.00    -0.036 OA 
HETATM   16  C   UNL     1      -7.590   4.327  69.494  1.00  0.00    -0.054 A  
HETATM   17  C   UNL     1      -8.713   5.022  69.016  1.00  0.00    -0.101 A  
HETATM   18  C   UNL     1      -9.189   4.715  67.720  1.00  0.00    -0.150 A  
HETATM   19  C   UNL     1      -8.494   3.862  66.852  1.00  0.00    -0.104 A  
HETATM   20  C   UNL     1      -7.350   3.221  67.332  1.00  0.00    -0.059 A  
HETATM   21  C   UNL     1      -6.924   3.430  68.646  1.00  0.00    -0.049 A  
BRANCH  19  22
HETATM   22  C   UNL     1      -9.008   3.583  65.457  1.00  0.00    -0.141 C  
HETATM   23  C   UNL     1      -8.725   4.599  64.366  1.00  0.00    -0.148 C  
HETATM   24  O   UNL     1      -9.234   4.510  63.251  1.00  0.00    -0.140 OA 
HETATM   25  O   UNL     1      -7.866   5.597  64.654  1.00  0.00    -0.099 OA 
ENDBRANCH  19  22
ENDBRANCH   5   6
ENDBRANCH   4   5
ENDBRANCH   2   4
TORSDOF 4
ENDMDL
MODEL      139
REMARK 921   NORMALIZED FREE ENERGY PREDICTED BY IDOCK:   -3.10 KCAL/MOL
REMARK 922        TOTAL FREE ENERGY PREDICTED BY IDOCK:   -4.37 KCAL/MOL
REMARK 923 INTER-LIGAND FREE ENERGY PREDICTED BY IDOCK:   -3.90 KCAL/MOL
REMARK 924 INTRA-LIGAND FREE ENERGY PREDICTED BY IDOCK:   -0.48 KCAL/MOL
REMARK 927      BINDING AFFINITY PREDICTED BY RF-SCORE:    0.00 PKD
ROOT
HETATM    1  C   UNL     1     -10.694   4.132  64.636  1.00  0.00    -0.129 C  
HETATM    2  N   UNL     1     -10.004   3.926  65.916  1.00  0.00    -0.130 NA 
HETATM    3  C   UNL     1      -8.941   2.934  65.740  1.00  0.00    -0.144 C  
ENDROOT
BRANCH   2   4
HETATM    4  C   UNL     1      -9.452   5.181  66.472  1.00  0.00    -0.148 C  
BRANCH   4   5
HETATM    5  C   UNL     1      -9.984   5.452  67.889  1.00  0.00    -0.202 C  
BRANCH   5   6
HETATM    6  C   UNL     1      -9.002   5.237  69.017  1.00  0.00    -0.126 C  
HETATM    7  C   UNL     1      -8.734   6.116  70.014  1.00  0.00    -0.137 C  
HETATM    8  C   UNL     1      -7.796   5.681  71.072  1.00  0.00    -0.105 A  
HETATM    9  C   UNL     1      -6.442   5.443  70.809  1.00  0.00    -0.035 A  
HETATM   10  C   UNL     1      -5.575   5.115  71.853  1.00  0.00    -0.012 A  
HETATM   11  C   UNL     1      -6.058   5.028  73.159  1.00  0.00    -0.030 A  
HETATM   12  C   UNL     1      -7.408   5.261  73.425  1.00  0.00    -0.095 A  
HETATM   13  C   UNL     1      -8.286   5.587  72.383  1.00  0.00    -0.118 A  
HETATM   14  C   UNL     1      -9.748   5.857  72.631  1.00  0.00    -0.153 C  
HETATM   15  O   UNL     1     -10.078   7.243  72.540  1.00  0.00    -0.175 OA 
HETATM   16  C   UNL     1     -10.081   7.848  71.308  1.00  0.00    -0.180 A  
HETATM   17  C   UNL     1      -9.453   7.414  70.129  1.00  0.00    -0.165 A  
HETATM   18  C   UNL     1      -9.460   8.277  69.010  1.00  0.00    -0.155 A  
HETATM   19  C   UNL     1     -10.195   9.471  68.992  1.00  0.00    -0.211 A  
HETATM   20  C   UNL     1     -10.853   9.858  70.160  1.00  0.00    -0.356 A  
HETATM   21  C   UNL     1     -10.770   9.069  71.310  1.00  0.00    -0.379 A  
BRANCH  19  22
HETATM   22  C   UNL     1     -10.214  10.356  67.765  1.00  0.00    -0.229 C  
HETATM   23  C   UNL     1      -9.100  11.372  67.589  1.00  0.00    -0.155 C  
HETATM   24  O   UNL     1      -9.132  12.218  66.699  1.00  0.00    -0.204 OA 
HETATM   25  O   UNL     1      -8.053  11.297  68.434  1.00  0.00    -0.128 OA 
ENDBRANCH  19  22
ENDBRANCH   5   6
ENDBRANCH   4   5
ENDBRANCH   2   4
TORSDOF 4
ENDMDL
MODEL      140
REMARK 921   NORMALIZED FREE ENERGY PREDICTED BY IDOCK:   -3.06 KCAL/MOL
REMARK 922        TOTAL FREE ENERGY PREDICTED BY IDOCK:   -4.33 KCAL/MOL
REMARK 923 INTER-LIGAND FREE ENERGY PREDICTED BY IDOCK:   -3.87 KCAL/MOL
REMARK 924 INTRA-LIGAND FREE ENERGY PREDICTED BY IDOCK:   -0.46 KCAL/MOL
REMARK 927      BINDING AFFINITY PREDICTED BY RF-SCORE:    0.00 PKD
ROOT
HETATM    1  C   UNL     1      -9.979   8.695  71.960  1.00  0.00    -0.329 C  
HETATM    2  N   UNL     1     -10.322   8.441  70.556  1.00  0.00    -0.196 NA 
HETATM    3  C   UNL     1     -11.547   7.640  70.492  1.00  0.00    -0.175 C  
ENDROOT
BRANCH   2   4
HETATM    4  C   UNL     1     -10.480   9.687  69.774  1.00  0.00    -0.238 C  
BRANCH   4   5
HETATM    5  C   UNL     1     -10.902   9.395  68.325  1.00  0.00    -0.163 C  
BRANCH   5   6
HETATM    6  C   UNL     1      -9.866   8.718  67.457  1.00  0.00    -0.232 C  
HETATM    7  C   UNL     1      -8.805   9.324  66.869  1.00  0.00    -0.141 C  
HETATM    8  C   UNL     1      -7.859   8.468  66.122  1.00  0.00    -0.098 A  
HETATM    9  C   UNL     1      -8.230   7.802  64.948  1.00  0.00    -0.111 A  
HETATM   10  C   UNL     1      -7.282   7.072  64.230  1.00  0.00    -0.064 A  
HETATM   11  C   UNL     1      -5.963   7.007  64.680  1.00  0.00    -0.037 A  
HETATM   12  C   UNL     1      -5.589   7.667  65.852  1.00  0.00    -0.033 A  
HETATM   13  C   UNL     1      -6.535   8.399  66.582  1.00  0.00    -0.056 A  
HETATM   14  C   UNL     1      -6.167   9.134  67.845  1.00  0.00    -0.051 C  
HETATM   15  O   UNL     1      -6.098  10.548  67.663  1.00  0.00    -0.051 OA 
HETATM   16  C   UNL     1      -7.260  11.255  67.480  1.00  0.00    -0.100 A  
HETATM   17  C   UNL     1      -8.515  10.770  67.076  1.00  0.00    -0.128 A  
HETATM   18  C   UNL     1      -9.538  11.705  66.803  1.00  0.00    -0.207 A  
HETATM   19  C   UNL     1      -9.389  13.074  67.065  1.00  0.00    -0.236 A  
HETATM   20  C   UNL     1      -8.148  13.528  67.514  1.00  0.00    -0.190 A  
HETATM   21  C   UNL     1      -7.091  12.632  67.689  1.00  0.00    -0.139 A  
BRANCH  19  22
HETATM   22  C   UNL     1     -10.517  14.046  66.797  1.00  0.00    -0.277 C  
HETATM   23  C   UNL     1     -10.650  14.632  65.404  1.00  0.00    -0.374 C  
HETATM   24  O   UNL     1     -11.447  15.534  65.155  1.00  0.00    -0.267 OA 
HETATM   25  O   UNL     1      -9.877  14.108  64.433  1.00  0.00     0.019 OA 
ENDBRANCH  19  22
ENDBRANCH   5   6
ENDBRANCH   4   5
ENDBRANCH   2   4
TORSDOF 4
ENDMDL
MODEL      141
REMARK 921   NORMALIZED FREE ENERGY PREDICTED BY IDOCK:   -3.01 KCAL/MOL
REMARK 922        TOTAL FREE ENERGY PREDICTED BY IDOCK:   -4.26 KCAL/MOL
REMARK 923 INTER-LIGAND FREE ENERGY PREDICTED BY IDOCK:   -4.02 KCAL/MOL
REMARK 924 INTRA-LIGAND FREE ENERGY PREDICTED BY IDOCK:   -0.25 KCAL/MOL
REMARK 927      BINDING AFFINITY PREDICTED BY RF-SCORE:    0.00 PKD
ROOT
HETATM    1  C   UNL     1     -13.152  10.216  70.729  1.00  0.00    -0.280 C  
HETATM    2  N   UNL     1     -11.973   9.984  71.572  1.00  0.00    -0.378 NA 
HETATM    3  C   UNL     1     -12.108   8.693  72.251  1.00  0.00    -0.373 C  
ENDROOT
BRANCH   2   4
HETATM    4  C   UNL     1     -10.708  10.034  70.806  1.00  0.00    -0.202 C  
BRANCH   4   5
HETATM    5  C   UNL     1      -9.889   8.746  70.985  1.00  0.00    -0.293 C  
BRANCH   5   6
HETATM    6  C   UNL     1     -10.057   7.699  69.908  1.00  0.00    -0.198 C  
HETATM    7  C   UNL     1      -9.168   7.424  68.922  1.00  0.00    -0.142 C  
HETATM    8  C   UNL     1      -9.485   6.304  68.011  1.00  0.00    -0.116 A  
HETATM    9  C   UNL     1     -10.570   6.350  67.128  1.00  0.00    -0.389 A  
HETATM   10  C   UNL     1     -10.783   5.306  66.227  1.00  0.00    -0.260 A  
HETATM   11  C   UNL     1      -9.913   4.215  66.205  1.00  0.00    -0.185 A  
HETATM   12  C   UNL     1      -8.832   4.163  67.086  1.00  0.00    -0.124 A  
HETATM   13  C   UNL     1      -8.612   5.205  67.996  1.00  0.00    -0.103 A  
HETATM   14  C   UNL     1      -7.449   5.190  68.955  1.00  0.00    -0.069 C  
HETATM   15  O   UNL     1      -6.413   6.099  68.584  1.00  0.00    -0.041 OA 
HETATM   16  C   UNL     1      -6.629   7.448  68.721  1.00  0.00    -0.048 A  
HETATM   17  C   UNL     1      -7.856   8.122  68.835  1.00  0.00    -0.112 A  
HETATM   18  C   UNL     1      -7.848   9.535  68.811  1.00  0.00    -0.084 A  
HETATM   19  C   UNL     1      -6.658  10.276  68.832  1.00  0.00    -0.052 A  
HETATM   20  C   UNL     1      -5.448   9.584  68.769  1.00  0.00    -0.037 A  
HETATM   21  C   UNL     1      -5.438   8.189  68.685  1.00  0.00    -0.032 A  
BRANCH  19  22
HETATM   22  C   UNL     1      -6.683  11.789  68.845  1.00  0.00    -0.094 C  
HETATM   23  C   UNL     1      -6.524  12.526  67.528  1.00  0.00    -0.153 C  
HETATM   24  O   UNL     1      -6.387  13.746  67.483  1.00  0.00    -0.264 OA 
HETATM   25  O   UNL     1      -6.566  11.793  66.398  1.00  0.00     0.011 OA 
ENDBRANCH  19  22
ENDBRANCH   5   6
ENDBRANCH   4   5
ENDBRANCH   2   4
TORSDOF 4
ENDMDL
MODEL      142
REMARK 921   NORMALIZED FREE ENERGY PREDICTED BY IDOCK:   -2.94 KCAL/MOL
REMARK 922        TOTAL FREE ENERGY PREDICTED BY IDOCK:   -4.17 KCAL/MOL
REMARK 923 INTER-LIGAND FREE ENERGY PREDICTED BY IDOCK:   -3.71 KCAL/MOL
REMARK 924 INTRA-LIGAND FREE ENERGY PREDICTED BY IDOCK:   -0.46 KCAL/MOL
REMARK 927      BINDING AFFINITY PREDICTED BY RF-SCORE:    0.00 PKD
ROOT
HETATM    1  C   UNL     1     -11.360  12.120  68.693  1.00  0.00    -0.280 C  
HETATM    2  N   UNL     1     -11.569  11.350  69.925  1.00  0.00    -0.315 NA 
HETATM    3  C   UNL     1     -12.444  12.104  70.826  1.00  0.00    -0.271 C  
ENDROOT
BRANCH   2   4
HETATM    4  C   UNL     1     -12.130  10.005  69.667  1.00  0.00     0.181 C  
BRANCH   4   5
HETATM    5  C   UNL     1     -11.020   8.951  69.519  1.00  0.00    -0.097 C  
BRANCH   5   6
HETATM    6  C   UNL     1     -11.010   7.851  70.556  1.00  0.00    -0.250 C  
HETATM    7  C   UNL     1      -9.910   7.354  71.174  1.00  0.00    -0.177 C  
HETATM    8  C   UNL     1     -10.121   6.331  72.220  1.00  0.00    -0.197 A  
HETATM    9  C   UNL     1     -10.625   5.059  71.923  1.00  0.00    -0.224 A  
HETATM   10  C   UNL     1     -10.730   4.097  72.929  1.00  0.00    -0.230 A  
HETATM   11  C   UNL     1     -10.328   4.401  74.230  1.00  0.00    -0.296 A  
HETATM   12  C   UNL     1      -9.827   5.668  74.531  1.00  0.00    -0.246 A  
HETATM   13  C   UNL     1      -9.722   6.642  73.530  1.00  0.00    -0.213 A  
HETATM   14  C   UNL     1      -9.176   8.018  73.813  1.00  0.00    -0.110 C  
HETATM   15  O   UNL     1      -7.858   8.207  73.300  1.00  0.00    -0.153 OA 
HETATM   16  C   UNL     1      -7.680   8.315  71.943  1.00  0.00    -0.114 A  
HETATM   17  C   UNL     1      -8.552   7.907  70.920  1.00  0.00    -0.129 A  
HETATM   18  C   UNL     1      -8.095   7.976  69.584  1.00  0.00    -0.119 A  
HETATM   19  C   UNL     1      -6.874   8.574  69.242  1.00  0.00    -0.050 A  
HETATM   20  C   UNL     1      -6.045   9.018  70.273  1.00  0.00    -0.039 A  
HETATM   21  C   UNL     1      -6.433   8.862  71.606  1.00  0.00    -0.076 A  
BRANCH  19  22
HETATM   22  C   UNL     1      -6.430   8.667  67.799  1.00  0.00    -0.061 C  
HETATM   23  C   UNL     1      -6.711   9.950  67.038  1.00  0.00    -0.075 C  
HETATM   24  O   UNL     1      -6.512  10.042  65.829  1.00  0.00    -0.085 OA 
HETATM   25  O   UNL     1      -7.166  11.004  67.744  1.00  0.00    -0.087 OA 
ENDBRANCH  19  22
ENDBRANCH   5   6
ENDBRANCH   4   5
ENDBRANCH   2   4
TORSDOF 4
ENDMDL
MODEL      143
REMARK 921   NORMALIZED FREE ENERGY PREDICTED BY IDOCK:   -2.92 KCAL/MOL
REMARK 922        TOTAL FREE ENERGY PREDICTED BY IDOCK:   -4.15 KCAL/MOL
REMARK 923 INTER-LIGAND FREE ENERGY PREDICTED BY IDOCK:   -4.35 KCAL/MOL
REMARK 924 INTRA-LIGAND FREE ENERGY PREDICTED BY IDOCK:    0.19 KCAL/MOL
REMARK 927      BINDING AFFINITY PREDICTED BY RF-SCORE:    0.00 PKD
ROOT
HETATM    1  C   UNL     1      -5.623  10.433  70.428  1.00  0.00    -0.073 C  
HETATM    2  N   UNL     1      -5.452  11.354  69.297  1.00  0.00    -0.047 NA 
HETATM    3  C   UNL     1      -5.199  10.584  68.078  1.00  0.00    -0.037 C  
ENDROOT
BRANCH   2   4
HETATM    4  C   UNL     1      -6.617  12.248  69.111  1.00  0.00    -0.105 C  
BRANCH   4   5
HETATM    5  C   UNL     1      -7.801  11.505  68.471  1.00  0.00    -0.140 C  
BRANCH   5   6
HETATM    6  C   UNL     1      -8.783  10.873  69.430  1.00  0.00     0.107 C  
HETATM    7  C   UNL     1      -9.605   9.832  69.152  1.00  0.00    -0.192 C  
HETATM    8  C   UNL     1     -10.437   9.306  70.256  1.00  0.00    -0.271 A  
HETATM    9  C   UNL     1     -11.461  10.062  70.837  1.00  0.00    -0.452 A  
HETATM   10  C   UNL     1     -12.275   9.497  71.819  1.00  0.00    -0.465 A  
HETATM   11  C   UNL     1     -12.071   8.177  72.220  1.00  0.00    -0.419 A  
HETATM   12  C   UNL     1     -11.048   7.420  71.646  1.00  0.00    -0.264 A  
HETATM   13  C   UNL     1     -10.223   7.980  70.662  1.00  0.00    -0.205 A  
HETATM   14  C   UNL     1      -9.116   7.192  70.010  1.00  0.00    -0.145 C  
HETATM   15  O   UNL     1      -9.429   6.799  68.674  1.00  0.00    -0.134 OA 
HETATM   16  C   UNL     1      -9.456   7.752  67.687  1.00  0.00    -0.144 A  
HETATM   17  C   UNL     1      -9.579   9.144  67.831  1.00  0.00    -0.168 A  
HETATM   18  C   UNL     1      -9.740   9.927  66.665  1.00  0.00    -0.252 A  
HETATM   19  C   UNL     1      -9.628   9.381  65.378  1.00  0.00    -0.296 A  
HETATM   20  C   UNL     1      -9.455   8.001  65.259  1.00  0.00     0.667 A  
HETATM   21  C   UNL     1      -9.400   7.197  66.401  1.00  0.00    -0.190 A  
BRANCH  19  22
HETATM   22  C   UNL     1      -9.766  10.251  64.149  1.00  0.00    -0.357 C  
HETATM   23  C   UNL     1     -10.877  11.285  64.116  1.00  0.00    -0.337 C  
HETATM   24  O   UNL     1     -11.139  11.921  63.097  1.00  0.00    -0.312 OA 
HETATM   25  O   UNL     1     -11.556  11.503  65.260  1.00  0.00    -0.117 OA 
ENDBRANCH  19  22
ENDBRANCH   5   6
ENDBRANCH   4   5
ENDBRANCH   2   4
TORSDOF 4
ENDMDL
MODEL      144
REMARK 921   NORMALIZED FREE ENERGY PREDICTED BY IDOCK:   -2.91 KCAL/MOL
REMARK 922        TOTAL FREE ENERGY PREDICTED BY IDOCK:   -4.15 KCAL/MOL
REMARK 923 INTER-LIGAND FREE ENERGY PREDICTED BY IDOCK:   -3.63 KCAL/MOL
REMARK 924 INTRA-LIGAND FREE ENERGY PREDICTED BY IDOCK:   -0.51 KCAL/MOL
REMARK 927      BINDING AFFINITY PREDICTED BY RF-SCORE:    0.00 PKD
ROOT
HETATM    1  C   UNL     1      -6.833   7.199  65.791  1.00  0.00    -0.056 C  
HETATM    2  N   UNL     1      -7.682   7.580  64.656  1.00  0.00    -0.115 NA 
HETATM    3  C   UNL     1      -7.342   6.753  63.496  1.00  0.00    -0.073 C  
ENDROOT
BRANCH   2   4
HETATM    4  C   UNL     1      -9.126   7.469  64.964  1.00  0.00     0.643 C  
BRANCH   4   5
HETATM    5  C   UNL     1      -9.423   7.851  66.423  1.00  0.00    -0.258 C  
BRANCH   5   6
HETATM    6  C   UNL     1      -9.806   9.292  66.665  1.00  0.00    -0.311 C  
HETATM    7  C   UNL     1      -9.697   9.955  67.843  1.00  0.00    -0.162 C  
HETATM    8  C   UNL     1     -10.053  11.390  67.852  1.00  0.00    -0.198 A  
HETATM    9  C   UNL     1     -11.364  11.830  67.636  1.00  0.00    -0.370 A  
HETATM   10  C   UNL     1     -11.671  13.188  67.736  1.00  0.00    -0.401 A  
HETATM   11  C   UNL     1     -10.671  14.107  68.056  1.00  0.00    -0.248 A  
HETATM   12  C   UNL     1      -9.362  13.674  68.269  1.00  0.00    -0.204 A  
HETATM   13  C   UNL     1      -9.044  12.313  68.167  1.00  0.00    -0.196 A  
HETATM   14  C   UNL     1      -7.644  11.804  68.401  1.00  0.00    -0.123 C  
HETATM   15  O   UNL     1      -7.503  11.128  69.651  1.00  0.00    -0.051 OA 
HETATM   16  C   UNL     1      -8.078   9.892  69.808  1.00  0.00    -0.176 A  
HETATM   17  C   UNL     1      -9.110   9.314  69.051  1.00  0.00    -0.147 A  
HETATM   18  C   UNL     1      -9.654   8.085  69.489  1.00  0.00    -0.164 A  
HETATM   19  C   UNL     1      -9.101   7.360  70.554  1.00  0.00    -0.157 A  
HETATM   20  C   UNL     1      -8.042   7.932  71.262  1.00  0.00    -0.101 A  
HETATM   21  C   UNL     1      -7.559   9.195  70.909  1.00  0.00    -0.146 A  
BRANCH  19  22
HETATM   22  C   UNL     1      -9.683   6.029  70.976  1.00  0.00    -0.208 C  
HETATM   23  C   UNL     1      -9.334   4.798  70.160  1.00  0.00    -0.155 C  
HETATM   24  O   UNL     1      -9.884   3.716  70.355  1.00  0.00    -0.173 OA 
HETATM   25  O   UNL     1      -8.373   4.925  69.224  1.00  0.00    -0.084 OA 
ENDBRANCH  19  22
ENDBRANCH   5   6
ENDBRANCH   4   5
ENDBRANCH   2   4
TORSDOF 4
ENDMDL
MODEL      145
REMARK 921   NORMALIZED FREE ENERGY PREDICTED BY IDOCK:   -2.89 KCAL/MOL
REMARK 922        TOTAL FREE ENERGY PREDICTED BY IDOCK:   -4.12 KCAL/MOL
REMARK 923 INTER-LIGAND FREE ENERGY PREDICTED BY IDOCK:   -3.65 KCAL/MOL
REMARK 924 INTRA-LIGAND FREE ENERGY PREDICTED BY IDOCK:   -0.47 KCAL/MOL
REMARK 927      BINDING AFFINITY PREDICTED BY RF-SCORE:    0.00 PKD
ROOT
HETATM    1  C   UNL     1     -12.910   7.867  71.762  1.00  0.00    -0.328 C  
HETATM    2  N   UNL     1     -11.755   7.076  71.324  1.00  0.00    -0.298 NA 
HETATM    3  C   UNL     1     -11.386   6.129  72.379  1.00  0.00    -0.296 C  
ENDROOT
BRANCH   2   4
HETATM    4  C   UNL     1     -12.005   6.360  70.053  1.00  0.00     0.050 C  
BRANCH   4   5
HETATM    5  C   UNL     1     -10.952   6.714  68.990  1.00  0.00    -0.332 C  
BRANCH   5   6
HETATM    6  C   UNL     1     -10.725   5.679  67.912  1.00  0.00    -0.241 C  
HETATM    7  C   UNL     1      -9.549   5.065  67.636  1.00  0.00    -0.173 C  
HETATM    8  C   UNL     1      -9.554   4.019  66.590  1.00  0.00    -0.228 A  
HETATM    9  C   UNL     1      -9.805   4.316  65.246  1.00  0.00    -0.214 A  
HETATM   10  C   UNL     1      -9.719   3.312  64.280  1.00  0.00    -0.162 A  
HETATM   11  C   UNL     1      -9.379   2.012  64.655  1.00  0.00    -0.119 A  
HETATM   12  C   UNL     1      -9.131   1.710  65.995  1.00  0.00    -0.044 A  
HETATM   13  C   UNL     1      -9.220   2.711  66.971  1.00  0.00    -0.142 A  
HETATM   14  C   UNL     1      -8.948   2.427  68.427  1.00  0.00    -0.133 C  
HETATM   15  O   UNL     1      -7.693   2.944  68.867  1.00  0.00    -0.047 OA 
HETATM   16  C   UNL     1      -7.544   4.301  69.009  1.00  0.00    -0.055 A  
HETATM   17  C   UNL     1      -8.323   5.322  68.441  1.00  0.00    -0.093 A  
HETATM   18  C   UNL     1      -7.893   6.659  68.598  1.00  0.00    -0.114 A  
HETATM   19  C   UNL     1      -6.811   7.004  69.420  1.00  0.00    -0.054 A  
HETATM   20  C   UNL     1      -6.080   5.974  70.016  1.00  0.00    -0.026 A  
HETATM   21  C   UNL     1      -6.427   4.640  69.787  1.00  0.00    -0.032 A  
BRANCH  19  22
HETATM   22  C   UNL     1      -6.398   8.448  69.600  1.00  0.00    -0.036 C  
HETATM   23  C   UNL     1      -7.236   9.332  70.504  1.00  0.00    -0.110 C  
HETATM   24  O   UNL     1      -7.046  10.545  70.580  1.00  0.00    -0.278 OA 
HETATM   25  O   UNL     1      -8.186   8.735  71.250  1.00  0.00    -0.146 OA 
ENDBRANCH  19  22
ENDBRANCH   5   6
ENDBRANCH   4   5
ENDBRANCH   2   4
TORSDOF 4
ENDMDL
MODEL      146
REMARK 921   NORMALIZED FREE ENERGY PREDICTED BY IDOCK:   -2.81 KCAL/MOL
REMARK 922        TOTAL FREE ENERGY PREDICTED BY IDOCK:   -4.02 KCAL/MOL
REMARK 923 INTER-LIGAND FREE ENERGY PREDICTED BY IDOCK:   -3.61 KCAL/MOL
REMARK 924 INTRA-LIGAND FREE ENERGY PREDICTED BY IDOCK:   -0.41 KCAL/MOL
REMARK 927      BINDING AFFINITY PREDICTED BY RF-SCORE:    0.00 PKD
ROOT
HETATM    1  C   UNL     1      -8.952   4.118  67.048  1.00  0.00    -0.127 C  
HETATM    2  N   UNL     1      -7.854   4.010  68.015  1.00  0.00    -0.077 NA 
HETATM    3  C   UNL     1      -7.338   2.640  68.013  1.00  0.00    -0.052 C  
ENDROOT
BRANCH   2   4
HETATM    4  C   UNL     1      -6.763   4.973  67.747  1.00  0.00    -0.055 C  
BRANCH   4   5
HETATM    5  C   UNL     1      -6.187   5.551  69.050  1.00  0.00    -0.029 C  
BRANCH   5   6
HETATM    6  C   UNL     1      -7.009   5.319  70.297  1.00  0.00    -0.056 C  
HETATM    7  C   UNL     1      -8.014   6.111  70.745  1.00  0.00    -0.115 C  
HETATM    8  C   UNL     1      -8.749   5.665  71.947  1.00  0.00    -0.135 A  
HETATM    9  C   UNL     1      -8.139   5.593  73.205  1.00  0.00    -0.114 A  
HETATM   10  C   UNL     1      -8.893   5.246  74.328  1.00  0.00    -0.118 A  
HETATM   11  C   UNL     1     -10.255   4.974  74.197  1.00  0.00    -0.279 A  
HETATM   12  C   UNL     1     -10.866   5.042  72.945  1.00  0.00    -0.322 A  
HETATM   13  C   UNL     1     -10.117   5.385  71.811  1.00  0.00    -0.251 A  
HETATM   14  C   UNL     1     -10.744   5.479  70.444  1.00  0.00    -0.251 C  
HETATM   15  O   UNL     1     -10.911   6.826  70.003  1.00  0.00    -0.256 OA 
HETATM   16  C   UNL     1      -9.803   7.553  69.646  1.00  0.00    -0.180 A  
HETATM   17  C   UNL     1      -8.462   7.311  69.986  1.00  0.00    -0.139 A  
HETATM   18  C   UNL     1      -7.496   8.282  69.636  1.00  0.00    -0.081 A  
HETATM   19  C   UNL     1      -7.808   9.391  68.837  1.00  0.00    -0.083 A  
HETATM   20  C   UNL     1      -9.140   9.585  68.468  1.00  0.00    -0.131 A  
HETATM   21  C   UNL     1     -10.126   8.692  68.894  1.00  0.00    -0.213 A  
BRANCH  19  22
HETATM   22  C   UNL     1      -6.744  10.393  68.446  1.00  0.00    -0.060 C  
HETATM   23  C   UNL     1      -6.173  11.297  69.523  1.00  0.00    -0.099 C  
HETATM   24  O   UNL     1      -5.418  12.229  69.252  1.00  0.00    -0.066 OA 
HETATM   25  O   UNL     1      -6.503  11.027  70.801  1.00  0.00    -0.316 OA 
ENDBRANCH  19  22
ENDBRANCH   5   6
ENDBRANCH   4   5
ENDBRANCH   2   4
TORSDOF 4
ENDMDL
MODEL      147
REMARK 921   NORMALIZED FREE ENERGY PREDICTED BY IDOCK:   -2.74 KCAL/MOL
REMARK 922        TOTAL FREE ENERGY PREDICTED BY IDOCK:   -3.93 KCAL/MOL
REMARK 923 INTER-LIGAND FREE ENERGY PREDICTED BY IDOCK:   -3.48 KCAL/MOL
REMARK 924 INTRA-LIGAND FREE ENERGY PREDICTED BY IDOCK:   -0.45 KCAL/MOL
REMARK 927      BINDING AFFINITY PREDICTED BY RF-SCORE:    0.00 PKD
ROOT
HETATM    1  C   UNL     1     -12.015   7.412  72.277  1.00  0.00    -0.239 C  
HETATM    2  N   UNL     1     -12.788   8.330  71.433  1.00  0.00    -0.284 NA 
HETATM    3  C   UNL     1     -13.376   9.380  72.268  1.00  0.00    -0.461 C  
ENDROOT
BRANCH   2   4
HETATM    4  C   UNL     1     -11.975   8.927  70.350  1.00  0.00     0.115 C  
BRANCH   4   5
HETATM    5  C   UNL     1     -10.695   8.115  70.093  1.00  0.00    -0.243 C  
BRANCH   5   6
HETATM    6  C   UNL     1      -9.558   8.862  69.434  1.00  0.00    -0.163 C  
HETATM    7  C   UNL     1      -8.747   8.376  68.461  1.00  0.00    -0.136 C  
HETATM    8  C   UNL     1      -7.741   9.297  67.890  1.00  0.00    -0.088 A  
HETATM    9  C   UNL     1      -6.671   9.788  68.647  1.00  0.00    -0.051 A  
HETATM   10  C   UNL     1      -5.699  10.588  68.045  1.00  0.00    -0.040 A  
HETATM   11  C   UNL     1      -5.792  10.896  66.687  1.00  0.00    -0.096 A  
HETATM   12  C   UNL     1      -6.859  10.412  65.930  1.00  0.00    -0.131 A  
HETATM   13  C   UNL     1      -7.842   9.611  66.526  1.00  0.00    -0.108 A  
HETATM   14  C   UNL     1      -9.003   9.060  65.739  1.00  0.00    -0.197 C  
HETATM   15  O   UNL     1      -8.878   7.663  65.473  1.00  0.00    -0.108 OA 
HETATM   16  C   UNL     1      -9.035   6.771  66.504  1.00  0.00    -0.149 A  
HETATM   17  C   UNL     1      -8.944   7.018  67.884  1.00  0.00    -0.122 A  
HETATM   18  C   UNL     1      -8.988   5.915  68.766  1.00  0.00    -0.117 A  
HETATM   19  C   UNL     1      -9.269   4.615  68.323  1.00  0.00    -0.166 A  
HETATM   20  C   UNL     1      -9.406   4.401  66.950  1.00  0.00    -0.167 A  
HETATM   21  C   UNL     1      -9.260   5.462  66.054  1.00  0.00    -0.166 A  
BRANCH  19  22
HETATM   22  C   UNL     1      -9.349   3.460  69.297  1.00  0.00    -0.240 C  
HETATM   23  C   UNL     1      -8.062   2.759  69.692  1.00  0.00    -0.041 C  
HETATM   24  O   UNL     1      -8.067   1.726  70.359  1.00  0.00    -0.041 OA 
HETATM   25  O   UNL     1      -6.902   3.326  69.307  1.00  0.00    -0.040 OA 
ENDBRANCH  19  22
ENDBRANCH   5   6
ENDBRANCH   4   5
ENDBRANCH   2   4
TORSDOF 4
ENDMDL
MODEL      148
REMARK 921   NORMALIZED FREE ENERGY PREDICTED BY IDOCK:   -2.72 KCAL/MOL
REMARK 922        TOTAL FREE ENERGY PREDICTED BY IDOCK:   -3.91 KCAL/MOL
REMARK 923 INTER-LIGAND FREE ENERGY PREDICTED BY IDOCK:   -3.91 KCAL/MOL
REMARK 924 INTRA-LIGAND FREE ENERGY PREDICTED BY IDOCK:   -0.00 KCAL/MOL
REMARK 927      BINDING AFFINITY PREDICTED BY RF-SCORE:    0.00 PKD
ROOT
HETATM    1  C   UNL     1     -11.004   5.727  69.101  1.00  0.00    -0.238 C  
HETATM    2  N   UNL     1     -10.096   5.380  68.001  1.00  0.00    -0.171 NA 
HETATM    3  C   UNL     1     -10.707   5.765  66.728  1.00  0.00    -0.297 C  
ENDROOT
BRANCH   2   4
HETATM    4  C   UNL     1      -8.763   6.006  68.145  1.00  0.00    -0.113 C  
BRANCH   4   5
HETATM    5  C   UNL     1      -8.730   7.001  69.317  1.00  0.00    -0.136 C  
BRANCH   5   6
HETATM    6  C   UNL     1      -9.463   8.304  69.099  1.00  0.00    -0.155 C  
HETATM    7  C   UNL     1      -9.083   9.517  69.571  1.00  0.00    -0.193 C  
HETATM    8  C   UNL     1      -9.898  10.687  69.179  1.00  0.00    -0.217 A  
HETATM    9  C   UNL     1     -11.220  10.847  69.609  1.00  0.00    -0.348 A  
HETATM   10  C   UNL     1     -11.925  12.007  69.283  1.00  0.00    -0.329 A  
HETATM   11  C   UNL     1     -11.310  13.009  68.532  1.00  0.00    -0.323 A  
HETATM   12  C   UNL     1      -9.993  12.852  68.099  1.00  0.00    -0.234 A  
HETATM   13  C   UNL     1      -9.279  11.690  68.417  1.00  0.00    -0.182 A  
HETATM   14  C   UNL     1      -7.851  11.489  67.977  1.00  0.00    -0.126 C  
HETATM   15  O   UNL     1      -6.917  11.636  69.045  1.00  0.00    -0.099 OA 
HETATM   16  C   UNL     1      -6.852  10.665  70.013  1.00  0.00    -0.148 A  
HETATM   17  C   UNL     1      -7.819   9.698  70.336  1.00  0.00    -0.181 A  
HETATM   18  C   UNL     1      -7.605   8.892  71.477  1.00  0.00    -0.092 A  
HETATM   19  C   UNL     1      -6.403   8.922  72.198  1.00  0.00    -0.031 A  
HETATM   20  C   UNL     1      -5.434   9.857  71.828  1.00  0.00    -0.013 A  
HETATM   21  C   UNL     1      -5.672  10.735  70.768  1.00  0.00    -0.099 A  
BRANCH  19  22
HETATM   22  C   UNL     1      -6.188   8.019  73.393  1.00  0.00    -0.085 C  
HETATM   23  C   UNL     1      -5.699   6.603  73.150  1.00  0.00    -0.042 C  
HETATM   24  O   UNL     1      -5.644   5.774  74.055  1.00  0.00    -0.035 OA 
HETATM   25  O   UNL     1      -5.298   6.290  71.902  1.00  0.00    -0.025 OA 
ENDBRANCH  19  22
ENDBRANCH   5   6
ENDBRANCH   4   5
ENDBRANCH   2   4
TORSDOF 4
ENDMDL
MODEL      149
REMARK 921   NORMALIZED FREE ENERGY PREDICTED BY IDOCK:   -2.61 KCAL/MOL
REMARK 922        TOTAL FREE ENERGY PREDICTED BY IDOCK:   -3.78 KCAL/MOL
REMARK 923 INTER-LIGAND FREE ENERGY PREDICTED BY IDOCK:   -3.58 KCAL/MOL
REMARK 924 INTRA-LIGAND FREE ENERGY PREDICTED BY IDOCK:   -0.20 KCAL/MOL
REMARK 927      BINDING AFFINITY PREDICTED BY RF-SCORE:    0.00 PKD
ROOT
HETATM    1  C   UNL     1      -5.149   8.098  72.059  1.00  0.00    -0.035 C  
HETATM    2  N   UNL     1      -6.485   7.501  71.941  1.00  0.00    -0.042 NA 
HETATM    3  C   UNL     1      -6.621   6.417  72.916  1.00  0.00    -0.065 C  
ENDROOT
BRANCH   2   4
HETATM    4  C   UNL     1      -7.568   8.494  72.117  1.00  0.00    -0.077 C  
BRANCH   4   5
HETATM    5  C   UNL     1      -8.675   8.313  71.066  1.00  0.00    -0.169 C  
BRANCH   5   6
HETATM    6  C   UNL     1      -8.673   6.999  70.320  1.00  0.00    -0.144 C  
HETATM    7  C   UNL     1      -9.068   6.814  69.037  1.00  0.00    -0.137 C  
HETATM    8  C   UNL     1      -8.913   5.459  68.464  1.00  0.00    -0.114 A  
HETATM    9  C   UNL     1      -9.653   4.367  68.933  1.00  0.00    -0.233 A  
HETATM   10  C   UNL     1      -9.536   3.125  68.308  1.00  0.00    -0.215 A  
HETATM   11  C   UNL     1      -8.683   2.971  67.215  1.00  0.00    -0.141 A  
HETATM   12  C   UNL     1      -7.941   4.056  66.747  1.00  0.00    -0.097 A  
HETATM   13  C   UNL     1      -8.049   5.306  67.369  1.00  0.00    -0.100 A  
HETATM   14  C   UNL     1      -7.273   6.505  66.886  1.00  0.00    -0.078 C  
HETATM   15  O   UNL     1      -8.088   7.449  66.192  1.00  0.00    -0.106 OA 
HETATM   16  C   UNL     1      -8.987   8.203  66.903  1.00  0.00    -0.140 A  
HETATM   17  C   UNL     1      -9.510   7.950  68.182  1.00  0.00    -0.154 A  
HETATM   18  C   UNL     1     -10.546   8.784  68.659  1.00  0.00    -0.174 A  
HETATM   19  C   UNL     1     -10.957   9.934  67.970  1.00  0.00    -0.269 A  
HETATM   20  C   UNL     1     -10.387  10.195  66.723  1.00  0.00    -0.285 A  
HETATM   21  C   UNL     1      -9.436   9.322  66.186  1.00  0.00    -0.298 A  
BRANCH  19  22
HETATM   22  C   UNL     1     -12.042  10.830  68.526  1.00  0.00     0.097 C  
HETATM   23  C   UNL     1     -11.659  12.220  68.999  1.00  0.00    -0.316 C  
HETATM   24  O   UNL     1     -12.456  12.943  69.594  1.00  0.00    -0.072 OA 
HETATM   25  O   UNL     1     -10.413  12.650  68.720  1.00  0.00    -0.216 OA 
ENDBRANCH  19  22
ENDBRANCH   5   6
ENDBRANCH   4   5
ENDBRANCH   2   4
TORSDOF 4
ENDMDL
MODEL      150
REMARK 921   NORMALIZED FREE ENERGY PREDICTED BY IDOCK:   -2.54 KCAL/MOL
REMARK 922        TOTAL FREE ENERGY PREDICTED BY IDOCK:   -3.68 KCAL/MOL
REMARK 923 INTER-LIGAND FREE ENERGY PREDICTED BY IDOCK:   -3.22 KCAL/MOL
REMARK 924 INTRA-LIGAND FREE ENERGY PREDICTED BY IDOCK:   -0.46 KCAL/MOL
REMARK 927      BINDING AFFINITY PREDICTED BY RF-SCORE:    0.00 PKD
ROOT
HETATM    1  C   UNL     1      -9.642   2.657  63.645  1.00  0.00    -0.113 C  
HETATM    2  N   UNL     1      -8.972   3.491  64.650  1.00  0.00    -0.122 NA 
HETATM    3  C   UNL     1      -7.682   2.890  64.997  1.00  0.00    -0.081 C  
ENDROOT
BRANCH   2   4
HETATM    4  C   UNL     1      -8.786   4.888  64.199  1.00  0.00    -0.124 C  
BRANCH   4   5
HETATM    5  C   UNL     1      -8.060   5.732  65.259  1.00  0.00    -0.130 C  
BRANCH   5   6
HETATM    6  C   UNL     1      -8.444   7.192  65.320  1.00  0.00    -0.060 C  
HETATM    7  C   UNL     1      -8.413   7.975  66.427  1.00  0.00    -0.138 C  
HETATM    8  C   UNL     1      -8.753   9.404  66.260  1.00  0.00    -0.157 A  
HETATM    9  C   UNL     1     -10.039   9.824  65.903  1.00  0.00    -0.314 A  
HETATM   10  C   UNL     1     -10.337  11.186  65.838  1.00  0.00    -0.314 A  
HETATM   11  C   UNL     1      -9.353  12.130  66.132  1.00  0.00    -0.198 A  
HETATM   12  C   UNL     1      -8.068  11.716  66.485  1.00  0.00    -0.075 A  
HETATM   13  C   UNL     1      -7.758  10.351  66.550  1.00  0.00    -0.121 A  
HETATM   14  C   UNL     1      -6.386   9.865  66.938  1.00  0.00    -0.065 C  
HETATM   15  O   UNL     1      -6.343   9.324  68.259  1.00  0.00    -0.053 OA 
HETATM   16  C   UNL     1      -6.942   8.113  68.502  1.00  0.00    -0.072 A  
HETATM   17  C   UNL     1      -7.923   7.462  67.736  1.00  0.00    -0.118 A  
HETATM   18  C   UNL     1      -8.512   6.288  68.259  1.00  0.00    -0.114 A  
HETATM   19  C   UNL     1      -8.046   5.678  69.432  1.00  0.00    -0.100 A  
HETATM   20  C   UNL     1      -7.035   6.316  70.151  1.00  0.00    -0.066 A  
HETATM   21  C   UNL     1      -6.513   7.533  69.705  1.00  0.00    -0.035 A  
BRANCH  19  22
HETATM   22  C   UNL     1      -8.672   4.400  69.946  1.00  0.00    -0.111 C  
HETATM   23  C   UNL     1      -9.714   4.498  71.044  1.00  0.00    -0.189 C  
HETATM   24  O   UNL     1     -10.154   3.498  71.609  1.00  0.00    -0.153 OA 
HETATM   25  O   UNL     1     -10.167   5.726  71.364  1.00  0.00    -0.201 OA 
ENDBRANCH  19  22
ENDBRANCH   5   6
ENDBRANCH   4   5
ENDBRANCH   2   4
TORSDOF 4
ENDMDL
MODEL      151
REMARK 921   NORMALIZED FREE ENERGY PREDICTED BY IDOCK:   -2.45 KCAL/MOL
REMARK 922        TOTAL FREE ENERGY PREDICTED BY IDOCK:   -3.58 KCAL/MOL
REMARK 923 INTER-LIGAND FREE ENERGY PREDICTED BY IDOCK:   -3.98 KCAL/MOL
REMARK 924 INTRA-LIGAND FREE ENERGY PREDICTED BY IDOCK:    0.40 KCAL/MOL
REMARK 927      BINDING AFFINITY PREDICTED BY RF-SCORE:    0.00 PKD
ROOT
HETATM    1  C   UNL     1      -7.657  15.334  67.015  1.00  0.00    -0.126 C  
HETATM    2  N   UNL     1      -6.888  14.350  67.787  1.00  0.00    -0.166 NA 
HETATM    3  C   UNL     1      -7.138  14.551  69.216  1.00  0.00    -0.140 C  
ENDROOT
BRANCH   2   4
HETATM    4  C   UNL     1      -7.198  12.956  67.399  1.00  0.00    -0.126 C  
BRANCH   4   5
HETATM    5  C   UNL     1      -7.204  12.020  68.619  1.00  0.00    -0.110 C  
BRANCH   5   6
HETATM    6  C   UNL     1      -6.880  10.570  68.343  1.00  0.00    -0.064 C  
HETATM    7  C   UNL     1      -7.466   9.790  67.401  1.00  0.00    -0.091 C  
HETATM    8  C   UNL     1      -6.948   8.415  67.235  1.00  0.00    -0.075 A  
HETATM    9  C   UNL     1      -7.085   7.446  68.236  1.00  0.00    -0.084 A  
HETATM   10  C   UNL     1      -6.656   6.138  68.005  1.00  0.00    -0.062 A  
HETATM   11  C   UNL     1      -6.093   5.796  66.775  1.00  0.00    -0.026 A  
HETATM   12  C   UNL     1      -5.952   6.759  65.776  1.00  0.00    -0.034 A  
HETATM   13  C   UNL     1      -6.376   8.076  66.000  1.00  0.00    -0.046 A  
HETATM   14  C   UNL     1      -6.250   9.142  64.942  1.00  0.00    -0.066 C  
HETATM   15  O   UNL     1      -7.502   9.477  64.342  1.00  0.00    -0.109 OA 
HETATM   16  C   UNL     1      -8.425  10.181  65.073  1.00  0.00    -0.163 A  
HETATM   17  C   UNL     1      -8.494  10.329  66.469  1.00  0.00    -0.126 A  
HETATM   18  C   UNL     1      -9.625  10.975  67.018  1.00  0.00    -0.199 A  
HETATM   19  C   UNL     1     -10.591  11.599  66.217  1.00  0.00    -0.301 A  
HETATM   20  C   UNL     1     -10.475  11.483  64.831  1.00  0.00    -0.345 A  
HETATM   21  C   UNL     1      -9.420  10.757  64.271  1.00  0.00    -0.307 A  
BRANCH  19  22
HETATM   22  C   UNL     1     -11.771  12.317  66.836  1.00  0.00    -0.404 C  
HETATM   23  C   UNL     1     -11.666  13.813  67.068  1.00  0.00    -0.390 C  
HETATM   24  O   UNL     1     -12.521  14.431  67.697  1.00  0.00    -0.130 OA 
HETATM   25  O   UNL     1     -10.607  14.451  66.533  1.00  0.00    -0.289 OA 
ENDBRANCH  19  22
ENDBRANCH   5   6
ENDBRANCH   4   5
ENDBRANCH   2   4
TORSDOF 4
ENDMDL
MODEL      152
REMARK 921   NORMALIZED FREE ENERGY PREDICTED BY IDOCK:   -2.45 KCAL/MOL
REMARK 922        TOTAL FREE ENERGY PREDICTED BY IDOCK:   -3.57 KCAL/MOL
REMARK 923 INTER-LIGAND FREE ENERGY PREDICTED BY IDOCK:   -3.28 KCAL/MOL
REMARK 924 INTRA-LIGAND FREE ENERGY PREDICTED BY IDOCK:   -0.29 KCAL/MOL
REMARK 927      BINDING AFFINITY PREDICTED BY RF-SCORE:    0.00 PKD
ROOT
HETATM    1  C   UNL     1      -8.142   7.264  65.560  1.00  0.00    -0.132 C  
HETATM    2  N   UNL     1      -8.088   8.481  66.378  1.00  0.00    -0.101 NA 
HETATM    3  C   UNL     1      -7.147   9.429  65.777  1.00  0.00    -0.091 C  
ENDROOT
BRANCH   2   4
HETATM    4  C   UNL     1      -9.416   9.111  66.548  1.00  0.00    -0.208 C  
BRANCH   4   5
HETATM    5  C   UNL     1     -10.003   8.823  67.939  1.00  0.00    -0.231 C  
BRANCH   5   6
HETATM    6  C   UNL     1      -9.983   7.378  68.380  1.00  0.00    -0.177 C  
HETATM    7  C   UNL     1      -9.188   6.854  69.344  1.00  0.00    -0.147 C  
HETATM    8  C   UNL     1      -9.378   5.427  69.684  1.00  0.00    -0.178 A  
HETATM    9  C   UNL     1      -9.086   4.403  68.776  1.00  0.00    -0.173 A  
HETATM   10  C   UNL     1      -9.202   3.068  69.167  1.00  0.00    -0.222 A  
HETATM   11  C   UNL     1      -9.606   2.754  70.465  1.00  0.00    -0.158 A  
HETATM   12  C   UNL     1      -9.901   3.772  71.373  1.00  0.00    -0.226 A  
HETATM   13  C   UNL     1      -9.792   5.115  70.988  1.00  0.00    -0.261 A  
HETATM   14  C   UNL     1     -10.090   6.242  71.944  1.00  0.00    -0.181 C  
HETATM   15  O   UNL     1      -8.913   6.902  72.407  1.00  0.00    -0.133 OA 
HETATM   16  C   UNL     1      -8.211   7.700  71.539  1.00  0.00    -0.103 A  
HETATM   17  C   UNL     1      -8.253   7.701  70.135  1.00  0.00    -0.124 A  
HETATM   18  C   UNL     1      -7.326   8.508  69.437  1.00  0.00    -0.069 A  
HETATM   19  C   UNL     1      -6.479   9.411  70.094  1.00  0.00    -0.058 A  
HETATM   20  C   UNL     1      -6.489   9.430  71.490  1.00  0.00     0.042 A  
HETATM   21  C   UNL     1      -7.324   8.563  72.200  1.00  0.00    -0.106 A  
BRANCH  19  22
HETATM   22  C   UNL     1      -5.524  10.290  69.317  1.00  0.00    -0.038 C  
HETATM   23  C   UNL     1      -6.101  11.386  68.441  1.00  0.00    -0.045 C  
HETATM   24  O   UNL     1      -5.397  12.038  67.672  1.00  0.00    -0.060 OA 
HETATM   25  O   UNL     1      -7.419  11.642  68.554  1.00  0.00    -0.099 OA 
ENDBRANCH  19  22
ENDBRANCH   5   6
ENDBRANCH   4   5
ENDBRANCH   2   4
TORSDOF 4
ENDMDL
MODEL      153
REMARK 921   NORMALIZED FREE ENERGY PREDICTED BY IDOCK:   -2.41 KCAL/MOL
REMARK 922        TOTAL FREE ENERGY PREDICTED BY IDOCK:   -3.53 KCAL/MOL
REMARK 923 INTER-LIGAND FREE ENERGY PREDICTED BY IDOCK:   -3.87 KCAL/MOL
REMARK 924 INTRA-LIGAND FREE ENERGY PREDICTED BY IDOCK:    0.35 KCAL/MOL
REMARK 927      BINDING AFFINITY PREDICTED BY RF-SCORE:    0.00 PKD
ROOT
HETATM    1  C   UNL     1      -6.464   9.900  70.907  1.00  0.00    -0.038 C  
HETATM    2  N   UNL     1      -5.979   9.048  69.815  1.00  0.00    -0.035 NA 
HETATM    3  C   UNL     1      -5.444   7.804  70.371  1.00  0.00    -0.023 C  
ENDROOT
BRANCH   2   4
HETATM    4  C   UNL     1      -7.029   8.757  68.813  1.00  0.00    -0.063 C  
BRANCH   4   5
HETATM    5  C   UNL     1      -8.212   9.729  68.936  1.00  0.00    -0.117 C  
BRANCH   5   6
HETATM    6  C   UNL     1      -7.897  11.190  68.707  1.00  0.00    -0.142 C  
HETATM    7  C   UNL     1      -7.938  11.832  67.514  1.00  0.00    -0.148 C  
HETATM    8  C   UNL     1      -7.671  13.286  67.513  1.00  0.00    -0.175 A  
HETATM    9  C   UNL     1      -6.415  13.810  67.842  1.00  0.00    -0.165 A  
HETATM   10  C   UNL     1      -6.184  15.183  67.748  1.00  0.00    -0.172 A  
HETATM   11  C   UNL     1      -7.204  16.035  67.323  1.00  0.00    -0.241 A  
HETATM   12  C   UNL     1      -8.459  15.518  66.998  1.00  0.00    -0.266 A  
HETATM   13  C   UNL     1      -8.701  14.141  67.093  1.00  0.00    -0.239 A  
HETATM   14  C   UNL     1     -10.039  13.543  66.739  1.00  0.00    -0.268 C  
HETATM   15  O   UNL     1     -10.023  12.847  65.493  1.00  0.00    -0.271 OA 
HETATM   16  C   UNL     1      -9.362  11.647  65.409  1.00  0.00    -0.127 A  
HETATM   17  C   UNL     1      -8.370  11.142  66.267  1.00  0.00    -0.163 A  
HETATM   18  C   UNL     1      -7.713   9.946  65.900  1.00  0.00    -0.110 A  
HETATM   19  C   UNL     1      -8.120   9.177  64.801  1.00  0.00    -0.140 A  
HETATM   20  C   UNL     1      -9.142   9.673  63.990  1.00  0.00    -0.246 A  
HETATM   21  C   UNL     1      -9.732  10.907  64.277  1.00  0.00    -0.347 A  
BRANCH  19  22
HETATM   22  C   UNL     1      -7.421   7.880  64.456  1.00  0.00    -0.099 C  
HETATM   23  C   UNL     1      -7.946   6.593  65.066  1.00  0.00    -0.124 C  
HETATM   24  O   UNL     1      -7.342   5.529  64.948  1.00  0.00    -0.064 OA 
HETATM   25  O   UNL     1      -9.120   6.651  65.725  1.00  0.00    -0.093 OA 
ENDBRANCH  19  22
ENDBRANCH   5   6
ENDBRANCH   4   5
ENDBRANCH   2   4
TORSDOF 4
ENDMDL
MODEL      154
REMARK 921   NORMALIZED FREE ENERGY PREDICTED BY IDOCK:   -2.40 KCAL/MOL
REMARK 922        TOTAL FREE ENERGY PREDICTED BY IDOCK:   -3.51 KCAL/MOL
REMARK 923 INTER-LIGAND FREE ENERGY PREDICTED BY IDOCK:   -3.34 KCAL/MOL
REMARK 924 INTRA-LIGAND FREE ENERGY PREDICTED BY IDOCK:   -0.17 KCAL/MOL
REMARK 927      BINDING AFFINITY PREDICTED BY RF-SCORE:    0.00 PKD
ROOT
HETATM    1  C   UNL     1      -9.121   2.975  64.195  1.00  0.00    -0.111 C  
HETATM    2  N   UNL     1      -9.268   3.684  65.471  1.00  0.00    -0.148 NA 
HETATM    3  C   UNL     1      -8.342   3.114  66.452  1.00  0.00    -0.100 C  
ENDROOT
BRANCH   2   4
HETATM    4  C   UNL     1      -9.049   5.141  65.341  1.00  0.00    -0.140 C  
BRANCH   4   5
HETATM    5  C   UNL     1      -9.005   5.830  66.715  1.00  0.00    -0.118 C  
BRANCH   5   6
HETATM    6  C   UNL     1      -9.417   7.284  66.740  1.00  0.00    -0.218 C  
HETATM    7  C   UNL     1      -9.031   8.202  67.660  1.00  0.00    -0.135 C  
HETATM    8  C   UNL     1      -9.481   9.597  67.462  1.00  0.00    -0.157 A  
HETATM    9  C   UNL     1     -10.830   9.960  67.549  1.00  0.00    -0.307 A  
HETATM   10  C   UNL     1     -11.201  11.301  67.438  1.00  0.00    -0.370 A  
HETATM   11  C   UNL     1     -10.227  12.280  67.242  1.00  0.00    -0.222 A  
HETATM   12  C   UNL     1      -8.881  11.923  67.151  1.00  0.00    -0.180 A  
HETATM   13  C   UNL     1      -8.500  10.579  67.258  1.00  0.00    -0.122 A  
HETATM   14  C   UNL     1      -7.055  10.154  67.176  1.00  0.00    -0.089 C  
HETATM   15  O   UNL     1      -6.514   9.786  68.445  1.00  0.00    -0.054 OA 
HETATM   16  C   UNL     1      -6.922   8.613  69.028  1.00  0.00    -0.064 A  
HETATM   17  C   UNL     1      -8.077   7.864  68.752  1.00  0.00    -0.126 A  
HETATM   18  C   UNL     1      -8.377   6.763  69.587  1.00  0.00    -0.132 A  
HETATM   19  C   UNL     1      -7.491   6.310  70.574  1.00  0.00    -0.091 A  
HETATM   20  C   UNL     1      -6.323   7.041  70.797  1.00  0.00    -0.043 A  
HETATM   21  C   UNL     1      -6.060   8.194  70.053  1.00  0.00    -0.029 A  
BRANCH  19  22
HETATM   22  C   UNL     1      -7.823   5.105  71.426  1.00  0.00    -0.107 C  
HETATM   23  C   UNL     1      -7.855   5.274  72.933  1.00  0.00    -0.098 C  
HETATM   24  O   UNL     1      -7.972   4.311  73.689  1.00  0.00    -0.087 OA 
HETATM   25  O   UNL     1      -7.778   6.528  73.420  1.00  0.00    -0.093 OA 
ENDBRANCH  19  22
ENDBRANCH   5   6
ENDBRANCH   4   5
ENDBRANCH   2   4
TORSDOF 4
ENDMDL
MODEL      155
REMARK 921   NORMALIZED FREE ENERGY PREDICTED BY IDOCK:   -2.31 KCAL/MOL
REMARK 922        TOTAL FREE ENERGY PREDICTED BY IDOCK:   -3.41 KCAL/MOL
REMARK 923 INTER-LIGAND FREE ENERGY PREDICTED BY IDOCK:   -3.70 KCAL/MOL
REMARK 924 INTRA-LIGAND FREE ENERGY PREDICTED BY IDOCK:    0.29 KCAL/MOL
REMARK 927      BINDING AFFINITY PREDICTED BY RF-SCORE:    0.00 PKD
ROOT
HETATM    1  C   UNL     1     -13.775   8.442  72.739  1.00  0.00     0.063 C  
HETATM    2  N   UNL     1     -13.266   8.188  71.386  1.00  0.00    -0.263 NA 
HETATM    3  C   UNL     1     -12.379   9.283  70.987  1.00  0.00    -0.233 C  
ENDROOT
BRANCH   2   4
HETATM    4  C   UNL     1     -12.565   6.889  71.276  1.00  0.00    -0.345 C  
BRANCH   4   5
HETATM    5  C   UNL     1     -11.596   6.871  70.083  1.00  0.00    -0.340 C  
BRANCH   5   6
HETATM    6  C   UNL     1     -10.878   5.564  69.833  1.00  0.00    -0.298 C  
HETATM    7  C   UNL     1      -9.542   5.414  69.659  1.00  0.00    -0.217 C  
HETATM    8  C   UNL     1      -9.025   4.037  69.506  1.00  0.00    -0.163 A  
HETATM    9  C   UNL     1      -9.339   3.246  68.395  1.00  0.00    -0.241 A  
HETATM   10  C   UNL     1      -8.763   1.983  68.251  1.00  0.00    -0.120 A  
HETATM   11  C   UNL     1      -7.871   1.510  69.213  1.00  0.00    -0.047 A  
HETATM   12  C   UNL     1      -7.557   2.293  70.325  1.00  0.00    -0.043 A  
HETATM   13  C   UNL     1      -8.134   3.561  70.480  1.00  0.00    -0.063 A  
HETATM   14  C   UNL     1      -7.812   4.441  71.660  1.00  0.00    -0.080 C  
HETATM   15  O   UNL     1      -6.957   5.532  71.320  1.00  0.00    -0.061 OA 
HETATM   16  C   UNL     1      -7.460   6.565  70.570  1.00  0.00    -0.090 A  
HETATM   17  C   UNL     1      -8.605   6.567  69.756  1.00  0.00    -0.136 A  
HETATM   18  C   UNL     1      -8.851   7.701  68.948  1.00  0.00    -0.135 A  
HETATM   19  C   UNL     1      -8.083   8.869  69.046  1.00  0.00    -0.115 A  
HETATM   20  C   UNL     1      -6.978   8.862  69.900  1.00  0.00    -0.050 A  
HETATM   21  C   UNL     1      -6.657   7.714  70.627  1.00  0.00    -0.038 A  
BRANCH  19  22
HETATM   22  C   UNL     1      -8.395  10.080  68.196  1.00  0.00    -0.113 C  
HETATM   23  C   UNL     1      -9.733  10.771  68.385  1.00  0.00    -0.174 C  
HETATM   24  O   UNL     1     -10.111  11.665  67.631  1.00  0.00    -0.184 OA 
HETATM   25  O   UNL     1     -10.488  10.386  69.433  1.00  0.00    -0.211 OA 
ENDBRANCH  19  22
ENDBRANCH   5   6
ENDBRANCH   4   5
ENDBRANCH   2   4
TORSDOF 4
ENDMDL
MODEL      156
REMARK 921   NORMALIZED FREE ENERGY PREDICTED BY IDOCK:   -2.29 KCAL/MOL
REMARK 922        TOTAL FREE ENERGY PREDICTED BY IDOCK:   -3.38 KCAL/MOL
REMARK 923 INTER-LIGAND FREE ENERGY PREDICTED BY IDOCK:   -4.04 KCAL/MOL
REMARK 924 INTRA-LIGAND FREE ENERGY PREDICTED BY IDOCK:    0.65 KCAL/MOL
REMARK 927      BINDING AFFINITY PREDICTED BY RF-SCORE:    0.00 PKD
ROOT
HETATM    1  C   UNL     1     -10.641  10.738  65.931  1.00  0.00    -0.147 C  
HETATM    2  N   UNL     1      -9.679  11.170  66.952  1.00  0.00    -0.189 NA 
HETATM    3  C   UNL     1      -9.422  12.604  66.802  1.00  0.00    -0.237 C  
ENDROOT
BRANCH   2   4
HETATM    4  C   UNL     1     -10.136  10.868  68.327  1.00  0.00    -0.174 C  
BRANCH   4   5
HETATM    5  C   UNL     1     -10.147   9.355  68.599  1.00  0.00    -0.208 C  
BRANCH   5   6
HETATM    6  C   UNL     1      -9.230   8.520  67.735  1.00  0.00    -0.146 C  
HETATM    7  C   UNL     1      -8.810   7.261  68.010  1.00  0.00    -0.129 C  
HETATM    8  C   UNL     1      -7.976   6.584  66.994  1.00  0.00    -0.112 A  
HETATM    9  C   UNL     1      -6.688   7.028  66.676  1.00  0.00    -0.053 A  
HETATM   10  C   UNL     1      -5.904   6.310  65.772  1.00  0.00    -0.025 A  
HETATM   11  C   UNL     1      -6.404   5.147  65.186  1.00  0.00    -0.035 A  
HETATM   12  C   UNL     1      -7.689   4.701  65.497  1.00  0.00    -0.090 A  
HETATM   13  C   UNL     1      -8.485   5.418  66.401  1.00  0.00    -0.114 A  
HETATM   14  C   UNL     1      -9.873   4.963  66.771  1.00  0.00    -0.200 C  
HETATM   15  O   UNL     1      -9.941   4.402  68.082  1.00  0.00    -0.102 OA 
HETATM   16  C   UNL     1      -9.824   5.231  69.169  1.00  0.00    -0.187 A  
HETATM   17  C   UNL     1      -9.279   6.525  69.216  1.00  0.00    -0.139 A  
HETATM   18  C   UNL     1      -9.118   7.138  70.480  1.00  0.00    -0.155 A  
HETATM   19  C   UNL     1      -9.619   6.566  71.657  1.00  0.00    -0.167 A  
HETATM   20  C   UNL     1     -10.203   5.300  71.579  1.00  0.00    -0.276 A  
HETATM   21  C   UNL     1     -10.275   4.632  70.354  1.00  0.00    -0.208 A  
BRANCH  19  22
HETATM   22  C   UNL     1      -9.466   7.265  72.990  1.00  0.00    -0.212 C  
HETATM   23  C   UNL     1      -8.416   8.353  73.118  1.00  0.00    -0.131 C  
HETATM   24  O   UNL     1      -8.137   8.858  74.204  1.00  0.00    -0.300 OA 
HETATM   25  O   UNL     1      -7.813   8.771  71.988  1.00  0.00    -0.302 OA 
ENDBRANCH  19  22
ENDBRANCH   5   6
ENDBRANCH   4   5
ENDBRANCH   2   4
TORSDOF 4
ENDMDL
MODEL      157
REMARK 921   NORMALIZED FREE ENERGY PREDICTED BY IDOCK:   -2.26 KCAL/MOL
REMARK 922        TOTAL FREE ENERGY PREDICTED BY IDOCK:   -3.35 KCAL/MOL
REMARK 923 INTER-LIGAND FREE ENERGY PREDICTED BY IDOCK:   -2.69 KCAL/MOL
REMARK 924 INTRA-LIGAND FREE ENERGY PREDICTED BY IDOCK:   -0.65 KCAL/MOL
REMARK 927      BINDING AFFINITY PREDICTED BY RF-SCORE:    0.00 PKD
ROOT
HETATM    1  C   UNL     1      -9.923   7.196  68.410  1.00  0.00    -0.158 C  
HETATM    2  N   UNL     1      -8.951   7.901  69.254  1.00  0.00    -0.145 NA 
HETATM    3  C   UNL     1      -9.548   8.163  70.566  1.00  0.00    -0.170 C  
ENDROOT
BRANCH   2   4
HETATM    4  C   UNL     1      -7.682   7.155  69.404  1.00  0.00    -0.107 C  
BRANCH   4   5
HETATM    5  C   UNL     1      -6.494   7.941  68.824  1.00  0.00    -0.048 C  
BRANCH   5   6
HETATM    6  C   UNL     1      -6.591   9.447  68.909  1.00  0.00    -0.047 C  
HETATM    7  C   UNL     1      -7.041  10.270  67.930  1.00  0.00    -0.084 C  
HETATM    8  C   UNL     1      -7.133  11.712  68.241  1.00  0.00    -0.078 A  
HETATM    9  C   UNL     1      -5.995  12.492  68.483  1.00  0.00    -0.056 A  
HETATM   10  C   UNL     1      -6.122  13.866  68.690  1.00  0.00    -0.088 A  
HETATM   11  C   UNL     1      -7.382  14.464  68.654  1.00  0.00    -0.123 A  
HETATM   12  C   UNL     1      -8.519  13.690  68.417  1.00  0.00    -0.147 A  
HETATM   13  C   UNL     1      -8.402  12.309  68.212  1.00  0.00    -0.174 A  
HETATM   14  C   UNL     1      -9.605  11.442  67.942  1.00  0.00    -0.177 C  
HETATM   15  O   UNL     1      -9.696  11.031  66.578  1.00  0.00    -0.190 OA 
HETATM   16  C   UNL     1      -8.805  10.104  66.099  1.00  0.00    -0.145 A  
HETATM   17  C   UNL     1      -7.560   9.740  66.639  1.00  0.00    -0.098 A  
HETATM   18  C   UNL     1      -6.735   8.869  65.892  1.00  0.00    -0.068 A  
HETATM   19  C   UNL     1      -7.178   8.244  64.718  1.00  0.00    -0.082 A  
HETATM   20  C   UNL     1      -8.440   8.582  64.227  1.00  0.00    -0.068 A  
HETATM   21  C   UNL     1      -9.228   9.522  64.895  1.00  0.00    -0.284 A  
BRANCH  19  22
HETATM   22  C   UNL     1      -6.285   7.285  63.961  1.00  0.00    -0.044 C  
HETATM   23  C   UNL     1      -6.366   5.807  64.294  1.00  0.00    -0.029 C  
HETATM   24  O   UNL     1      -5.571   4.994  63.827  1.00  0.00    -0.016 OA 
HETATM   25  O   UNL     1      -7.364   5.407  65.106  1.00  0.00    -0.066 OA 
ENDBRANCH  19  22
ENDBRANCH   5   6
ENDBRANCH   4   5
ENDBRANCH   2   4
TORSDOF 4
ENDMDL
MODEL      158
REMARK 921   NORMALIZED FREE ENERGY PREDICTED BY IDOCK:   -2.20 KCAL/MOL
REMARK 922        TOTAL FREE ENERGY PREDICTED BY IDOCK:   -3.26 KCAL/MOL
REMARK 923 INTER-LIGAND FREE ENERGY PREDICTED BY IDOCK:   -3.04 KCAL/MOL
REMARK 924 INTRA-LIGAND FREE ENERGY PREDICTED BY IDOCK:   -0.23 KCAL/MOL
REMARK 927      BINDING AFFINITY PREDICTED BY RF-SCORE:    0.00 PKD
ROOT
HETATM    1  C   UNL     1      -7.786   7.304  70.086  1.00  0.00    -0.091 C  
HETATM    2  N   UNL     1      -6.785   8.017  69.283  1.00  0.00    -0.039 NA 
HETATM    3  C   UNL     1      -5.751   7.075  68.849  1.00  0.00    -0.018 C  
ENDROOT
BRANCH   2   4
HETATM    4  C   UNL     1      -7.379   8.706  68.116  1.00  0.00    -0.091 C  
BRANCH   4   5
HETATM    5  C   UNL     1      -8.640   7.983  67.615  1.00  0.00    -0.130 C  
BRANCH   5   6
HETATM    6  C   UNL     1      -8.429   6.967  66.517  1.00  0.00    -0.125 C  
HETATM    7  C   UNL     1      -8.487   7.214  65.185  1.00  0.00    -0.023 C  
HETATM    8  C   UNL     1      -8.170   6.096  64.270  1.00  0.00    -0.044 A  
HETATM    9  C   UNL     1      -8.985   4.962  64.176  1.00  0.00    -0.048 A  
HETATM   10  C   UNL     1      -8.694   3.969  63.239  1.00  0.00    -0.106 A  
HETATM   11  C   UNL     1      -7.592   4.108  62.395  1.00  0.00    -0.049 A  
HETATM   12  C   UNL     1      -6.775   5.235  62.487  1.00  0.00    -0.026 A  
HETATM   13  C   UNL     1      -7.057   6.236  63.427  1.00  0.00    -0.053 A  
HETATM   14  C   UNL     1      -6.205   7.473  63.550  1.00  0.00    -0.054 C  
HETATM   15  O   UNL     1      -6.837   8.636  63.014  1.00  0.00    -0.090 OA 
HETATM   16  C   UNL     1      -7.898   9.188  63.686  1.00  0.00    -0.136 A  
HETATM   17  C   UNL     1      -8.720   8.584  64.652  1.00  0.00    -0.023 A  
HETATM   18  C   UNL     1      -9.857   9.294  65.102  1.00  0.00     0.152 A  
HETATM   19  C   UNL     1     -10.101  10.624  64.733  1.00  0.00    -0.412 A  
HETATM   20  C   UNL     1      -9.242  11.221  63.810  1.00  0.00    -0.091 A  
HETATM   21  C   UNL     1      -8.173  10.499  63.273  1.00  0.00    -0.111 A  
BRANCH  19  22
HETATM   22  C   UNL     1     -11.306  11.371  65.263  1.00  0.00    -0.069 C  
HETATM   23  C   UNL     1     -12.279  11.971  64.265  1.00  0.00    -0.308 C  
HETATM   24  O   UNL     1     -13.194  12.711  64.619  1.00  0.00    -0.828 OA 
HETATM   25  O   UNL     1     -12.122  11.640  62.968  1.00  0.00    -0.220 OA 
ENDBRANCH  19  22
ENDBRANCH   5   6
ENDBRANCH   4   5
ENDBRANCH   2   4
TORSDOF 4
ENDMDL
MODEL      159
REMARK 921   NORMALIZED FREE ENERGY PREDICTED BY IDOCK:   -1.92 KCAL/MOL
REMARK 922        TOTAL FREE ENERGY PREDICTED BY IDOCK:   -2.92 KCAL/MOL
REMARK 923 INTER-LIGAND FREE ENERGY PREDICTED BY IDOCK:   -2.97 KCAL/MOL
REMARK 924 INTRA-LIGAND FREE ENERGY PREDICTED BY IDOCK:    0.05 KCAL/MOL
REMARK 927      BINDING AFFINITY PREDICTED BY RF-SCORE:    0.00 PKD
ROOT
HETATM    1  C   UNL     1     -10.633  11.248  63.109  1.00  0.00    -0.161 C  
HETATM    2  N   UNL     1     -11.046  11.977  64.315  1.00  0.00    -0.328 NA 
HETATM    3  C   UNL     1     -12.466  11.726  64.571  1.00  0.00     0.134 C  
ENDROOT
BRANCH   2   4
HETATM    4  C   UNL     1     -10.236  11.619  65.501  1.00  0.00    -0.260 C  
BRANCH   4   5
HETATM    5  C   UNL     1     -10.600  10.222  66.031  1.00  0.00    -0.111 C  
BRANCH   5   6
HETATM    6  C   UNL     1      -9.810   9.069  65.457  1.00  0.00     0.039 C  
HETATM    7  C   UNL     1      -8.642   8.585  65.947  1.00  0.00    -0.183 C  
HETATM    8  C   UNL     1      -8.066   7.395  65.285  1.00  0.00    -0.131 A  
HETATM    9  C   UNL     1      -7.589   7.436  63.969  1.00  0.00    -0.110 A  
HETATM   10  C   UNL     1      -6.978   6.312  63.413  1.00  0.00    -0.046 A  
HETATM   11  C   UNL     1      -6.839   5.147  64.168  1.00  0.00    -0.047 A  
HETATM   12  C   UNL     1      -7.316   5.100  65.479  1.00  0.00    -0.073 A  
HETATM   13  C   UNL     1      -7.934   6.223  66.045  1.00  0.00    -0.114 A  
HETATM   14  C   UNL     1      -8.452   6.215  67.461  1.00  0.00    -0.108 C  
HETATM   15  O   UNL     1      -7.629   6.963  68.355  1.00  0.00    -0.105 OA 
HETATM   16  C   UNL     1      -7.622   8.333  68.267  1.00  0.00    -0.101 A  
HETATM   17  C   UNL     1      -8.025   9.134  67.186  1.00  0.00    -0.106 A  
HETATM   18  C   UNL     1      -7.786  10.525  67.257  1.00  0.00    -0.106 A  
HETATM   19  C   UNL     1      -7.304  11.142  68.420  1.00  0.00    -0.094 A  
HETATM   20  C   UNL     1      -6.956  10.331  69.501  1.00  0.00    -0.096 A  
HETATM   21  C   UNL     1      -7.087   8.943  69.411  1.00  0.00    -0.057 A  
BRANCH  19  22
HETATM   22  C   UNL     1      -7.094  12.639  68.478  1.00  0.00    -0.101 C  
HETATM   23  C   UNL     1      -5.944  13.238  67.690  1.00  0.00    -0.120 C  
HETATM   24  O   UNL     1      -5.626  14.420  67.807  1.00  0.00    -0.253 OA 
HETATM   25  O   UNL     1      -5.293  12.431  66.829  1.00  0.00    -0.339 OA 
ENDBRANCH  19  22
ENDBRANCH   5   6
ENDBRANCH   4   5
ENDBRANCH   2   4
TORSDOF 4
ENDMDL
MODEL      160
REMARK 921   NORMALIZED FREE ENERGY PREDICTED BY IDOCK:   -1.84 KCAL/MOL
REMARK 922        TOTAL FREE ENERGY PREDICTED BY IDOCK:   -2.82 KCAL/MOL
REMARK 923 INTER-LIGAND FREE ENERGY PREDICTED BY IDOCK:   -3.70 KCAL/MOL
REMARK 924 INTRA-LIGAND FREE ENERGY PREDICTED BY IDOCK:    0.88 KCAL/MOL
REMARK 927      BINDING AFFINITY PREDICTED BY RF-SCORE:    0.00 PKD
ROOT
HETATM    1  C   UNL     1     -10.813  11.409  65.814  1.00  0.00    -0.230 C  
HETATM    2  N   UNL     1     -10.239  12.737  66.059  1.00  0.00    -0.273 NA 
HETATM    3  C   UNL     1     -11.305  13.741  66.025  1.00  0.00    -0.314 C  
ENDROOT
BRANCH   2   4
HETATM    4  C   UNL     1      -9.502  12.810  67.341  1.00  0.00    -0.190 C  
BRANCH   4   5
HETATM    5  C   UNL     1     -10.199  11.991  68.439  1.00  0.00    -0.211 C  
BRANCH   5   6
HETATM    6  C   UNL     1     -10.216  10.493  68.239  1.00  0.00    -0.185 C  
HETATM    7  C   UNL     1      -9.239   9.632  68.613  1.00  0.00    -0.136 C  
HETATM    8  C   UNL     1      -9.483   8.189  68.399  1.00  0.00    -0.146 A  
HETATM    9  C   UNL     1      -9.588   7.637  67.117  1.00  0.00    -0.211 A  
HETATM   10  C   UNL     1      -9.736   6.258  66.960  1.00  0.00    -0.173 A  
HETATM   11  C   UNL     1      -9.776   5.429  68.081  1.00  0.00    -0.174 A  
HETATM   12  C   UNL     1      -9.675   5.975  69.361  1.00  0.00    -0.176 A  
HETATM   13  C   UNL     1      -9.531   7.358  69.529  1.00  0.00    -0.155 A  
HETATM   14  C   UNL     1      -9.407   7.984  70.895  1.00  0.00    -0.153 C  
HETATM   15  O   UNL     1      -8.078   8.415  71.188  1.00  0.00    -0.102 OA 
HETATM   16  C   UNL     1      -7.574   9.513  70.538  1.00  0.00    -0.149 A  
HETATM   17  C   UNL     1      -8.024  10.093  69.340  1.00  0.00    -0.155 A  
HETATM   18  C   UNL     1      -7.255  11.132  68.769  1.00  0.00    -0.098 A  
HETATM   19  C   UNL     1      -6.156  11.698  69.429  1.00  0.00    -0.088 A  
HETATM   20  C   UNL     1      -5.756  11.138  70.644  1.00  0.00    -0.125 A  
HETATM   21  C   UNL     1      -6.440  10.041  71.173  1.00  0.00     0.144 A  
BRANCH  19  22
HETATM   22  C   UNL     1      -5.376  12.836  68.809  1.00  0.00    -0.063 C  
HETATM   23  C   UNL     1      -6.047  14.192  68.692  1.00  0.00    -0.088 C  
HETATM   24  O   UNL     1      -5.530  15.118  68.069  1.00  0.00    -0.122 OA 
HETATM   25  O   UNL     1      -7.227  14.358  69.320  1.00  0.00    -0.128 OA 
ENDBRANCH  19  22
ENDBRANCH   5   6
ENDBRANCH   4   5
ENDBRANCH   2   4
TORSDOF 4
ENDMDL
MODEL      161
REMARK 921   NORMALIZED FREE ENERGY PREDICTED BY IDOCK:   -1.56 KCAL/MOL
REMARK 922        TOTAL FREE ENERGY PREDICTED BY IDOCK:   -2.47 KCAL/MOL
REMARK 923 INTER-LIGAND FREE ENERGY PREDICTED BY IDOCK:   -2.70 KCAL/MOL
REMARK 924 INTRA-LIGAND FREE ENERGY PREDICTED BY IDOCK:    0.23 KCAL/MOL
REMARK 927      BINDING AFFINITY PREDICTED BY RF-SCORE:    0.00 PKD
ROOT
HETATM    1  C   UNL     1     -10.414   8.664  69.119  1.00  0.00    -0.211 C  
HETATM    2  N   UNL     1     -10.634   7.450  69.913  1.00  0.00    -0.232 NA 
HETATM    3  C   UNL     1     -11.375   6.473  69.113  1.00  0.00    -0.261 C  
ENDROOT
BRANCH   2   4
HETATM    4  C   UNL     1      -9.371   6.859  70.409  1.00  0.00    -0.159 C  
BRANCH   4   5
HETATM    5  C   UNL     1      -8.150   7.439  69.676  1.00  0.00    -0.128 C  
BRANCH   5   6
HETATM    6  C   UNL     1      -8.056   7.132  68.200  1.00  0.00    -0.124 C  
HETATM    7  C   UNL     1      -7.876   5.904  67.655  1.00  0.00    -0.098 C  
HETATM    8  C   UNL     1      -7.891   5.804  66.179  1.00  0.00    -0.101 A  
HETATM    9  C   UNL     1      -6.896   6.388  65.387  1.00  0.00    -0.048 A  
HETATM   10  C   UNL     1      -6.904   6.199  64.004  1.00  0.00    -0.038 A  
HETATM   11  C   UNL     1      -7.901   5.424  63.411  1.00  0.00    -0.093 A  
HETATM   12  C   UNL     1      -8.897   4.842  64.197  1.00  0.00    -0.122 A  
HETATM   13  C   UNL     1      -8.900   5.030  65.586  1.00  0.00    -0.143 A  
HETATM   14  C   UNL     1      -9.951   4.408  66.470  1.00  0.00    -0.223 C  
HETATM   15  O   UNL     1      -9.457   3.301  67.223  1.00  0.00    -0.203 OA 
HETATM   16  C   UNL     1      -8.590   3.535  68.262  1.00  0.00    -0.093 A  
HETATM   17  C   UNL     1      -7.806   4.677  68.495  1.00  0.00    -0.080 A  
HETATM   18  C   UNL     1      -6.864   4.639  69.549  1.00  0.00    -0.049 A  
HETATM   19  C   UNL     1      -6.797   3.569  70.452  1.00  0.00    -0.033 A  
HETATM   20  C   UNL     1      -7.622   2.465  70.230  1.00  0.00    -0.043 A  
HETATM   21  C   UNL     1      -8.485   2.440  69.131  1.00  0.00    -0.097 A  
BRANCH  19  22
HETATM   22  C   UNL     1      -5.805   3.574  71.594  1.00  0.00    -0.013 C  
HETATM   23  C   UNL     1      -6.185   4.287  72.878  1.00  0.00    -0.017 C  
HETATM   24  O   UNL     1      -5.376   4.457  73.787  1.00  0.00    -0.007 OA 
HETATM   25  O   UNL     1      -7.459   4.708  73.001  1.00  0.00    -0.082 OA 
ENDBRANCH  19  22
ENDBRANCH   5   6
ENDBRANCH   4   5
ENDBRANCH   2   4
TORSDOF 4
ENDMDL
MODEL      162
REMARK 921   NORMALIZED FREE ENERGY PREDICTED BY IDOCK:   -1.45 KCAL/MOL
REMARK 922        TOTAL FREE ENERGY PREDICTED BY IDOCK:   -2.34 KCAL/MOL
REMARK 923 INTER-LIGAND FREE ENERGY PREDICTED BY IDOCK:   -2.33 KCAL/MOL
REMARK 924 INTRA-LIGAND FREE ENERGY PREDICTED BY IDOCK:   -0.01 KCAL/MOL
REMARK 927      BINDING AFFINITY PREDICTED BY RF-SCORE:    0.00 PKD
ROOT
HETATM    1  C   UNL     1     -11.008   9.170  68.421  1.00  0.00     0.051 C  
HETATM    2  N   UNL     1     -10.890   8.155  69.475  1.00  0.00    -0.175 NA 
HETATM    3  C   UNL     1     -11.070   6.825  68.891  1.00  0.00    -0.181 C  
ENDROOT
BRANCH   2   4
HETATM    4  C   UNL     1      -9.601   8.232  70.197  1.00  0.00    -0.167 C  
BRANCH   4   5
HETATM    5  C   UNL     1      -8.542   8.993  69.382  1.00  0.00    -0.137 C  
BRANCH   5   6
HETATM    6  C   UNL     1      -7.957   8.252  68.201  1.00  0.00    -0.123 C  
HETATM    7  C   UNL     1      -7.177   7.146  68.266  1.00  0.00    -0.091 C  
HETATM    8  C   UNL     1      -6.770   6.522  66.988  1.00  0.00    -0.060 A  
HETATM    9  C   UNL     1      -5.916   7.168  66.087  1.00  0.00    -0.036 A  
HETATM   10  C   UNL     1      -5.492   6.510  64.932  1.00  0.00    -0.022 A  
HETATM   11  C   UNL     1      -5.917   5.206  64.677  1.00  0.00    -0.022 A  
HETATM   12  C   UNL     1      -6.771   4.559  65.571  1.00  0.00    -0.052 A  
HETATM   13  C   UNL     1      -7.205   5.213  66.731  1.00  0.00    -0.077 A  
HETATM   14  C   UNL     1      -8.119   4.544  67.726  1.00  0.00    -0.099 C  
HETATM   15  O   UNL     1      -7.444   4.152  68.921  1.00  0.00    -0.055 OA 
HETATM   16  C   UNL     1      -7.038   5.120  69.805  1.00  0.00    -0.058 A  
HETATM   17  C   UNL     1      -6.852   6.492  69.564  1.00  0.00    -0.065 A  
HETATM   18  C   UNL     1      -6.277   7.280  70.586  1.00  0.00    -0.035 A  
HETATM   19  C   UNL     1      -6.032   6.775  71.871  1.00  0.00    -0.038 A  
HETATM   20  C   UNL     1      -6.272   5.419  72.103  1.00  0.00    -0.035 A  
HETATM   21  C   UNL     1      -6.740   4.600  71.073  1.00  0.00    -0.031 A  
BRANCH  19  22
HETATM   22  C   UNL     1      -5.452   7.654  72.957  1.00  0.00    -0.044 C  
HETATM   23  C   UNL     1      -6.355   8.683  73.612  1.00  0.00    -0.070 C  
HETATM   24  O   UNL     1      -5.916   9.525  74.392  1.00  0.00    -0.331 OA 
HETATM   25  O   UNL     1      -7.671   8.625  73.328  1.00  0.00    -0.377 OA 
ENDBRANCH  19  22
ENDBRANCH   5   6
ENDBRANCH   4   5
ENDBRANCH   2   4
TORSDOF 4
ENDMDL
MODEL      163
REMARK 921   NORMALIZED FREE ENERGY PREDICTED BY IDOCK:   -1.38 KCAL/MOL
REMARK 922        TOTAL FREE ENERGY PREDICTED BY IDOCK:   -2.26 KCAL/MOL
REMARK 923 INTER-LIGAND FREE ENERGY PREDICTED BY IDOCK:   -2.96 KCAL/MOL
REMARK 924 INTRA-LIGAND FREE ENERGY PREDICTED BY IDOCK:    0.70 KCAL/MOL
REMARK 927      BINDING AFFINITY PREDICTED BY RF-SCORE:    0.00 PKD
ROOT
HETATM    1  C   UNL     1      -5.790   8.818  65.951  1.00  0.00    -0.051 C  
HETATM    2  N   UNL     1      -6.580   9.459  64.894  1.00  0.00    -0.079 NA 
HETATM    3  C   UNL     1      -6.555   8.622  63.693  1.00  0.00    -0.088 C  
ENDROOT
BRANCH   2   4
HETATM    4  C   UNL     1      -7.975   9.726  65.309  1.00  0.00    -0.123 C  
BRANCH   4   5
HETATM    5  C   UNL     1      -8.883   8.513  65.048  1.00  0.00    -0.074 C  
BRANCH   5   6
HETATM    6  C   UNL     1      -8.423   7.201  65.642  1.00  0.00    -0.141 C  
HETATM    7  C   UNL     1      -8.576   6.817  66.933  1.00  0.00    -0.116 C  
HETATM    8  C   UNL     1      -8.126   5.457  67.297  1.00  0.00    -0.101 A  
HETATM    9  C   UNL     1      -6.776   5.088  67.266  1.00  0.00    -0.055 A  
HETATM   10  C   UNL     1      -6.388   3.819  67.697  1.00  0.00    -0.037 A  
HETATM   11  C   UNL     1      -7.345   2.918  68.164  1.00  0.00    -0.049 A  
HETATM   12  C   UNL     1      -8.693   3.279  68.194  1.00  0.00    -0.135 A  
HETATM   13  C   UNL     1      -9.093   4.550  67.759  1.00  0.00    -0.142 A  
HETATM   14  C   UNL     1     -10.537   4.981  67.787  1.00  0.00     0.106 C  
HETATM   15  O   UNL     1     -10.817   5.910  68.834  1.00  0.00    -0.296 OA 
HETATM   16  C   UNL     1     -10.340   7.193  68.732  1.00  0.00    -0.192 A  
HETATM   17  C   UNL     1      -9.294   7.667  67.922  1.00  0.00    -0.146 A  
HETATM   18  C   UNL     1      -8.868   9.003  68.093  1.00  0.00    -0.133 A  
HETATM   19  C   UNL     1      -9.547   9.904  68.926  1.00  0.00    -0.172 A  
HETATM   20  C   UNL     1     -10.615   9.423  69.685  1.00  0.00    -0.239 A  
HETATM   21  C   UNL     1     -10.985   8.078  69.608  1.00  0.00    -0.106 A  
BRANCH  19  22
HETATM   22  C   UNL     1      -9.089  11.339  69.058  1.00  0.00     0.015 C  
HETATM   23  C   UNL     1      -9.513  12.334  67.994  1.00  0.00    -0.206 C  
HETATM   24  O   UNL     1      -9.060  13.476  67.958  1.00  0.00    -0.186 OA 
HETATM   25  O   UNL     1     -10.433  11.928  67.096  1.00  0.00    -0.214 OA 
ENDBRANCH  19  22
ENDBRANCH   5   6
ENDBRANCH   4   5
ENDBRANCH   2   4
TORSDOF 4
ENDMDL
MODEL      164
REMARK 921   NORMALIZED FREE ENERGY PREDICTED BY IDOCK:   -1.24 KCAL/MOL
REMARK 922        TOTAL FREE ENERGY PREDICTED BY IDOCK:   -2.08 KCAL/MOL
REMARK 923 INTER-LIGAND FREE ENERGY PREDICTED BY IDOCK:   -1.96 KCAL/MOL
REMARK 924 INTRA-LIGAND FREE ENERGY PREDICTED BY IDOCK:   -0.12 KCAL/MOL
REMARK 927      BINDING AFFINITY PREDICTED BY RF-SCORE:    0.00 PKD
ROOT
HETATM    1  C   UNL     1      -8.926   9.153  66.050  1.00  0.00    -0.181 C  
HETATM    2  N   UNL     1      -7.714   9.500  66.802  1.00  0.00    -0.098 NA 
HETATM    3  C   UNL     1      -7.337  10.884  66.505  1.00  0.00    -0.142 C  
ENDROOT
BRANCH   2   4
HETATM    4  C   UNL     1      -7.877   9.313  68.261  1.00  0.00    -0.098 C  
BRANCH   4   5
HETATM    5  C   UNL     1      -7.786   7.829  68.653  1.00  0.00    -0.120 C  
BRANCH   5   6
HETATM    6  C   UNL     1      -7.321   6.885  67.568  1.00  0.00    -0.096 C  
HETATM    7  C   UNL     1      -7.089   5.558  67.717  1.00  0.00    -0.071 C  
HETATM    8  C   UNL     1      -6.713   4.791  66.510  1.00  0.00    -0.054 A  
HETATM    9  C   UNL     1      -5.503   5.008  65.840  1.00  0.00    -0.013 A  
HETATM   10  C   UNL     1      -5.153   4.205  64.754  1.00  0.00    -0.009 A  
HETATM   11  C   UNL     1      -6.007   3.184  64.336  1.00  0.00    -0.018 A  
HETATM   12  C   UNL     1      -7.215   2.967  64.999  1.00  0.00    -0.066 A  
HETATM   13  C   UNL     1      -7.578   3.770  66.088  1.00  0.00    -0.088 A  
HETATM   14  C   UNL     1      -8.870   3.559  66.836  1.00  0.00    -0.134 C  
HETATM   15  O   UNL     1      -8.677   2.954  68.114  1.00  0.00    -0.087 OA 
HETATM   16  C   UNL     1      -8.107   3.692  69.121  1.00  0.00    -0.057 A  
HETATM   17  C   UNL     1      -7.335   4.860  69.009  1.00  0.00    -0.054 A  
HETATM   18  C   UNL     1      -6.716   5.369  70.174  1.00  0.00    -0.047 A  
HETATM   19  C   UNL     1      -6.971   4.839  71.447  1.00  0.00    -0.047 A  
HETATM   20  C   UNL     1      -7.783   3.707  71.540  1.00  0.00    -0.057 A  
HETATM   21  C   UNL     1      -8.317   3.126  70.387  1.00  0.00    -0.082 A  
BRANCH  19  22
HETATM   22  C   UNL     1      -6.324   5.429  72.680  1.00  0.00    -0.051 C  
HETATM   23  C   UNL     1      -7.126   6.407  73.518  1.00  0.00    -0.082 C  
HETATM   24  O   UNL     1      -6.617   7.035  74.445  1.00  0.00    -0.085 OA 
HETATM   25  O   UNL     1      -8.435   6.547  73.228  1.00  0.00    -0.120 OA 
ENDBRANCH  19  22
ENDBRANCH   5   6
ENDBRANCH   4   5
ENDBRANCH   2   4
TORSDOF 4
ENDMDL
MODEL      165
REMARK 921   NORMALIZED FREE ENERGY PREDICTED BY IDOCK:   -1.19 KCAL/MOL
REMARK 922        TOTAL FREE ENERGY PREDICTED BY IDOCK:   -2.02 KCAL/MOL
REMARK 923 INTER-LIGAND FREE ENERGY PREDICTED BY IDOCK:   -2.95 KCAL/MOL
REMARK 924 INTRA-LIGAND FREE ENERGY PREDICTED BY IDOCK:    0.93 KCAL/MOL
REMARK 927      BINDING AFFINITY PREDICTED BY RF-SCORE:    0.00 PKD
ROOT
HETATM    1  C   UNL     1      -6.405  10.461  69.736  1.00  0.00    -0.079 C  
HETATM    2  N   UNL     1      -6.774  10.802  68.357  1.00  0.00    -0.058 NA 
HETATM    3  C   UNL     1      -5.577  10.776  67.513  1.00  0.00    -0.044 C  
ENDROOT
BRANCH   2   4
HETATM    4  C   UNL     1      -7.813   9.903  67.807  1.00  0.00    -0.094 C  
BRANCH   4   5
HETATM    5  C   UNL     1      -9.219  10.315  68.270  1.00  0.00    -0.139 C  
BRANCH   5   6
HETATM    6  C   UNL     1      -9.777   9.555  69.451  1.00  0.00    -0.190 C  
HETATM    7  C   UNL     1      -9.600   8.234  69.700  1.00  0.00    -0.167 C  
HETATM    8  C   UNL     1     -10.164   7.696  70.956  1.00  0.00    -0.200 A  
HETATM    9  C   UNL     1     -11.544   7.634  71.183  1.00  0.00    -0.301 A  
HETATM   10  C   UNL     1     -12.034   7.042  72.348  1.00  0.00    -0.179 A  
HETATM   11  C   UNL     1     -11.149   6.508  73.285  1.00  0.00    -0.141 A  
HETATM   12  C   UNL     1      -9.773   6.570  73.064  1.00  0.00    -0.167 A  
HETATM   13  C   UNL     1      -9.271   7.166  71.900  1.00  0.00    -0.149 A  
HETATM   14  C   UNL     1      -7.792   7.241  71.620  1.00  0.00    -0.091 C  
HETATM   15  O   UNL     1      -7.371   6.322  70.612  1.00  0.00    -0.078 OA 
HETATM   16  C   UNL     1      -7.723   6.557  69.307  1.00  0.00    -0.101 A  
HETATM   17  C   UNL     1      -8.755   7.379  68.822  1.00  0.00    -0.128 A  
HETATM   18  C   UNL     1      -9.038   7.351  67.438  1.00  0.00    -0.129 A  
HETATM   19  C   UNL     1      -8.234   6.655  66.524  1.00  0.00    -0.114 A  
HETATM   20  C   UNL     1      -7.183   5.885  67.024  1.00  0.00    -0.075 A  
HETATM   21  C   UNL     1      -6.952   5.815  68.400  1.00  0.00    -0.068 A  
BRANCH  19  22
HETATM   22  C   UNL     1      -8.541   6.676  65.043  1.00  0.00     0.074 C  
HETATM   23  C   UNL     1      -7.693   7.555  64.142  1.00  0.00    -0.132 C  
HETATM   24  O   UNL     1      -7.977   7.734  62.960  1.00  0.00    -0.140 OA 
HETATM   25  O   UNL     1      -6.593   8.117  64.680  1.00  0.00    -0.062 OA 
ENDBRANCH  19  22
ENDBRANCH   5   6
ENDBRANCH   4   5
ENDBRANCH   2   4
TORSDOF 4
ENDMDL
MODEL      166
REMARK 921   NORMALIZED FREE ENERGY PREDICTED BY IDOCK:   -0.95 KCAL/MOL
REMARK 922        TOTAL FREE ENERGY PREDICTED BY IDOCK:   -1.72 KCAL/MOL
REMARK 923 INTER-LIGAND FREE ENERGY PREDICTED BY IDOCK:   -3.19 KCAL/MOL
REMARK 924 INTRA-LIGAND FREE ENERGY PREDICTED BY IDOCK:    1.46 KCAL/MOL
REMARK 927      BINDING AFFINITY PREDICTED BY RF-SCORE:    0.00 PKD
ROOT
HETATM    1  C   UNL     1      -9.400   9.338  71.181  1.00  0.00    -0.189 C  
HETATM    2  N   UNL     1      -9.844   8.535  72.326  1.00  0.00    -0.309 NA 
HETATM    3  C   UNL     1     -11.060   7.803  71.963  1.00  0.00    -0.269 C  
ENDROOT
BRANCH   2   4
HETATM    4  C   UNL     1      -8.801   7.599  72.802  1.00  0.00    -0.153 C  
BRANCH   4   5
HETATM    5  C   UNL     1      -7.484   7.780  72.030  1.00  0.00    -0.082 C  
BRANCH   5   6
HETATM    6  C   UNL     1      -7.615   7.990  70.539  1.00  0.00    -0.076 C  
HETATM    7  C   UNL     1      -7.927   7.037  69.627  1.00  0.00    -0.124 C  
HETATM    8  C   UNL     1      -8.084   7.465  68.220  1.00  0.00    -0.125 A  
HETATM    9  C   UNL     1      -7.007   7.945  67.466  1.00  0.00    -0.075 A  
HETATM   10  C   UNL     1      -7.184   8.260  66.118  1.00  0.00    -0.070 A  
HETATM   11  C   UNL     1      -8.433   8.091  65.520  1.00  0.00    -0.159 A  
HETATM   12  C   UNL     1      -9.510   7.615  66.268  1.00  0.00    -0.176 A  
HETATM   13  C   UNL     1      -9.344   7.301  67.624  1.00  0.00    -0.139 A  
HETATM   14  C   UNL     1     -10.480   6.774  68.463  1.00  0.00    -0.204 C  
HETATM   15  O   UNL     1     -10.361   5.379  68.742  1.00  0.00    -0.191 OA 
HETATM   16  C   UNL     1      -9.395   4.955  69.619  1.00  0.00    -0.129 A  
HETATM   17  C   UNL     1      -8.239   5.639  70.032  1.00  0.00    -0.110 A  
HETATM   18  C   UNL     1      -7.299   4.946  70.828  1.00  0.00    -0.064 A  
HETATM   19  C   UNL     1      -7.553   3.665  71.339  1.00  0.00    -0.055 A  
HETATM   20  C   UNL     1      -8.732   3.024  70.957  1.00  0.00    -0.126 A  
HETATM   21  C   UNL     1      -9.625   3.652  70.084  1.00  0.00    -0.242 A  
BRANCH  19  22
HETATM   22  C   UNL     1      -6.543   2.964  72.221  1.00  0.00    -0.015 C  
HETATM   23  C   UNL     1      -6.545   3.272  73.707  1.00  0.00    -0.030 C  
HETATM   24  O   UNL     1      -5.664   2.854  74.455  1.00  0.00    -0.003 OA 
HETATM   25  O   UNL     1      -7.570   4.003  74.189  1.00  0.00    -0.072 OA 
ENDBRANCH  19  22
ENDBRANCH   5   6
ENDBRANCH   4   5
ENDBRANCH   2   4
TORSDOF 4
ENDMDL
MODEL      167
REMARK 921   NORMALIZED FREE ENERGY PREDICTED BY IDOCK:   -0.94 KCAL/MOL
REMARK 922        TOTAL FREE ENERGY PREDICTED BY IDOCK:   -1.71 KCAL/MOL
REMARK 923 INTER-LIGAND FREE ENERGY PREDICTED BY IDOCK:   -1.77 KCAL/MOL
REMARK 924 INTRA-LIGAND FREE ENERGY PREDICTED BY IDOCK:    0.06 KCAL/MOL
REMARK 927      BINDING AFFINITY PREDICTED BY RF-SCORE:    0.00 PKD
ROOT
HETATM    1  C   UNL     1     -10.770   9.301  68.006  1.00  0.00    -0.174 C  
HETATM    2  N   UNL     1     -10.687   8.057  68.779  1.00  0.00    -0.111 NA 
HETATM    3  C   UNL     1     -11.268   6.961  68.000  1.00  0.00     0.001 C  
ENDROOT
BRANCH   2   4
HETATM    4  C   UNL     1      -9.302   7.727  69.181  1.00  0.00    -0.151 C  
BRANCH   4   5
HETATM    5  C   UNL     1      -8.290   8.719  68.583  1.00  0.00    -0.128 C  
BRANCH   5   6
HETATM    6  C   UNL     1      -7.860   8.449  67.159  1.00  0.00    -0.100 C  
HETATM    7  C   UNL     1      -7.193   7.351  66.726  1.00  0.00    -0.087 C  
HETATM    8  C   UNL     1      -6.934   7.239  65.275  1.00  0.00    -0.056 A  
HETATM    9  C   UNL     1      -6.079   8.121  64.604  1.00  0.00    -0.052 A  
HETATM   10  C   UNL     1      -5.799   7.928  63.250  1.00  0.00    -0.062 A  
HETATM   11  C   UNL     1      -6.369   6.853  62.566  1.00  0.00    -0.047 A  
HETATM   12  C   UNL     1      -7.224   5.973  63.230  1.00  0.00    -0.055 A  
HETATM   13  C   UNL     1      -7.514   6.161  64.588  1.00  0.00    -0.085 A  
HETATM   14  C   UNL     1      -8.424   5.226  65.343  1.00  0.00    -0.145 C  
HETATM   15  O   UNL     1      -7.716   4.361  66.231  1.00  0.00    -0.092 OA 
HETATM   16  C   UNL     1      -7.158   4.886  67.370  1.00  0.00    -0.066 A  
HETATM   17  C   UNL     1      -6.851   6.230  67.644  1.00  0.00    -0.069 A  
HETATM   18  C   UNL     1      -6.136   6.525  68.827  1.00  0.00    -0.025 A  
HETATM   19  C   UNL     1      -5.860   5.551  69.796  1.00  0.00    -0.017 A  
HETATM   20  C   UNL     1      -6.219   4.229  69.525  1.00  0.00    -0.027 A  
HETATM   21  C   UNL     1      -6.833   3.901  68.313  1.00  0.00    -0.047 A  
BRANCH  19  22
HETATM   22  C   UNL     1      -5.126   5.905  71.070  1.00  0.00    -0.013 C  
HETATM   23  C   UNL     1      -5.915   6.517  72.212  1.00  0.00    -0.038 C  
HETATM   24  O   UNL     1      -5.362   6.963  73.215  1.00  0.00    -0.037 OA 
HETATM   25  O   UNL     1      -7.258   6.532  72.102  1.00  0.00    -0.083 OA 
ENDBRANCH  19  22
ENDBRANCH   5   6
ENDBRANCH   4   5
ENDBRANCH   2   4
TORSDOF 4
ENDMDL
MODEL      168
REMARK 921   NORMALIZED FREE ENERGY PREDICTED BY IDOCK:   -0.87 KCAL/MOL
REMARK 922        TOTAL FREE ENERGY PREDICTED BY IDOCK:   -1.63 KCAL/MOL
REMARK 923 INTER-LIGAND FREE ENERGY PREDICTED BY IDOCK:   -2.28 KCAL/MOL
REMARK 924 INTRA-LIGAND FREE ENERGY PREDICTED BY IDOCK:    0.65 KCAL/MOL
REMARK 927      BINDING AFFINITY PREDICTED BY RF-SCORE:    0.00 PKD
ROOT
HETATM    1  C   UNL     1     -10.748   9.082  67.640  1.00  0.00    -0.163 C  
HETATM    2  N   UNL     1     -11.006   7.712  68.099  1.00  0.00     0.042 NA 
HETATM    3  C   UNL     1     -10.754   6.776  67.001  1.00  0.00    -0.365 C  
ENDROOT
BRANCH   2   4
HETATM    4  C   UNL     1     -10.197   7.348  69.284  1.00  0.00    -0.199 C  
BRANCH   4   5
HETATM    5  C   UNL     1     -10.047   8.533  70.251  1.00  0.00    -0.199 C  
BRANCH   5   6
HETATM    6  C   UNL     1      -9.047   9.593  69.850  1.00  0.00    -0.250 C  
HETATM    7  C   UNL     1      -7.721   9.397  69.645  1.00  0.00    -0.098 C  
HETATM    8  C   UNL     1      -6.925  10.552  69.178  1.00  0.00    -0.080 A  
HETATM    9  C   UNL     1      -6.715  11.680  69.979  1.00  0.00     0.147 A  
HETATM   10  C   UNL     1      -5.888  12.711  69.530  1.00  0.00    -0.105 A  
HETATM   11  C   UNL     1      -5.269  12.617  68.284  1.00  0.00    -0.065 A  
HETATM   12  C   UNL     1      -5.479  11.495  67.480  1.00  0.00    -0.061 A  
HETATM   13  C   UNL     1      -6.310  10.457  67.920  1.00  0.00    -0.060 A  
HETATM   14  C   UNL     1      -6.552   9.225  67.086  1.00  0.00    -0.068 C  
HETATM   15  O   UNL     1      -5.863   8.077  67.580  1.00  0.00    -0.039 OA 
HETATM   16  C   UNL     1      -6.296   7.488  68.742  1.00  0.00    -0.039 A  
HETATM   17  C   UNL     1      -7.105   8.045  69.746  1.00  0.00    -0.060 A  
HETATM   18  C   UNL     1      -7.301   7.306  70.935  1.00  0.00    -0.074 A  
HETATM   19  C   UNL     1      -6.845   5.989  71.080  1.00  0.00    -0.066 A  
HETATM   20  C   UNL     1      -6.085   5.437  70.047  1.00  0.00    -0.022 A  
HETATM   21  C   UNL     1      -5.791   6.190  68.908  1.00  0.00    -0.020 A  
BRANCH  19  22
HETATM   22  C   UNL     1      -7.103   5.210  72.350  1.00  0.00    -0.089 C  
HETATM   23  C   UNL     1      -8.500   4.669  72.594  1.00  0.00    -0.115 C  
HETATM   24  O   UNL     1      -8.817   4.157  73.666  1.00  0.00    -0.094 OA 
HETATM   25  O   UNL     1      -9.382   4.744  71.578  1.00  0.00    -0.137 OA 
ENDBRANCH  19  22
ENDBRANCH   5   6
ENDBRANCH   4   5
ENDBRANCH   2   4
TORSDOF 4
ENDMDL
MODEL      169
REMARK 921   NORMALIZED FREE ENERGY PREDICTED BY IDOCK:   -0.00 KCAL/MOL
REMARK 922        TOTAL FREE ENERGY PREDICTED BY IDOCK:   -0.56 KCAL/MOL
REMARK 923 INTER-LIGAND FREE ENERGY PREDICTED BY IDOCK:   -0.93 KCAL/MOL
REMARK 924 INTRA-LIGAND FREE ENERGY PREDICTED BY IDOCK:    0.37 KCAL/MOL
REMARK 927      BINDING AFFINITY PREDICTED BY RF-SCORE:    0.00 PKD
ROOT
HETATM    1  C   UNL     1      -7.325  17.049  66.461  1.00  0.00    -0.285 C  
HETATM    2  N   UNL     1      -7.013  15.966  67.401  1.00  0.00    -0.183 NA 
HETATM    3  C   UNL     1      -7.739  16.186  68.654  1.00  0.00    -0.186 C  
ENDROOT
BRANCH   2   4
HETATM    4  C   UNL     1      -7.326  14.628  66.851  1.00  0.00     0.521 C  
BRANCH   4   5
HETATM    5  C   UNL     1      -7.385  13.563  67.958  1.00  0.00    -0.133 C  
BRANCH   5   6
HETATM    6  C   UNL     1      -8.708  13.424  68.674  1.00  0.00     0.015 C  
HETATM    7  C   UNL     1      -9.598  12.415  68.509  1.00  0.00    -0.121 C  
HETATM    8  C   UNL     1     -10.803  12.421  69.366  1.00  0.00     0.011 A  
HETATM    9  C   UNL     1     -11.786  13.411  69.256  1.00  0.00    -0.385 A  
HETATM   10  C   UNL     1     -12.947  13.332  70.028  1.00  0.00     0.481 A  
HETATM   11  C   UNL     1     -13.129  12.264  70.907  1.00  0.00     0.084 A  
HETATM   12  C   UNL     1     -12.150  11.276  71.022  1.00  0.00    -0.335 A  
HETATM   13  C   UNL     1     -10.980  11.349  70.255  1.00  0.00     0.402 A  
HETATM   14  C   UNL     1      -9.905  10.296  70.343  1.00  0.00     0.316 C  
HETATM   15  O   UNL     1      -9.881   9.433  69.206  1.00  0.00    -0.163 OA 
HETATM   16  C   UNL     1      -9.431   9.923  68.006  1.00  0.00    -0.134 A  
HETATM   17  C   UNL     1      -9.319  11.265  67.606  1.00  0.00    -0.162 A  
HETATM   18  C   UNL     1      -8.975  11.536  66.262  1.00  0.00    -0.199 A  
HETATM   19  C   UNL     1      -8.598  10.524  65.368  1.00  0.00    -0.188 A  
HETATM   20  C   UNL     1      -8.669   9.200  65.803  1.00  0.00    -0.192 A  
HETATM   21  C   UNL     1      -9.109   8.905  67.096  1.00  0.00    -0.160 A  
BRANCH  19  22
HETATM   22  C   UNL     1      -8.197  10.850  63.946  1.00  0.00     0.218 C  
HETATM   23  C   UNL     1      -6.774  10.554  63.511  1.00  0.00     0.059 C  
HETATM   24  O   UNL     1      -6.340  10.925  62.423  1.00  0.00    -0.130 OA 
HETATM   25  O   UNL     1      -6.003   9.839  64.354  1.00  0.00    -0.081 OA 
ENDBRANCH  19  22
ENDBRANCH   5   6
ENDBRANCH   4   5
ENDBRANCH   2   4
TORSDOF 4
ENDMDL
MODEL      170
REMARK 921   NORMALIZED FREE ENERGY PREDICTED BY IDOCK:    0.20 KCAL/MOL
REMARK 922        TOTAL FREE ENERGY PREDICTED BY IDOCK:   -0.31 KCAL/MOL
REMARK 923 INTER-LIGAND FREE ENERGY PREDICTED BY IDOCK:    0.20 KCAL/MOL
REMARK 924 INTRA-LIGAND FREE ENERGY PREDICTED BY IDOCK:   -0.51 KCAL/MOL
REMARK 927      BINDING AFFINITY PREDICTED BY RF-SCORE:    0.00 PKD
ROOT
HETATM    1  C   UNL     1     -10.537   4.964  62.932  1.00  0.00     0.979 C  
HETATM    2  N   UNL     1     -10.305   4.928  64.381  1.00  0.00     0.535 NA 
HETATM    3  C   UNL     1     -11.532   4.504  65.059  1.00  0.00     0.804 C  
ENDROOT
BRANCH   2   4
HETATM    4  C   UNL     1      -9.177   4.046  64.755  1.00  0.00    -0.152 C  
BRANCH   4   5
HETATM    5  C   UNL     1      -8.143   4.787  65.617  1.00  0.00    -0.111 C  
BRANCH   5   6
HETATM    6  C   UNL     1      -7.552   4.001  66.765  1.00  0.00    -0.088 C  
HETATM    7  C   UNL     1      -7.768   4.237  68.082  1.00  0.00    -0.075 C  
HETATM    8  C   UNL     1      -7.159   3.300  69.051  1.00  0.00    -0.049 A  
HETATM    9  C   UNL     1      -5.772   3.201  69.215  1.00  0.00    -0.022 A  
HETATM   10  C   UNL     1      -5.243   2.365  70.199  1.00  0.00    -0.004 A  
HETATM   11  C   UNL     1      -6.096   1.629  71.022  1.00  0.00    -0.018 A  
HETATM   12  C   UNL     1      -7.479   1.722  70.860  1.00  0.00    -0.033 A  
HETATM   13  C   UNL     1      -8.020   2.556  69.872  1.00  0.00    -0.053 A  
HETATM   14  C   UNL     1      -9.508   2.692  69.674  1.00  0.00    -0.068 C  
HETATM   15  O   UNL     1     -10.019   3.934  70.156  1.00  0.00    -0.162 OA 
HETATM   16  C   UNL     1      -9.730   5.086  69.468  1.00  0.00    -0.189 A  
HETATM   17  C   UNL     1      -8.694   5.307  68.545  1.00  0.00    -0.099 A  
HETATM   18  C   UNL     1      -8.488   6.622  68.072  1.00  0.00    -0.116 A  
HETATM   19  C   UNL     1      -9.368   7.671  68.373  1.00  0.00    -0.146 A  
HETATM   20  C   UNL     1     -10.421   7.417  69.253  1.00  0.00    -0.222 A  
HETATM   21  C   UNL     1     -10.578   6.147  69.815  1.00  0.00    -0.343 A  
BRANCH  19  22
HETATM   22  C   UNL     1      -9.142   9.061  67.820  1.00  0.00    -0.143 C  
HETATM   23  C   UNL     1      -9.462   9.318  66.359  1.00  0.00    -0.218 C  
HETATM   24  O   UNL     1      -9.166  10.376  65.808  1.00  0.00    -0.160 OA 
HETATM   25  O   UNL     1     -10.111   8.348  65.685  1.00  0.00     0.347 OA 
ENDBRANCH  19  22
ENDBRANCH   5   6
ENDBRANCH   4   5
ENDBRANCH   2   4
TORSDOF 4
ENDMDL
MODEL      171
REMARK 921   NORMALIZED FREE ENERGY PREDICTED BY IDOCK:    1.21 KCAL/MOL
REMARK 922        TOTAL FREE ENERGY PREDICTED BY IDOCK:    0.94 KCAL/MOL
REMARK 923 INTER-LIGAND FREE ENERGY PREDICTED BY IDOCK:    1.39 KCAL/MOL
REMARK 924 INTRA-LIGAND FREE ENERGY PREDICTED BY IDOCK:   -0.45 KCAL/MOL
REMARK 927      BINDING AFFINITY PREDICTED BY RF-SCORE:    0.00 PKD
ROOT
HETATM    1  C   UNL     1     -10.543   4.967  62.931  1.00  0.00     0.979 C  
HETATM    2  N   UNL     1     -10.339   4.927  64.384  1.00  0.00     0.535 NA 
HETATM    3  C   UNL     1     -11.572   4.482  65.036  1.00  0.00     1.144 C  
ENDROOT
BRANCH   2   4
HETATM    4  C   UNL     1      -9.206   4.058  64.775  1.00  0.00    -0.152 C  
BRANCH   4   5
HETATM    5  C   UNL     1      -8.200   4.809  65.663  1.00  0.00    -0.113 C  
BRANCH   5   6
HETATM    6  C   UNL     1      -7.626   4.026  66.821  1.00  0.00    -0.088 C  
HETATM    7  C   UNL     1      -6.887   4.537  67.836  1.00  0.00    -0.055 C  
HETATM    8  C   UNL     1      -6.485   3.614  68.919  1.00  0.00    -0.033 A  
HETATM    9  C   UNL     1      -5.595   2.556  68.699  1.00  0.00    -0.018 A  
HETATM   10  C   UNL     1      -5.179   1.760  69.767  1.00  0.00    -0.008 A  
HETATM   11  C   UNL     1      -5.647   2.021  71.056  1.00  0.00    -0.012 A  
HETATM   12  C   UNL     1      -6.536   3.073  71.279  1.00  0.00    -0.030 A  
HETATM   13  C   UNL     1      -6.963   3.875  70.212  1.00  0.00    -0.038 A  
HETATM   14  C   UNL     1      -7.914   5.026  70.415  1.00  0.00    -0.084 C  
HETATM   15  O   UNL     1      -7.270   6.298  70.329  1.00  0.00    -0.078 OA 
HETATM   16  C   UNL     1      -6.843   6.746  69.104  1.00  0.00    -0.065 A  
HETATM   17  C   UNL     1      -6.604   5.995  67.941  1.00  0.00    -0.056 A  
HETATM   18  C   UNL     1      -6.016   6.645  66.833  1.00  0.00    -0.021 A  
HETATM   19  C   UNL     1      -5.807   8.031  66.804  1.00  0.00    -0.044 A  
HETATM   20  C   UNL     1      -6.099   8.767  67.954  1.00  0.00    -0.051 A  
HETATM   21  C   UNL     1      -6.582   8.124  69.097  1.00  0.00    -0.043 A  
BRANCH  19  22
HETATM   22  C   UNL     1      -5.212   8.705  65.587  1.00  0.00    -0.034 C  
HETATM   23  C   UNL     1      -6.089   8.892  64.364  1.00  0.00    -0.070 C  
HETATM   24  O   UNL     1      -5.632   9.295  63.296  1.00  0.00    -0.077 OA 
HETATM   25  O   UNL     1      -7.404   8.626  64.495  1.00  0.00    -0.093 OA 
ENDBRANCH  19  22
ENDBRANCH   5   6
ENDBRANCH   4   5
ENDBRANCH   2   4
TORSDOF 4
ENDMDL
MODEL      172
REMARK 921   NORMALIZED FREE ENERGY PREDICTED BY IDOCK:    1.39 KCAL/MOL
REMARK 922        TOTAL FREE ENERGY PREDICTED BY IDOCK:    1.16 KCAL/MOL
REMARK 923 INTER-LIGAND FREE ENERGY PREDICTED BY IDOCK:   -2.93 KCAL/MOL
REMARK 924 INTRA-LIGAND FREE ENERGY PREDICTED BY IDOCK:    4.08 KCAL/MOL
REMARK 927      BINDING AFFINITY PREDICTED BY RF-SCORE:    0.00 PKD
ROOT
HETATM    1  C   UNL     1      -9.435  11.842  67.866  1.00  0.00    -0.191 C  
HETATM    2  N   UNL     1      -9.304  10.525  67.232  1.00  0.00    -0.146 NA 
HETATM    3  C   UNL     1     -10.153  10.473  66.040  1.00  0.00    -0.256 C  
ENDROOT
BRANCH   2   4
HETATM    4  C   UNL     1      -7.903  10.199  66.883  1.00  0.00    -0.107 C  
BRANCH   4   5
HETATM    5  C   UNL     1      -7.771   9.786  65.408  1.00  0.00    -0.123 C  
BRANCH   5   6
HETATM    6  C   UNL     1      -7.591   8.308  65.148  1.00  0.00    -0.093 C  
HETATM    7  C   UNL     1      -7.691   7.321  66.072  1.00  0.00    -0.095 C  
HETATM    8  C   UNL     1      -7.559   5.927  65.598  1.00  0.00    -0.084 A  
HETATM    9  C   UNL     1      -6.357   5.430  65.082  1.00  0.00    -0.034 A  
HETATM   10  C   UNL     1      -6.254   4.085  64.723  1.00  0.00    -0.023 A  
HETATM   11  C   UNL     1      -7.348   3.235  64.882  1.00  0.00    -0.071 A  
HETATM   12  C   UNL     1      -8.550   3.727  65.393  1.00  0.00    -0.114 A  
HETATM   13  C   UNL     1      -8.664   5.076  65.752  1.00  0.00    -0.135 A  
HETATM   14  C   UNL     1      -9.941   5.642  66.318  1.00  0.00    -0.115 C  
HETATM   15  O   UNL     1      -9.861   5.896  67.721  1.00  0.00    -0.114 OA 
HETATM   16  C   UNL     1      -9.092   6.942  68.166  1.00  0.00    -0.124 A  
HETATM   17  C   UNL     1      -8.058   7.607  67.486  1.00  0.00    -0.120 A  
HETATM   18  C   UNL     1      -7.293   8.560  68.198  1.00  0.00    -0.092 A  
HETATM   19  C   UNL     1      -7.628   8.966  69.497  1.00  0.00    -0.080 A  
HETATM   20  C   UNL     1      -8.691   8.326  70.136  1.00  0.00    -0.133 A  
HETATM   21  C   UNL     1      -9.392   7.307  69.486  1.00  0.00    -0.152 A  
BRANCH  19  22
HETATM   22  C   UNL     1      -6.813  10.016  70.219  1.00  0.00    -0.147 C  
HETATM   23  C   UNL     1      -5.883   9.570  71.333  1.00  0.00    -0.067 C  
HETATM   24  O   UNL     1      -5.306  10.379  72.056  1.00  0.00    -0.275 OA 
HETATM   25  O   UNL     1      -5.689   8.246  71.487  1.00  0.00    -0.034 OA 
ENDBRANCH  19  22
ENDBRANCH   5   6
ENDBRANCH   4   5
ENDBRANCH   2   4
TORSDOF 4
ENDMDL
MODEL      173
REMARK 921   NORMALIZED FREE ENERGY PREDICTED BY IDOCK:    2.68 KCAL/MOL
REMARK 922        TOTAL FREE ENERGY PREDICTED BY IDOCK:    2.76 KCAL/MOL
REMARK 923 INTER-LIGAND FREE ENERGY PREDICTED BY IDOCK:   -2.42 KCAL/MOL
REMARK 924 INTRA-LIGAND FREE ENERGY PREDICTED BY IDOCK:    5.17 KCAL/MOL
REMARK 927      BINDING AFFINITY PREDICTED BY RF-SCORE:    0.00 PKD
ROOT
HETATM    1  C   UNL     1      -8.490   9.530  70.163  1.00  0.00    -0.205 C  
HETATM    2  N   UNL     1      -8.642   8.860  71.459  1.00  0.00    -0.309 NA 
HETATM    3  C   UNL     1      -9.952   8.206  71.517  1.00  0.00    -0.182 C  
ENDROOT
BRANCH   2   4
HETATM    4  C   UNL     1      -7.565   7.880  71.724  1.00  0.00    -0.086 C  
BRANCH   4   5
HETATM    5  C   UNL     1      -6.587   7.784  70.541  1.00  0.00    -0.038 C  
BRANCH   5   6
HETATM    6  C   UNL     1      -7.112   8.265  69.208  1.00  0.00    -0.060 C  
HETATM    7  C   UNL     1      -8.023   7.624  68.435  1.00  0.00    -0.123 C  
HETATM    8  C   UNL     1      -8.466   8.302  67.198  1.00  0.00    -0.123 A  
HETATM    9  C   UNL     1      -7.597   8.528  66.124  1.00  0.00    -0.089 A  
HETATM   10  C   UNL     1      -8.078   9.097  64.944  1.00  0.00    -0.133 A  
HETATM   11  C   UNL     1      -9.426   9.438  64.833  1.00  0.00    -0.150 A  
HETATM   12  C   UNL     1     -10.295   9.218  65.902  1.00  0.00     0.126 A  
HETATM   13  C   UNL     1      -9.821   8.651  67.092  1.00  0.00    -0.269 A  
HETATM   14  C   UNL     1     -10.731   8.387  68.265  1.00  0.00    -0.028 C  
HETATM   15  O   UNL     1     -11.035   7.002  68.429  1.00  0.00    -0.165 OA 
HETATM   16  C   UNL     1     -10.055   6.153  68.880  1.00  0.00    -0.173 A  
HETATM   17  C   UNL     1      -8.664   6.353  68.872  1.00  0.00    -0.126 A  
HETATM   18  C   UNL     1      -7.830   5.275  69.247  1.00  0.00    -0.088 A  
HETATM   19  C   UNL     1      -8.344   4.079  69.766  1.00  0.00    -0.080 A  
HETATM   20  C   UNL     1      -9.730   3.921  69.813  1.00  0.00    -0.227 A  
HETATM   21  C   UNL     1     -10.571   4.936  69.347  1.00  0.00     0.192 A  
BRANCH  19  22
HETATM   22  C   UNL     1      -7.424   2.957  70.195  1.00  0.00    -0.043 C  
HETATM   23  C   UNL     1      -5.962   3.031  69.799  1.00  0.00    -0.023 C  
HETATM   24  O   UNL     1      -5.193   2.090  69.985  1.00  0.00    -0.004 OA 
HETATM   25  O   UNL     1      -5.523   4.183  69.255  1.00  0.00    -0.011 OA 
ENDBRANCH  19  22
ENDBRANCH   5   6
ENDBRANCH   4   5
ENDBRANCH   2   4
TORSDOF 4
ENDMDL
MODEL      174
REMARK 921   NORMALIZED FREE ENERGY PREDICTED BY IDOCK:    3.10 KCAL/MOL
REMARK 922        TOTAL FREE ENERGY PREDICTED BY IDOCK:    3.28 KCAL/MOL
REMARK 923 INTER-LIGAND FREE ENERGY PREDICTED BY IDOCK:    3.72 KCAL/MOL
REMARK 924 INTRA-LIGAND FREE ENERGY PREDICTED BY IDOCK:   -0.44 KCAL/MOL
REMARK 927      BINDING AFFINITY PREDICTED BY RF-SCORE:    0.00 PKD
ROOT
HETATM    1  C   UNL     1     -10.476   3.348  62.615  1.00  0.00    -0.176 C  
HETATM    2  N   UNL     1      -9.623   4.386  63.204  1.00  0.00    -0.095 NA 
HETATM    3  C   UNL     1      -8.253   3.881  63.319  1.00  0.00    -0.089 C  
ENDROOT
BRANCH   2   4
HETATM    4  C   UNL     1      -9.645   5.647  62.430  1.00  0.00     0.746 C  
BRANCH   4   5
HETATM    5  C   UNL     1      -8.655   6.677  63.000  1.00  0.00     0.384 C  
BRANCH   5   6
HETATM    6  C   UNL     1      -9.206   8.064  63.238  1.00  0.00     1.689 C  
HETATM    7  C   UNL     1      -8.894   8.873  64.280  1.00  0.00    -0.022 C  
HETATM    8  C   UNL     1      -9.482  10.230  64.289  1.00  0.00    -0.365 A  
HETATM    9  C   UNL     1     -10.858  10.440  64.436  1.00  0.00     0.790 A  
HETATM   10  C   UNL     1     -11.361  11.739  64.523  1.00  0.00    -0.349 A  
HETATM   11  C   UNL     1     -10.492  12.829  64.466  1.00  0.00    -0.392 A  
HETATM   12  C   UNL     1      -9.120  12.624  64.317  1.00  0.00     1.283 A  
HETATM   13  C   UNL     1      -8.606  11.324  64.225  1.00  0.00     0.387 A  
HETATM   14  C   UNL     1      -7.129  11.061  64.074  1.00  0.00     0.864 C  
HETATM   15  O   UNL     1      -6.529  10.570  65.273  1.00  0.00    -0.122 OA 
HETATM   16  C   UNL     1      -6.808   9.290  65.682  1.00  0.00    -0.074 A  
HETATM   17  C   UNL     1      -7.890   8.477  65.306  1.00  0.00    -0.106 A  
HETATM   18  C   UNL     1      -8.065   7.243  65.973  1.00  0.00    -0.121 A  
HETATM   19  C   UNL     1      -7.118   6.744  66.879  1.00  0.00    -0.075 A  
HETATM   20  C   UNL     1      -6.023   7.548  67.200  1.00  0.00    -0.046 A  
HETATM   21  C   UNL     1      -5.890   8.816  66.630  1.00  0.00    -0.052 A  
BRANCH  19  22
HETATM   22  C   UNL     1      -7.314   5.401  67.548  1.00  0.00    -0.076 C  
HETATM   23  C   UNL     1      -7.715   5.376  69.012  1.00  0.00    -0.089 C  
HETATM   24  O   UNL     1      -7.747   4.329  69.655  1.00  0.00    -0.053 OA 
HETATM   25  O   UNL     1      -8.064   6.546  69.581  1.00  0.00    -0.120 OA 
ENDBRANCH  19  22
ENDBRANCH   5   6
ENDBRANCH   4   5
ENDBRANCH   2   4
TORSDOF 4
ENDMDL
MODEL      175
REMARK 921   NORMALIZED FREE ENERGY PREDICTED BY IDOCK:    4.26 KCAL/MOL
REMARK 922        TOTAL FREE ENERGY PREDICTED BY IDOCK:    4.70 KCAL/MOL
REMARK 923 INTER-LIGAND FREE ENERGY PREDICTED BY IDOCK:    4.07 KCAL/MOL
REMARK 924 INTRA-LIGAND FREE ENERGY PREDICTED BY IDOCK:    0.63 KCAL/MOL
REMARK 927      BINDING AFFINITY PREDICTED BY RF-SCORE:    0.00 PKD
ROOT
HETATM    1  C   UNL     1     -12.431  16.972  67.763  1.00  0.00     3.031 C  
HETATM    2  N   UNL     1     -11.785  15.771  68.305  1.00  0.00    -0.302 NA 
HETATM    3  C   UNL     1     -12.331  15.482  69.633  1.00  0.00    -0.191 C  
ENDROOT
BRANCH   2   4
HETATM    4  C   UNL     1     -11.935  14.595  67.418  1.00  0.00    -0.279 C  
BRANCH   4   5
HETATM    5  C   UNL     1     -10.865  14.580  66.315  1.00  0.00    -0.317 C  
BRANCH   5   6
HETATM    6  C   UNL     1      -9.589  13.838  66.641  1.00  0.00    -0.295 C  
HETATM    7  C   UNL     1      -8.527  14.344  67.314  1.00  0.00    -0.229 C  
HETATM    8  C   UNL     1      -7.402  13.428  67.602  1.00  0.00    -0.173 A  
HETATM    9  C   UNL     1      -6.603  12.893  66.585  1.00  0.00     1.299 A  
HETATM   10  C   UNL     1      -5.502  12.099  66.906  1.00  0.00    -0.002 A  
HETATM   11  C   UNL     1      -5.195  11.840  68.242  1.00  0.00    -0.043 A  
HETATM   12  C   UNL     1      -5.990  12.368  69.260  1.00  0.00    -0.092 A  
HETATM   13  C   UNL     1      -7.101  13.163  68.946  1.00  0.00    -0.075 A  
HETATM   14  C   UNL     1      -7.978  13.761  70.017  1.00  0.00     1.627 C  
HETATM   15  O   UNL     1      -7.773  15.164  70.181  1.00  0.00     0.019 OA 
HETATM   16  C   UNL     1      -8.219  16.021  69.207  1.00  0.00    -0.212 A  
HETATM   17  C   UNL     1      -8.538  15.725  67.871  1.00  0.00    -0.160 A  
HETATM   18  C   UNL     1      -8.833  16.797  66.999  1.00  0.00    -0.227 A  
HETATM   19  C   UNL     1      -8.965  18.116  67.455  1.00  0.00    -0.256 A  
HETATM   20  C   UNL     1      -8.693  18.381  68.798  1.00  0.00    -0.245 A  
HETATM   21  C   UNL     1      -8.296  17.349  69.653  1.00  0.00     0.938 A  
BRANCH  19  22
HETATM   22  C   UNL     1      -9.319  19.237  66.503  1.00  0.00    -0.396 C  
HETATM   23  C   UNL     1     -10.468  19.026  65.534  1.00  0.00     0.018 C  
HETATM   24  O   UNL     1     -10.715  19.832  64.639  1.00  0.00     0.311 OA 
HETATM   25  O   UNL     1     -11.232  17.930  65.706  1.00  0.00     0.321 OA 
ENDBRANCH  19  22
ENDBRANCH   5   6
ENDBRANCH   4   5
ENDBRANCH   2   4
TORSDOF 4
ENDMDL
MODEL      176
REMARK 921   NORMALIZED FREE ENERGY PREDICTED BY IDOCK:    4.86 KCAL/MOL
REMARK 922        TOTAL FREE ENERGY PREDICTED BY IDOCK:    5.44 KCAL/MOL
REMARK 923 INTER-LIGAND FREE ENERGY PREDICTED BY IDOCK:    5.80 KCAL/MOL
REMARK 924 INTRA-LIGAND FREE ENERGY PREDICTED BY IDOCK:   -0.36 KCAL/MOL
REMARK 927      BINDING AFFINITY PREDICTED BY RF-SCORE:    0.00 PKD
ROOT
HETATM    1  C   UNL     1     -12.548  17.137  72.055  1.00  0.00     3.535 C  
HETATM    2  N   UNL     1     -12.416  16.108  71.018  1.00  0.00    -0.162 NA 
HETATM    3  C   UNL     1     -11.972  16.731  69.769  1.00  0.00     1.277 C  
ENDROOT
BRANCH   2   4
HETATM    4  C   UNL     1     -11.490  15.021  71.410  1.00  0.00    -0.318 C  
BRANCH   4   5
HETATM    5  C   UNL     1     -10.056  15.303  70.934  1.00  0.00     0.686 C  
BRANCH   5   6
HETATM    6  C   UNL     1      -9.466  14.295  69.975  1.00  0.00     1.257 C  
HETATM    7  C   UNL     1      -8.253  14.386  69.376  1.00  0.00     0.217 C  
HETATM    8  C   UNL     1      -7.824  13.251  68.530  1.00  0.00    -0.110 A  
HETATM    9  C   UNL     1      -8.479  12.928  67.336  1.00  0.00    -0.196 A  
HETATM   10  C   UNL     1      -7.990  11.901  66.527  1.00  0.00     0.041 A  
HETATM   11  C   UNL     1      -6.846  11.198  66.907  1.00  0.00    -0.127 A  
HETATM   12  C   UNL     1      -6.192  11.515  68.099  1.00  0.00    -0.045 A  
HETATM   13  C   UNL     1      -6.678  12.542  68.919  1.00  0.00    -0.098 A  
HETATM   14  C   UNL     1      -5.993  12.921  70.207  1.00  0.00    -0.126 C  
HETATM   15  O   UNL     1      -5.276  14.151  70.112  1.00  0.00    -0.090 OA 
HETATM   16  C   UNL     1      -5.979  15.328  70.032  1.00  0.00    -0.142 A  
HETATM   17  C   UNL     1      -7.321  15.511  69.660  1.00  0.00    -0.163 A  
HETATM   18  C   UNL     1      -7.796  16.833  69.497  1.00  0.00     0.281 A  
HETATM   19  C   UNL     1      -7.023  17.952  69.838  1.00  0.00     0.517 A  
HETATM   20  C   UNL     1      -5.707  17.743  70.254  1.00  0.00    -0.200 A  
HETATM   21  C   UNL     1      -5.186  16.448  70.320  1.00  0.00    -0.182 A  
BRANCH  19  22
HETATM   22  C   UNL     1      -7.573  19.353  69.689  1.00  0.00     0.081 C  
HETATM   23  C   UNL     1      -7.643  19.957  68.299  1.00  0.00    -0.271 C  
HETATM   24  O   UNL     1      -7.939  21.137  68.120  1.00  0.00     0.356 OA 
HETATM   25  O   UNL     1      -7.395  19.143  67.254  1.00  0.00    -0.222 OA 
ENDBRANCH  19  22
ENDBRANCH   5   6
ENDBRANCH   4   5
ENDBRANCH   2   4
TORSDOF 4
ENDMDL
MODEL      177
REMARK 921   NORMALIZED FREE ENERGY PREDICTED BY IDOCK:    7.83 KCAL/MOL
REMARK 922        TOTAL FREE ENERGY PREDICTED BY IDOCK:    9.11 KCAL/MOL
REMARK 923 INTER-LIGAND FREE ENERGY PREDICTED BY IDOCK:    8.21 KCAL/MOL
REMARK 924 INTRA-LIGAND FREE ENERGY PREDICTED BY IDOCK:    0.90 KCAL/MOL
REMARK 927      BINDING AFFINITY PREDICTED BY RF-SCORE:    0.00 PKD
ROOT
HETATM    1  C   UNL     1      -8.179  21.153  64.874  1.00  0.00     2.175 C  
HETATM    2  N   UNL     1      -6.974  20.335  65.053  1.00  0.00    -0.254 NA 
HETATM    3  C   UNL     1      -6.278  20.756  66.271  1.00  0.00    -0.245 C  
ENDROOT
BRANCH   2   4
HETATM    4  C   UNL     1      -7.272  18.886  65.104  1.00  0.00     0.485 C  
BRANCH   4   5
HETATM    5  C   UNL     1      -6.668  18.230  66.356  1.00  0.00    -0.256 C  
BRANCH   5   6
HETATM    6  C   UNL     1      -7.048  18.852  67.680  1.00  0.00    -0.230 C  
HETATM    7  C   UNL     1      -7.110  18.208  68.871  1.00  0.00    -0.282 C  
HETATM    8  C   UNL     1      -7.426  19.017  70.068  1.00  0.00     0.679 A  
HETATM    9  C   UNL     1      -8.674  19.626  70.243  1.00  0.00     1.385 A  
HETATM   10  C   UNL     1      -8.958  20.311  71.425  1.00  0.00     2.196 A  
HETATM   11  C   UNL     1      -7.998  20.386  72.435  1.00  0.00     2.533 A  
HETATM   12  C   UNL     1      -6.751  19.783  72.264  1.00  0.00     1.086 A  
HETATM   13  C   UNL     1      -6.456  19.097  71.079  1.00  0.00     0.712 A  
HETATM   14  C   UNL     1      -5.126  18.423  70.861  1.00  0.00    -0.268 C  
HETATM   15  O   UNL     1      -5.202  17.001  70.959  1.00  0.00    -0.231 OA 
HETATM   16  C   UNL     1      -5.827  16.296  69.960  1.00  0.00    -0.185 A  
HETATM   17  C   UNL     1      -6.740  16.772  69.005  1.00  0.00    -0.209 A  
HETATM   18  C   UNL     1      -7.379  15.834  68.163  1.00  0.00    -0.130 A  
HETATM   19  C   UNL     1      -7.021  14.478  68.149  1.00  0.00    -0.125 A  
HETATM   20  C   UNL     1      -6.074  14.036  69.074  1.00  0.00    -0.088 A  
HETATM   21  C   UNL     1      -5.509  14.931  69.986  1.00  0.00    -0.113 A  
BRANCH  19  22
HETATM   22  C   UNL     1      -7.697  13.504  67.209  1.00  0.00    -0.093 C  
HETATM   23  C   UNL     1      -8.921  12.756  67.702  1.00  0.00    -0.191 C  
HETATM   24  O   UNL     1      -9.430  11.847  67.049  1.00  0.00    -0.182 OA 
HETATM   25  O   UNL     1      -9.454  13.143  68.877  1.00  0.00     0.040 OA 
ENDBRANCH  19  22
ENDBRANCH   5   6
ENDBRANCH   4   5
ENDBRANCH   2   4
TORSDOF 4
ENDMDL
MODEL      178
REMARK 921   NORMALIZED FREE ENERGY PREDICTED BY IDOCK:   16.89 KCAL/MOL
REMARK 922        TOTAL FREE ENERGY PREDICTED BY IDOCK:   20.29 KCAL/MOL
REMARK 923 INTER-LIGAND FREE ENERGY PREDICTED BY IDOCK:   19.90 KCAL/MOL
REMARK 924 INTRA-LIGAND FREE ENERGY PREDICTED BY IDOCK:    0.39 KCAL/MOL
REMARK 927      BINDING AFFINITY PREDICTED BY RF-SCORE:    0.00 PKD
ROOT
HETATM    1  C   UNL     1      -8.658   7.921  65.675  1.00  0.00    -0.138 C  
HETATM    2  N   UNL     1      -7.230   8.164  65.911  1.00  0.00    -0.071 NA 
HETATM    3  C   UNL     1      -6.716   9.074  64.886  1.00  0.00    -0.069 C  
ENDROOT
BRANCH   2   4
HETATM    4  C   UNL     1      -6.962   8.704  67.263  1.00  0.00    -0.075 C  
BRANCH   4   5
HETATM    5  C   UNL     1      -7.638   7.858  68.353  1.00  0.00    -0.108 C  
BRANCH   5   6
HETATM    6  C   UNL     1      -7.883   6.407  68.009  1.00  0.00    -0.105 C  
HETATM    7  C   UNL     1      -8.888   5.635  68.493  1.00  0.00    -0.108 C  
HETATM    8  C   UNL     1      -9.002   4.257  67.968  1.00  0.00    -0.148 A  
HETATM    9  C   UNL     1      -8.027   3.285  68.220  1.00  0.00    -0.065 A  
HETATM   10  C   UNL     1      -8.216   1.975  67.776  1.00  0.00    -0.074 A  
HETATM   11  C   UNL     1      -9.377   1.634  67.083  1.00  0.00    -0.008 A  
HETATM   12  C   UNL     1     -10.351   2.601  66.827  1.00  0.00     2.390 A  
HETATM   13  C   UNL     1     -10.168   3.919  67.265  1.00  0.00     0.488 A  
HETATM   14  C   UNL     1     -11.201   4.989  67.018  1.00  0.00     1.411 C  
HETATM   15  O   UNL     1     -11.934   5.334  68.193  1.00  0.00     3.558 OA 
HETATM   16  C   UNL     1     -11.305   6.042  69.187  1.00  0.00    -0.126 A  
HETATM   17  C   UNL     1      -9.925   6.184  69.409  1.00  0.00    -0.205 A  
HETATM   18  C   UNL     1      -9.500   6.835  70.589  1.00  0.00    -0.171 A  
HETATM   19  C   UNL     1     -10.399   7.469  71.458  1.00  0.00    -0.216 A  
HETATM   20  C   UNL     1     -11.765   7.358  71.190  1.00  0.00    -0.322 A  
HETATM   21  C   UNL     1     -12.209   6.627  70.085  1.00  0.00     0.043 A  
BRANCH  19  22
HETATM   22  C   UNL     1      -9.911   8.192  72.694  1.00  0.00    -0.364 C  
HETATM   23  C   UNL     1     -10.148   9.687  72.797  1.00  0.00     3.750 C  
HETATM   24  O   UNL     1      -9.652  10.359  73.699  1.00  0.00     9.700 OA 
HETATM   25  O   UNL     1     -10.950  10.254  71.875  1.00  0.00     0.929 OA 
ENDBRANCH  19  22
ENDBRANCH   5   6
ENDBRANCH   4   5
ENDBRANCH   2   4
TORSDOF 4
ENDMDL
MODEL      179
REMARK 921   NORMALIZED FREE ENERGY PREDICTED BY IDOCK:   17.64 KCAL/MOL
REMARK 922        TOTAL FREE ENERGY PREDICTED BY IDOCK:   21.21 KCAL/MOL
REMARK 923 INTER-LIGAND FREE ENERGY PREDICTED BY IDOCK:    5.05 KCAL/MOL
REMARK 924 INTRA-LIGAND FREE ENERGY PREDICTED BY IDOCK:   16.15 KCAL/MOL
REMARK 927      BINDING AFFINITY PREDICTED BY RF-SCORE:    0.00 PKD
ROOT
HETATM    1  C   UNL     1      -7.752  12.769  65.799  1.00  0.00     2.756 C  
HETATM    2  N   UNL     1      -7.358  11.557  65.071  1.00  0.00     1.254 NA 
HETATM    3  C   UNL     1      -7.542  11.772  63.634  1.00  0.00     2.623 C  
ENDROOT
BRANCH   2   4
HETATM    4  C   UNL     1      -5.964  11.149  65.357  1.00  0.00     0.290 C  
BRANCH   4   5
HETATM    5  C   UNL     1      -5.665   9.743  64.813  1.00  0.00    -0.084 C  
BRANCH   5   6
HETATM    6  C   UNL     1      -6.313   8.595  65.553  1.00  0.00    -0.055 C  
HETATM    7  C   UNL     1      -7.211   8.707  66.562  1.00  0.00    -0.080 C  
HETATM    8  C   UNL     1      -7.789   7.458  67.102  1.00  0.00    -0.117 A  
HETATM    9  C   UNL     1      -7.013   6.518  67.791  1.00  0.00    -0.082 A  
HETATM   10  C   UNL     1      -7.616   5.393  68.355  1.00  0.00    -0.080 A  
HETATM   11  C   UNL     1      -8.993   5.206  68.236  1.00  0.00    -0.119 A  
HETATM   12  C   UNL     1      -9.770   6.138  67.547  1.00  0.00    -0.126 A  
HETATM   13  C   UNL     1      -9.173   7.268  66.974  1.00  0.00    -0.170 A  
HETATM   14  C   UNL     1      -9.981   8.303  66.232  1.00  0.00    -0.109 C  
HETATM   15  O   UNL     1     -10.150   9.510  66.976  1.00  0.00    -0.203 OA 
HETATM   16  C   UNL     1      -9.073  10.342  67.151  1.00  0.00    -0.139 A  
HETATM   17  C   UNL     1      -7.709  10.032  67.024  1.00  0.00    -0.095 A  
HETATM   18  C   UNL     1      -6.761  11.009  67.403  1.00  0.00    -0.080 A  
HETATM   19  C   UNL     1      -7.134  12.315  67.753  1.00  0.00    -0.114 A  
HETATM   20  C   UNL     1      -8.495  12.616  67.824  1.00  0.00    -0.172 A  
HETATM   21  C   UNL     1      -9.450  11.631  67.555  1.00  0.00    -0.173 A  
BRANCH  19  22
HETATM   22  C   UNL     1      -6.094  13.351  68.117  1.00  0.00    -0.112 C  
HETATM   23  C   UNL     1      -6.055  13.865  69.544  1.00  0.00    -0.110 C  
HETATM   24  O   UNL     1      -5.338  14.808  69.873  1.00  0.00    -0.094 OA 
HETATM   25  O   UNL     1      -6.820  13.230  70.454  1.00  0.00     0.444 OA 
ENDBRANCH  19  22
ENDBRANCH   5   6
ENDBRANCH   4   5
ENDBRANCH   2   4
TORSDOF 4
ENDMDL
MODEL      180
REMARK 921   NORMALIZED FREE ENERGY PREDICTED BY IDOCK:   21.81 KCAL/MOL
REMARK 922        TOTAL FREE ENERGY PREDICTED BY IDOCK:   26.36 KCAL/MOL
REMARK 923 INTER-LIGAND FREE ENERGY PREDICTED BY IDOCK:   10.92 KCAL/MOL
REMARK 924 INTRA-LIGAND FREE ENERGY PREDICTED BY IDOCK:   15.44 KCAL/MOL
REMARK 927      BINDING AFFINITY PREDICTED BY RF-SCORE:    0.00 PKD
ROOT
HETATM    1  C   UNL     1     -10.063   6.474  69.001  1.00  0.00    -0.165 C  
HETATM    2  N   UNL     1     -10.857   5.610  68.119  1.00  0.00    -0.160 NA 
HETATM    3  C   UNL     1      -9.959   4.755  67.340  1.00  0.00    -0.159 C  
ENDROOT
BRANCH   2   4
HETATM    4  C   UNL     1     -11.838   4.787  68.861  1.00  0.00     7.353 C  
BRANCH   4   5
HETATM    5  C   UNL     1     -12.676   5.642  69.825  1.00  0.00     6.209 C  
BRANCH   5   6
HETATM    6  C   UNL     1     -12.443   7.134  69.762  1.00  0.00     0.987 C  
HETATM    7  C   UNL     1     -11.329   7.781  70.183  1.00  0.00    -0.121 C  
HETATM    8  C   UNL     1     -11.264   9.241  69.959  1.00  0.00    -0.190 A  
HETATM    9  C   UNL     1     -12.124  10.131  70.613  1.00  0.00    -0.411 A  
HETATM   10  C   UNL     1     -11.973  11.507  70.436  1.00  0.00    -0.459 A  
HETATM   11  C   UNL     1     -10.962  11.997  69.609  1.00  0.00     0.033 A  
HETATM   12  C   UNL     1     -10.104  11.114  68.953  1.00  0.00    -0.199 A  
HETATM   13  C   UNL     1     -10.250   9.731  69.121  1.00  0.00    -0.211 A  
HETATM   14  C   UNL     1      -9.336   8.745  68.438  1.00  0.00    -0.137 C  
HETATM   15  O   UNL     1      -8.397   8.150  69.333  1.00  0.00    -0.120 OA 
HETATM   16  C   UNL     1      -8.842   7.237  70.256  1.00  0.00    -0.147 A  
HETATM   17  C   UNL     1     -10.153   7.046  70.723  1.00  0.00    -0.205 A  
HETATM   18  C   UNL     1     -10.358   6.148  71.795  1.00  0.00    -0.250 A  
HETATM   19  C   UNL     1      -9.329   5.339  72.299  1.00  0.00    -0.160 A  
HETATM   20  C   UNL     1      -8.043   5.511  71.785  1.00  0.00    -0.118 A  
HETATM   21  C   UNL     1      -7.801   6.469  70.798  1.00  0.00    -0.106 A  
BRANCH  19  22
HETATM   22  C   UNL     1      -9.588   4.358  73.422  1.00  0.00    -0.139 C  
HETATM   23  C   UNL     1      -9.033   2.952  73.295  1.00  0.00    -0.082 C  
HETATM   24  O   UNL     1      -9.328   2.066  74.094  1.00  0.00    -0.071 OA 
HETATM   25  O   UNL     1      -8.177   2.711  72.282  1.00  0.00    -0.054 OA 
ENDBRANCH  19  22
ENDBRANCH   5   6
ENDBRANCH   4   5
ENDBRANCH   2   4
TORSDOF 4
ENDMDL
MODEL      181
REMARK 921   NORMALIZED FREE ENERGY PREDICTED BY IDOCK:   25.71 KCAL/MOL
REMARK 922        TOTAL FREE ENERGY PREDICTED BY IDOCK:   31.17 KCAL/MOL
REMARK 923 INTER-LIGAND FREE ENERGY PREDICTED BY IDOCK:   30.06 KCAL/MOL
REMARK 924 INTRA-LIGAND FREE ENERGY PREDICTED BY IDOCK:    1.11 KCAL/MOL
REMARK 927      BINDING AFFINITY PREDICTED BY RF-SCORE:    0.00 PKD
ROOT
HETATM    1  C   UNL     1      -8.604  14.030  72.278  1.00  0.00     9.924 C  
HETATM    2  N   UNL     1      -7.405  13.493  71.624  1.00  0.00     4.160 NA 
HETATM    3  C   UNL     1      -7.039  14.353  70.497  1.00  0.00     0.553 C  
ENDROOT
BRANCH   2   4
HETATM    4  C   UNL     1      -6.264  13.351  72.557  1.00  0.00     1.921 C  
BRANCH   4   5
HETATM    5  C   UNL     1      -5.816  11.886  72.682  1.00  0.00     2.117 C  
BRANCH   5   6
HETATM    6  C   UNL     1      -6.907  10.883  72.979  1.00  0.00     5.708 C  
HETATM    7  C   UNL     1      -7.366   9.934  72.127  1.00  0.00     2.109 C  
HETATM    8  C   UNL     1      -8.386   8.994  72.640  1.00  0.00     0.615 A  
HETATM    9  C   UNL     1      -9.674   9.416  72.989  1.00  0.00     3.099 A  
HETATM   10  C   UNL     1     -10.631   8.482  73.390  1.00  0.00     1.221 A  
HETATM   11  C   UNL     1     -10.305   7.126  73.439  1.00  0.00    -0.391 A  
HETATM   12  C   UNL     1      -9.021   6.701  73.094  1.00  0.00    -0.140 A  
HETATM   13  C   UNL     1      -8.053   7.632  72.695  1.00  0.00    -0.148 A  
HETATM   14  C   UNL     1      -6.659   7.211  72.304  1.00  0.00    -0.056 C  
HETATM   15  O   UNL     1      -6.436   7.274  70.896  1.00  0.00    -0.042 OA 
HETATM   16  C   UNL     1      -6.334   8.501  70.291  1.00  0.00    -0.035 A  
HETATM   17  C   UNL     1      -6.776   9.744  70.774  1.00  0.00    -0.081 A  
HETATM   18  C   UNL     1      -6.704  10.862  69.911  1.00  0.00    -0.147 A  
HETATM   19  C   UNL     1      -6.074  10.801  68.660  1.00  0.00    -0.039 A  
HETATM   20  C   UNL     1      -5.597   9.565  68.221  1.00  0.00    -0.037 A  
HETATM   21  C   UNL     1      -5.753   8.426  69.016  1.00  0.00    -0.039 A  
BRANCH  19  22
HETATM   22  C   UNL     1      -5.980  12.024  67.775  1.00  0.00    -0.078 C  
HETATM   23  C   UNL     1      -7.175  12.957  67.702  1.00  0.00    -0.147 C  
HETATM   24  O   UNL     1      -7.223  13.883  66.896  1.00  0.00     0.151 OA 
HETATM   25  O   UNL     1      -8.179  12.750  68.576  1.00  0.00    -0.142 OA 
ENDBRANCH  19  22
ENDBRANCH   5   6
ENDBRANCH   4   5
ENDBRANCH   2   4
TORSDOF 4
ENDMDL
MODEL      182
REMARK 921   NORMALIZED FREE ENERGY PREDICTED BY IDOCK:   43.19 KCAL/MOL
REMARK 922        TOTAL FREE ENERGY PREDICTED BY IDOCK:   52.74 KCAL/MOL
REMARK 923 INTER-LIGAND FREE ENERGY PREDICTED BY IDOCK:   50.97 KCAL/MOL
REMARK 924 INTRA-LIGAND FREE ENERGY PREDICTED BY IDOCK:    1.76 KCAL/MOL
REMARK 927      BINDING AFFINITY PREDICTED BY RF-SCORE:    0.00 PKD
ROOT
HETATM    1  C   UNL     1     -12.184   8.254  62.528  1.00  0.00    19.797 C  
HETATM    2  N   UNL     1     -11.944   8.722  63.898  1.00  0.00    16.459 NA 
HETATM    3  C   UNL     1     -10.919   7.884  64.525  1.00  0.00    11.222 C  
ENDROOT
BRANCH   2   4
HETATM    4  C   UNL     1     -11.548  10.147  63.950  1.00  0.00     4.824 C  
BRANCH   4   5
HETATM    5  C   UNL     1     -10.775  10.471  65.239  1.00  0.00    -0.019 C  
BRANCH   5   6
HETATM    6  C   UNL     1      -9.466   9.740  65.427  1.00  0.00    -0.333 C  
HETATM    7  C   UNL     1      -8.765   9.652  66.584  1.00  0.00    -0.146 C  
HETATM    8  C   UNL     1      -7.543   8.820  66.580  1.00  0.00    -0.095 A  
HETATM    9  C   UNL     1      -6.413   9.168  65.830  1.00  0.00    -0.061 A  
HETATM   10  C   UNL     1      -5.252   8.398  65.920  1.00  0.00    -0.031 A  
HETATM   11  C   UNL     1      -5.216   7.285  66.760  1.00  0.00    -0.022 A  
HETATM   12  C   UNL     1      -6.341   6.933  67.506  1.00  0.00    -0.045 A  
HETATM   13  C   UNL     1      -7.513   7.697  67.420  1.00  0.00    -0.100 A  
HETATM   14  C   UNL     1      -8.745   7.356  68.219  1.00  0.00    -0.122 C  
HETATM   15  O   UNL     1      -8.959   8.246  69.313  1.00  0.00    -0.145 OA 
HETATM   16  C   UNL     1      -9.369   9.531  69.057  1.00  0.00    -0.155 A  
HETATM   17  C   UNL     1      -9.270  10.248  67.852  1.00  0.00    -0.143 A  
HETATM   18  C   UNL     1      -9.618  11.618  67.858  1.00  0.00    -0.180 A  
HETATM   19  C   UNL     1     -10.195  12.237  68.975  1.00  0.00     0.063 A  
HETATM   20  C   UNL     1     -10.330  11.491  70.147  1.00  0.00     1.324 A  
HETATM   21  C   UNL     1      -9.894  10.165  70.192  1.00  0.00    -0.108 A  
BRANCH  19  22
HETATM   22  C   UNL     1     -10.593  13.696  68.938  1.00  0.00    -0.211 C  
HETATM   23  C   UNL     1     -10.494  14.439  67.618  1.00  0.00    -0.245 C  
HETATM   24  O   UNL     1     -10.658  15.655  67.546  1.00  0.00    -0.283 OA 
HETATM   25  O   UNL     1     -10.243  13.710  66.512  1.00  0.00    -0.272 OA 
ENDBRANCH  19  22
ENDBRANCH   5   6
ENDBRANCH   4   5
ENDBRANCH   2   4
TORSDOF 4
ENDMDL
MODEL      183
REMARK 921   NORMALIZED FREE ENERGY PREDICTED BY IDOCK:   50.12 KCAL/MOL
REMARK 922        TOTAL FREE ENERGY PREDICTED BY IDOCK:   61.29 KCAL/MOL
REMARK 923 INTER-LIGAND FREE ENERGY PREDICTED BY IDOCK:   61.21 KCAL/MOL
REMARK 924 INTRA-LIGAND FREE ENERGY PREDICTED BY IDOCK:    0.07 KCAL/MOL
REMARK 927      BINDING AFFINITY PREDICTED BY RF-SCORE:    0.00 PKD
ROOT
HETATM    1  C   UNL     1     -10.757  14.126  74.047  1.00  0.00     5.253 C  
HETATM    2  N   UNL     1     -10.280  13.579  72.771  1.00  0.00     9.261 NA 
HETATM    3  C   UNL     1     -10.400  14.601  71.729  1.00  0.00     2.592 C  
ENDROOT
BRANCH   2   4
HETATM    4  C   UNL     1      -8.888  13.082  72.850  1.00  0.00    19.880 C  
BRANCH   4   5
HETATM    5  C   UNL     1      -8.651  11.913  71.881  1.00  0.00    17.015 C  
BRANCH   5   6
HETATM    6  C   UNL     1      -8.736  10.528  72.480  1.00  0.00     9.937 C  
HETATM    7  C   UNL     1      -8.927   9.376  71.792  1.00  0.00     0.617 C  
HETATM    8  C   UNL     1      -8.901   8.111  72.558  1.00  0.00    -0.272 A  
HETATM    9  C   UNL     1      -9.881   7.799  73.508  1.00  0.00    -0.298 A  
HETATM   10  C   UNL     1      -9.864   6.559  74.148  1.00  0.00    -0.318 A  
HETATM   11  C   UNL     1      -8.871   5.629  73.840  1.00  0.00    -0.123 A  
HETATM   12  C   UNL     1      -7.890   5.937  72.896  1.00  0.00    -0.107 A  
HETATM   13  C   UNL     1      -7.896   7.181  72.251  1.00  0.00    -0.092 A  
HETATM   14  C   UNL     1      -6.861   7.546  71.219  1.00  0.00    -0.050 C  
HETATM   15  O   UNL     1      -7.375   7.526  69.887  1.00  0.00    -0.078 OA 
HETATM   16  C   UNL     1      -8.247   8.509  69.495  1.00  0.00    -0.116 A  
HETATM   17  C   UNL     1      -9.019   9.357  70.306  1.00  0.00    -0.277 A  
HETATM   18  C   UNL     1      -9.970  10.197  69.683  1.00  0.00    -0.262 A  
HETATM   19  C   UNL     1     -10.059  10.321  68.289  1.00  0.00    -0.176 A  
HETATM   20  C   UNL     1      -9.245   9.504  67.502  1.00  0.00    -0.142 A  
HETATM   21  C   UNL     1      -8.374   8.591  68.100  1.00  0.00    -0.127 A  
BRANCH  19  22
HETATM   22  C   UNL     1     -11.061  11.258  67.652  1.00  0.00    -0.336 C  
HETATM   23  C   UNL     1     -11.178  12.669  68.198  1.00  0.00    -0.269 C  
HETATM   24  O   UNL     1     -12.068  13.433  67.829  1.00  0.00    -0.338 OA 
HETATM   25  O   UNL     1     -10.250  13.070  69.089  1.00  0.00     0.037 OA 
ENDBRANCH  19  22
ENDBRANCH   5   6
ENDBRANCH   4   5
ENDBRANCH   2   4
TORSDOF 4
ENDMDL
MODEL      184
REMARK 921   NORMALIZED FREE ENERGY PREDICTED BY IDOCK:   54.36 KCAL/MOL
REMARK 922        TOTAL FREE ENERGY PREDICTED BY IDOCK:   66.52 KCAL/MOL
REMARK 923 INTER-LIGAND FREE ENERGY PREDICTED BY IDOCK:   65.40 KCAL/MOL
REMARK 924 INTRA-LIGAND FREE ENERGY PREDICTED BY IDOCK:    1.12 KCAL/MOL
REMARK 927      BINDING AFFINITY PREDICTED BY RF-SCORE:    0.00 PKD
ROOT
HETATM    1  C   UNL     1     -12.377   8.193  62.474  1.00  0.00    19.919 C  
HETATM    2  N   UNL     1     -12.260   8.169  63.937  1.00  0.00    21.786 NA 
HETATM    3  C   UNL     1     -11.376   7.071  64.335  1.00  0.00    13.652 C  
ENDROOT
BRANCH   2   4
HETATM    4  C   UNL     1     -11.772   9.452  64.490  1.00  0.00     9.872 C  
BRANCH   4   5
HETATM    5  C   UNL     1     -10.993   9.242  65.798  1.00  0.00     1.965 C  
BRANCH   5   6
HETATM    6  C   UNL     1      -9.784   8.339  65.712  1.00  0.00     0.159 C  
HETATM    7  C   UNL     1      -9.130   7.785  66.763  1.00  0.00    -0.185 C  
HETATM    8  C   UNL     1      -8.014   6.863  66.462  1.00  0.00    -0.109 A  
HETATM    9  C   UNL     1      -6.831   7.303  65.857  1.00  0.00    -0.057 A  
HETATM   10  C   UNL     1      -5.771   6.415  65.667  1.00  0.00    -0.022 A  
HETATM   11  C   UNL     1      -5.889   5.089  66.083  1.00  0.00    -0.022 A  
HETATM   12  C   UNL     1      -7.068   4.645  66.685  1.00  0.00    -0.071 A  
HETATM   13  C   UNL     1      -8.138   5.528  66.876  1.00  0.00    -0.101 A  
HETATM   14  C   UNL     1      -9.423   5.089  67.531  1.00  0.00    -0.135 C  
HETATM   15  O   UNL     1      -9.561   5.581  68.864  1.00  0.00    -0.123 OA 
HETATM   16  C   UNL     1      -9.810   6.917  69.059  1.00  0.00    -0.152 A  
HETATM   17  C   UNL     1      -9.595   7.978  68.164  1.00  0.00    -0.165 A  
HETATM   18  C   UNL     1      -9.780   9.298  68.633  1.00  0.00    -0.158 A  
HETATM   19  C   UNL     1     -10.310   9.573  69.902  1.00  0.00    -0.265 A  
HETATM   20  C   UNL     1     -10.564   8.499  70.757  1.00  0.00    -0.244 A  
HETATM   21  C   UNL     1     -10.287   7.192  70.349  1.00  0.00    -0.216 A  
BRANCH  19  22
HETATM   22  C   UNL     1     -10.532  10.997  70.362  1.00  0.00     0.912 C  
HETATM   23  C   UNL     1     -11.916  11.599  70.202  1.00  0.00    -0.359 C  
HETATM   24  O   UNL     1     -12.131  12.791  70.416  1.00  0.00    -0.363 OA 
HETATM   25  O   UNL     1     -12.916  10.772  69.840  1.00  0.00    -0.118 OA 
ENDBRANCH  19  22
ENDBRANCH   5   6
ENDBRANCH   4   5
ENDBRANCH   2   4
TORSDOF 4
ENDMDL
