MODEL        1
REMARK 921   NORMALIZED FREE ENERGY PREDICTED BY IDOCK:   -8.51 KCAL/MOL
REMARK 922        TOTAL FREE ENERGY PREDICTED BY IDOCK:  -10.37 KCAL/MOL
REMARK 923 INTER-LIGAND FREE ENERGY PREDICTED BY IDOCK:  -10.01 KCAL/MOL
REMARK 924 INTRA-LIGAND FREE ENERGY PREDICTED BY IDOCK:   -0.36 KCAL/MOL
REMARK 927      BINDING AFFINITY PREDICTED BY RF-SCORE:    0.00 PKD
ROOT
HETATM    1  O   UNL     1     -13.973  15.634  72.100  1.00  0.00    -0.499 OA 
HETATM    2  C   UNL     1     -13.113  15.301  71.116  1.00  0.00    -0.479 C  
HETATM    3  C   UNL     1     -12.812  13.844  70.990  1.00  0.00    -0.394 A  
HETATM    4  O   UNL     1     -12.615  16.138  70.379  1.00  0.00    -0.207 OA 
HETATM    5  C   UNL     1     -11.923  13.452  69.969  1.00  0.00    -0.407 A  
HETATM    6  C   UNL     1     -11.594  12.103  69.767  1.00  0.00    -0.262 A  
HETATM    7  C   UNL     1     -12.172  11.149  70.614  1.00  0.00    -0.492 A  
HETATM    8  C   UNL     1     -13.375  12.860  71.814  1.00  0.00    -0.359 A  
HETATM    9  H   UNL     1     -14.641  12.540  73.361  1.00  0.00     0.000 HD 
HETATM   10  C   UNL     1     -13.054  11.516  71.634  1.00  0.00    -0.478 A  
HETATM   11  O   UNL     1     -14.259  13.207  72.803  1.00  0.00    -0.608 OA 
ENDROOT
BRANCH   6  12
HETATM   12  N   UNL     1     -10.784  11.625  68.715  1.00  0.00    -0.212 NA 
HETATM   13  H   UNL     1     -10.745  10.642  68.443  1.00  0.00     0.000 HD 
BRANCH  12  14
HETATM   14  N   UNL     1     -10.121  12.517  68.149  1.00  0.00    -0.220 NA 
HETATM   15  H   UNL     1      -9.223  12.862  68.489  1.00  0.00     0.000 HD 
BRANCH  14  16
HETATM   16  C   UNL     1     -10.758  12.996  66.981  1.00  0.00    -0.258 A  
HETATM   17  C   UNL     1     -12.101  12.475  65.012  1.00  0.00    -0.504 A  
HETATM   18  C   UNL     1     -11.498  12.088  66.212  1.00  0.00    -0.408 A  
HETATM   19  C   UNL     1     -11.959  13.785  64.558  1.00  0.00    -0.427 A  
HETATM   20  C   UNL     1     -11.231  14.722  65.302  1.00  0.00    -0.366 A  
HETATM   21  O   UNL     1     -12.535  14.148  63.366  1.00  0.00    -1.122 OA 
HETATM   22  C   UNL     1     -11.033  16.144  64.891  1.00  0.00    -0.349 C  
HETATM   23  C   UNL     1     -10.634  14.313  66.509  1.00  0.00    -0.286 A  
HETATM   24  H   UNL     1     -12.438  15.041  63.056  1.00  0.00     0.000 HD 
HETATM   25  O   UNL     1     -11.577  16.487  63.706  1.00  0.00    -1.109 OA 
HETATM   26  O   UNL     1     -10.415  16.942  65.578  1.00  0.00    -0.560 OA 
ENDBRANCH  14  16
ENDBRANCH  12  14
ENDBRANCH   6  12
TORSDOF 3
ENDMDL
MODEL        2
REMARK 921   NORMALIZED FREE ENERGY PREDICTED BY IDOCK:   -8.45 KCAL/MOL
REMARK 922        TOTAL FREE ENERGY PREDICTED BY IDOCK:  -10.30 KCAL/MOL
REMARK 923 INTER-LIGAND FREE ENERGY PREDICTED BY IDOCK:  -10.03 KCAL/MOL
REMARK 924 INTRA-LIGAND FREE ENERGY PREDICTED BY IDOCK:   -0.27 KCAL/MOL
REMARK 927      BINDING AFFINITY PREDICTED BY RF-SCORE:    0.00 PKD
ROOT
HETATM    1  O   UNL     1     -11.412  16.675  63.859  1.00  0.00    -1.186 OA 
HETATM    2  C   UNL     1     -10.831  16.237  64.995  1.00  0.00    -0.320 C  
HETATM    3  C   UNL     1     -11.178  14.843  65.399  1.00  0.00    -0.359 A  
HETATM    4  O   UNL     1     -10.074  16.938  65.647  1.00  0.00    -0.546 OA 
HETATM    5  C   UNL     1     -10.587  14.344  66.577  1.00  0.00    -0.296 A  
HETATM    6  C   UNL     1     -10.844  13.039  67.026  1.00  0.00    -0.261 A  
HETATM    7  C   UNL     1     -11.712  12.241  66.270  1.00  0.00    -0.431 A  
HETATM    8  C   UNL     1     -12.037  14.012  64.667  1.00  0.00    -0.440 A  
HETATM    9  H   UNL     1     -13.194  13.897  63.009  1.00  0.00     0.000 HD 
HETATM   10  C   UNL     1     -12.310  12.716  65.101  1.00  0.00    -0.547 A  
HETATM   11  O   UNL     1     -12.612  14.461  63.506  1.00  0.00    -0.784 OA 
ENDROOT
BRANCH   6  12
HETATM   12  N   UNL     1     -10.224  12.439  68.142  1.00  0.00    -0.219 NA 
HETATM   13  H   UNL     1      -9.300  12.711  68.481  1.00  0.00     0.000 HD 
BRANCH  12  14
HETATM   14  N   UNL     1     -10.911  11.545  68.677  1.00  0.00    -0.207 NA 
HETATM   15  H   UNL     1     -10.927  10.575  68.363  1.00  0.00     0.000 HD 
BRANCH  14  16
HETATM   16  C   UNL     1     -11.667  12.034  69.768  1.00  0.00    -0.319 A  
HETATM   17  C   UNL     1     -12.991  11.513  71.749  1.00  0.00    -0.500 A  
HETATM   18  C   UNL     1     -12.181  11.108  70.683  1.00  0.00    -0.492 A  
HETATM   19  C   UNL     1     -13.306  12.863  71.903  1.00  0.00    -0.435 A  
HETATM   20  C   UNL     1     -12.806  13.818  71.010  1.00  0.00    -0.376 A  
HETATM   21  O   UNL     1     -14.122  13.247  72.939  1.00  0.00    -0.638 OA 
HETATM   22  C   UNL     1     -13.091  15.280  71.104  1.00  0.00    -0.479 C  
HETATM   23  C   UNL     1     -11.991  13.390  69.946  1.00  0.00    -0.408 A  
HETATM   24  H   UNL     1     -14.337  14.166  73.044  1.00  0.00     0.000 HD 
HETATM   25  O   UNL     1     -13.915  15.649  72.107  1.00  0.00    -0.499 OA 
HETATM   26  O   UNL     1     -12.616  16.091  70.324  1.00  0.00    -0.286 OA 
ENDBRANCH  14  16
ENDBRANCH  12  14
ENDBRANCH   6  12
TORSDOF 3
ENDMDL
MODEL        3
REMARK 921   NORMALIZED FREE ENERGY PREDICTED BY IDOCK:   -8.28 KCAL/MOL
REMARK 922        TOTAL FREE ENERGY PREDICTED BY IDOCK:  -10.10 KCAL/MOL
REMARK 923 INTER-LIGAND FREE ENERGY PREDICTED BY IDOCK:   -9.70 KCAL/MOL
REMARK 924 INTRA-LIGAND FREE ENERGY PREDICTED BY IDOCK:   -0.39 KCAL/MOL
REMARK 927      BINDING AFFINITY PREDICTED BY RF-SCORE:    0.00 PKD
ROOT
HETATM    1  O   UNL     1     -12.932  15.807  71.550  1.00  0.00    -0.470 OA 
HETATM    2  C   UNL     1     -12.405  15.051  70.564  1.00  0.00    -0.356 C  
HETATM    3  C   UNL     1     -12.540  13.575  70.744  1.00  0.00    -0.382 A  
HETATM    4  O   UNL     1     -11.856  15.544  69.591  1.00  0.00    -0.325 OA 
HETATM    5  C   UNL     1     -12.010  12.748  69.733  1.00  0.00    -0.362 A  
HETATM    6  C   UNL     1     -12.104  11.350  69.811  1.00  0.00    -0.320 A  
HETATM    7  C   UNL     1     -12.738  10.793  70.929  1.00  0.00    -0.478 A  
HETATM    8  C   UNL     1     -13.173  12.980  71.844  1.00  0.00    -0.430 A  
HETATM    9  H   UNL     1     -14.146  13.355  73.580  1.00  0.00     0.000 HD 
HETATM   10  C   UNL     1     -13.269  11.594  71.943  1.00  0.00    -0.475 A  
HETATM   11  O   UNL     1     -13.717  13.758  72.834  1.00  0.00    -0.684 OA 
ENDROOT
BRANCH   6  12
HETATM   12  N   UNL     1     -11.678  10.461  68.801  1.00  0.00    -0.588 NA 
HETATM   13  H   UNL     1     -12.216   9.642  68.516  1.00  0.00     0.000 HD 
BRANCH  12  14
HETATM   14  N   UNL     1     -10.583  10.772  68.291  1.00  0.00    -0.187 NA 
HETATM   15  H   UNL     1      -9.710  10.840  68.813  1.00  0.00     0.000 HD 
BRANCH  14  16
HETATM   16  C   UNL     1     -10.693  11.018  66.902  1.00  0.00    -0.274 A  
HETATM   17  C   UNL     1      -9.922  10.478  64.652  1.00  0.00    -0.415 A  
HETATM   18  C   UNL     1      -9.914  10.247  66.030  1.00  0.00    -0.308 A  
HETATM   19  C   UNL     1     -10.711  11.502  64.127  1.00  0.00    -0.368 A  
HETATM   20  C   UNL     1     -11.507  12.290  64.967  1.00  0.00    -0.386 A  
HETATM   21  O   UNL     1     -10.693  11.736  62.774  1.00  0.00    -0.608 OA 
HETATM   22  C   UNL     1     -12.381  13.402  64.490  1.00  0.00    -0.360 C  
HETATM   23  C   UNL     1     -11.486  12.039  66.352  1.00  0.00    -0.417 A  
HETATM   24  H   UNL     1     -11.231  12.434  62.417  1.00  0.00     0.000 HD 
HETATM   25  O   UNL     1     -12.339  13.645  63.164  1.00  0.00    -0.729 OA 
HETATM   26  O   UNL     1     -13.085  14.052  65.247  1.00  0.00    -0.782 OA 
ENDBRANCH  14  16
ENDBRANCH  12  14
ENDBRANCH   6  12
TORSDOF 3
ENDMDL
MODEL        4
REMARK 921   NORMALIZED FREE ENERGY PREDICTED BY IDOCK:   -8.28 KCAL/MOL
REMARK 922        TOTAL FREE ENERGY PREDICTED BY IDOCK:  -10.09 KCAL/MOL
REMARK 923 INTER-LIGAND FREE ENERGY PREDICTED BY IDOCK:   -9.59 KCAL/MOL
REMARK 924 INTRA-LIGAND FREE ENERGY PREDICTED BY IDOCK:   -0.50 KCAL/MOL
REMARK 927      BINDING AFFINITY PREDICTED BY RF-SCORE:    0.00 PKD
ROOT
HETATM    1  O   UNL     1     -11.566  16.519  63.713  1.00  0.00    -1.109 OA 
HETATM    2  C   UNL     1     -11.041  16.189  64.912  1.00  0.00    -0.325 C  
HETATM    3  C   UNL     1     -11.361  14.814  65.397  1.00  0.00    -0.356 A  
HETATM    4  O   UNL     1     -10.352  16.966  65.553  1.00  0.00    -0.572 OA 
HETATM    5  C   UNL     1     -10.825  14.426  66.642  1.00  0.00    -0.304 A  
HETATM    6  C   UNL     1     -11.061  13.147  67.170  1.00  0.00    -0.279 A  
HETATM    7  C   UNL     1     -11.850  12.261  66.426  1.00  0.00    -0.382 A  
HETATM    8  C   UNL     1     -12.141  13.897  64.679  1.00  0.00    -0.431 A  
HETATM    9  H   UNL     1     -13.187  13.616  62.969  1.00  0.00     0.000 HD 
HETATM   10  C   UNL     1     -12.392  12.626  65.191  1.00  0.00    -0.547 A  
HETATM   11  O   UNL     1     -12.659  14.238  63.456  1.00  0.00    -0.814 OA 
ENDROOT
BRANCH   6  12
HETATM   12  N   UNL     1     -10.489  12.656  68.363  1.00  0.00    -0.234 NA 
HETATM   13  H   UNL     1      -9.751  11.952  68.379  1.00  0.00     0.000 HD 
BRANCH  12  14
HETATM   14  N   UNL     1     -10.973  13.163  69.395  1.00  0.00    -0.450 NA 
HETATM   15  H   UNL     1     -10.874  14.147  69.646  1.00  0.00     0.000 HD 
BRANCH  14  16
HETATM   16  C   UNL     1     -11.673  12.216  70.178  1.00  0.00    -0.218 A  
HETATM   17  C   UNL     1     -13.288  11.814  71.961  1.00  0.00    -0.417 A  
HETATM   18  C   UNL     1     -12.606  12.688  71.109  1.00  0.00    -0.354 A  
HETATM   19  C   UNL     1     -13.030  10.445  71.897  1.00  0.00    -0.450 A  
HETATM   20  C   UNL     1     -12.107   9.936  70.976  1.00  0.00    -0.450 A  
HETATM   21  O   UNL     1     -13.687   9.598  72.755  1.00  0.00    -0.692 OA 
HETATM   22  C   UNL     1     -11.774   8.487  70.839  1.00  0.00    -0.245 C  
HETATM   23  C   UNL     1     -11.434  10.832  70.125  1.00  0.00    -0.415 A  
HETATM   24  H   UNL     1     -13.511   8.665  72.712  1.00  0.00     0.000 HD 
HETATM   25  O   UNL     1     -12.402   7.662  71.702  1.00  0.00    -0.303 OA 
HETATM   26  O   UNL     1     -10.984   8.073  70.005  1.00  0.00    -0.249 OA 
ENDBRANCH  14  16
ENDBRANCH  12  14
ENDBRANCH   6  12
TORSDOF 3
ENDMDL
MODEL        5
REMARK 921   NORMALIZED FREE ENERGY PREDICTED BY IDOCK:   -8.13 KCAL/MOL
REMARK 922        TOTAL FREE ENERGY PREDICTED BY IDOCK:   -9.92 KCAL/MOL
REMARK 923 INTER-LIGAND FREE ENERGY PREDICTED BY IDOCK:   -9.42 KCAL/MOL
REMARK 924 INTRA-LIGAND FREE ENERGY PREDICTED BY IDOCK:   -0.50 KCAL/MOL
REMARK 927      BINDING AFFINITY PREDICTED BY RF-SCORE:    0.00 PKD
ROOT
HETATM    1  O   UNL     1     -12.121   7.385  71.573  1.00  0.00    -0.296 OA 
HETATM    2  C   UNL     1     -11.466   8.196  70.717  1.00  0.00    -0.261 C  
HETATM    3  C   UNL     1     -11.841   9.640  70.785  1.00  0.00    -0.378 A  
HETATM    4  O   UNL     1     -10.625   7.774  69.939  1.00  0.00    -0.231 OA 
HETATM    5  C   UNL     1     -11.174  10.523  69.912  1.00  0.00    -0.374 A  
HETATM    6  C   UNL     1     -11.451  11.899  69.916  1.00  0.00    -0.186 A  
HETATM    7  C   UNL     1     -12.415  12.375  70.813  1.00  0.00    -0.356 A  
HETATM    8  C   UNL     1     -12.794  10.155  71.673  1.00  0.00    -0.454 A  
HETATM    9  H   UNL     1     -14.092   9.674  73.151  1.00  0.00     0.000 HD 
HETATM   10  C   UNL     1     -13.088  11.517  71.686  1.00  0.00    -0.478 A  
HETATM   11  O   UNL     1     -13.445   9.324  72.549  1.00  0.00    -0.464 OA 
ENDROOT
BRANCH   6  12
HETATM   12  N   UNL     1     -10.766  12.856  69.137  1.00  0.00    -0.439 NA 
HETATM   13  H   UNL     1     -10.691  13.839  69.400  1.00  0.00     0.000 HD 
BRANCH  12  14
HETATM   14  N   UNL     1     -10.261  12.386  68.097  1.00  0.00    -0.219 NA 
HETATM   15  H   UNL     1      -9.503  11.705  68.090  1.00  0.00     0.000 HD 
BRANCH  14  16
HETATM   16  C   UNL     1     -10.864  12.909  66.929  1.00  0.00    -0.257 A  
HETATM   17  C   UNL     1     -12.161  12.467  64.911  1.00  0.00    -0.499 A  
HETATM   18  C   UNL     1     -11.593  12.035  66.113  1.00  0.00    -0.371 A  
HETATM   19  C   UNL     1     -11.993  13.790  64.503  1.00  0.00    -0.427 A  
HETATM   20  C   UNL     1     -11.275  14.694  65.295  1.00  0.00    -0.358 A  
HETATM   21  O   UNL     1     -12.534  14.198  63.309  1.00  0.00    -1.146 OA 
HETATM   22  C   UNL     1     -11.051  16.126  64.937  1.00  0.00    -0.325 C  
HETATM   23  C   UNL     1     -10.714  14.239  66.503  1.00  0.00    -0.297 A  
HETATM   24  H   UNL     1     -12.420  15.099  63.032  1.00  0.00     0.000 HD 
HETATM   25  O   UNL     1     -11.561  16.514  63.750  1.00  0.00    -1.109 OA 
HETATM   26  O   UNL     1     -10.443  16.895  65.664  1.00  0.00    -0.494 OA 
ENDBRANCH  14  16
ENDBRANCH  12  14
ENDBRANCH   6  12
TORSDOF 3
ENDMDL
MODEL        6
REMARK 921   NORMALIZED FREE ENERGY PREDICTED BY IDOCK:   -8.13 KCAL/MOL
REMARK 922        TOTAL FREE ENERGY PREDICTED BY IDOCK:   -9.92 KCAL/MOL
REMARK 923 INTER-LIGAND FREE ENERGY PREDICTED BY IDOCK:   -9.48 KCAL/MOL
REMARK 924 INTRA-LIGAND FREE ENERGY PREDICTED BY IDOCK:   -0.44 KCAL/MOL
REMARK 927      BINDING AFFINITY PREDICTED BY RF-SCORE:    0.00 PKD
ROOT
HETATM    1  O   UNL     1     -12.437  14.290  63.626  1.00  0.00    -0.816 OA 
HETATM    2  C   UNL     1     -12.525  13.544  64.748  1.00  0.00    -0.355 C  
HETATM    3  C   UNL     1     -11.666  13.988  65.885  1.00  0.00    -0.373 A  
HETATM    4  O   UNL     1     -13.259  12.571  64.822  1.00  0.00    -0.839 OA 
HETATM    5  C   UNL     1     -11.734  13.240  67.077  1.00  0.00    -0.439 A  
HETATM    6  C   UNL     1     -10.972  13.592  68.203  1.00  0.00    -0.253 A  
HETATM    7  C   UNL     1     -10.135  14.711  68.109  1.00  0.00    -0.224 A  
HETATM    8  C   UNL     1     -10.821  15.105  65.832  1.00  0.00    -0.339 A  
HETATM    9  H   UNL     1     -10.176  16.622  64.656  1.00  0.00     0.000 HD 
HETATM   10  C   UNL     1     -10.052  15.465  66.936  1.00  0.00    -0.258 A  
HETATM   11  O   UNL     1     -10.749  15.864  64.692  1.00  0.00    -0.553 OA 
ENDROOT
BRANCH   6  12
HETATM   12  N   UNL     1     -11.051  12.949  69.456  1.00  0.00    -0.458 NA 
HETATM   13  H   UNL     1     -11.299  13.434  70.318  1.00  0.00     0.000 HD 
BRANCH  12  14
HETATM   14  N   UNL     1     -10.789  11.730  69.410  1.00  0.00    -0.441 NA 
HETATM   15  H   UNL     1     -10.050  11.327  68.833  1.00  0.00     0.000 HD 
BRANCH  14  16
HETATM   16  C   UNL     1     -11.636  10.970  70.251  1.00  0.00    -0.322 A  
HETATM   17  C   UNL     1     -13.355  10.974  71.981  1.00  0.00    -0.393 A  
HETATM   18  C   UNL     1     -12.533  11.656  71.078  1.00  0.00    -0.436 A  
HETATM   19  C   UNL     1     -13.277   9.585  72.074  1.00  0.00    -0.452 A  
HETATM   20  C   UNL     1     -12.395   8.865  71.259  1.00  0.00    -0.342 A  
HETATM   21  O   UNL     1     -14.070   8.928  72.981  1.00  0.00    -1.075 OA 
HETATM   22  C   UNL     1     -12.250   7.380  71.291  1.00  0.00    -0.341 C  
HETATM   23  C   UNL     1     -11.579   9.570  70.355  1.00  0.00    -0.268 A  
HETATM   24  H   UNL     1     -14.017   7.982  73.044  1.00  0.00     0.000 HD 
HETATM   25  O   UNL     1     -13.012   6.742  72.203  1.00  0.00    -0.187 OA 
HETATM   26  O   UNL     1     -11.491   6.780  70.546  1.00  0.00    -0.314 OA 
ENDBRANCH  14  16
ENDBRANCH  12  14
ENDBRANCH   6  12
TORSDOF 3
ENDMDL
MODEL        7
REMARK 921   NORMALIZED FREE ENERGY PREDICTED BY IDOCK:   -7.97 KCAL/MOL
REMARK 922        TOTAL FREE ENERGY PREDICTED BY IDOCK:   -9.73 KCAL/MOL
REMARK 923 INTER-LIGAND FREE ENERGY PREDICTED BY IDOCK:   -9.29 KCAL/MOL
REMARK 924 INTRA-LIGAND FREE ENERGY PREDICTED BY IDOCK:   -0.43 KCAL/MOL
REMARK 927      BINDING AFFINITY PREDICTED BY RF-SCORE:    0.00 PKD
ROOT
HETATM    1  O   UNL     1     -11.707   8.104  72.935  1.00  0.00    -0.373 OA 
HETATM    2  C   UNL     1     -12.362   8.990  72.155  1.00  0.00    -0.372 C  
HETATM    3  C   UNL     1     -11.538   9.651  71.100  1.00  0.00    -0.456 A  
HETATM    4  O   UNL     1     -13.549   9.231  72.305  1.00  0.00    -0.438 OA 
HETATM    5  C   UNL     1     -12.186  10.577  70.258  1.00  0.00    -0.393 A  
HETATM    6  C   UNL     1     -11.493  11.236  69.230  1.00  0.00    -0.301 A  
HETATM    7  C   UNL     1     -10.133  10.950  69.063  1.00  0.00    -0.212 A  
HETATM    8  C   UNL     1     -10.177   9.387  70.897  1.00  0.00    -0.303 A  
HETATM    9  H   UNL     1      -8.600   8.296  71.549  1.00  0.00     0.000 HD 
HETATM   10  C   UNL     1      -9.471  10.037  69.886  1.00  0.00    -0.221 A  
HETATM   11  O   UNL     1      -9.523   8.475  71.687  1.00  0.00    -0.196 OA 
ENDROOT
BRANCH   6  12
HETATM   12  N   UNL     1     -12.090  12.107  68.294  1.00  0.00    -0.384 NA 
HETATM   13  H   UNL     1     -12.745  12.844  68.556  1.00  0.00     0.000 HD 
BRANCH  12  14
HETATM   14  N   UNL     1     -11.739  11.891  67.116  1.00  0.00    -0.583 NA 
HETATM   15  H   UNL     1     -11.519  10.966  66.748  1.00  0.00     0.000 HD 
BRANCH  14  16
HETATM   16  C   UNL     1     -11.684  13.079  66.350  1.00  0.00    -0.390 A  
HETATM   17  C   UNL     1     -12.226  14.198  64.251  1.00  0.00    -0.449 A  
HETATM   18  C   UNL     1     -12.296  13.082  65.090  1.00  0.00    -0.536 A  
HETATM   19  C   UNL     1     -11.526  15.331  64.665  1.00  0.00    -0.354 A  
HETATM   20  C   UNL     1     -10.906  15.366  65.920  1.00  0.00    -0.328 A  
HETATM   21  O   UNL     1     -11.443  16.412  63.823  1.00  0.00    -1.590 OA 
HETATM   22  C   UNL     1     -10.140  16.537  66.441  1.00  0.00    -0.312 C  
HETATM   23  C   UNL     1     -10.991  14.233  66.750  1.00  0.00    -0.304 A  
HETATM   24  H   UNL     1     -10.966  17.184  64.105  1.00  0.00     0.000 HD 
HETATM   25  O   UNL     1     -10.039  17.586  65.600  1.00  0.00    -0.574 OA 
HETATM   26  O   UNL     1      -9.635  16.545  67.553  1.00  0.00    -0.228 OA 
ENDBRANCH  14  16
ENDBRANCH  12  14
ENDBRANCH   6  12
TORSDOF 3
ENDMDL
MODEL        8
REMARK 921   NORMALIZED FREE ENERGY PREDICTED BY IDOCK:   -7.95 KCAL/MOL
REMARK 922        TOTAL FREE ENERGY PREDICTED BY IDOCK:   -9.71 KCAL/MOL
REMARK 923 INTER-LIGAND FREE ENERGY PREDICTED BY IDOCK:   -9.32 KCAL/MOL
REMARK 924 INTRA-LIGAND FREE ENERGY PREDICTED BY IDOCK:   -0.39 KCAL/MOL
REMARK 927      BINDING AFFINITY PREDICTED BY RF-SCORE:    0.00 PKD
ROOT
HETATM    1  O   UNL     1     -11.818   8.808  70.499  1.00  0.00    -0.181 OA 
HETATM    2  C   UNL     1     -11.485   9.945  69.853  1.00  0.00    -0.179 C  
HETATM    3  C   UNL     1     -12.015  11.204  70.456  1.00  0.00    -0.475 A  
HETATM    4  O   UNL     1     -10.798   9.941  68.845  1.00  0.00    -0.218 OA 
HETATM    5  C   UNL     1     -11.685  12.416  69.817  1.00  0.00    -0.361 A  
HETATM    6  C   UNL     1     -12.126  13.650  70.321  1.00  0.00    -0.357 A  
HETATM    7  C   UNL     1     -12.912  13.646  71.480  1.00  0.00    -0.443 A  
HETATM    8  C   UNL     1     -12.798  11.242  71.617  1.00  0.00    -0.405 A  
HETATM    9  H   UNL     1     -13.650  10.106  73.061  1.00  0.00     0.000 HD 
HETATM   10  C   UNL     1     -13.252  12.456  72.128  1.00  0.00    -0.491 A  
HETATM   11  O   UNL     1     -13.120  10.081  72.273  1.00  0.00    -0.413 OA 
ENDROOT
BRANCH   6  12
HETATM   12  N   UNL     1     -11.766  14.907  69.790  1.00  0.00    -0.287 NA 
HETATM   13  H   UNL     1     -12.348  15.740  69.883  1.00  0.00     0.000 HD 
BRANCH  12  14
HETATM   14  N   UNL     1     -10.668  14.903  69.197  1.00  0.00    -0.245 NA 
HETATM   15  H   UNL     1      -9.777  14.702  69.649  1.00  0.00     0.000 HD 
BRANCH  14  16
HETATM   16  C   UNL     1     -10.804  15.211  67.823  1.00  0.00    -0.292 A  
HETATM   17  C   UNL     1     -10.443  16.829  66.034  1.00  0.00    -0.300 A  
HETATM   18  C   UNL     1     -10.288  16.430  67.364  1.00  0.00    -0.295 A  
HETATM   19  C   UNL     1     -11.133  16.009  65.141  1.00  0.00    -0.283 A  
HETATM   20  C   UNL     1     -11.659  14.782  65.563  1.00  0.00    -0.301 A  
HETATM   21  O   UNL     1     -11.301  16.423  63.843  1.00  0.00    -1.510 OA 
HETATM   22  C   UNL     1     -12.407  13.844  64.675  1.00  0.00    -0.388 C  
HETATM   23  C   UNL     1     -11.490  14.397  66.906  1.00  0.00    -0.379 A  
HETATM   24  H   UNL     1     -11.771  15.864  63.236  1.00  0.00     0.000 HD 
HETATM   25  O   UNL     1     -12.592  14.267  63.407  1.00  0.00    -0.777 OA 
HETATM   26  O   UNL     1     -12.828  12.767  65.068  1.00  0.00    -0.743 OA 
ENDBRANCH  14  16
ENDBRANCH  12  14
ENDBRANCH   6  12
TORSDOF 3
ENDMDL
MODEL        9
REMARK 921   NORMALIZED FREE ENERGY PREDICTED BY IDOCK:   -7.93 KCAL/MOL
REMARK 922        TOTAL FREE ENERGY PREDICTED BY IDOCK:   -9.69 KCAL/MOL
REMARK 923 INTER-LIGAND FREE ENERGY PREDICTED BY IDOCK:   -9.21 KCAL/MOL
REMARK 924 INTRA-LIGAND FREE ENERGY PREDICTED BY IDOCK:   -0.47 KCAL/MOL
REMARK 927      BINDING AFFINITY PREDICTED BY RF-SCORE:    0.00 PKD
ROOT
HETATM    1  O   UNL     1     -12.422   7.236  71.882  1.00  0.00    -0.314 OA 
HETATM    2  C   UNL     1     -11.645   7.939  71.031  1.00  0.00    -0.282 C  
HETATM    3  C   UNL     1     -11.926   9.404  70.966  1.00  0.00    -0.389 A  
HETATM    4  O   UNL     1     -10.773   7.409  70.362  1.00  0.00    -0.227 OA 
HETATM    5  C   UNL     1     -11.132  10.176  70.095  1.00  0.00    -0.378 A  
HETATM    6  C   UNL     1     -11.315  11.563  69.978  1.00  0.00    -0.137 A  
HETATM    7  C   UNL     1     -12.316  12.164  70.753  1.00  0.00    -0.391 A  
HETATM    8  C   UNL     1     -12.913  10.042  71.728  1.00  0.00    -0.458 A  
HETATM    9  H   UNL     1     -14.358   9.753  73.118  1.00  0.00     0.000 HD 
HETATM   10  C   UNL     1     -13.115  11.416  71.621  1.00  0.00    -0.498 A  
HETATM   11  O   UNL     1     -13.689   9.320  72.600  1.00  0.00    -0.450 OA 
ENDROOT
BRANCH   6  12
HETATM   12  N   UNL     1     -10.505  12.415  69.198  1.00  0.00    -0.432 NA 
HETATM   13  H   UNL     1      -9.692  12.088  68.676  1.00  0.00     0.000 HD 
BRANCH  12  14
HETATM   14  N   UNL     1     -10.878  13.606  69.206  1.00  0.00    -0.422 NA 
HETATM   15  H   UNL     1     -11.112  14.124  70.053  1.00  0.00     0.000 HD 
BRANCH  14  16
HETATM   16  C   UNL     1     -10.940  14.154  67.903  1.00  0.00    -0.251 A  
HETATM   17  C   UNL     1     -10.390  16.019  66.430  1.00  0.00    -0.312 A  
HETATM   18  C   UNL     1     -10.315  15.386  67.675  1.00  0.00    -0.262 A  
HETATM   19  C   UNL     1     -11.108  15.423  65.394  1.00  0.00    -0.326 A  
HETATM   20  C   UNL     1     -11.741  14.189  65.584  1.00  0.00    -0.357 A  
HETATM   21  O   UNL     1     -11.196  16.064  64.183  1.00  0.00    -1.016 OA 
HETATM   22  C   UNL     1     -12.527  13.481  64.530  1.00  0.00    -0.291 C  
HETATM   23  C   UNL     1     -11.652  13.568  66.844  1.00  0.00    -0.398 A  
HETATM   24  H   UNL     1     -11.685  15.658  63.478  1.00  0.00     0.000 HD 
HETATM   25  O   UNL     1     -12.633  14.128  63.351  1.00  0.00    -0.818 OA 
HETATM   26  O   UNL     1     -13.044  12.392  64.721  1.00  0.00    -0.806 OA 
ENDBRANCH  14  16
ENDBRANCH  12  14
ENDBRANCH   6  12
TORSDOF 3
ENDMDL
MODEL       10
REMARK 921   NORMALIZED FREE ENERGY PREDICTED BY IDOCK:   -7.91 KCAL/MOL
REMARK 922        TOTAL FREE ENERGY PREDICTED BY IDOCK:   -9.66 KCAL/MOL
REMARK 923 INTER-LIGAND FREE ENERGY PREDICTED BY IDOCK:   -9.13 KCAL/MOL
REMARK 924 INTRA-LIGAND FREE ENERGY PREDICTED BY IDOCK:   -0.53 KCAL/MOL
REMARK 927      BINDING AFFINITY PREDICTED BY RF-SCORE:    0.00 PKD
ROOT
HETATM    1  O   UNL     1     -12.732  14.104  63.520  1.00  0.00    -0.794 OA 
HETATM    2  C   UNL     1     -12.439  13.792  64.800  1.00  0.00    -0.349 C  
HETATM    3  C   UNL     1     -11.657  14.819  65.550  1.00  0.00    -0.301 A  
HETATM    4  O   UNL     1     -12.791  12.738  65.307  1.00  0.00    -0.674 OA 
HETATM    5  C   UNL     1     -11.336  14.536  66.893  1.00  0.00    -0.355 A  
HETATM    6  C   UNL     1     -10.617  15.449  67.679  1.00  0.00    -0.280 A  
HETATM    7  C   UNL     1     -10.220  16.656  67.090  1.00  0.00    -0.290 A  
HETATM    8  C   UNL     1     -11.248  16.041  64.998  1.00  0.00    -0.261 A  
HETATM    9  H   UNL     1     -11.285  17.183  63.327  1.00  0.00     0.000 HD 
HETATM   10  C   UNL     1     -10.526  16.957  65.761  1.00  0.00    -0.279 A  
HETATM   11  O   UNL     1     -11.562  16.354  63.701  1.00  0.00    -0.926 OA 
ENDROOT
BRANCH   6  12
HETATM   12  N   UNL     1     -10.334  15.277  69.050  1.00  0.00    -0.232 NA 
HETATM   13  H   UNL     1      -9.561  14.707  69.394  1.00  0.00     0.000 HD 
BRANCH  12  14
HETATM   14  N   UNL     1     -11.120  15.887  69.804  1.00  0.00    -0.296 NA 
HETATM   15  H   UNL     1     -11.147  16.902  69.897  1.00  0.00     0.000 HD 
BRANCH  14  16
HETATM   16  C   UNL     1     -11.970  15.006  70.513  1.00  0.00    -0.308 A  
HETATM   17  C   UNL     1     -13.683  14.740  72.230  1.00  0.00    -0.560 A  
HETATM   18  C   UNL     1     -12.859  15.554  71.446  1.00  0.00    -0.531 A  
HETATM   19  C   UNL     1     -13.615  13.354  72.095  1.00  0.00    -0.567 A  
HETATM   20  C   UNL     1     -12.741  12.771  71.169  1.00  0.00    -0.355 A  
HETATM   21  O   UNL     1     -14.410  12.563  72.887  1.00  0.00    -0.333 OA 
HETATM   22  C   UNL     1     -12.607  11.299  70.959  1.00  0.00    -0.394 C  
HETATM   23  C   UNL     1     -11.922  13.608  70.388  1.00  0.00    -0.372 A  
HETATM   24  H   UNL     1     -14.363  11.619  72.794  1.00  0.00     0.000 HD 
HETATM   25  O   UNL     1     -13.370  10.526  71.758  1.00  0.00    -0.394 OA 
HETATM   26  O   UNL     1     -11.854  10.823  70.123  1.00  0.00    -0.282 OA 
ENDBRANCH  14  16
ENDBRANCH  12  14
ENDBRANCH   6  12
TORSDOF 3
ENDMDL
MODEL       11
REMARK 921   NORMALIZED FREE ENERGY PREDICTED BY IDOCK:   -7.85 KCAL/MOL
REMARK 922        TOTAL FREE ENERGY PREDICTED BY IDOCK:   -9.59 KCAL/MOL
REMARK 923 INTER-LIGAND FREE ENERGY PREDICTED BY IDOCK:   -9.04 KCAL/MOL
REMARK 924 INTRA-LIGAND FREE ENERGY PREDICTED BY IDOCK:   -0.55 KCAL/MOL
REMARK 927      BINDING AFFINITY PREDICTED BY RF-SCORE:    0.00 PKD
ROOT
HETATM    1  O   UNL     1     -14.043  13.480  72.605  1.00  0.00    -0.762 OA 
HETATM    2  C   UNL     1     -13.261  13.729  71.533  1.00  0.00    -0.341 C  
HETATM    3  C   UNL     1     -12.635  12.530  70.901  1.00  0.00    -0.331 A  
HETATM    4  O   UNL     1     -13.081  14.861  71.111  1.00  0.00    -0.348 OA 
HETATM    5  C   UNL     1     -11.817  12.746  69.774  1.00  0.00    -0.380 A  
HETATM    6  C   UNL     1     -11.198  11.677  69.107  1.00  0.00    -0.263 A  
HETATM    7  C   UNL     1     -11.413  10.382  69.595  1.00  0.00    -0.326 A  
HETATM    8  C   UNL     1     -12.830  11.220  71.357  1.00  0.00    -0.410 A  
HETATM    9  H   UNL     1     -13.770  10.087  72.747  1.00  0.00     0.000 HD 
HETATM   10  C   UNL     1     -12.218  10.146  70.712  1.00  0.00    -0.434 A  
HETATM   11  O   UNL     1     -13.637  10.976  72.439  1.00  0.00    -0.137 OA 
ENDROOT
BRANCH   6  12
HETATM   12  N   UNL     1     -10.440  11.802  67.924  1.00  0.00    -0.191 NA 
HETATM   13  H   UNL     1      -9.455  12.068  67.918  1.00  0.00     0.000 HD 
BRANCH  12  14
HETATM   14  N   UNL     1     -11.087  11.558  66.886  1.00  0.00    -0.296 NA 
HETATM   15  H   UNL     1     -11.392  10.624  66.612  1.00  0.00     0.000 HD 
BRANCH  14  16
HETATM   16  C   UNL     1     -11.350  12.726  66.133  1.00  0.00    -0.328 A  
HETATM   17  C   UNL     1     -12.406  13.711  64.168  1.00  0.00    -0.385 A  
HETATM   18  C   UNL     1     -12.158  12.612  64.995  1.00  0.00    -0.497 A  
HETATM   19  C   UNL     1     -11.834  14.947  64.468  1.00  0.00    -0.396 A  
HETATM   20  C   UNL     1     -11.025  15.100  65.601  1.00  0.00    -0.359 A  
HETATM   21  O   UNL     1     -12.065  16.013  63.636  1.00  0.00    -1.285 OA 
HETATM   22  C   UNL     1     -10.376  16.385  65.997  1.00  0.00    -0.352 C  
HETATM   23  C   UNL     1     -10.789  13.981  66.422  1.00  0.00    -0.299 A  
HETATM   24  H   UNL     1     -11.675  16.855  63.841  1.00  0.00     0.000 HD 
HETATM   25  O   UNL     1     -10.584  17.423  65.161  1.00  0.00    -0.681 OA 
HETATM   26  O   UNL     1      -9.699  16.491  67.008  1.00  0.00    -0.240 OA 
ENDBRANCH  14  16
ENDBRANCH  12  14
ENDBRANCH   6  12
TORSDOF 3
ENDMDL
MODEL       12
REMARK 921   NORMALIZED FREE ENERGY PREDICTED BY IDOCK:   -7.83 KCAL/MOL
REMARK 922        TOTAL FREE ENERGY PREDICTED BY IDOCK:   -9.56 KCAL/MOL
REMARK 923 INTER-LIGAND FREE ENERGY PREDICTED BY IDOCK:   -9.09 KCAL/MOL
REMARK 924 INTRA-LIGAND FREE ENERGY PREDICTED BY IDOCK:   -0.47 KCAL/MOL
REMARK 927      BINDING AFFINITY PREDICTED BY RF-SCORE:    0.00 PKD
ROOT
HETATM    1  O   UNL     1     -12.576  13.978  63.506  1.00  0.00    -0.842 OA 
HETATM    2  C   UNL     1     -12.093  14.956  64.300  1.00  0.00    -0.353 C  
HETATM    3  C   UNL     1     -11.792  14.554  65.706  1.00  0.00    -0.327 A  
HETATM    4  O   UNL     1     -11.916  16.093  63.892  1.00  0.00    -0.947 OA 
HETATM    5  C   UNL     1     -11.278  15.545  66.566  1.00  0.00    -0.104 A  
HETATM    6  C   UNL     1     -10.953  15.254  67.900  1.00  0.00    -0.306 A  
HETATM    7  C   UNL     1     -11.156  13.947  68.359  1.00  0.00    -0.278 A  
HETATM    8  C   UNL     1     -11.976  13.256  66.200  1.00  0.00    -0.418 A  
HETATM    9  H   UNL     1     -12.579  11.384  65.717  1.00  0.00     0.000 HD 
HETATM   10  C   UNL     1     -11.666  12.950  67.524  1.00  0.00    -0.422 A  
HETATM   11  O   UNL     1     -12.455  12.265  65.381  1.00  0.00    -0.596 OA 
ENDROOT
BRANCH   6  12
HETATM   12  N   UNL     1     -10.354  16.166  68.796  1.00  0.00    -0.235 NA 
HETATM   13  H   UNL     1      -9.533  15.939  69.357  1.00  0.00     0.000 HD 
BRANCH  12  14
HETATM   14  N   UNL     1     -10.923  17.276  68.835  1.00  0.00    -0.266 NA 
HETATM   15  H   UNL     1     -11.882  17.413  69.153  1.00  0.00     0.000 HD 
BRANCH  14  16
HETATM   16  C   UNL     1     -10.083  18.322  68.386  1.00  0.00    -0.391 A  
HETATM   17  C   UNL     1      -9.708  20.104  66.763  1.00  0.00    -0.577 A  
HETATM   18  C   UNL     1     -10.514  19.096  67.301  1.00  0.00    -0.549 A  
HETATM   19  C   UNL     1      -8.445  20.342  67.303  1.00  0.00    -0.347 A  
HETATM   20  C   UNL     1      -7.982  19.591  68.391  1.00  0.00    -0.374 A  
HETATM   21  O   UNL     1      -7.652  21.317  66.752  1.00  0.00    -0.687 OA 
HETATM   22  C   UNL     1      -6.647  19.781  69.031  1.00  0.00    -0.333 C  
HETATM   23  C   UNL     1      -8.810  18.583  68.919  1.00  0.00    -0.186 A  
HETATM   24  H   UNL     1      -6.791  21.479  67.120  1.00  0.00     0.000 HD 
HETATM   25  O   UNL     1      -5.862  20.722  68.468  1.00  0.00    -0.303 OA 
HETATM   26  O   UNL     1      -6.286  19.127  69.997  1.00  0.00    -0.249 OA 
ENDBRANCH  14  16
ENDBRANCH  12  14
ENDBRANCH   6  12
TORSDOF 3
ENDMDL
MODEL       13
REMARK 921   NORMALIZED FREE ENERGY PREDICTED BY IDOCK:   -7.79 KCAL/MOL
REMARK 922        TOTAL FREE ENERGY PREDICTED BY IDOCK:   -9.52 KCAL/MOL
REMARK 923 INTER-LIGAND FREE ENERGY PREDICTED BY IDOCK:   -8.98 KCAL/MOL
REMARK 924 INTRA-LIGAND FREE ENERGY PREDICTED BY IDOCK:   -0.54 KCAL/MOL
REMARK 927      BINDING AFFINITY PREDICTED BY RF-SCORE:    0.00 PKD
ROOT
HETATM    1  O   UNL     1     -12.461  13.140  63.315  1.00  0.00    -0.720 OA 
HETATM    2  C   UNL     1     -12.500  13.323  64.651  1.00  0.00    -0.349 C  
HETATM    3  C   UNL     1     -11.587  12.450  65.447  1.00  0.00    -0.426 A  
HETATM    4  O   UNL     1     -13.235  14.148  65.171  1.00  0.00    -0.743 OA 
HETATM    5  C   UNL     1     -11.591  12.615  66.847  1.00  0.00    -0.438 A  
HETATM    6  C   UNL     1     -10.755  11.848  67.673  1.00  0.00    -0.215 A  
HETATM    7  C   UNL     1      -9.913  10.907  67.068  1.00  0.00    -0.227 A  
HETATM    8  C   UNL     1     -10.726  11.502  64.878  1.00  0.00    -0.297 A  
HETATM    9  H   UNL     1     -10.100  10.691  63.132  1.00  0.00     0.000 HD 
HETATM   10  C   UNL     1      -9.894  10.726  65.683  1.00  0.00    -0.299 A  
HETATM   11  O   UNL     1     -10.684  11.333  63.517  1.00  0.00    -0.379 OA 
ENDROOT
BRANCH   6  12
HETATM   12  N   UNL     1     -10.638  12.015  69.069  1.00  0.00    -0.389 NA 
HETATM   13  H   UNL     1     -10.848  12.892  69.546  1.00  0.00     0.000 HD 
BRANCH  12  14
HETATM   14  N   UNL     1     -10.253  10.988  69.665  1.00  0.00    -0.438 NA 
HETATM   15  H   UNL     1      -9.301  10.627  69.621  1.00  0.00     0.000 HD 
BRANCH  14  16
HETATM   16  C   UNL     1     -11.293  10.383  70.410  1.00  0.00    -0.337 A  
HETATM   17  C   UNL     1     -13.216  10.689  71.879  1.00  0.00    -0.528 A  
HETATM   18  C   UNL     1     -12.203  11.216  71.072  1.00  0.00    -0.438 A  
HETATM   19  C   UNL     1     -13.323   9.308  72.040  1.00  0.00    -0.450 A  
HETATM   20  C   UNL     1     -12.434   8.444  71.389  1.00  0.00    -0.313 A  
HETATM   21  O   UNL     1     -14.306   8.802  72.853  1.00  0.00    -1.023 OA 
HETATM   22  C   UNL     1     -12.479   6.956  71.504  1.00  0.00    -0.375 C  
HETATM   23  C   UNL     1     -11.423   8.995  70.580  1.00  0.00    -0.291 A  
HETATM   24  H   UNL     1     -14.379   7.861  72.963  1.00  0.00     0.000 HD 
HETATM   25  O   UNL     1     -13.430   6.465  72.326  1.00  0.00     0.027 OA 
HETATM   26  O   UNL     1     -11.706   6.229  70.900  1.00  0.00    -0.333 OA 
ENDBRANCH  14  16
ENDBRANCH  12  14
ENDBRANCH   6  12
TORSDOF 3
ENDMDL
MODEL       14
REMARK 921   NORMALIZED FREE ENERGY PREDICTED BY IDOCK:   -7.76 KCAL/MOL
REMARK 922        TOTAL FREE ENERGY PREDICTED BY IDOCK:   -9.48 KCAL/MOL
REMARK 923 INTER-LIGAND FREE ENERGY PREDICTED BY IDOCK:   -9.06 KCAL/MOL
REMARK 924 INTRA-LIGAND FREE ENERGY PREDICTED BY IDOCK:   -0.42 KCAL/MOL
REMARK 927      BINDING AFFINITY PREDICTED BY RF-SCORE:    0.00 PKD
ROOT
HETATM    1  O   UNL     1     -12.322  13.664  63.122  1.00  0.00    -0.729 OA 
HETATM    2  C   UNL     1     -12.457  13.391  64.437  1.00  0.00    -0.277 C  
HETATM    3  C   UNL     1     -11.552  12.329  64.969  1.00  0.00    -0.394 A  
HETATM    4  O   UNL     1     -13.266  13.974  65.141  1.00  0.00    -0.768 OA 
HETATM    5  C   UNL     1     -11.654  12.018  66.339  1.00  0.00    -0.381 A  
HETATM    6  C   UNL     1     -10.834  11.044  66.929  1.00  0.00    -0.269 A  
HETATM    7  C   UNL     1      -9.907  10.382  66.115  1.00  0.00    -0.278 A  
HETATM    8  C   UNL     1     -10.607  11.649  64.188  1.00  0.00    -0.357 A  
HETATM    9  H   UNL     1      -9.829  11.483  62.326  1.00  0.00     0.000 HD 
HETATM   10  C   UNL     1      -9.789  10.673  64.754  1.00  0.00    -0.372 A  
HETATM   11  O   UNL     1     -10.469  11.944  62.855  1.00  0.00    -0.225 OA 
ENDROOT
BRANCH   6  12
HETATM   12  N   UNL     1     -10.816  10.740  68.307  1.00  0.00    -0.210 NA 
HETATM   13  H   UNL     1      -9.958  10.699  68.858  1.00  0.00     0.000 HD 
BRANCH  12  14
HETATM   14  N   UNL     1     -11.947  10.526  68.787  1.00  0.00    -0.734 NA 
HETATM   15  H   UNL     1     -12.577   9.795  68.457  1.00  0.00     0.000 HD 
BRANCH  14  16
HETATM   16  C   UNL     1     -12.255  11.416  69.842  1.00  0.00    -0.277 A  
HETATM   17  C   UNL     1     -13.233  11.720  72.056  1.00  0.00    -0.460 A  
HETATM   18  C   UNL     1     -12.843  10.891  71.000  1.00  0.00    -0.472 A  
HETATM   19  C   UNL     1     -13.048  13.098  71.959  1.00  0.00    -0.376 A  
HETATM   20  C   UNL     1     -12.460  13.659  70.819  1.00  0.00    -0.432 A  
HETATM   21  O   UNL     1     -13.458  13.905  72.991  1.00  0.00    -0.637 OA 
HETATM   22  C   UNL     1     -12.222  15.121  70.633  1.00  0.00    -0.351 C  
HETATM   23  C   UNL     1     -12.072  12.807  69.768  1.00  0.00    -0.305 A  
HETATM   24  H   UNL     1     -13.332  14.844  72.924  1.00  0.00     0.000 HD 
HETATM   25  O   UNL     1     -12.651  15.911  71.639  1.00  0.00    -0.442 OA 
HETATM   26  O   UNL     1     -11.681  15.574  69.637  1.00  0.00    -0.311 OA 
ENDBRANCH  14  16
ENDBRANCH  12  14
ENDBRANCH   6  12
TORSDOF 3
ENDMDL
MODEL       15
REMARK 921   NORMALIZED FREE ENERGY PREDICTED BY IDOCK:   -7.73 KCAL/MOL
REMARK 922        TOTAL FREE ENERGY PREDICTED BY IDOCK:   -9.45 KCAL/MOL
REMARK 923 INTER-LIGAND FREE ENERGY PREDICTED BY IDOCK:   -9.30 KCAL/MOL
REMARK 924 INTRA-LIGAND FREE ENERGY PREDICTED BY IDOCK:   -0.14 KCAL/MOL
REMARK 927      BINDING AFFINITY PREDICTED BY RF-SCORE:    0.00 PKD
ROOT
HETATM    1  O   UNL     1     -14.356  13.427  72.728  1.00  0.00    -0.633 OA 
HETATM    2  C   UNL     1     -13.404  12.835  71.977  1.00  0.00    -0.466 C  
HETATM    3  C   UNL     1     -12.579  13.756  71.140  1.00  0.00    -0.452 A  
HETATM    4  O   UNL     1     -13.233  11.626  71.983  1.00  0.00    -0.501 OA 
HETATM    5  C   UNL     1     -11.568  13.179  70.346  1.00  0.00     0.018 A  
HETATM    6  C   UNL     1     -10.735  13.969  69.539  1.00  0.00     0.027 A  
HETATM    7  C   UNL     1     -10.936  15.355  69.541  1.00  0.00    -0.276 A  
HETATM    8  C   UNL     1     -12.746  15.147  71.120  1.00  0.00    -0.385 A  
HETATM    9  H   UNL     1     -13.820  16.685  71.884  1.00  0.00     0.000 HD 
HETATM   10  C   UNL     1     -11.933  15.948  70.319  1.00  0.00    -0.324 A  
HETATM   11  O   UNL     1     -13.708  15.741  71.897  1.00  0.00    -0.444 OA 
ENDROOT
BRANCH   6  12
HETATM   12  N   UNL     1      -9.648  13.476  68.787  1.00  0.00    -0.413 NA 
HETATM   13  H   UNL     1      -8.704  13.858  68.854  1.00  0.00     0.000 HD 
BRANCH  12  14
HETATM   14  N   UNL     1      -9.950  12.530  68.031  1.00  0.00    -0.213 NA 
HETATM   15  H   UNL     1      -9.731  11.553  68.227  1.00  0.00     0.000 HD 
BRANCH  14  16
HETATM   16  C   UNL     1     -10.632  12.970  66.873  1.00  0.00    -0.254 A  
HETATM   17  C   UNL     1     -11.982  12.372  64.932  1.00  0.00    -0.458 A  
HETATM   18  C   UNL     1     -11.339  12.022  66.122  1.00  0.00    -0.407 A  
HETATM   19  C   UNL     1     -11.915  13.686  64.469  1.00  0.00    -0.418 A  
HETATM   20  C   UNL     1     -11.222  14.661  65.196  1.00  0.00    -0.374 A  
HETATM   21  O   UNL     1     -12.530  14.013  63.286  1.00  0.00    -1.139 OA 
HETATM   22  C   UNL     1     -11.102  16.089  64.776  1.00  0.00    -0.365 C  
HETATM   23  C   UNL     1     -10.583  14.289  66.393  1.00  0.00    -0.286 A  
HETATM   24  H   UNL     1     -12.484  14.908  62.972  1.00  0.00     0.000 HD 
HETATM   25  O   UNL     1     -11.685  16.399  63.599  1.00  0.00    -0.933 OA 
HETATM   26  O   UNL     1     -10.513  16.921  65.447  1.00  0.00    -0.609 OA 
ENDBRANCH  14  16
ENDBRANCH  12  14
ENDBRANCH   6  12
TORSDOF 3
ENDMDL
MODEL       16
REMARK 921   NORMALIZED FREE ENERGY PREDICTED BY IDOCK:   -7.66 KCAL/MOL
REMARK 922        TOTAL FREE ENERGY PREDICTED BY IDOCK:   -9.37 KCAL/MOL
REMARK 923 INTER-LIGAND FREE ENERGY PREDICTED BY IDOCK:   -9.11 KCAL/MOL
REMARK 924 INTRA-LIGAND FREE ENERGY PREDICTED BY IDOCK:   -0.26 KCAL/MOL
REMARK 927      BINDING AFFINITY PREDICTED BY RF-SCORE:    0.00 PKD
ROOT
HETATM    1  O   UNL     1     -12.660  14.296  63.650  1.00  0.00    -0.831 OA 
HETATM    2  C   UNL     1     -12.394  13.383  64.607  1.00  0.00    -0.382 C  
HETATM    3  C   UNL     1     -11.354  13.778  65.602  1.00  0.00    -0.311 A  
HETATM    4  O   UNL     1     -12.967  12.305  64.651  1.00  0.00    -0.741 OA 
HETATM    5  C   UNL     1     -11.051  12.855  66.623  1.00  0.00    -0.316 A  
HETATM    6  C   UNL     1     -10.097  13.147  67.610  1.00  0.00    -0.221 A  
HETATM    7  C   UNL     1      -9.447  14.386  67.553  1.00  0.00    -0.207 A  
HETATM    8  C   UNL     1     -10.687  15.010  65.582  1.00  0.00    -0.354 A  
HETATM    9  H   UNL     1     -10.522  16.773  64.600  1.00  0.00     0.000 HD 
HETATM   10  C   UNL     1      -9.731  15.315  66.549  1.00  0.00    -0.287 A  
HETATM   11  O   UNL     1     -10.974  15.938  64.613  1.00  0.00    -0.528 OA 
ENDROOT
BRANCH   6  12
HETATM   12  N   UNL     1      -9.803  12.315  68.711  1.00  0.00    -0.414 NA 
HETATM   13  H   UNL     1      -8.932  12.373  69.238  1.00  0.00     0.000 HD 
BRANCH  12  14
HETATM   14  N   UNL     1     -10.710  11.500  68.978  1.00  0.00    -0.264 NA 
HETATM   15  H   UNL     1     -10.821  10.599  68.514  1.00  0.00     0.000 HD 
BRANCH  14  16
HETATM   16  C   UNL     1     -11.565  11.972  70.001  1.00  0.00    -0.195 A  
HETATM   17  C   UNL     1     -13.041  11.420  71.864  1.00  0.00    -0.505 A  
HETATM   18  C   UNL     1     -12.136  11.034  70.871  1.00  0.00    -0.444 A  
HETATM   19  C   UNL     1     -13.397  12.763  71.990  1.00  0.00    -0.466 A  
HETATM   20  C   UNL     1     -12.843  13.729  71.142  1.00  0.00    -0.409 A  
HETATM   21  O   UNL     1     -14.305  13.128  72.953  1.00  0.00    -0.553 OA 
HETATM   22  C   UNL     1     -13.166  15.185  71.210  1.00  0.00    -0.464 C  
HETATM   23  C   UNL     1     -11.932  13.319  70.151  1.00  0.00    -0.388 A  
HETATM   24  H   UNL     1     -14.547  14.042  73.039  1.00  0.00     0.000 HD 
HETATM   25  O   UNL     1     -14.079  15.535  72.140  1.00  0.00    -0.514 OA 
HETATM   26  O   UNL     1     -12.643  16.006  70.473  1.00  0.00    -0.317 OA 
ENDBRANCH  14  16
ENDBRANCH  12  14
ENDBRANCH   6  12
TORSDOF 3
ENDMDL
MODEL       17
REMARK 921   NORMALIZED FREE ENERGY PREDICTED BY IDOCK:   -7.66 KCAL/MOL
REMARK 922        TOTAL FREE ENERGY PREDICTED BY IDOCK:   -9.36 KCAL/MOL
REMARK 923 INTER-LIGAND FREE ENERGY PREDICTED BY IDOCK:   -8.85 KCAL/MOL
REMARK 924 INTRA-LIGAND FREE ENERGY PREDICTED BY IDOCK:   -0.51 KCAL/MOL
REMARK 927      BINDING AFFINITY PREDICTED BY RF-SCORE:    0.00 PKD
ROOT
HETATM    1  O   UNL     1     -13.579   9.155  72.477  1.00  0.00    -0.470 OA 
HETATM    2  C   UNL     1     -13.056  10.257  71.898  1.00  0.00    -0.463 C  
HETATM    3  C   UNL     1     -12.019  10.004  70.855  1.00  0.00    -0.453 A  
HETATM    4  O   UNL     1     -13.411  11.382  72.210  1.00  0.00    -0.410 OA 
HETATM    5  C   UNL     1     -11.453  11.128  70.220  1.00  0.00    -0.329 A  
HETATM    6  C   UNL     1     -10.481  10.986  69.217  1.00  0.00    -0.180 A  
HETATM    7  C   UNL     1     -10.082   9.691  68.863  1.00  0.00    -0.198 A  
HETATM    8  C   UNL     1     -11.599   8.724  70.469  1.00  0.00    -0.147 A  
HETATM    9  H   UNL     1     -11.860   6.743  70.792  1.00  0.00     0.000 HD 
HETATM   10  C   UNL     1     -10.629   8.564  69.481  1.00  0.00    -0.215 A  
HETATM   11  O   UNL     1     -12.145   7.611  71.054  1.00  0.00    -0.305 OA 
ENDROOT
BRANCH   6  12
HETATM   12  N   UNL     1      -9.933  12.055  68.476  1.00  0.00    -0.273 NA 
HETATM   13  H   UNL     1      -9.709  12.962  68.887  1.00  0.00     0.000 HD 
BRANCH  12  14
HETATM   14  N   UNL     1      -9.749  11.786  67.272  1.00  0.00    -0.178 NA 
HETATM   15  H   UNL     1      -9.119  11.055  66.942  1.00  0.00     0.000 HD 
BRANCH  14  16
HETATM   16  C   UNL     1     -10.514  12.613  66.417  1.00  0.00    -0.249 A  
HETATM   17  C   UNL     1     -12.338  12.774  64.805  1.00  0.00    -0.540 A  
HETATM   18  C   UNL     1     -11.579  12.033  65.716  1.00  0.00    -0.353 A  
HETATM   19  C   UNL     1     -12.029  14.114  64.576  1.00  0.00    -0.458 A  
HETATM   20  C   UNL     1     -10.975  14.729  65.263  1.00  0.00    -0.382 A  
HETATM   21  O   UNL     1     -12.765  14.826  63.662  1.00  0.00    -0.903 OA 
HETATM   22  C   UNL     1     -10.579  16.157  65.082  1.00  0.00    -0.343 C  
HETATM   23  C   UNL     1     -10.225  13.966  66.178  1.00  0.00    -0.307 A  
HETATM   24  H   UNL     1     -12.555  15.739  63.507  1.00  0.00     0.000 HD 
HETATM   25  O   UNL     1     -11.289  16.844  64.162  1.00  0.00    -1.208 OA 
HETATM   26  O   UNL     1      -9.672  16.670  65.718  1.00  0.00    -0.485 OA 
ENDBRANCH  14  16
ENDBRANCH  12  14
ENDBRANCH   6  12
TORSDOF 3
ENDMDL
MODEL       18
REMARK 921   NORMALIZED FREE ENERGY PREDICTED BY IDOCK:   -7.63 KCAL/MOL
REMARK 922        TOTAL FREE ENERGY PREDICTED BY IDOCK:   -9.34 KCAL/MOL
REMARK 923 INTER-LIGAND FREE ENERGY PREDICTED BY IDOCK:   -8.80 KCAL/MOL
REMARK 924 INTRA-LIGAND FREE ENERGY PREDICTED BY IDOCK:   -0.54 KCAL/MOL
REMARK 927      BINDING AFFINITY PREDICTED BY RF-SCORE:    0.00 PKD
ROOT
HETATM    1  O   UNL     1     -11.152  11.574  63.216  1.00  0.00    -0.341 OA 
HETATM    2  C   UNL     1     -10.683  11.303  64.452  1.00  0.00    -0.339 C  
HETATM    3  C   UNL     1     -11.163  12.211  65.535  1.00  0.00    -0.381 A  
HETATM    4  O   UNL     1      -9.917  10.376  64.666  1.00  0.00    -0.324 OA 
HETATM    5  C   UNL     1     -10.703  11.958  66.843  1.00  0.00    -0.285 A  
HETATM    6  C   UNL     1     -11.113  12.751  67.926  1.00  0.00    -0.246 A  
HETATM    7  C   UNL     1     -11.994  13.810  67.672  1.00  0.00    -0.392 A  
HETATM    8  C   UNL     1     -12.049  13.276  65.322  1.00  0.00    -0.418 A  
HETATM    9  H   UNL     1     -13.131  14.256  63.920  1.00  0.00     0.000 HD 
HETATM   10  C   UNL     1     -12.461  14.079  66.384  1.00  0.00    -0.395 A  
HETATM   11  O   UNL     1     -12.530  13.534  64.064  1.00  0.00    -0.645 OA 
ENDROOT
BRANCH   6  12
HETATM   12  N   UNL     1     -10.767  12.509  69.273  1.00  0.00    -0.442 NA 
HETATM   13  H   UNL     1     -10.756  13.238  69.986  1.00  0.00     0.000 HD 
BRANCH  12  14
HETATM   14  N   UNL     1     -10.476  11.318  69.508  1.00  0.00    -0.442 NA 
HETATM   15  H   UNL     1      -9.624  10.865  69.177  1.00  0.00     0.000 HD 
BRANCH  14  16
HETATM   16  C   UNL     1     -11.464  10.672  70.286  1.00  0.00    -0.337 A  
HETATM   17  C   UNL     1     -13.281  10.893  71.898  1.00  0.00    -0.508 A  
HETATM   18  C   UNL     1     -12.323  11.466  71.056  1.00  0.00    -0.448 A  
HETATM   19  C   UNL     1     -13.381   9.505  71.989  1.00  0.00    -0.452 A  
HETATM   20  C   UNL     1     -12.542   8.680  71.231  1.00  0.00    -0.266 A  
HETATM   21  O   UNL     1     -14.308   8.954  72.838  1.00  0.00    -1.050 OA 
HETATM   22  C   UNL     1     -12.584   7.188  71.265  1.00  0.00    -0.380 C  
HETATM   23  C   UNL     1     -11.586   9.276  70.387  1.00  0.00    -0.215 A  
HETATM   24  H   UNL     1     -14.376   8.008  72.899  1.00  0.00     0.000 HD 
HETATM   25  O   UNL     1     -13.478   6.651  72.121  1.00  0.00    -0.100 OA 
HETATM   26  O   UNL     1     -11.856   6.497  70.570  1.00  0.00    -0.392 OA 
ENDBRANCH  14  16
ENDBRANCH  12  14
ENDBRANCH   6  12
TORSDOF 3
ENDMDL
MODEL       19
REMARK 921   NORMALIZED FREE ENERGY PREDICTED BY IDOCK:   -7.57 KCAL/MOL
REMARK 922        TOTAL FREE ENERGY PREDICTED BY IDOCK:   -9.26 KCAL/MOL
REMARK 923 INTER-LIGAND FREE ENERGY PREDICTED BY IDOCK:   -8.93 KCAL/MOL
REMARK 924 INTRA-LIGAND FREE ENERGY PREDICTED BY IDOCK:   -0.34 KCAL/MOL
REMARK 927      BINDING AFFINITY PREDICTED BY RF-SCORE:    0.00 PKD
ROOT
HETATM    1  O   UNL     1     -11.252   6.921  71.551  1.00  0.00    -0.242 OA 
HETATM    2  C   UNL     1     -10.945   7.773  70.551  1.00  0.00    -0.245 C  
HETATM    3  C   UNL     1     -11.598   9.114  70.626  1.00  0.00    -0.282 A  
HETATM    4  O   UNL     1     -10.185   7.465  69.647  1.00  0.00    -0.199 OA 
HETATM    5  C   UNL     1     -11.299  10.038  69.605  1.00  0.00    -0.253 A  
HETATM    6  C   UNL     1     -11.855  11.326  69.601  1.00  0.00    -0.360 A  
HETATM    7  C   UNL     1     -12.724  11.673  70.644  1.00  0.00    -0.224 A  
HETATM    8  C   UNL     1     -12.467   9.499  71.656  1.00  0.00    -0.391 A  
HETATM    9  H   UNL     1     -13.351   8.892  73.373  1.00  0.00     0.000 HD 
HETATM   10  C   UNL     1     -13.035  10.772  71.666  1.00  0.00    -0.581 A  
HETATM   11  O   UNL     1     -12.762   8.630  72.675  1.00  0.00    -0.365 OA 
ENDROOT
BRANCH   6  12
HETATM   12  N   UNL     1     -11.537  12.334  68.666  1.00  0.00    -0.300 NA 
HETATM   13  H   UNL     1     -11.074  13.206  68.921  1.00  0.00     0.000 HD 
BRANCH  12  14
HETATM   14  N   UNL     1     -11.876  12.056  67.497  1.00  0.00    -0.574 NA 
HETATM   15  H   UNL     1     -12.172  11.128  67.196  1.00  0.00     0.000 HD 
BRANCH  14  16
HETATM   16  C   UNL     1     -11.803  13.179  66.640  1.00  0.00    -0.391 A  
HETATM   17  C   UNL     1     -12.224  14.103  64.422  1.00  0.00    -0.466 A  
HETATM   18  C   UNL     1     -12.320  13.057  65.345  1.00  0.00    -0.538 A  
HETATM   19  C   UNL     1     -11.592  15.291  64.788  1.00  0.00    -0.322 A  
HETATM   20  C   UNL     1     -11.067  15.451  66.076  1.00  0.00    -0.233 A  
HETATM   21  O   UNL     1     -11.481  16.303  63.867  1.00  0.00    -1.484 OA 
HETATM   22  C   UNL     1     -10.378  16.688  66.550  1.00  0.00    -0.299 C  
HETATM   23  C   UNL     1     -11.176  14.387  66.990  1.00  0.00    -0.336 A  
HETATM   24  H   UNL     1     -11.050  17.112  64.116  1.00  0.00     0.000 HD 
HETATM   25  O   UNL     1     -10.248  17.669  65.633  1.00  0.00    -0.593 OA 
HETATM   26  O   UNL     1      -9.957  16.805  67.690  1.00  0.00    -0.250 OA 
ENDBRANCH  14  16
ENDBRANCH  12  14
ENDBRANCH   6  12
TORSDOF 3
ENDMDL
MODEL       20
REMARK 921   NORMALIZED FREE ENERGY PREDICTED BY IDOCK:   -7.48 KCAL/MOL
REMARK 922        TOTAL FREE ENERGY PREDICTED BY IDOCK:   -9.15 KCAL/MOL
REMARK 923 INTER-LIGAND FREE ENERGY PREDICTED BY IDOCK:   -8.82 KCAL/MOL
REMARK 924 INTRA-LIGAND FREE ENERGY PREDICTED BY IDOCK:   -0.33 KCAL/MOL
REMARK 927      BINDING AFFINITY PREDICTED BY RF-SCORE:    0.00 PKD
ROOT
HETATM    1  O   UNL     1     -11.540  16.452  63.797  1.00  0.00    -1.055 OA 
HETATM    2  C   UNL     1     -10.990  16.215  65.006  1.00  0.00    -0.344 C  
HETATM    3  C   UNL     1     -11.305  14.886  65.607  1.00  0.00    -0.325 A  
HETATM    4  O   UNL     1     -10.283  17.037  65.568  1.00  0.00    -0.589 OA 
HETATM    5  C   UNL     1     -10.743  14.596  66.867  1.00  0.00    -0.294 A  
HETATM    6  C   UNL     1     -10.973  13.365  67.501  1.00  0.00    -0.267 A  
HETATM    7  C   UNL     1     -11.783  12.427  66.848  1.00  0.00    -0.432 A  
HETATM    8  C   UNL     1     -12.105  13.919  64.982  1.00  0.00    -0.406 A  
HETATM    9  H   UNL     1     -13.191  13.508  63.324  1.00  0.00     0.000 HD 
HETATM   10  C   UNL     1     -12.350  12.695  65.600  1.00  0.00    -0.390 A  
HETATM   11  O   UNL     1     -12.649  14.164  63.747  1.00  0.00    -0.804 OA 
ENDROOT
BRANCH   6  12
HETATM   12  N   UNL     1     -10.377  12.967  68.717  1.00  0.00    -0.403 NA 
HETATM   13  H   UNL     1     -10.462  13.503  69.582  1.00  0.00     0.000 HD 
BRANCH  12  14
HETATM   14  N   UNL     1      -9.737  11.900  68.635  1.00  0.00    -0.347 NA 
HETATM   15  H   UNL     1      -8.883  11.789  68.089  1.00  0.00     0.000 HD 
BRANCH  14  16
HETATM   16  C   UNL     1     -10.334  10.861  69.387  1.00  0.00    -0.145 A  
HETATM   17  C   UNL     1     -10.470   8.468  69.840  1.00  0.00    -0.219 A  
HETATM   18  C   UNL     1      -9.882   9.551  69.180  1.00  0.00    -0.176 A  
HETATM   19  C   UNL     1     -11.534   8.685  70.714  1.00  0.00    -0.259 A  
HETATM   20  C   UNL     1     -12.009   9.981  70.949  1.00  0.00    -0.453 A  
HETATM   21  O   UNL     1     -12.120   7.612  71.338  1.00  0.00    -0.298 OA 
HETATM   22  C   UNL     1     -13.140  10.303  71.870  1.00  0.00    -0.463 C  
HETATM   23  C   UNL     1     -11.402  11.058  70.277  1.00  0.00    -0.291 A  
HETATM   24  H   UNL     1     -12.845   7.760  71.933  1.00  0.00     0.000 HD 
HETATM   25  O   UNL     1     -13.729   9.242  72.459  1.00  0.00    -0.467 OA 
HETATM   26  O   UNL     1     -13.511  11.448  72.074  1.00  0.00    -0.393 OA 
ENDBRANCH  14  16
ENDBRANCH  12  14
ENDBRANCH   6  12
TORSDOF 3
ENDMDL
MODEL       21
REMARK 921   NORMALIZED FREE ENERGY PREDICTED BY IDOCK:   -7.44 KCAL/MOL
REMARK 922        TOTAL FREE ENERGY PREDICTED BY IDOCK:   -9.11 KCAL/MOL
REMARK 923 INTER-LIGAND FREE ENERGY PREDICTED BY IDOCK:   -8.73 KCAL/MOL
REMARK 924 INTRA-LIGAND FREE ENERGY PREDICTED BY IDOCK:   -0.38 KCAL/MOL
REMARK 927      BINDING AFFINITY PREDICTED BY RF-SCORE:    0.00 PKD
ROOT
HETATM    1  O   UNL     1     -10.019  17.600  65.747  1.00  0.00    -0.544 OA 
HETATM    2  C   UNL     1     -10.083  16.573  66.620  1.00  0.00    -0.294 C  
HETATM    3  C   UNL     1     -10.903  15.405  66.180  1.00  0.00    -0.313 A  
HETATM    4  O   UNL     1      -9.509  16.601  67.697  1.00  0.00    -0.223 OA 
HETATM    5  C   UNL     1     -10.990  14.307  67.059  1.00  0.00    -0.305 A  
HETATM    6  C   UNL     1     -11.727  13.161  66.723  1.00  0.00    -0.385 A  
HETATM    7  C   UNL     1     -12.380  13.136  65.484  1.00  0.00    -0.529 A  
HETATM    8  C   UNL     1     -11.565  15.340  64.946  1.00  0.00    -0.289 A  
HETATM    9  H   UNL     1     -11.932  16.340  63.224  1.00  0.00     0.000 HD 
HETATM   10  C   UNL     1     -12.308  14.213  64.598  1.00  0.00    -0.432 A  
HETATM   11  O   UNL     1     -11.483  16.384  64.060  1.00  0.00    -1.048 OA 
ENDROOT
BRANCH   6  12
HETATM   12  N   UNL     1     -11.789  11.990  67.509  1.00  0.00    -0.574 NA 
HETATM   13  H   UNL     1     -12.357  11.180  67.259  1.00  0.00     0.000 HD 
BRANCH  12  14
HETATM   14  N   UNL     1     -11.085  12.040  68.537  1.00  0.00    -0.226 NA 
HETATM   15  H   UNL     1     -10.211  12.560  68.604  1.00  0.00     0.000 HD 
BRANCH  14  16
HETATM   16  C   UNL     1     -11.641  11.291  69.600  1.00  0.00    -0.330 A  
HETATM   17  C   UNL     1     -12.959  11.301  71.654  1.00  0.00    -0.537 A  
HETATM   18  C   UNL     1     -12.430  11.964  70.542  1.00  0.00    -0.301 A  
HETATM   19  C   UNL     1     -12.690   9.946  71.843  1.00  0.00    -0.409 A  
HETATM   20  C   UNL     1     -11.910   9.239  70.920  1.00  0.00    -0.346 A  
HETATM   21  O   UNL     1     -13.194   9.311  72.951  1.00  0.00    -0.578 OA 
HETATM   22  C   UNL     1     -11.577   7.789  71.044  1.00  0.00    -0.283 C  
HETATM   23  C   UNL     1     -11.390   9.924  69.806  1.00  0.00    -0.241 A  
HETATM   24  H   UNL     1     -13.011   8.387  73.079  1.00  0.00     0.000 HD 
HETATM   25  O   UNL     1     -12.051   7.176  72.148  1.00  0.00    -0.292 OA 
HETATM   26  O   UNL     1     -10.916   7.196  70.206  1.00  0.00    -0.248 OA 
ENDBRANCH  14  16
ENDBRANCH  12  14
ENDBRANCH   6  12
TORSDOF 3
ENDMDL
MODEL       22
REMARK 921   NORMALIZED FREE ENERGY PREDICTED BY IDOCK:   -7.43 KCAL/MOL
REMARK 922        TOTAL FREE ENERGY PREDICTED BY IDOCK:   -9.09 KCAL/MOL
REMARK 923 INTER-LIGAND FREE ENERGY PREDICTED BY IDOCK:   -8.61 KCAL/MOL
REMARK 924 INTRA-LIGAND FREE ENERGY PREDICTED BY IDOCK:   -0.48 KCAL/MOL
REMARK 927      BINDING AFFINITY PREDICTED BY RF-SCORE:    0.00 PKD
ROOT
HETATM    1  O   UNL     1     -14.037  13.401  72.564  1.00  0.00    -0.726 OA 
HETATM    2  C   UNL     1     -13.184  13.712  71.566  1.00  0.00    -0.331 C  
HETATM    3  C   UNL     1     -12.501  12.553  70.919  1.00  0.00    -0.361 A  
HETATM    4  O   UNL     1     -12.987  14.866  71.218  1.00  0.00    -0.316 OA 
HETATM    5  C   UNL     1     -11.607  12.834  69.867  1.00  0.00    -0.243 A  
HETATM    6  C   UNL     1     -10.930  11.806  69.191  1.00  0.00    -0.209 A  
HETATM    7  C   UNL     1     -11.165  10.486  69.595  1.00  0.00    -0.342 A  
HETATM    8  C   UNL     1     -12.714  11.219  71.290  1.00  0.00    -0.405 A  
HETATM    9  H   UNL     1     -13.739  10.007  72.548  1.00  0.00     0.000 HD 
HETATM   10  C   UNL     1     -12.046  10.185  70.636  1.00  0.00    -0.411 A  
HETATM   11  O   UNL     1     -13.594  10.912  72.297  1.00  0.00    -0.243 OA 
ENDROOT
BRANCH   6  12
HETATM   12  N   UNL     1     -10.090  11.999  68.074  1.00  0.00    -0.192 NA 
HETATM   13  H   UNL     1      -9.873  11.261  67.405  1.00  0.00     0.000 HD 
BRANCH  12  14
HETATM   14  N   UNL     1      -9.638  13.159  67.983  1.00  0.00    -0.215 NA 
HETATM   15  H   UNL     1      -8.965  13.560  68.636  1.00  0.00     0.000 HD 
BRANCH  14  16
HETATM   16  C   UNL     1     -10.167  13.851  66.869  1.00  0.00    -0.257 A  
HETATM   17  C   UNL     1     -10.585  16.001  65.794  1.00  0.00    -0.366 A  
HETATM   18  C   UNL     1     -10.031  15.245  66.831  1.00  0.00    -0.243 A  
HETATM   19  C   UNL     1     -11.300  15.364  64.780  1.00  0.00    -0.376 A  
HETATM   20  C   UNL     1     -11.453  13.973  64.782  1.00  0.00    -0.371 A  
HETATM   21  O   UNL     1     -11.862  16.118  63.780  1.00  0.00    -1.408 OA 
HETATM   22  C   UNL     1     -12.199  13.211  63.736  1.00  0.00    -0.456 C  
HETATM   23  C   UNL     1     -10.885  13.230  65.834  1.00  0.00    -0.289 A  
HETATM   24  H   UNL     1     -12.348  15.684  63.089  1.00  0.00     0.000 HD 
HETATM   25  O   UNL     1     -12.771  13.960  62.771  1.00  0.00    -0.368 OA 
HETATM   26  O   UNL     1     -12.290  11.994  63.754  1.00  0.00    -0.484 OA 
ENDBRANCH  14  16
ENDBRANCH  12  14
ENDBRANCH   6  12
TORSDOF 3
ENDMDL
MODEL       23
REMARK 921   NORMALIZED FREE ENERGY PREDICTED BY IDOCK:   -7.39 KCAL/MOL
REMARK 922        TOTAL FREE ENERGY PREDICTED BY IDOCK:   -9.04 KCAL/MOL
REMARK 923 INTER-LIGAND FREE ENERGY PREDICTED BY IDOCK:   -8.55 KCAL/MOL
REMARK 924 INTRA-LIGAND FREE ENERGY PREDICTED BY IDOCK:   -0.49 KCAL/MOL
REMARK 927      BINDING AFFINITY PREDICTED BY RF-SCORE:    0.00 PKD
ROOT
HETATM    1  O   UNL     1     -13.600   9.216  72.509  1.00  0.00    -0.470 OA 
HETATM    2  C   UNL     1     -12.982  10.237  71.878  1.00  0.00    -0.449 C  
HETATM    3  C   UNL     1     -11.873   9.846  70.957  1.00  0.00    -0.463 A  
HETATM    4  O   UNL     1     -13.309  11.400  72.051  1.00  0.00    -0.467 OA 
HETATM    5  C   UNL     1     -11.206  10.881  70.272  1.00  0.00    -0.271 A  
HETATM    6  C   UNL     1     -10.161  10.606  69.376  1.00  0.00    -0.174 A  
HETATM    7  C   UNL     1      -9.794   9.269  69.181  1.00  0.00    -0.167 A  
HETATM    8  C   UNL     1     -11.481   8.519  70.731  1.00  0.00    -0.253 A  
HETATM    9  H   UNL     1     -11.859   6.590  71.213  1.00  0.00     0.000 HD 
HETATM   10  C   UNL     1     -10.441   8.228  69.850  1.00  0.00    -0.223 A  
HETATM   11  O   UNL     1     -12.125   7.489  71.367  1.00  0.00    -0.303 OA 
ENDROOT
BRANCH   6  12
HETATM   12  N   UNL     1      -9.505  11.576  68.589  1.00  0.00    -0.299 NA 
HETATM   13  H   UNL     1      -8.804  11.343  67.885  1.00  0.00     0.000 HD 
BRANCH  12  14
HETATM   14  N   UNL     1      -9.864  12.746  68.835  1.00  0.00    -0.417 NA 
HETATM   15  H   UNL     1      -9.979  13.120  69.777  1.00  0.00     0.000 HD 
BRANCH  14  16
HETATM   16  C   UNL     1     -10.091  13.493  67.656  1.00  0.00    -0.229 A  
HETATM   17  C   UNL     1      -9.564  15.486  66.351  1.00  0.00    -0.317 A  
HETATM   18  C   UNL     1      -9.347  14.664  67.461  1.00  0.00    -0.195 A  
HETATM   19  C   UNL     1     -10.546  15.147  65.421  1.00  0.00    -0.391 A  
HETATM   20  C   UNL     1     -11.305  13.982  65.580  1.00  0.00    -0.313 A  
HETATM   21  O   UNL     1     -10.767  15.975  64.348  1.00  0.00    -0.819 OA 
HETATM   22  C   UNL     1     -12.373  13.544  64.632  1.00  0.00    -0.372 C  
HETATM   23  C   UNL     1     -11.070  13.167  66.703  1.00  0.00    -0.316 A  
HETATM   24  H   UNL     1     -11.436  15.744  63.715  1.00  0.00     0.000 HD 
HETATM   25  O   UNL     1     -12.605  14.374  63.595  1.00  0.00    -0.817 OA 
HETATM   26  O   UNL     1     -12.998  12.507  64.786  1.00  0.00    -0.827 OA 
ENDBRANCH  14  16
ENDBRANCH  12  14
ENDBRANCH   6  12
TORSDOF 3
ENDMDL
MODEL       24
REMARK 921   NORMALIZED FREE ENERGY PREDICTED BY IDOCK:   -7.38 KCAL/MOL
REMARK 922        TOTAL FREE ENERGY PREDICTED BY IDOCK:   -9.04 KCAL/MOL
REMARK 923 INTER-LIGAND FREE ENERGY PREDICTED BY IDOCK:   -8.61 KCAL/MOL
REMARK 924 INTRA-LIGAND FREE ENERGY PREDICTED BY IDOCK:   -0.43 KCAL/MOL
REMARK 927      BINDING AFFINITY PREDICTED BY RF-SCORE:    0.00 PKD
ROOT
HETATM    1  O   UNL     1     -13.275  11.149  71.794  1.00  0.00    -0.442 OA 
HETATM    2  C   UNL     1     -12.442  11.689  70.880  1.00  0.00    -0.341 C  
HETATM    3  C   UNL     1     -12.420  13.181  70.832  1.00  0.00    -0.407 A  
HETATM    4  O   UNL     1     -11.754  10.999  70.143  1.00  0.00    -0.299 OA 
HETATM    5  C   UNL     1     -11.557  13.785  69.896  1.00  0.00    -0.298 A  
HETATM    6  C   UNL     1     -11.459  15.181  69.790  1.00  0.00    -0.297 A  
HETATM    7  C   UNL     1     -12.249  15.964  70.642  1.00  0.00    -0.345 A  
HETATM    8  C   UNL     1     -13.190  13.997  71.671  1.00  0.00    -0.368 A  
HETATM    9  H   UNL     1     -14.546  13.993  73.175  1.00  0.00     0.000 HD 
HETATM   10  C   UNL     1     -13.112  15.385  71.575  1.00  0.00    -0.545 A  
HETATM   11  O   UNL     1     -14.024  13.439  72.606  1.00  0.00    -0.755 OA 
ENDROOT
BRANCH   6  12
HETATM   12  N   UNL     1     -10.557  15.859  68.943  1.00  0.00    -0.230 NA 
HETATM   13  H   UNL     1      -9.550  15.698  68.956  1.00  0.00     0.000 HD 
BRANCH  12  14
HETATM   14  N   UNL     1     -11.109  16.675  68.175  1.00  0.00    -0.340 NA 
HETATM   15  H   UNL     1     -12.015  16.518  67.735  1.00  0.00     0.000 HD 
BRANCH  14  16
HETATM   16  C   UNL     1     -10.330  17.840  67.988  1.00  0.00    -0.393 A  
HETATM   17  C   UNL     1     -10.091  19.995  66.869  1.00  0.00    -0.601 A  
HETATM   18  C   UNL     1     -10.834  18.844  67.152  1.00  0.00    -0.425 A  
HETATM   19  C   UNL     1      -8.819  20.148  67.418  1.00  0.00    -0.349 A  
HETATM   20  C   UNL     1      -8.284  19.168  68.262  1.00  0.00    -0.369 A  
HETATM   21  O   UNL     1      -8.088  21.270  67.114  1.00  0.00    -0.655 OA 
HETATM   22  C   UNL     1      -6.933  19.253  68.893  1.00  0.00    -0.338 C  
HETATM   23  C   UNL     1      -9.049  18.018  68.536  1.00  0.00    -0.293 A  
HETATM   24  H   UNL     1      -7.221  21.374  67.488  1.00  0.00     0.000 HD 
HETATM   25  O   UNL     1      -6.209  20.344  68.569  1.00  0.00    -0.285 OA 
HETATM   26  O   UNL     1      -6.508  18.392  69.647  1.00  0.00    -0.235 OA 
ENDBRANCH  14  16
ENDBRANCH  12  14
ENDBRANCH   6  12
TORSDOF 3
ENDMDL
MODEL       25
REMARK 921   NORMALIZED FREE ENERGY PREDICTED BY IDOCK:   -7.33 KCAL/MOL
REMARK 922        TOTAL FREE ENERGY PREDICTED BY IDOCK:   -8.97 KCAL/MOL
REMARK 923 INTER-LIGAND FREE ENERGY PREDICTED BY IDOCK:   -8.52 KCAL/MOL
REMARK 924 INTRA-LIGAND FREE ENERGY PREDICTED BY IDOCK:   -0.45 KCAL/MOL
REMARK 927      BINDING AFFINITY PREDICTED BY RF-SCORE:    0.00 PKD
ROOT
HETATM    1  O   UNL     1     -12.639   6.254  72.243  1.00  0.00    -0.209 OA 
HETATM    2  C   UNL     1     -11.672   6.810  71.483  1.00  0.00    -0.317 C  
HETATM    3  C   UNL     1     -11.842   8.264  71.190  1.00  0.00    -0.302 A  
HETATM    4  O   UNL     1     -10.724   6.164  71.066  1.00  0.00    -0.237 OA 
HETATM    5  C   UNL     1     -10.849   8.886  70.406  1.00  0.00    -0.269 A  
HETATM    6  C   UNL     1     -10.919  10.253  70.092  1.00  0.00    -0.314 A  
HETATM    7  C   UNL     1     -12.008  10.987  70.577  1.00  0.00    -0.474 A  
HETATM    8  C   UNL     1     -12.914   9.033  71.663  1.00  0.00    -0.361 A  
HETATM    9  H   UNL     1     -14.611   8.983  72.765  1.00  0.00     0.000 HD 
HETATM   10  C   UNL     1     -13.003  10.390  71.355  1.00  0.00    -0.545 A  
HETATM   11  O   UNL     1     -13.884   8.462  72.445  1.00  0.00    -0.303 OA 
ENDROOT
BRANCH   6  12
HETATM   12  N   UNL     1      -9.923  10.964  69.390  1.00  0.00    -0.421 NA 
HETATM   13  H   UNL     1      -8.950  10.662  69.342  1.00  0.00     0.000 HD 
BRANCH  12  14
HETATM   14  N   UNL     1     -10.346  11.998  68.832  1.00  0.00    -0.391 NA 
HETATM   15  H   UNL     1     -10.495  12.884  69.315  1.00  0.00     0.000 HD 
BRANCH  14  16
HETATM   16  C   UNL     1     -10.593  11.797  67.454  1.00  0.00    -0.224 A  
HETATM   17  C   UNL     1     -10.004  10.598  65.414  1.00  0.00    -0.343 A  
HETATM   18  C   UNL     1      -9.859  10.808  66.788  1.00  0.00    -0.233 A  
HETATM   19  C   UNL     1     -10.886  11.393  64.682  1.00  0.00    -0.292 A  
HETATM   20  C   UNL     1     -11.639  12.388  65.315  1.00  0.00    -0.419 A  
HETATM   21  O   UNL     1     -11.002  11.195  63.328  1.00  0.00    -0.753 OA 
HETATM   22  C   UNL     1     -12.607  13.280  64.609  1.00  0.00    -0.293 C  
HETATM   23  C   UNL     1     -11.481  12.582  66.700  1.00  0.00    -0.417 A  
HETATM   24  H   UNL     1     -11.603  11.736  62.830  1.00  0.00     0.000 HD 
HETATM   25  O   UNL     1     -12.697  13.100  63.275  1.00  0.00    -0.664 OA 
HETATM   26  O   UNL     1     -13.270  14.121  65.197  1.00  0.00    -0.743 OA 
ENDBRANCH  14  16
ENDBRANCH  12  14
ENDBRANCH   6  12
TORSDOF 3
ENDMDL
MODEL       26
REMARK 921   NORMALIZED FREE ENERGY PREDICTED BY IDOCK:   -7.32 KCAL/MOL
REMARK 922        TOTAL FREE ENERGY PREDICTED BY IDOCK:   -8.96 KCAL/MOL
REMARK 923 INTER-LIGAND FREE ENERGY PREDICTED BY IDOCK:   -8.55 KCAL/MOL
REMARK 924 INTRA-LIGAND FREE ENERGY PREDICTED BY IDOCK:   -0.41 KCAL/MOL
REMARK 927      BINDING AFFINITY PREDICTED BY RF-SCORE:    0.00 PKD
ROOT
HETATM    1  O   UNL     1     -13.954  13.435  72.673  1.00  0.00    -0.755 OA 
HETATM    2  C   UNL     1     -13.460  14.489  71.990  1.00  0.00    -0.384 C  
HETATM    3  C   UNL     1     -12.575  14.151  70.836  1.00  0.00    -0.433 A  
HETATM    4  O   UNL     1     -13.720  15.641  72.300  1.00  0.00    -0.482 OA 
HETATM    5  C   UNL     1     -12.044  15.223  70.092  1.00  0.00    -0.394 A  
HETATM    6  C   UNL     1     -11.214  14.999  68.982  1.00  0.00    -0.268 A  
HETATM    7  C   UNL     1     -10.923  13.675  68.632  1.00  0.00    -0.290 A  
HETATM    8  C   UNL     1     -12.266  12.839  70.452  1.00  0.00    -0.293 A  
HETATM    9  H   UNL     1     -12.575  10.885  70.882  1.00  0.00     0.000 HD 
HETATM   10  C   UNL     1     -11.438  12.598  69.357  1.00  0.00    -0.330 A  
HETATM   11  O   UNL     1     -12.784  11.774  71.143  1.00  0.00    -0.378 OA 
ENDROOT
BRANCH   6  12
HETATM   12  N   UNL     1     -10.716  16.014  68.137  1.00  0.00    -0.299 NA 
HETATM   13  H   UNL     1     -10.000  15.850  67.430  1.00  0.00     0.000 HD 
BRANCH  12  14
HETATM   14  N   UNL     1     -11.236  17.131  68.336  1.00  0.00    -0.110 NA 
HETATM   15  H   UNL     1     -12.199  17.264  68.643  1.00  0.00     0.000 HD 
BRANCH  14  16
HETATM   16  C   UNL     1     -10.333  18.191  68.088  1.00  0.00    -0.379 A  
HETATM   17  C   UNL     1      -9.892  20.283  66.914  1.00  0.00    -0.597 A  
HETATM   18  C   UNL     1     -10.753  19.236  67.256  1.00  0.00    -0.594 A  
HETATM   19  C   UNL     1      -8.584  20.289  67.399  1.00  0.00    -0.343 A  
HETATM   20  C   UNL     1      -8.131  19.264  68.237  1.00  0.00    -0.367 A  
HETATM   21  O   UNL     1      -7.740  21.310  67.037  1.00  0.00    -0.733 OA 
HETATM   22  C   UNL     1      -6.751  19.195  68.802  1.00  0.00    -0.296 C  
HETATM   23  C   UNL     1      -9.014  18.220  68.571  1.00  0.00    -0.329 A  
HETATM   24  H   UNL     1      -6.850  21.314  67.368  1.00  0.00     0.000 HD 
HETATM   25  O   UNL     1      -5.917  20.185  68.422  1.00  0.00    -0.235 OA 
HETATM   26  O   UNL     1      -6.396  18.300  69.554  1.00  0.00    -0.262 OA 
ENDBRANCH  14  16
ENDBRANCH  12  14
ENDBRANCH   6  12
TORSDOF 3
ENDMDL
MODEL       27
REMARK 921   NORMALIZED FREE ENERGY PREDICTED BY IDOCK:   -7.30 KCAL/MOL
REMARK 922        TOTAL FREE ENERGY PREDICTED BY IDOCK:   -8.95 KCAL/MOL
REMARK 923 INTER-LIGAND FREE ENERGY PREDICTED BY IDOCK:   -8.37 KCAL/MOL
REMARK 924 INTRA-LIGAND FREE ENERGY PREDICTED BY IDOCK:   -0.58 KCAL/MOL
REMARK 927      BINDING AFFINITY PREDICTED BY RF-SCORE:    0.00 PKD
ROOT
HETATM    1  O   UNL     1     -13.335  10.775  72.196  1.00  0.00    -0.442 OA 
HETATM    2  C   UNL     1     -12.644  11.061  71.073  1.00  0.00    -0.411 C  
HETATM    3  C   UNL     1     -12.544  12.511  70.730  1.00  0.00    -0.299 A  
HETATM    4  O   UNL     1     -12.136  10.190  70.385  1.00  0.00    -0.272 OA 
HETATM    5  C   UNL     1     -11.824  12.854  69.569  1.00  0.00    -0.383 A  
HETATM    6  C   UNL     1     -11.666  14.193  69.177  1.00  0.00    -0.327 A  
HETATM    7  C   UNL     1     -12.249  15.186  69.974  1.00  0.00    -0.379 A  
HETATM    8  C   UNL     1     -13.108  13.534  71.505  1.00  0.00    -0.344 A  
HETATM    9  H   UNL     1     -14.179  13.927  73.178  1.00  0.00     0.000 HD 
HETATM   10  C   UNL     1     -12.968  14.868  71.128  1.00  0.00    -0.432 A  
HETATM   11  O   UNL     1     -13.797  13.234  72.652  1.00  0.00    -0.712 OA 
ENDROOT
BRANCH   6  12
HETATM   12  N   UNL     1     -10.888  14.620  68.080  1.00  0.00    -0.247 NA 
HETATM   13  H   UNL     1      -9.869  14.659  68.100  1.00  0.00     0.000 HD 
BRANCH  12  14
HETATM   14  N   UNL     1     -11.564  14.944  67.083  1.00  0.00    -0.348 NA 
HETATM   15  H   UNL     1     -12.160  15.771  67.044  1.00  0.00     0.000 HD 
BRANCH  14  16
HETATM   16  C   UNL     1     -11.409  14.032  66.013  1.00  0.00    -0.328 A  
HETATM   17  C   UNL     1     -12.266  13.187  63.892  1.00  0.00    -0.503 A  
HETATM   18  C   UNL     1     -12.319  14.098  64.951  1.00  0.00    -0.446 A  
HETATM   19  C   UNL     1     -11.298  12.183  63.891  1.00  0.00    -0.426 A  
HETATM   20  C   UNL     1     -10.368  12.090  64.933  1.00  0.00    -0.316 A  
HETATM   21  O   UNL     1     -11.270  11.279  62.858  1.00  0.00    -0.822 OA 
HETATM   22  C   UNL     1      -9.299  11.050  65.010  1.00  0.00    -0.221 C  
HETATM   23  C   UNL     1     -10.437  13.018  65.989  1.00  0.00    -0.289 A  
HETATM   24  H   UNL     1     -10.610  10.595  62.858  1.00  0.00     0.000 HD 
HETATM   25  O   UNL     1      -9.293  10.148  64.007  1.00  0.00    -0.254 OA 
HETATM   26  O   UNL     1      -8.486  11.014  65.920  1.00  0.00    -0.167 OA 
ENDBRANCH  14  16
ENDBRANCH  12  14
ENDBRANCH   6  12
TORSDOF 3
ENDMDL
MODEL       28
REMARK 921   NORMALIZED FREE ENERGY PREDICTED BY IDOCK:   -7.27 KCAL/MOL
REMARK 922        TOTAL FREE ENERGY PREDICTED BY IDOCK:   -8.91 KCAL/MOL
REMARK 923 INTER-LIGAND FREE ENERGY PREDICTED BY IDOCK:   -8.54 KCAL/MOL
REMARK 924 INTRA-LIGAND FREE ENERGY PREDICTED BY IDOCK:   -0.37 KCAL/MOL
REMARK 927      BINDING AFFINITY PREDICTED BY RF-SCORE:    0.00 PKD
ROOT
HETATM    1  O   UNL     1     -13.402  15.034  73.703  1.00  0.00    -0.411 OA 
HETATM    2  C   UNL     1     -13.432  14.209  72.636  1.00  0.00    -0.534 C  
HETATM    3  C   UNL     1     -12.608  14.639  71.467  1.00  0.00    -0.410 A  
HETATM    4  O   UNL     1     -14.091  13.181  72.629  1.00  0.00    -0.701 OA 
HETATM    5  C   UNL     1     -12.606  13.801  70.334  1.00  0.00    -0.325 A  
HETATM    6  C   UNL     1     -11.848  14.118  69.195  1.00  0.00    -0.341 A  
HETATM    7  C   UNL     1     -11.093  15.298  69.213  1.00  0.00    -0.277 A  
HETATM    8  C   UNL     1     -11.835  15.807  71.449  1.00  0.00    -0.442 A  
HETATM    9  H   UNL     1     -11.275  17.424  72.532  1.00  0.00     0.000 HD 
HETATM   10  C   UNL     1     -11.082  16.142  70.325  1.00  0.00    -0.375 A  
HETATM   11  O   UNL     1     -11.800  16.632  72.545  1.00  0.00    -0.506 OA 
ENDROOT
BRANCH   6  12
HETATM   12  N   UNL     1     -11.725  13.290  68.059  1.00  0.00    -0.340 NA 
HETATM   13  H   UNL     1     -11.558  13.652  67.120  1.00  0.00     0.000 HD 
BRANCH  12  14
HETATM   14  N   UNL     1     -11.839  12.074  68.313  1.00  0.00    -0.425 NA 
HETATM   15  H   UNL     1     -12.317  11.706  69.135  1.00  0.00     0.000 HD 
BRANCH  14  16
HETATM   16  C   UNL     1     -11.228  11.264  67.327  1.00  0.00    -0.296 A  
HETATM   17  C   UNL     1     -10.066   9.184  66.806  1.00  0.00    -0.341 A  
HETATM   18  C   UNL     1     -10.739  10.010  67.711  1.00  0.00    -0.333 A  
HETATM   19  C   UNL     1      -9.864   9.615  65.495  1.00  0.00    -0.281 A  
HETATM   20  C   UNL     1     -10.342  10.861  65.074  1.00  0.00    -0.356 A  
HETATM   21  O   UNL     1      -9.180   8.807  64.621  1.00  0.00    -0.414 OA 
HETATM   22  C   UNL     1     -10.172  11.398  63.691  1.00  0.00    -0.397 C  
HETATM   23  C   UNL     1     -11.019  11.676  66.000  1.00  0.00    -0.338 A  
HETATM   24  H   UNL     1      -9.042   9.101  63.729  1.00  0.00     0.000 HD 
HETATM   25  O   UNL     1      -9.476  10.612  62.844  1.00  0.00    -0.284 OA 
HETATM   26  O   UNL     1     -10.627  12.478  63.348  1.00  0.00    -0.415 OA 
ENDBRANCH  14  16
ENDBRANCH  12  14
ENDBRANCH   6  12
TORSDOF 3
ENDMDL
MODEL       29
REMARK 921   NORMALIZED FREE ENERGY PREDICTED BY IDOCK:   -7.27 KCAL/MOL
REMARK 922        TOTAL FREE ENERGY PREDICTED BY IDOCK:   -8.90 KCAL/MOL
REMARK 923 INTER-LIGAND FREE ENERGY PREDICTED BY IDOCK:   -8.54 KCAL/MOL
REMARK 924 INTRA-LIGAND FREE ENERGY PREDICTED BY IDOCK:   -0.37 KCAL/MOL
REMARK 927      BINDING AFFINITY PREDICTED BY RF-SCORE:    0.00 PKD
ROOT
HETATM    1  O   UNL     1      -9.963  17.580  65.496  1.00  0.00    -0.552 OA 
HETATM    2  C   UNL     1      -9.976  16.485  66.285  1.00  0.00    -0.329 C  
HETATM    3  C   UNL     1     -10.854  15.370  65.823  1.00  0.00    -0.349 A  
HETATM    4  O   UNL     1      -9.313  16.416  67.308  1.00  0.00    -0.218 OA 
HETATM    5  C   UNL     1     -10.891  14.205  66.615  1.00  0.00    -0.299 A  
HETATM    6  C   UNL     1     -11.677  13.100  66.250  1.00  0.00    -0.375 A  
HETATM    7  C   UNL     1     -12.432  13.187  65.074  1.00  0.00    -0.516 A  
HETATM    8  C   UNL     1     -11.618  15.417  64.649  1.00  0.00    -0.311 A  
HETATM    9  H   UNL     1     -12.106  16.560  63.051  1.00  0.00     0.000 HD 
HETATM   10  C   UNL     1     -12.411  14.333  64.275  1.00  0.00    -0.407 A  
HETATM   11  O   UNL     1     -11.588  16.528  63.847  1.00  0.00    -1.175 OA 
ENDROOT
BRANCH   6  12
HETATM   12  N   UNL     1     -11.699  11.870  66.941  1.00  0.00    -0.589 NA 
HETATM   13  H   UNL     1     -12.464  11.199  66.862  1.00  0.00     0.000 HD 
BRANCH  12  14
HETATM   14  N   UNL     1     -10.695  11.680  67.657  1.00  0.00    -0.198 NA 
HETATM   15  H   UNL     1      -9.804  12.158  67.526  1.00  0.00     0.000 HD 
BRANCH  14  16
HETATM   16  C   UNL     1     -10.937  10.725  68.673  1.00  0.00    -0.239 A  
HETATM   17  C   UNL     1     -10.601   8.446  69.472  1.00  0.00    -0.217 A  
HETATM   18  C   UNL     1     -10.354   9.459  68.542  1.00  0.00    -0.236 A  
HETATM   19  C   UNL     1     -11.454   8.689  70.549  1.00  0.00    -0.188 A  
HETATM   20  C   UNL     1     -12.051   9.944  70.715  1.00  0.00    -0.396 A  
HETATM   21  O   UNL     1     -11.709   7.679  71.443  1.00  0.00    -0.269 OA 
HETATM   22  C   UNL     1     -12.972  10.290  71.838  1.00  0.00    -0.449 C  
HETATM   23  C   UNL     1     -11.787  10.951  69.768  1.00  0.00    -0.419 A  
HETATM   24  H   UNL     1     -12.290   7.845  72.177  1.00  0.00     0.000 HD 
HETATM   25  O   UNL     1     -13.241   9.286  72.699  1.00  0.00    -0.414 OA 
HETATM   26  O   UNL     1     -13.454  11.404  71.969  1.00  0.00    -0.393 OA 
ENDBRANCH  14  16
ENDBRANCH  12  14
ENDBRANCH   6  12
TORSDOF 3
ENDMDL
MODEL       30
REMARK 921   NORMALIZED FREE ENERGY PREDICTED BY IDOCK:   -7.26 KCAL/MOL
REMARK 922        TOTAL FREE ENERGY PREDICTED BY IDOCK:   -8.89 KCAL/MOL
REMARK 923 INTER-LIGAND FREE ENERGY PREDICTED BY IDOCK:   -8.47 KCAL/MOL
REMARK 924 INTRA-LIGAND FREE ENERGY PREDICTED BY IDOCK:   -0.42 KCAL/MOL
REMARK 927      BINDING AFFINITY PREDICTED BY RF-SCORE:    0.00 PKD
ROOT
HETATM    1  O   UNL     1     -10.317  18.553  66.301  1.00  0.00    -0.396 OA 
HETATM    2  C   UNL     1     -10.436  17.857  67.451  1.00  0.00    -0.383 C  
HETATM    3  C   UNL     1     -10.746  16.405  67.294  1.00  0.00    -0.257 A  
HETATM    4  O   UNL     1     -10.300  18.383  68.544  1.00  0.00    -0.365 OA 
HETATM    5  C   UNL     1     -10.871  15.639  68.470  1.00  0.00    -0.282 A  
HETATM    6  C   UNL     1     -11.146  14.264  68.419  1.00  0.00    -0.256 A  
HETATM    7  C   UNL     1     -11.298  13.668  67.160  1.00  0.00    -0.340 A  
HETATM    8  C   UNL     1     -10.898  15.772  66.053  1.00  0.00    -0.255 A  
HETATM    9  H   UNL     1     -10.864  16.056  64.048  1.00  0.00     0.000 HD 
HETATM   10  C   UNL     1     -11.179  14.408  65.982  1.00  0.00    -0.333 A  
HETATM   11  O   UNL     1     -10.761  16.486  64.890  1.00  0.00    -0.702 OA 
ENDROOT
BRANCH   6  12
HETATM   12  N   UNL     1     -11.199  13.415  69.545  1.00  0.00    -0.449 NA 
HETATM   13  H   UNL     1     -11.372  13.754  70.491  1.00  0.00     0.000 HD 
BRANCH  12  14
HETATM   14  N   UNL     1     -11.015  12.211  69.273  1.00  0.00    -0.416 NA 
HETATM   15  H   UNL     1     -10.420  11.884  68.512  1.00  0.00     0.000 HD 
BRANCH  14  16
HETATM   16  C   UNL     1     -11.726  11.353  70.144  1.00  0.00    -0.328 A  
HETATM   17  C   UNL     1     -13.252  11.150  72.036  1.00  0.00    -0.428 A  
HETATM   18  C   UNL     1     -12.568  11.933  71.101  1.00  0.00    -0.390 A  
HETATM   19  C   UNL     1     -13.090   9.765  72.029  1.00  0.00    -0.452 A  
HETATM   20  C   UNL     1     -12.261   9.150  71.084  1.00  0.00    -0.350 A  
HETATM   21  O   UNL     1     -13.747   9.008  72.967  1.00  0.00    -0.923 OA 
HETATM   22  C   UNL     1     -12.033   7.676  71.003  1.00  0.00    -0.273 C  
HETATM   23  C   UNL     1     -11.583   9.956  70.150  1.00  0.00    -0.281 A  
HETATM   24  H   UNL     1     -13.636   8.064  72.962  1.00  0.00     0.000 HD 
HETATM   25  O   UNL     1     -12.660   6.940  71.944  1.00  0.00    -0.339 OA 
HETATM   26  O   UNL     1     -11.324   7.170  70.148  1.00  0.00    -0.277 OA 
ENDBRANCH  14  16
ENDBRANCH  12  14
ENDBRANCH   6  12
TORSDOF 3
ENDMDL
MODEL       31
REMARK 921   NORMALIZED FREE ENERGY PREDICTED BY IDOCK:   -7.20 KCAL/MOL
REMARK 922        TOTAL FREE ENERGY PREDICTED BY IDOCK:   -8.83 KCAL/MOL
REMARK 923 INTER-LIGAND FREE ENERGY PREDICTED BY IDOCK:   -8.06 KCAL/MOL
REMARK 924 INTRA-LIGAND FREE ENERGY PREDICTED BY IDOCK:   -0.76 KCAL/MOL
REMARK 927      BINDING AFFINITY PREDICTED BY RF-SCORE:    0.00 PKD
ROOT
HETATM    1  O   UNL     1     -11.806  12.064  63.435  1.00  0.00    -0.462 OA 
HETATM    2  C   UNL     1     -12.099  13.212  64.082  1.00  0.00    -0.430 C  
HETATM    3  C   UNL     1     -11.768  13.232  65.538  1.00  0.00    -0.376 A  
HETATM    4  O   UNL     1     -12.601  14.167  63.512  1.00  0.00    -0.834 OA 
HETATM    5  C   UNL     1     -12.051  14.415  66.250  1.00  0.00    -0.384 A  
HETATM    6  C   UNL     1     -11.761  14.529  67.618  1.00  0.00    -0.382 A  
HETATM    7  C   UNL     1     -11.182  13.429  68.264  1.00  0.00    -0.310 A  
HETATM    8  C   UNL     1     -11.183  12.155  66.217  1.00  0.00    -0.334 A  
HETATM    9  H   UNL     1     -10.480  10.268  66.009  1.00  0.00     0.000 HD 
HETATM   10  C   UNL     1     -10.895  12.247  67.578  1.00  0.00    -0.271 A  
HETATM   11  O   UNL     1     -10.877  10.998  65.548  1.00  0.00    -0.197 OA 
ENDROOT
BRANCH   6  12
HETATM   12  N   UNL     1     -11.933  15.706  68.378  1.00  0.00    -0.474 NA 
HETATM   13  H   UNL     1     -12.838  16.157  68.510  1.00  0.00     0.000 HD 
BRANCH  12  14
HETATM   14  N   UNL     1     -10.874  16.141  68.872  1.00  0.00    -0.284 NA 
HETATM   15  H   UNL     1     -10.485  15.820  69.759  1.00  0.00     0.000 HD 
BRANCH  14  16
HETATM   16  C   UNL     1     -10.274  17.132  68.060  1.00  0.00    -0.332 A  
HETATM   17  C   UNL     1     -10.515  19.267  66.907  1.00  0.00    -0.547 A  
HETATM   18  C   UNL     1     -11.019  18.278  67.756  1.00  0.00    -0.118 A  
HETATM   19  C   UNL     1      -9.251  19.113  66.338  1.00  0.00    -0.343 A  
HETATM   20  C   UNL     1      -8.475  17.983  66.623  1.00  0.00    -0.283 A  
HETATM   21  O   UNL     1      -8.776  20.079  65.486  1.00  0.00    -0.432 OA 
HETATM   22  C   UNL     1      -7.114  17.740  66.061  1.00  0.00    -0.300 C  
HETATM   23  C   UNL     1      -9.000  16.999  67.483  1.00  0.00    -0.220 A  
HETATM   24  H   UNL     1      -7.915  19.973  65.099  1.00  0.00     0.000 HD 
HETATM   25  O   UNL     1      -6.663  18.679  65.204  1.00  0.00    -0.507 OA 
HETATM   26  O   UNL     1      -6.452  16.756  66.353  1.00  0.00    -0.241 OA 
ENDBRANCH  14  16
ENDBRANCH  12  14
ENDBRANCH   6  12
TORSDOF 3
ENDMDL
MODEL       32
REMARK 921   NORMALIZED FREE ENERGY PREDICTED BY IDOCK:   -7.18 KCAL/MOL
REMARK 922        TOTAL FREE ENERGY PREDICTED BY IDOCK:   -8.80 KCAL/MOL
REMARK 923 INTER-LIGAND FREE ENERGY PREDICTED BY IDOCK:   -8.45 KCAL/MOL
REMARK 924 INTRA-LIGAND FREE ENERGY PREDICTED BY IDOCK:   -0.35 KCAL/MOL
REMARK 927      BINDING AFFINITY PREDICTED BY RF-SCORE:    0.00 PKD
ROOT
HETATM    1  O   UNL     1     -13.172  14.360  73.437  1.00  0.00    -0.576 OA 
HETATM    2  C   UNL     1     -13.191  13.778  72.219  1.00  0.00    -0.467 C  
HETATM    3  C   UNL     1     -12.527  14.551  71.127  1.00  0.00    -0.411 A  
HETATM    4  O   UNL     1     -13.717  12.694  72.027  1.00  0.00    -0.389 OA 
HETATM    5  C   UNL     1     -12.518  13.976  69.841  1.00  0.00    -0.301 A  
HETATM    6  C   UNL     1     -11.904  14.623  68.757  1.00  0.00    -0.313 A  
HETATM    7  C   UNL     1     -11.300  15.866  68.987  1.00  0.00    -0.371 A  
HETATM    8  C   UNL     1     -11.907  15.793  71.319  1.00  0.00    -0.437 A  
HETATM    9  H   UNL     1     -11.460  17.211  72.694  1.00  0.00     0.000 HD 
HETATM   10  C   UNL     1     -11.299  16.454  70.254  1.00  0.00    -0.207 A  
HETATM   11  O   UNL     1     -11.881  16.369  72.564  1.00  0.00    -0.527 OA 
ENDROOT
BRANCH   6  12
HETATM   12  N   UNL     1     -11.777  14.074  67.464  1.00  0.00    -0.365 NA 
HETATM   13  H   UNL     1     -11.664  14.643  66.624  1.00  0.00     0.000 HD 
BRANCH  12  14
HETATM   14  N   UNL     1     -11.816  12.827  67.444  1.00  0.00    -0.364 NA 
HETATM   15  H   UNL     1     -12.142  12.255  68.223  1.00  0.00     0.000 HD 
BRANCH  14  16
HETATM   16  C   UNL     1     -11.356  12.299  66.215  1.00  0.00    -0.345 A  
HETATM   17  C   UNL     1     -11.551  12.281  63.783  1.00  0.00    -0.555 A  
HETATM   18  C   UNL     1     -11.910  12.800  65.031  1.00  0.00    -0.423 A  
HETATM   19  C   UNL     1     -10.632  11.235  63.709  1.00  0.00    -0.392 A  
HETATM   20  C   UNL     1     -10.053  10.712  64.871  1.00  0.00    -0.402 A  
HETATM   21  O   UNL     1     -10.305  10.716  62.481  1.00  0.00    -0.751 OA 
HETATM   22  C   UNL     1      -9.060   9.597  64.881  1.00  0.00    -0.232 C  
HETATM   23  C   UNL     1     -10.426  11.250  66.116  1.00  0.00    -0.305 A  
HETATM   24  H   UNL     1      -9.678  10.004  62.430  1.00  0.00     0.000 HD 
HETATM   25  O   UNL     1      -8.762   9.072  63.675  1.00  0.00    -0.179 OA 
HETATM   26  O   UNL     1      -8.553   9.182  65.912  1.00  0.00    -0.136 OA 
ENDBRANCH  14  16
ENDBRANCH  12  14
ENDBRANCH   6  12
TORSDOF 3
ENDMDL
MODEL       33
REMARK 921   NORMALIZED FREE ENERGY PREDICTED BY IDOCK:   -7.09 KCAL/MOL
REMARK 922        TOTAL FREE ENERGY PREDICTED BY IDOCK:   -8.70 KCAL/MOL
REMARK 923 INTER-LIGAND FREE ENERGY PREDICTED BY IDOCK:   -8.09 KCAL/MOL
REMARK 924 INTRA-LIGAND FREE ENERGY PREDICTED BY IDOCK:   -0.62 KCAL/MOL
REMARK 927      BINDING AFFINITY PREDICTED BY RF-SCORE:    0.00 PKD
ROOT
HETATM    1  O   UNL     1     -11.604  12.018  63.227  1.00  0.00    -0.392 OA 
HETATM    2  C   UNL     1     -12.041  13.039  63.993  1.00  0.00    -0.450 C  
HETATM    3  C   UNL     1     -11.776  12.904  65.456  1.00  0.00    -0.423 A  
HETATM    4  O   UNL     1     -12.614  14.007  63.518  1.00  0.00    -0.842 OA 
HETATM    5  C   UNL     1     -12.210  13.953  66.292  1.00  0.00    -0.498 A  
HETATM    6  C   UNL     1     -11.991  13.918  67.678  1.00  0.00    -0.368 A  
HETATM    7  C   UNL     1     -11.330  12.806  68.214  1.00  0.00    -0.335 A  
HETATM    8  C   UNL     1     -11.113  11.810  66.029  1.00  0.00    -0.312 A  
HETATM    9  H   UNL     1     -10.211  10.043  65.628  1.00  0.00     0.000 HD 
HETATM   10  C   UNL     1     -10.894  11.755  67.404  1.00  0.00    -0.299 A  
HETATM   11  O   UNL     1     -10.661  10.784  65.240  1.00  0.00    -0.249 OA 
ENDROOT
BRANCH   6  12
HETATM   12  N   UNL     1     -12.316  14.965  68.566  1.00  0.00    -0.586 NA 
HETATM   13  H   UNL     1     -13.177  15.508  68.498  1.00  0.00     0.000 HD 
BRANCH  12  14
HETATM   14  N   UNL     1     -11.450  15.164  69.442  1.00  0.00    -0.286 NA 
HETATM   15  H   UNL     1     -11.480  14.754  70.376  1.00  0.00     0.000 HD 
BRANCH  14  16
HETATM   16  C   UNL     1     -10.423  16.025  68.991  1.00  0.00    -0.246 A  
HETATM   17  C   UNL     1      -8.036  16.523  68.933  1.00  0.00    -0.239 A  
HETATM   18  C   UNL     1      -9.097  15.687  69.291  1.00  0.00    -0.270 A  
HETATM   19  C   UNL     1      -8.294  17.725  68.274  1.00  0.00    -0.276 A  
HETATM   20  C   UNL     1      -9.605  18.094  67.953  1.00  0.00    -0.290 A  
HETATM   21  O   UNL     1      -7.246  18.550  67.949  1.00  0.00    -0.230 OA 
HETATM   22  C   UNL     1      -9.970  19.358  67.248  1.00  0.00    -0.366 C  
HETATM   23  C   UNL     1     -10.660  17.236  68.320  1.00  0.00    -0.383 A  
HETATM   24  H   UNL     1      -7.422  19.368  67.500  1.00  0.00     0.000 HD 
HETATM   25  O   UNL     1      -8.939  20.178  66.955  1.00  0.00    -0.333 OA 
HETATM   26  O   UNL     1     -11.123  19.636  66.958  1.00  0.00    -0.412 OA 
ENDBRANCH  14  16
ENDBRANCH  12  14
ENDBRANCH   6  12
TORSDOF 3
ENDMDL
MODEL       34
REMARK 921   NORMALIZED FREE ENERGY PREDICTED BY IDOCK:   -7.09 KCAL/MOL
REMARK 922        TOTAL FREE ENERGY PREDICTED BY IDOCK:   -8.69 KCAL/MOL
REMARK 923 INTER-LIGAND FREE ENERGY PREDICTED BY IDOCK:   -8.30 KCAL/MOL
REMARK 924 INTRA-LIGAND FREE ENERGY PREDICTED BY IDOCK:   -0.39 KCAL/MOL
REMARK 927      BINDING AFFINITY PREDICTED BY RF-SCORE:    0.00 PKD
ROOT
HETATM    1  O   UNL     1      -9.215  10.341  62.924  1.00  0.00    -0.246 OA 
HETATM    2  C   UNL     1      -9.993  11.159  63.664  1.00  0.00    -0.363 C  
HETATM    3  C   UNL     1     -10.230  10.721  65.071  1.00  0.00    -0.373 A  
HETATM    4  O   UNL     1     -10.469  12.187  63.209  1.00  0.00    -0.432 OA 
HETATM    5  C   UNL     1     -11.031  11.551  65.881  1.00  0.00    -0.301 A  
HETATM    6  C   UNL     1     -11.295  11.226  67.220  1.00  0.00    -0.255 A  
HETATM    7  C   UNL     1     -10.742  10.047  67.735  1.00  0.00    -0.333 A  
HETATM    8  C   UNL     1      -9.689   9.552  65.624  1.00  0.00    -0.290 A  
HETATM    9  H   UNL     1      -8.522   7.942  65.242  1.00  0.00     0.000 HD 
HETATM   10  C   UNL     1      -9.947   9.210  66.950  1.00  0.00    -0.304 A  
HETATM   11  O   UNL     1      -8.889   8.735  64.867  1.00  0.00    -0.167 OA 
ENDROOT
BRANCH   6  12
HETATM   12  N   UNL     1     -12.012  12.047  68.117  1.00  0.00    -0.496 NA 
HETATM   13  H   UNL     1     -12.505  11.685  68.933  1.00  0.00     0.000 HD 
BRANCH  12  14
HETATM   14  N   UNL     1     -11.986  13.258  67.817  1.00  0.00    -0.341 NA 
HETATM   15  H   UNL     1     -11.946  13.606  66.859  1.00  0.00     0.000 HD 
BRANCH  14  16
HETATM   16  C   UNL     1     -12.019  14.091  68.959  1.00  0.00    -0.357 A  
HETATM   17  C   UNL     1     -11.275  16.160  70.016  1.00  0.00    -0.359 A  
HETATM   18  C   UNL     1     -11.341  15.315  68.904  1.00  0.00    -0.315 A  
HETATM   19  C   UNL     1     -11.885  15.779  71.211  1.00  0.00    -0.437 A  
HETATM   20  C   UNL     1     -12.576  14.565  71.302  1.00  0.00    -0.415 A  
HETATM   21  O   UNL     1     -11.794  16.605  72.304  1.00  0.00    -0.620 OA 
HETATM   22  C   UNL     1     -13.259  14.082  72.539  1.00  0.00    -0.505 C  
HETATM   23  C   UNL     1     -12.632  13.730  70.170  1.00  0.00    -0.253 A  
HETATM   24  H   UNL     1     -12.210  16.345  73.117  1.00  0.00     0.000 HD 
HETATM   25  O   UNL     1     -13.143  14.884  73.617  1.00  0.00    -0.518 OA 
HETATM   26  O   UNL     1     -13.877  13.029  72.576  1.00  0.00    -0.625 OA 
ENDBRANCH  14  16
ENDBRANCH  12  14
ENDBRANCH   6  12
TORSDOF 3
ENDMDL
MODEL       35
REMARK 921   NORMALIZED FREE ENERGY PREDICTED BY IDOCK:   -7.06 KCAL/MOL
REMARK 922        TOTAL FREE ENERGY PREDICTED BY IDOCK:   -8.66 KCAL/MOL
REMARK 923 INTER-LIGAND FREE ENERGY PREDICTED BY IDOCK:   -8.32 KCAL/MOL
REMARK 924 INTRA-LIGAND FREE ENERGY PREDICTED BY IDOCK:   -0.34 KCAL/MOL
REMARK 927      BINDING AFFINITY PREDICTED BY RF-SCORE:    0.00 PKD
ROOT
HETATM    1  O   UNL     1      -9.079   7.222  72.017  1.00  0.00    -0.130 OA 
HETATM    2  C   UNL     1      -9.106   8.177  71.063  1.00  0.00    -0.152 C  
HETATM    3  C   UNL     1     -10.320   9.046  71.058  1.00  0.00    -0.348 A  
HETATM    4  O   UNL     1      -8.196   8.317  70.261  1.00  0.00    -0.114 OA 
HETATM    5  C   UNL     1     -10.384  10.061  70.083  1.00  0.00    -0.321 A  
HETATM    6  C   UNL     1     -11.481  10.935  70.011  1.00  0.00    -0.329 A  
HETATM    7  C   UNL     1     -12.518  10.769  70.938  1.00  0.00    -0.500 A  
HETATM    8  C   UNL     1     -11.374   8.915  71.972  1.00  0.00    -0.357 A  
HETATM    9  H   UNL     1     -12.046   7.862  73.565  1.00  0.00     0.000 HD 
HETATM   10  C   UNL     1     -12.474   9.768  71.912  1.00  0.00    -0.451 A  
HETATM   11  O   UNL     1     -11.331   7.950  72.945  1.00  0.00    -0.406 OA 
ENDROOT
BRANCH   6  12
HETATM   12  N   UNL     1     -11.578  12.028  69.124  1.00  0.00    -0.288 NA 
HETATM   13  H   UNL     1     -12.200  12.821  69.281  1.00  0.00     0.000 HD 
BRANCH  12  14
HETATM   14  N   UNL     1     -10.831  11.932  68.129  1.00  0.00    -0.209 NA 
HETATM   15  H   UNL     1      -9.998  11.344  68.096  1.00  0.00     0.000 HD 
BRANCH  14  16
HETATM   16  C   UNL     1     -11.274  12.733  67.051  1.00  0.00    -0.292 A  
HETATM   17  C   UNL     1     -12.586  12.876  64.999  1.00  0.00    -0.538 A  
HETATM   18  C   UNL     1     -12.158  12.165  66.125  1.00  0.00    -0.068 A  
HETATM   19  C   UNL     1     -12.121  14.172  64.782  1.00  0.00    -0.441 A  
HETATM   20  C   UNL     1     -11.240  14.774  65.688  1.00  0.00    -0.343 A  
HETATM   21  O   UNL     1     -12.529  14.852  63.661  1.00  0.00    -1.055 OA 
HETATM   22  C   UNL     1     -10.696  16.156  65.534  1.00  0.00    -0.342 C  
HETATM   23  C   UNL     1     -10.823  14.042  66.816  1.00  0.00    -0.294 A  
HETATM   24  H   UNL     1     -12.211  15.735  63.513  1.00  0.00     0.000 HD 
HETATM   25  O   UNL     1     -11.079  16.809  64.417  1.00  0.00    -1.072 OA 
HETATM   26  O   UNL     1      -9.951  16.661  66.359  1.00  0.00    -0.271 OA 
ENDBRANCH  14  16
ENDBRANCH  12  14
ENDBRANCH   6  12
TORSDOF 3
ENDMDL
MODEL       36
REMARK 921   NORMALIZED FREE ENERGY PREDICTED BY IDOCK:   -7.05 KCAL/MOL
REMARK 922        TOTAL FREE ENERGY PREDICTED BY IDOCK:   -8.65 KCAL/MOL
REMARK 923 INTER-LIGAND FREE ENERGY PREDICTED BY IDOCK:   -8.22 KCAL/MOL
REMARK 924 INTRA-LIGAND FREE ENERGY PREDICTED BY IDOCK:   -0.42 KCAL/MOL
REMARK 927      BINDING AFFINITY PREDICTED BY RF-SCORE:    0.00 PKD
ROOT
HETATM    1  O   UNL     1      -8.585   6.569  68.992  1.00  0.00    -0.124 OA 
HETATM    2  C   UNL     1      -9.218   7.455  68.194  1.00  0.00    -0.133 C  
HETATM    3  C   UNL     1      -9.935   8.558  68.900  1.00  0.00    -0.197 A  
HETATM    4  O   UNL     1      -9.204   7.356  66.977  1.00  0.00    -0.131 OA 
HETATM    5  C   UNL     1     -10.603   9.509  68.104  1.00  0.00    -0.265 A  
HETATM    6  C   UNL     1     -11.291  10.588  68.680  1.00  0.00    -0.252 A  
HETATM    7  C   UNL     1     -11.300  10.695  70.076  1.00  0.00    -0.400 A  
HETATM    8  C   UNL     1      -9.961   8.701  70.294  1.00  0.00    -0.186 A  
HETATM    9  H   UNL     1      -9.321   7.901  72.040  1.00  0.00     0.000 HD 
HETATM   10  C   UNL     1     -10.645   9.762  70.885  1.00  0.00    -0.344 A  
HETATM   11  O   UNL     1      -9.303   7.803  71.095  1.00  0.00    -0.149 OA 
ENDROOT
BRANCH   6  12
HETATM   12  N   UNL     1     -11.907  11.627  67.950  1.00  0.00    -0.596 NA 
HETATM   13  H   UNL     1     -12.416  12.393  68.391  1.00  0.00     0.000 HD 
BRANCH  12  14
HETATM   14  N   UNL     1     -11.771  11.519  66.715  1.00  0.00    -0.479 NA 
HETATM   15  H   UNL     1     -11.706  10.627  66.225  1.00  0.00     0.000 HD 
BRANCH  14  16
HETATM   16  C   UNL     1     -11.718  12.778  66.072  1.00  0.00    -0.418 A  
HETATM   17  C   UNL     1     -12.333  14.125  64.134  1.00  0.00    -0.372 A  
HETATM   18  C   UNL     1     -12.395  12.929  64.856  1.00  0.00    -0.532 A  
HETATM   19  C   UNL     1     -11.574  15.188  64.621  1.00  0.00    -0.357 A  
HETATM   20  C   UNL     1     -10.888  15.076  65.836  1.00  0.00    -0.339 A  
HETATM   21  O   UNL     1     -11.500  16.349  63.892  1.00  0.00    -1.569 OA 
HETATM   22  C   UNL     1     -10.057  16.164  66.431  1.00  0.00    -0.308 C  
HETATM   23  C   UNL     1     -10.965  13.865  66.549  1.00  0.00    -0.300 A  
HETATM   24  H   UNL     1     -10.983  17.073  64.224  1.00  0.00     0.000 HD 
HETATM   25  O   UNL     1      -9.965  17.292  65.697  1.00  0.00    -0.553 OA 
HETATM   26  O   UNL     1      -9.493  16.042  67.507  1.00  0.00    -0.220 OA 
ENDBRANCH  14  16
ENDBRANCH  12  14
ENDBRANCH   6  12
TORSDOF 3
ENDMDL
MODEL       37
REMARK 921   NORMALIZED FREE ENERGY PREDICTED BY IDOCK:   -7.04 KCAL/MOL
REMARK 922        TOTAL FREE ENERGY PREDICTED BY IDOCK:   -8.63 KCAL/MOL
REMARK 923 INTER-LIGAND FREE ENERGY PREDICTED BY IDOCK:   -8.11 KCAL/MOL
REMARK 924 INTRA-LIGAND FREE ENERGY PREDICTED BY IDOCK:   -0.52 KCAL/MOL
REMARK 927      BINDING AFFINITY PREDICTED BY RF-SCORE:    0.00 PKD
ROOT
HETATM    1  O   UNL     1     -10.872  19.039  65.224  1.00  0.00    -0.540 OA 
HETATM    2  C   UNL     1     -10.816  17.690  65.231  1.00  0.00     0.194 C  
HETATM    3  C   UNL     1     -10.244  17.076  66.466  1.00  0.00    -0.321 A  
HETATM    4  O   UNL     1     -11.207  17.021  64.288  1.00  0.00    -1.186 OA 
HETATM    5  C   UNL     1     -10.175  15.670  66.516  1.00  0.00    -0.291 A  
HETATM    6  C   UNL     1      -9.665  15.005  67.643  1.00  0.00    -0.215 A  
HETATM    7  C   UNL     1      -9.222  15.781  68.722  1.00  0.00    -0.216 A  
HETATM    8  C   UNL     1      -9.796  17.818  67.567  1.00  0.00    -0.304 A  
HETATM    9  H   UNL     1      -9.566  19.690  68.303  1.00  0.00     0.000 HD 
HETATM   10  C   UNL     1      -9.280  17.176  68.692  1.00  0.00    -0.263 A  
HETATM   11  O   UNL     1      -9.870  19.187  67.556  1.00  0.00    -0.308 OA 
ENDROOT
BRANCH   6  12
HETATM   12  N   UNL     1      -9.645  13.603  67.805  1.00  0.00    -0.217 NA 
HETATM   13  H   UNL     1      -8.799  13.081  68.033  1.00  0.00     0.000 HD 
BRANCH  12  14
HETATM   14  N   UNL     1     -10.758  13.064  67.643  1.00  0.00    -0.225 NA 
HETATM   15  H   UNL     1     -11.161  12.854  66.730  1.00  0.00     0.000 HD 
BRANCH  14  16
HETATM   16  C   UNL     1     -11.396  12.779  68.872  1.00  0.00    -0.296 A  
HETATM   17  C   UNL     1     -12.010  11.095  70.527  1.00  0.00    -0.475 A  
HETATM   18  C   UNL     1     -11.347  11.464  69.353  1.00  0.00    -0.365 A  
HETATM   19  C   UNL     1     -12.745  12.046  71.235  1.00  0.00    -0.279 A  
HETATM   20  C   UNL     1     -12.812  13.371  70.787  1.00  0.00    -0.221 A  
HETATM   21  O   UNL     1     -13.411  11.667  72.373  1.00  0.00    -0.602 OA 
HETATM   22  C   UNL     1     -13.573  14.451  71.484  1.00  0.00    -0.370 C  
HETATM   23  C   UNL     1     -12.136  13.722  69.604  1.00  0.00    -0.392 A  
HETATM   24  H   UNL     1     -13.912  12.315  72.855  1.00  0.00     0.000 HD 
HETATM   25  O   UNL     1     -14.248  14.067  72.587  1.00  0.00    -0.639 OA 
HETATM   26  O   UNL     1     -13.588  15.603  71.081  1.00  0.00    -0.582 OA 
ENDBRANCH  14  16
ENDBRANCH  12  14
ENDBRANCH   6  12
TORSDOF 3
ENDMDL
MODEL       38
REMARK 921   NORMALIZED FREE ENERGY PREDICTED BY IDOCK:   -6.98 KCAL/MOL
REMARK 922        TOTAL FREE ENERGY PREDICTED BY IDOCK:   -8.57 KCAL/MOL
REMARK 923 INTER-LIGAND FREE ENERGY PREDICTED BY IDOCK:   -8.21 KCAL/MOL
REMARK 924 INTRA-LIGAND FREE ENERGY PREDICTED BY IDOCK:   -0.37 KCAL/MOL
REMARK 927      BINDING AFFINITY PREDICTED BY RF-SCORE:    0.00 PKD
ROOT
HETATM    1  O   UNL     1     -11.119   7.043  70.705  1.00  0.00    -0.249 OA 
HETATM    2  C   UNL     1     -10.772   8.180  70.066  1.00  0.00    -0.243 C  
HETATM    3  C   UNL     1     -11.536   9.399  70.464  1.00  0.00    -0.317 A  
HETATM    4  O   UNL     1      -9.893   8.205  69.219  1.00  0.00    -0.175 OA 
HETATM    5  C   UNL     1     -11.200  10.610  69.826  1.00  0.00    -0.363 A  
HETATM    6  C   UNL     1     -11.854  11.809  70.147  1.00  0.00    -0.324 A  
HETATM    7  C   UNL     1     -12.860  11.772  71.121  1.00  0.00    -0.365 A  
HETATM    8  C   UNL     1     -12.543   9.403  71.438  1.00  0.00    -0.348 A  
HETATM    9  H   UNL     1     -13.562   8.247  72.752  1.00  0.00     0.000 HD 
HETATM   10  C   UNL     1     -13.210  10.583  71.764  1.00  0.00    -0.522 A  
HETATM   11  O   UNL     1     -12.879   8.245  72.091  1.00  0.00    -0.331 OA 
ENDROOT
BRANCH   6  12
HETATM   12  N   UNL     1     -11.516  13.073  69.618  1.00  0.00    -0.458 NA 
HETATM   13  H   UNL     1     -12.114  13.895  69.709  1.00  0.00     0.000 HD 
BRANCH  12  14
HETATM   14  N   UNL     1     -10.416  13.091  69.028  1.00  0.00    -0.433 NA 
HETATM   15  H   UNL     1      -9.667  12.421  69.202  1.00  0.00     0.000 HD 
BRANCH  14  16
HETATM   16  C   UNL     1     -10.331  14.146  68.091  1.00  0.00    -0.239 A  
HETATM   17  C   UNL     1      -9.473  16.370  67.572  1.00  0.00    -0.224 A  
HETATM   18  C   UNL     1      -9.551  15.262  68.421  1.00  0.00    -0.206 A  
HETATM   19  C   UNL     1     -10.190  16.377  66.376  1.00  0.00    -0.316 A  
HETATM   20  C   UNL     1     -10.976  15.278  66.011  1.00  0.00    -0.317 A  
HETATM   21  O   UNL     1     -10.125  17.480  65.561  1.00  0.00    -0.576 OA 
HETATM   22  C   UNL     1     -11.773  15.201  64.750  1.00  0.00    -0.331 C  
HETATM   23  C   UNL     1     -11.040  14.171  66.878  1.00  0.00    -0.312 A  
HETATM   24  H   UNL     1     -10.614  17.485  64.747  1.00  0.00     0.000 HD 
HETATM   25  O   UNL     1     -11.727  16.298  63.967  1.00  0.00    -0.930 OA 
HETATM   26  O   UNL     1     -12.427  14.215  64.449  1.00  0.00    -0.626 OA 
ENDBRANCH  14  16
ENDBRANCH  12  14
ENDBRANCH   6  12
TORSDOF 3
ENDMDL
MODEL       39
REMARK 921   NORMALIZED FREE ENERGY PREDICTED BY IDOCK:   -6.94 KCAL/MOL
REMARK 922        TOTAL FREE ENERGY PREDICTED BY IDOCK:   -8.52 KCAL/MOL
REMARK 923 INTER-LIGAND FREE ENERGY PREDICTED BY IDOCK:   -8.12 KCAL/MOL
REMARK 924 INTRA-LIGAND FREE ENERGY PREDICTED BY IDOCK:   -0.40 KCAL/MOL
REMARK 927      BINDING AFFINITY PREDICTED BY RF-SCORE:    0.00 PKD
ROOT
HETATM    1  O   UNL     1     -13.437  15.800  71.792  1.00  0.00    -0.471 OA 
HETATM    2  C   UNL     1     -12.636  15.195  70.889  1.00  0.00    -0.379 C  
HETATM    3  C   UNL     1     -12.590  13.705  70.967  1.00  0.00    -0.441 A  
HETATM    4  O   UNL     1     -11.994  15.828  70.066  1.00  0.00    -0.353 OA 
HETATM    5  C   UNL     1     -11.771  13.034  70.037  1.00  0.00    -0.285 A  
HETATM    6  C   UNL     1     -11.677  11.633  70.027  1.00  0.00    -0.321 A  
HETATM    7  C   UNL     1     -12.420  10.915  70.972  1.00  0.00    -0.514 A  
HETATM    8  C   UNL     1     -13.323  12.951  71.894  1.00  0.00    -0.435 A  
HETATM    9  H   UNL     1     -14.641  13.063  73.426  1.00  0.00     0.000 HD 
HETATM   10  C   UNL     1     -13.236  11.561  71.903  1.00  0.00    -0.479 A  
HETATM   11  O   UNL     1     -14.144  13.575  72.798  1.00  0.00    -0.719 OA 
ENDROOT
BRANCH   6  12
HETATM   12  N   UNL     1     -10.950  10.887  69.075  1.00  0.00    -0.217 NA 
HETATM   13  H   UNL     1      -9.936  10.784  69.102  1.00  0.00     0.000 HD 
BRANCH  12  14
HETATM   14  N   UNL     1     -11.666  10.364  68.196  1.00  0.00    -0.743 NA 
HETATM   15  H   UNL     1     -12.645  10.111  68.335  1.00  0.00     0.000 HD 
BRANCH  14  16
HETATM   16  C   UNL     1     -10.963  10.163  66.985  1.00  0.00    -0.092 A  
HETATM   17  C   UNL     1      -9.487   8.726  65.680  1.00  0.00    -0.171 A  
HETATM   18  C   UNL     1     -10.257   8.965  66.822  1.00  0.00    -0.348 A  
HETATM   19  C   UNL     1      -9.407   9.698  64.684  1.00  0.00    -0.207 A  
HETATM   20  C   UNL     1     -10.104  10.906  64.810  1.00  0.00    -0.383 A  
HETATM   21  O   UNL     1      -8.629   9.463  63.577  1.00  0.00    -0.191 OA 
HETATM   22  C   UNL     1     -10.077  11.998  63.792  1.00  0.00    -0.394 C  
HETATM   23  C   UNL     1     -10.875  11.126  65.967  1.00  0.00    -0.230 A  
HETATM   24  H   UNL     1      -8.575  10.126  62.899  1.00  0.00     0.000 HD 
HETATM   25  O   UNL     1      -9.289  11.772  62.720  1.00  0.00    -0.351 OA 
HETATM   26  O   UNL     1     -10.719  13.028  63.920  1.00  0.00    -0.392 OA 
ENDBRANCH  14  16
ENDBRANCH  12  14
ENDBRANCH   6  12
TORSDOF 3
ENDMDL
MODEL       40
REMARK 921   NORMALIZED FREE ENERGY PREDICTED BY IDOCK:   -6.94 KCAL/MOL
REMARK 922        TOTAL FREE ENERGY PREDICTED BY IDOCK:   -8.52 KCAL/MOL
REMARK 923 INTER-LIGAND FREE ENERGY PREDICTED BY IDOCK:   -7.93 KCAL/MOL
REMARK 924 INTRA-LIGAND FREE ENERGY PREDICTED BY IDOCK:   -0.58 KCAL/MOL
REMARK 927      BINDING AFFINITY PREDICTED BY RF-SCORE:    0.00 PKD
ROOT
HETATM    1  O   UNL     1     -12.218  12.320  63.232  1.00  0.00    -0.505 OA 
HETATM    2  C   UNL     1     -12.246  12.404  64.579  1.00  0.00    -0.431 C  
HETATM    3  C   UNL     1     -11.074  11.807  65.285  1.00  0.00    -0.333 A  
HETATM    4  O   UNL     1     -13.170  12.934  65.175  1.00  0.00    -0.702 OA 
HETATM    5  C   UNL     1     -11.061  11.881  66.693  1.00  0.00    -0.360 A  
HETATM    6  C   UNL     1      -9.994  11.359  67.440  1.00  0.00    -0.186 A  
HETATM    7  C   UNL     1      -8.936  10.756  66.747  1.00  0.00    -0.157 A  
HETATM    8  C   UNL     1      -9.995  11.202  64.628  1.00  0.00    -0.292 A  
HETATM    9  H   UNL     1      -9.237  10.723  62.812  1.00  0.00     0.000 HD 
HETATM   10  C   UNL     1      -8.930  10.671  65.353  1.00  0.00    -0.208 A  
HETATM   11  O   UNL     1      -9.969  11.133  63.258  1.00  0.00    -0.320 OA 
ENDROOT
BRANCH   6  12
HETATM   12  N   UNL     1      -9.866  11.472  68.841  1.00  0.00    -0.384 NA 
HETATM   13  H   UNL     1     -10.218  12.269  69.371  1.00  0.00     0.000 HD 
BRANCH  12  14
HETATM   14  N   UNL     1      -9.281  10.504  69.369  1.00  0.00    -0.364 NA 
HETATM   15  H   UNL     1      -8.276  10.345  69.310  1.00  0.00     0.000 HD 
BRANCH  14  16
HETATM   16  C   UNL     1     -10.176   9.654  70.061  1.00  0.00    -0.255 A  
HETATM   17  C   UNL     1     -10.847   7.369  70.588  1.00  0.00    -0.258 A  
HETATM   18  C   UNL     1      -9.967   8.272  69.984  1.00  0.00    -0.188 A  
HETATM   19  C   UNL     1     -11.964   7.847  71.273  1.00  0.00    -0.298 A  
HETATM   20  C   UNL     1     -12.203   9.222  71.375  1.00  0.00    -0.426 A  
HETATM   21  O   UNL     1     -12.836   6.951  71.841  1.00  0.00    -0.459 OA 
HETATM   22  C   UNL     1     -13.370   9.818  72.090  1.00  0.00    -0.431 C  
HETATM   23  C   UNL     1     -11.303  10.114  70.762  1.00  0.00    -0.436 A  
HETATM   24  H   UNL     1     -13.596   7.276  72.308  1.00  0.00     0.000 HD 
HETATM   25  O   UNL     1     -14.238   8.933  72.624  1.00  0.00    -0.563 OA 
HETATM   26  O   UNL     1     -13.534  11.024  72.184  1.00  0.00    -0.377 OA 
ENDBRANCH  14  16
ENDBRANCH  12  14
ENDBRANCH   6  12
TORSDOF 3
ENDMDL
MODEL       41
REMARK 921   NORMALIZED FREE ENERGY PREDICTED BY IDOCK:   -6.88 KCAL/MOL
REMARK 922        TOTAL FREE ENERGY PREDICTED BY IDOCK:   -8.45 KCAL/MOL
REMARK 923 INTER-LIGAND FREE ENERGY PREDICTED BY IDOCK:   -7.96 KCAL/MOL
REMARK 924 INTRA-LIGAND FREE ENERGY PREDICTED BY IDOCK:   -0.49 KCAL/MOL
REMARK 927      BINDING AFFINITY PREDICTED BY RF-SCORE:    0.00 PKD
ROOT
HETATM    1  O   UNL     1      -5.633  19.814  68.545  1.00  0.00    -0.202 OA 
HETATM    2  C   UNL     1      -6.513  18.811  68.753  1.00  0.00    -0.252 C  
HETATM    3  C   UNL     1      -7.899  19.060  68.259  1.00  0.00    -0.350 A  
HETATM    4  O   UNL     1      -6.192  17.773  69.308  1.00  0.00    -0.218 OA 
HETATM    5  C   UNL     1      -8.847  18.035  68.449  1.00  0.00    -0.300 A  
HETATM    6  C   UNL     1     -10.171  18.175  68.004  1.00  0.00    -0.380 A  
HETATM    7  C   UNL     1     -10.530  19.368  67.365  1.00  0.00    -0.581 A  
HETATM    8  C   UNL     1      -8.294  20.237  67.609  1.00  0.00    -0.268 A  
HETATM    9  H   UNL     1      -7.658  22.043  66.951  1.00  0.00     0.000 HD 
HETATM   10  C   UNL     1      -9.606  20.397  67.167  1.00  0.00    -0.587 A  
HETATM   11  O   UNL     1      -7.390  21.245  67.391  1.00  0.00    -0.484 OA 
ENDROOT
BRANCH   6  12
HETATM   12  N   UNL     1     -11.152  17.163  68.078  1.00  0.00    -0.229 NA 
HETATM   13  H   UNL     1     -12.115  17.295  67.765  1.00  0.00     0.000 HD 
BRANCH  12  14
HETATM   14  N   UNL     1     -10.732  16.092  68.562  1.00  0.00    -0.283 NA 
HETATM   15  H   UNL     1     -10.190  16.031  69.423  1.00  0.00     0.000 HD 
BRANCH  14  16
HETATM   16  C   UNL     1     -11.094  14.974  67.776  1.00  0.00    -0.310 A  
HETATM   17  C   UNL     1     -11.146  12.545  67.559  1.00  0.00    -0.311 A  
HETATM   18  C   UNL     1     -10.873  13.695  68.304  1.00  0.00    -0.268 A  
HETATM   19  C   UNL     1     -11.637  12.663  66.259  1.00  0.00    -0.386 A  
HETATM   20  C   UNL     1     -11.874  13.924  65.699  1.00  0.00    -0.383 A  
HETATM   21  O   UNL     1     -11.879  11.527  65.527  1.00  0.00    -0.159 OA 
HETATM   22  C   UNL     1     -12.400  14.141  64.319  1.00  0.00    -0.365 C  
HETATM   23  C   UNL     1     -11.595  15.070  66.467  1.00  0.00    -0.184 A  
HETATM   24  H   UNL     1     -12.213  11.607  64.642  1.00  0.00     0.000 HD 
HETATM   25  O   UNL     1     -12.610  13.022  63.595  1.00  0.00    -0.697 OA 
HETATM   26  O   UNL     1     -12.622  15.255  63.871  1.00  0.00    -0.765 OA 
ENDBRANCH  14  16
ENDBRANCH  12  14
ENDBRANCH   6  12
TORSDOF 3
ENDMDL
MODEL       42
REMARK 921   NORMALIZED FREE ENERGY PREDICTED BY IDOCK:   -6.87 KCAL/MOL
REMARK 922        TOTAL FREE ENERGY PREDICTED BY IDOCK:   -8.44 KCAL/MOL
REMARK 923 INTER-LIGAND FREE ENERGY PREDICTED BY IDOCK:   -7.94 KCAL/MOL
REMARK 924 INTRA-LIGAND FREE ENERGY PREDICTED BY IDOCK:   -0.50 KCAL/MOL
REMARK 927      BINDING AFFINITY PREDICTED BY RF-SCORE:    0.00 PKD
ROOT
HETATM    1  O   UNL     1      -9.163   9.716  63.684  1.00  0.00    -0.247 OA 
HETATM    2  C   UNL     1      -9.486   9.849  64.988  1.00  0.00    -0.280 C  
HETATM    3  C   UNL     1     -10.241  11.088  65.340  1.00  0.00    -0.333 A  
HETATM    4  O   UNL     1      -9.178   9.010  65.820  1.00  0.00    -0.206 OA 
HETATM    5  C   UNL     1     -10.604  11.261  66.691  1.00  0.00    -0.309 A  
HETATM    6  C   UNL     1     -11.328  12.388  67.111  1.00  0.00    -0.329 A  
HETATM    7  C   UNL     1     -11.679  13.344  66.150  1.00  0.00    -0.405 A  
HETATM    8  C   UNL     1     -10.616  12.063  64.406  1.00  0.00    -0.318 A  
HETATM    9  H   UNL     1     -10.549  12.573  62.448  1.00  0.00     0.000 HD 
HETATM   10  C   UNL     1     -11.328  13.192  64.806  1.00  0.00    -0.352 A  
HETATM   11  O   UNL     1     -10.295  11.912  63.081  1.00  0.00    -0.402 OA 
ENDROOT
BRANCH   6  12
HETATM   12  N   UNL     1     -11.803  12.590  68.425  1.00  0.00    -0.327 NA 
HETATM   13  H   UNL     1     -12.693  13.044  68.633  1.00  0.00     0.000 HD 
BRANCH  12  14
HETATM   14  N   UNL     1     -11.033  12.161  69.307  1.00  0.00    -0.416 NA 
HETATM   15  H   UNL     1     -10.051  12.425  69.383  1.00  0.00     0.000 HD 
BRANCH  14  16
HETATM   16  C   UNL     1     -11.680  11.265  70.190  1.00  0.00    -0.343 A  
HETATM   17  C   UNL     1     -13.244  10.972  72.039  1.00  0.00    -0.447 A  
HETATM   18  C   UNL     1     -12.614  11.787  71.094  1.00  0.00    -0.412 A  
HETATM   19  C   UNL     1     -12.934   9.614  72.097  1.00  0.00    -0.406 A  
HETATM   20  C   UNL     1     -12.010   9.056  71.206  1.00  0.00    -0.374 A  
HETATM   21  O   UNL     1     -13.541   8.828  73.045  1.00  0.00    -0.882 OA 
HETATM   22  C   UNL     1     -11.623   7.614  71.197  1.00  0.00    -0.280 C  
HETATM   23  C   UNL     1     -11.388   9.893  70.261  1.00  0.00    -0.357 A  
HETATM   24  H   UNL     1     -13.330   7.902  73.084  1.00  0.00     0.000 HD 
HETATM   25  O   UNL     1     -12.201   6.851  72.148  1.00  0.00    -0.285 OA 
HETATM   26  O   UNL     1     -10.833   7.154  70.387  1.00  0.00    -0.232 OA 
ENDBRANCH  14  16
ENDBRANCH  12  14
ENDBRANCH   6  12
TORSDOF 3
ENDMDL
MODEL       43
REMARK 921   NORMALIZED FREE ENERGY PREDICTED BY IDOCK:   -6.84 KCAL/MOL
REMARK 922        TOTAL FREE ENERGY PREDICTED BY IDOCK:   -8.41 KCAL/MOL
REMARK 923 INTER-LIGAND FREE ENERGY PREDICTED BY IDOCK:   -8.05 KCAL/MOL
REMARK 924 INTRA-LIGAND FREE ENERGY PREDICTED BY IDOCK:   -0.35 KCAL/MOL
REMARK 927      BINDING AFFINITY PREDICTED BY RF-SCORE:    0.00 PKD
ROOT
HETATM    1  O   UNL     1     -12.773  14.682  63.427  1.00  0.00    -0.514 OA 
HETATM    2  C   UNL     1     -12.523  13.875  64.480  1.00  0.00    -0.297 C  
HETATM    3  C   UNL     1     -11.501  14.378  65.446  1.00  0.00    -0.344 A  
HETATM    4  O   UNL     1     -13.095  12.807  64.629  1.00  0.00    -0.760 OA 
HETATM    5  C   UNL     1     -11.216  13.569  66.565  1.00  0.00    -0.322 A  
HETATM    6  C   UNL     1     -10.280  13.968  67.533  1.00  0.00    -0.244 A  
HETATM    7  C   UNL     1      -9.631  15.196  67.356  1.00  0.00    -0.208 A  
HETATM    8  C   UNL     1     -10.835  15.603  65.307  1.00  0.00    -0.406 A  
HETATM    9  H   UNL     1     -10.655  17.252  64.146  1.00  0.00     0.000 HD 
HETATM   10  C   UNL     1      -9.898  16.012  66.254  1.00  0.00    -0.331 A  
HETATM   11  O   UNL     1     -11.106  16.421  64.240  1.00  0.00    -0.845 OA 
ENDROOT
BRANCH   6  12
HETATM   12  N   UNL     1     -10.005  13.258  68.721  1.00  0.00    -0.423 NA 
HETATM   13  H   UNL     1      -9.059  13.066  69.050  1.00  0.00     0.000 HD 
BRANCH  12  14
HETATM   14  N   UNL     1     -11.029  12.888  69.331  1.00  0.00    -0.456 NA 
HETATM   15  H   UNL     1     -11.761  13.521  69.652  1.00  0.00     0.000 HD 
BRANCH  14  16
HETATM   16  C   UNL     1     -11.056  11.487  69.524  1.00  0.00    -0.191 A  
HETATM   17  C   UNL     1     -10.399   9.285  68.705  1.00  0.00    -0.229 A  
HETATM   18  C   UNL     1     -10.363  10.680  68.614  1.00  0.00    -0.202 A  
HETATM   19  C   UNL     1     -11.147   8.678  69.712  1.00  0.00    -0.067 A  
HETATM   20  C   UNL     1     -11.850   9.452  70.643  1.00  0.00    -0.268 A  
HETATM   21  O   UNL     1     -11.196   7.307  69.778  1.00  0.00    -0.396 OA 
HETATM   22  C   UNL     1     -12.672   8.884  71.753  1.00  0.00    -0.364 C  
HETATM   23  C   UNL     1     -11.798  10.854  70.535  1.00  0.00    -0.457 A  
HETATM   24  H   UNL     1     -11.706   6.893  70.464  1.00  0.00     0.000 HD 
HETATM   25  O   UNL     1     -12.738   7.538  71.796  1.00  0.00    -0.322 OA 
HETATM   26  O   UNL     1     -13.250   9.589  72.565  1.00  0.00    -0.408 OA 
ENDBRANCH  14  16
ENDBRANCH  12  14
ENDBRANCH   6  12
TORSDOF 3
ENDMDL
MODEL       44
REMARK 921   NORMALIZED FREE ENERGY PREDICTED BY IDOCK:   -6.83 KCAL/MOL
REMARK 922        TOTAL FREE ENERGY PREDICTED BY IDOCK:   -8.39 KCAL/MOL
REMARK 923 INTER-LIGAND FREE ENERGY PREDICTED BY IDOCK:   -7.96 KCAL/MOL
REMARK 924 INTRA-LIGAND FREE ENERGY PREDICTED BY IDOCK:   -0.43 KCAL/MOL
REMARK 927      BINDING AFFINITY PREDICTED BY RF-SCORE:    0.00 PKD
ROOT
HETATM    1  O   UNL     1      -8.652   7.410  72.385  1.00  0.00    -0.113 OA 
HETATM    2  C   UNL     1      -9.009   8.250  71.391  1.00  0.00    -0.166 C  
HETATM    3  C   UNL     1     -10.444   8.664  71.385  1.00  0.00    -0.327 A  
HETATM    4  O   UNL     1      -8.211   8.641  70.555  1.00  0.00    -0.102 OA 
HETATM    5  C   UNL     1     -10.857   9.547  70.367  1.00  0.00    -0.338 A  
HETATM    6  C   UNL     1     -12.183  10.002  70.291  1.00  0.00    -0.112 A  
HETATM    7  C   UNL     1     -13.091   9.550  71.256  1.00  0.00    -0.402 A  
HETATM    8  C   UNL     1     -11.381   8.239  72.336  1.00  0.00    -0.388 A  
HETATM    9  H   UNL     1     -11.640   7.108  73.995  1.00  0.00     0.000 HD 
HETATM   10  C   UNL     1     -12.703   8.674  72.272  1.00  0.00    -0.450 A  
HETATM   11  O   UNL     1     -11.004   7.396  73.350  1.00  0.00    -0.378 OA 
ENDROOT
BRANCH   6  12
HETATM   12  N   UNL     1     -12.651  10.952  69.358  1.00  0.00    -0.577 NA 
HETATM   13  H   UNL     1     -13.394  11.620  69.567  1.00  0.00     0.000 HD 
BRANCH  12  14
HETATM   14  N   UNL     1     -12.071  10.898  68.255  1.00  0.00    -0.810 NA 
HETATM   15  H   UNL     1     -11.922  10.036  67.732  1.00  0.00     0.000 HD 
BRANCH  14  16
HETATM   16  C   UNL     1     -11.645  12.173  67.814  1.00  0.00    -0.342 A  
HETATM   17  C   UNL     1     -10.541  14.276  68.368  1.00  0.00    -0.255 A  
HETATM   18  C   UNL     1     -10.937  12.980  68.712  1.00  0.00    -0.295 A  
HETATM   19  C   UNL     1     -10.863  14.786  67.110  1.00  0.00    -0.311 A  
HETATM   20  C   UNL     1     -11.566  14.006  66.185  1.00  0.00    -0.374 A  
HETATM   21  O   UNL     1     -10.491  16.068  66.791  1.00  0.00    -0.303 OA 
HETATM   22  C   UNL     1     -11.949  14.472  64.819  1.00  0.00    -0.442 C  
HETATM   23  C   UNL     1     -11.953  12.703  66.551  1.00  0.00    -0.401 A  
HETATM   24  H   UNL     1     -10.711  16.415  65.935  1.00  0.00     0.000 HD 
HETATM   25  O   UNL     1     -11.604  15.741  64.520  1.00  0.00    -0.389 OA 
HETATM   26  O   UNL     1     -12.538  13.755  64.025  1.00  0.00    -0.685 OA 
ENDBRANCH  14  16
ENDBRANCH  12  14
ENDBRANCH   6  12
TORSDOF 3
ENDMDL
MODEL       45
REMARK 921   NORMALIZED FREE ENERGY PREDICTED BY IDOCK:   -6.83 KCAL/MOL
REMARK 922        TOTAL FREE ENERGY PREDICTED BY IDOCK:   -8.39 KCAL/MOL
REMARK 923 INTER-LIGAND FREE ENERGY PREDICTED BY IDOCK:   -8.08 KCAL/MOL
REMARK 924 INTRA-LIGAND FREE ENERGY PREDICTED BY IDOCK:   -0.31 KCAL/MOL
REMARK 927      BINDING AFFINITY PREDICTED BY RF-SCORE:    0.00 PKD
ROOT
HETATM    1  O   UNL     1     -10.775   7.444  73.351  1.00  0.00    -0.379 OA 
HETATM    2  C   UNL     1     -11.601   8.237  72.635  1.00  0.00    -0.349 C  
HETATM    3  C   UNL     1     -10.978   8.924  71.465  1.00  0.00    -0.398 A  
HETATM    4  O   UNL     1     -12.777   8.381  72.930  1.00  0.00    -0.199 OA 
HETATM    5  C   UNL     1     -11.808   9.755  70.686  1.00  0.00    -0.360 A  
HETATM    6  C   UNL     1     -11.313  10.429  69.559  1.00  0.00    -0.265 A  
HETATM    7  C   UNL     1      -9.963  10.256  69.227  1.00  0.00    -0.244 A  
HETATM    8  C   UNL     1      -9.635   8.771  71.097  1.00  0.00    -0.242 A  
HETATM    9  H   UNL     1      -7.896   7.848  71.573  1.00  0.00     0.000 HD 
HETATM   10  C   UNL     1      -9.123   9.438  69.986  1.00  0.00    -0.244 A  
HETATM   11  O   UNL     1      -8.807   7.952  71.823  1.00  0.00    -0.114 OA 
ENDROOT
BRANCH   6  12
HETATM   12  N   UNL     1     -12.098  11.207  68.682  1.00  0.00    -0.679 NA 
HETATM   13  H   UNL     1     -13.040  10.942  68.393  1.00  0.00     0.000 HD 
BRANCH  12  14
HETATM   14  N   UNL     1     -11.532  12.248  68.292  1.00  0.00    -0.291 NA 
HETATM   15  H   UNL     1     -11.016  12.322  67.416  1.00  0.00     0.000 HD 
BRANCH  14  16
HETATM   16  C   UNL     1     -11.687  13.314  69.209  1.00  0.00    -0.326 A  
HETATM   17  C   UNL     1     -10.972  15.536  69.919  1.00  0.00    -0.315 A  
HETATM   18  C   UNL     1     -10.918  14.469  69.017  1.00  0.00    -0.272 A  
HETATM   19  C   UNL     1     -11.796  15.452  71.040  1.00  0.00    -0.360 A  
HETATM   20  C   UNL     1     -12.583  14.316  71.262  1.00  0.00    -0.436 A  
HETATM   21  O   UNL     1     -11.823  16.495  71.932  1.00  0.00    -0.658 OA 
HETATM   22  C   UNL     1     -13.494  14.145  72.433  1.00  0.00    -0.517 C  
HETATM   23  C   UNL     1     -12.516  13.254  70.341  1.00  0.00    -0.295 A  
HETATM   24  H   UNL     1     -12.385  16.438  72.696  1.00  0.00     0.000 HD 
HETATM   25  O   UNL     1     -13.496  15.161  73.320  1.00  0.00    -0.459 OA 
HETATM   26  O   UNL     1     -14.188  13.152  72.582  1.00  0.00    -0.677 OA 
ENDBRANCH  14  16
ENDBRANCH  12  14
ENDBRANCH   6  12
TORSDOF 3
ENDMDL
MODEL       46
REMARK 921   NORMALIZED FREE ENERGY PREDICTED BY IDOCK:   -6.81 KCAL/MOL
REMARK 922        TOTAL FREE ENERGY PREDICTED BY IDOCK:   -8.36 KCAL/MOL
REMARK 923 INTER-LIGAND FREE ENERGY PREDICTED BY IDOCK:   -8.09 KCAL/MOL
REMARK 924 INTRA-LIGAND FREE ENERGY PREDICTED BY IDOCK:   -0.27 KCAL/MOL
REMARK 927      BINDING AFFINITY PREDICTED BY RF-SCORE:    0.00 PKD
ROOT
HETATM    1  O   UNL     1     -11.591   7.698  73.079  1.00  0.00    -0.298 OA 
HETATM    2  C   UNL     1     -12.194   8.624  72.304  1.00  0.00    -0.378 C  
HETATM    3  C   UNL     1     -11.415   9.070  71.111  1.00  0.00    -0.376 A  
HETATM    4  O   UNL     1     -13.302   9.065  72.565  1.00  0.00    -0.453 OA 
HETATM    5  C   UNL     1     -12.012  10.031  70.271  1.00  0.00    -0.264 A  
HETATM    6  C   UNL     1     -11.360  10.499  69.120  1.00  0.00    -0.257 A  
HETATM    7  C   UNL     1     -10.091   9.985  68.826  1.00  0.00    -0.197 A  
HETATM    8  C   UNL     1     -10.146   8.576  70.781  1.00  0.00    -0.198 A  
HETATM    9  H   UNL     1      -8.687   7.289  71.343  1.00  0.00     0.000 HD 
HETATM   10  C   UNL     1      -9.480   9.033  69.646  1.00  0.00    -0.174 A  
HETATM   11  O   UNL     1      -9.548   7.625  71.568  1.00  0.00    -0.154 OA 
ENDROOT
BRANCH   6  12
HETATM   12  N   UNL     1     -11.927  11.391  68.184  1.00  0.00    -0.630 NA 
HETATM   13  H   UNL     1     -12.680  12.038  68.417  1.00  0.00     0.000 HD 
BRANCH  12  14
HETATM   14  N   UNL     1     -11.419  11.313  67.047  1.00  0.00    -0.470 NA 
HETATM   15  H   UNL     1     -11.360  10.449  66.508  1.00  0.00     0.000 HD 
BRANCH  14  16
HETATM   16  C   UNL     1     -10.936  12.562  66.593  1.00  0.00    -0.266 A  
HETATM   17  C   UNL     1      -9.283  14.339  66.837  1.00  0.00    -0.268 A  
HETATM   18  C   UNL     1      -9.781  13.081  67.190  1.00  0.00    -0.230 A  
HETATM   19  C   UNL     1      -9.950  15.103  65.880  1.00  0.00    -0.328 A  
HETATM   20  C   UNL     1     -11.105  14.614  65.257  1.00  0.00    -0.363 A  
HETATM   21  O   UNL     1      -9.466  16.347  65.558  1.00  0.00    -0.467 OA 
HETATM   22  C   UNL     1     -11.878  15.363  64.222  1.00  0.00    -0.199 C  
HETATM   23  C   UNL     1     -11.588  13.345  65.626  1.00  0.00    -0.350 A  
HETATM   24  H   UNL     1      -9.921  16.867  64.906  1.00  0.00     0.000 HD 
HETATM   25  O   UNL     1     -11.414  16.596  63.930  1.00  0.00    -1.186 OA 
HETATM   26  O   UNL     1     -12.866  14.896  63.679  1.00  0.00    -0.587 OA 
ENDBRANCH  14  16
ENDBRANCH  12  14
ENDBRANCH   6  12
TORSDOF 3
ENDMDL
MODEL       47
REMARK 921   NORMALIZED FREE ENERGY PREDICTED BY IDOCK:   -6.79 KCAL/MOL
REMARK 922        TOTAL FREE ENERGY PREDICTED BY IDOCK:   -8.35 KCAL/MOL
REMARK 923 INTER-LIGAND FREE ENERGY PREDICTED BY IDOCK:   -7.82 KCAL/MOL
REMARK 924 INTRA-LIGAND FREE ENERGY PREDICTED BY IDOCK:   -0.53 KCAL/MOL
REMARK 927      BINDING AFFINITY PREDICTED BY RF-SCORE:    0.00 PKD
ROOT
HETATM    1  O   UNL     1     -11.672  11.824  63.116  1.00  0.00    -0.310 OA 
HETATM    2  C   UNL     1     -10.923  11.441  64.172  1.00  0.00    -0.341 C  
HETATM    3  C   UNL     1     -11.200  12.160  65.451  1.00  0.00    -0.381 A  
HETATM    4  O   UNL     1     -10.076  10.566  64.082  1.00  0.00    -0.338 OA 
HETATM    5  C   UNL     1     -10.445  11.785  66.580  1.00  0.00    -0.265 A  
HETATM    6  C   UNL     1     -10.646  12.396  67.827  1.00  0.00    -0.217 A  
HETATM    7  C   UNL     1     -11.621  13.396  67.922  1.00  0.00    -0.374 A  
HETATM    8  C   UNL     1     -12.171  13.161  65.586  1.00  0.00    -0.466 A  
HETATM    9  H   UNL     1     -13.594  14.212  64.602  1.00  0.00     0.000 HD 
HETATM   10  C   UNL     1     -12.380  13.784  66.815  1.00  0.00    -0.365 A  
HETATM   11  O   UNL     1     -12.936  13.534  64.510  1.00  0.00    -0.643 OA 
ENDROOT
BRANCH   6  12
HETATM   12  N   UNL     1      -9.995  12.016  69.020  1.00  0.00    -0.415 NA 
HETATM   13  H   UNL     1      -9.908  12.632  69.829  1.00  0.00     0.000 HD 
BRANCH  12  14
HETATM   14  N   UNL     1      -9.535  10.856  68.992  1.00  0.00    -0.328 NA 
HETATM   15  H   UNL     1      -8.722  10.579  68.441  1.00  0.00     0.000 HD 
BRANCH  14  16
HETATM   16  C   UNL     1     -10.272   9.970  69.811  1.00  0.00    -0.250 A  
HETATM   17  C   UNL     1     -10.688   7.665  70.493  1.00  0.00    -0.241 A  
HETATM   18  C   UNL     1      -9.959   8.606  69.760  1.00  0.00    -0.190 A  
HETATM   19  C   UNL     1     -11.757   8.084  71.285  1.00  0.00    -0.282 A  
HETATM   20  C   UNL     1     -12.097   9.439  71.365  1.00  0.00    -0.442 A  
HETATM   21  O   UNL     1     -12.482   7.148  71.981  1.00  0.00    -0.405 OA 
HETATM   22  C   UNL     1     -13.222   9.972  72.189  1.00  0.00    -0.390 C  
HETATM   23  C   UNL     1     -11.348  10.371  70.621  1.00  0.00    -0.411 A  
HETATM   24  H   UNL     1     -13.210   7.434  72.521  1.00  0.00     0.000 HD 
HETATM   25  O   UNL     1     -13.947   9.047  72.849  1.00  0.00    -0.427 OA 
HETATM   26  O   UNL     1     -13.474  11.165  72.258  1.00  0.00    -0.337 OA 
ENDBRANCH  14  16
ENDBRANCH  12  14
ENDBRANCH   6  12
TORSDOF 3
ENDMDL
MODEL       48
REMARK 921   NORMALIZED FREE ENERGY PREDICTED BY IDOCK:   -6.75 KCAL/MOL
REMARK 922        TOTAL FREE ENERGY PREDICTED BY IDOCK:   -8.30 KCAL/MOL
REMARK 923 INTER-LIGAND FREE ENERGY PREDICTED BY IDOCK:   -7.98 KCAL/MOL
REMARK 924 INTRA-LIGAND FREE ENERGY PREDICTED BY IDOCK:   -0.32 KCAL/MOL
REMARK 927      BINDING AFFINITY PREDICTED BY RF-SCORE:    0.00 PKD
ROOT
HETATM    1  O   UNL     1      -9.706   9.743  64.763  1.00  0.00    -0.283 OA 
HETATM    2  C   UNL     1      -9.918  10.589  65.793  1.00  0.00    -0.258 C  
HETATM    3  C   UNL     1     -10.686  11.825  65.461  1.00  0.00    -0.329 A  
HETATM    4  O   UNL     1      -9.508  10.355  66.919  1.00  0.00    -0.163 OA 
HETATM    5  C   UNL     1     -10.937  12.732  66.511  1.00  0.00    -0.291 A  
HETATM    6  C   UNL     1     -11.663  13.914  66.295  1.00  0.00    -0.383 A  
HETATM    7  C   UNL     1     -12.133  14.172  65.001  1.00  0.00    -0.428 A  
HETATM    8  C   UNL     1     -11.178  12.116  64.182  1.00  0.00    -0.368 A  
HETATM    9  H   UNL     1     -11.301  11.441  62.277  1.00  0.00     0.000 HD 
HETATM   10  C   UNL     1     -11.894  13.288  63.947  1.00  0.00    -0.522 A  
HETATM   11  O   UNL     1     -10.968  11.244  63.144  1.00  0.00    -0.220 OA 
ENDROOT
BRANCH   6  12
HETATM   12  N   UNL     1     -12.030  14.825  67.308  1.00  0.00    -0.464 NA 
HETATM   13  H   UNL     1     -12.813  15.473  67.220  1.00  0.00     0.000 HD 
BRANCH  12  14
HETATM   14  N   UNL     1     -11.306  14.763  68.323  1.00  0.00    -0.287 NA 
HETATM   15  H   UNL     1     -10.336  15.075  68.350  1.00  0.00     0.000 HD 
BRANCH  14  16
HETATM   16  C   UNL     1     -11.988  14.208  69.431  1.00  0.00    -0.337 A  
HETATM   17  C   UNL     1     -13.284  14.611  71.458  1.00  0.00    -0.428 A  
HETATM   18  C   UNL     1     -12.645  15.082  70.307  1.00  0.00    -0.363 A  
HETATM   19  C   UNL     1     -13.263  13.248  71.753  1.00  0.00    -0.405 A  
HETATM   20  C   UNL     1     -12.620  12.345  70.898  1.00  0.00    -0.337 A  
HETATM   21  O   UNL     1     -13.872  12.800  72.898  1.00  0.00    -0.658 OA 
HETATM   22  C   UNL     1     -12.552  10.872  71.135  1.00  0.00    -0.428 C  
HETATM   23  C   UNL     1     -11.985  12.839  69.743  1.00  0.00    -0.362 A  
HETATM   24  H   UNL     1     -13.858  11.872  73.098  1.00  0.00     0.000 HD 
HETATM   25  O   UNL     1     -13.129  10.441  72.275  1.00  0.00    -0.397 OA 
HETATM   26  O   UNL     1     -12.007  10.108  70.354  1.00  0.00    -0.268 OA 
ENDBRANCH  14  16
ENDBRANCH  12  14
ENDBRANCH   6  12
TORSDOF 3
ENDMDL
MODEL       49
REMARK 921   NORMALIZED FREE ENERGY PREDICTED BY IDOCK:   -6.75 KCAL/MOL
REMARK 922        TOTAL FREE ENERGY PREDICTED BY IDOCK:   -8.29 KCAL/MOL
REMARK 923 INTER-LIGAND FREE ENERGY PREDICTED BY IDOCK:   -7.81 KCAL/MOL
REMARK 924 INTRA-LIGAND FREE ENERGY PREDICTED BY IDOCK:   -0.49 KCAL/MOL
REMARK 927      BINDING AFFINITY PREDICTED BY RF-SCORE:    0.00 PKD
ROOT
HETATM    1  O   UNL     1     -13.196  15.761  71.886  1.00  0.00    -0.463 OA 
HETATM    2  C   UNL     1     -13.214  14.413  71.937  1.00  0.00    -0.365 C  
HETATM    3  C   UNL     1     -12.514  13.717  70.817  1.00  0.00    -0.441 A  
HETATM    4  O   UNL     1     -13.766  13.806  72.841  1.00  0.00    -0.684 OA 
HETATM    5  C   UNL     1     -12.502  12.308  70.836  1.00  0.00    -0.371 A  
HETATM    6  C   UNL     1     -11.856  11.571  69.832  1.00  0.00    -0.355 A  
HETATM    7  C   UNL     1     -11.222  12.275  68.801  1.00  0.00    -0.312 A  
HETATM    8  C   UNL     1     -11.863  14.387  69.772  1.00  0.00    -0.320 A  
HETATM    9  H   UNL     1     -11.398  16.211  69.027  1.00  0.00     0.000 HD 
HETATM   10  C   UNL     1     -11.223  13.672  68.761  1.00  0.00    -0.314 A  
HETATM   11  O   UNL     1     -11.840  15.758  69.735  1.00  0.00    -0.343 OA 
ENDROOT
BRANCH   6  12
HETATM   12  N   UNL     1     -11.725  10.166  69.829  1.00  0.00    -0.425 NA 
HETATM   13  H   UNL     1     -11.049   9.670  69.248  1.00  0.00     0.000 HD 
BRANCH  12  14
HETATM   14  N   UNL     1     -12.515   9.588  70.603  1.00  0.00    -0.496 NA 
HETATM   15  H   UNL     1     -13.495   9.846  70.712  1.00  0.00     0.000 HD 
BRANCH  14  16
HETATM   16  C   UNL     1     -11.892   8.534  71.311  1.00  0.00    -0.291 A  
HETATM   17  C   UNL     1     -12.047   6.251  72.155  1.00  0.00    -0.304 A  
HETATM   18  C   UNL     1     -12.573   7.315  71.416  1.00  0.00    -0.423 A  
HETATM   19  C   UNL     1     -10.827   6.402  72.812  1.00  0.00    -0.248 A  
HETATM   20  C   UNL     1     -10.115   7.604  72.726  1.00  0.00    -0.311 A  
HETATM   21  O   UNL     1     -10.332   5.359  73.555  1.00  0.00    -0.189 OA 
HETATM   22  C   UNL     1      -8.803   7.849  73.395  1.00  0.00    -0.263 C  
HETATM   23  C   UNL     1     -10.661   8.662  71.975  1.00  0.00    -0.421 A  
HETATM   24  H   UNL     1      -9.501   5.462  74.003  1.00  0.00     0.000 HD 
HETATM   25  O   UNL     1      -8.335   6.831  74.146  1.00  0.00    -0.125 OA 
HETATM   26  O   UNL     1      -8.195   8.902  73.276  1.00  0.00    -0.342 OA 
ENDBRANCH  14  16
ENDBRANCH  12  14
ENDBRANCH   6  12
TORSDOF 3
ENDMDL
MODEL       50
REMARK 921   NORMALIZED FREE ENERGY PREDICTED BY IDOCK:   -6.74 KCAL/MOL
REMARK 922        TOTAL FREE ENERGY PREDICTED BY IDOCK:   -8.28 KCAL/MOL
REMARK 923 INTER-LIGAND FREE ENERGY PREDICTED BY IDOCK:   -7.86 KCAL/MOL
REMARK 924 INTRA-LIGAND FREE ENERGY PREDICTED BY IDOCK:   -0.42 KCAL/MOL
REMARK 927      BINDING AFFINITY PREDICTED BY RF-SCORE:    0.00 PKD
ROOT
HETATM    1  O   UNL     1      -8.233   8.490  64.066  1.00  0.00    -0.159 OA 
HETATM    2  C   UNL     1      -8.839   9.072  65.122  1.00  0.00    -0.182 C  
HETATM    3  C   UNL     1      -9.708  10.243  64.799  1.00  0.00    -0.397 A  
HETATM    4  O   UNL     1      -8.685   8.666  66.263  1.00  0.00    -0.128 OA 
HETATM    5  C   UNL     1     -10.366  10.875  65.873  1.00  0.00    -0.310 A  
HETATM    6  C   UNL     1     -11.214  11.974  65.662  1.00  0.00    -0.327 A  
HETATM    7  C   UNL     1     -11.388  12.431  64.350  1.00  0.00    -0.396 A  
HETATM    8  C   UNL     1      -9.912  10.725  63.499  1.00  0.00    -0.344 A  
HETATM    9  H   UNL     1      -9.441  10.445  61.550  1.00  0.00     0.000 HD 
HETATM   10  C   UNL     1     -10.744  11.820  63.272  1.00  0.00    -0.414 A  
HETATM   11  O   UNL     1      -9.302  10.118  62.431  1.00  0.00    -0.283 OA 
ENDROOT
BRANCH   6  12
HETATM   12  N   UNL     1     -11.974  12.604  66.671  1.00  0.00    -0.529 NA 
HETATM   13  H   UNL     1     -12.994  12.629  66.667  1.00  0.00     0.000 HD 
BRANCH  12  14
HETATM   14  N   UNL     1     -11.281  13.126  67.567  1.00  0.00    -0.271 NA 
HETATM   15  H   UNL     1     -10.477  13.728  67.388  1.00  0.00     0.000 HD 
BRANCH  14  16
HETATM   16  C   UNL     1     -11.740  12.787  68.862  1.00  0.00    -0.326 A  
HETATM   17  C   UNL     1     -12.401  11.024  70.411  1.00  0.00    -0.442 A  
HETATM   18  C   UNL     1     -11.892  11.431  69.175  1.00  0.00    -0.413 A  
HETATM   19  C   UNL     1     -12.779  11.981  71.353  1.00  0.00    -0.275 A  
HETATM   20  C   UNL     1     -12.637  13.346  71.076  1.00  0.00    -0.425 A  
HETATM   21  O   UNL     1     -13.301  11.571  72.554  1.00  0.00    -0.527 OA 
HETATM   22  C   UNL     1     -13.013  14.435  72.026  1.00  0.00    -0.353 C  
HETATM   23  C   UNL     1     -12.119  13.735  69.827  1.00  0.00    -0.400 A  
HETATM   24  H   UNL     1     -13.558  12.223  73.195  1.00  0.00     0.000 HD 
HETATM   25  O   UNL     1     -13.550  14.027  73.194  1.00  0.00    -0.551 OA 
HETATM   26  O   UNL     1     -12.849  15.616  71.764  1.00  0.00    -0.407 OA 
ENDBRANCH  14  16
ENDBRANCH  12  14
ENDBRANCH   6  12
TORSDOF 3
ENDMDL
MODEL       51
REMARK 921   NORMALIZED FREE ENERGY PREDICTED BY IDOCK:   -6.73 KCAL/MOL
REMARK 922        TOTAL FREE ENERGY PREDICTED BY IDOCK:   -8.28 KCAL/MOL
REMARK 923 INTER-LIGAND FREE ENERGY PREDICTED BY IDOCK:   -7.84 KCAL/MOL
REMARK 924 INTRA-LIGAND FREE ENERGY PREDICTED BY IDOCK:   -0.43 KCAL/MOL
REMARK 927      BINDING AFFINITY PREDICTED BY RF-SCORE:    0.00 PKD
ROOT
HETATM    1  O   UNL     1      -5.291  19.714  68.080  1.00  0.00    -0.186 OA 
HETATM    2  C   UNL     1      -6.180  18.787  68.495  1.00  0.00    -0.221 C  
HETATM    3  C   UNL     1      -7.605  19.060  68.143  1.00  0.00    -0.311 A  
HETATM    4  O   UNL     1      -5.837  17.794  69.117  1.00  0.00    -0.191 OA 
HETATM    5  C   UNL     1      -8.565  18.112  68.551  1.00  0.00    -0.307 A  
HETATM    6  C   UNL     1      -9.926  18.278  68.252  1.00  0.00    -0.364 A  
HETATM    7  C   UNL     1     -10.309  19.419  67.535  1.00  0.00    -0.556 A  
HETATM    8  C   UNL     1      -8.026  20.185  67.423  1.00  0.00    -0.322 A  
HETATM    9  H   UNL     1      -7.399  21.878  66.505  1.00  0.00     0.000 HD 
HETATM   10  C   UNL     1      -9.374  20.371  67.123  1.00  0.00    -0.537 A  
HETATM   11  O   UNL     1      -7.113  21.115  66.994  1.00  0.00    -0.380 OA 
ENDROOT
BRANCH   6  12
HETATM   12  N   UNL     1     -10.932  17.334  68.548  1.00  0.00    -0.233 NA 
HETATM   13  H   UNL     1     -11.607  17.003  67.858  1.00  0.00     0.000 HD 
BRANCH  12  14
HETATM   14  N   UNL     1     -10.919  16.944  69.733  1.00  0.00    -0.371 NA 
HETATM   15  H   UNL     1     -10.721  17.549  70.529  1.00  0.00     0.000 HD 
BRANCH  14  16
HETATM   16  C   UNL     1     -11.210  15.564  69.842  1.00  0.00    -0.316 A  
HETATM   17  C   UNL     1     -11.051  13.344  68.845  1.00  0.00    -0.307 A  
HETATM   18  C   UNL     1     -10.746  14.708  68.836  1.00  0.00    -0.251 A  
HETATM   19  C   UNL     1     -11.842  12.819  69.866  1.00  0.00    -0.301 A  
HETATM   20  C   UNL     1     -12.321  13.643  70.891  1.00  0.00    -0.450 A  
HETATM   21  O   UNL     1     -12.156  11.483  69.852  1.00  0.00    -0.309 OA 
HETATM   22  C   UNL     1     -13.170  13.164  72.022  1.00  0.00    -0.446 C  
HETATM   23  C   UNL     1     -12.000  15.013  70.865  1.00  0.00    -0.374 A  
HETATM   24  H   UNL     1     -12.696  11.125  70.547  1.00  0.00     0.000 HD 
HETATM   25  O   UNL     1     -13.498  11.856  71.988  1.00  0.00    -0.431 OA 
HETATM   26  O   UNL     1     -13.548  13.905  72.916  1.00  0.00    -0.680 OA 
ENDBRANCH  14  16
ENDBRANCH  12  14
ENDBRANCH   6  12
TORSDOF 3
ENDMDL
MODEL       52
REMARK 921   NORMALIZED FREE ENERGY PREDICTED BY IDOCK:   -6.72 KCAL/MOL
REMARK 922        TOTAL FREE ENERGY PREDICTED BY IDOCK:   -8.27 KCAL/MOL
REMARK 923 INTER-LIGAND FREE ENERGY PREDICTED BY IDOCK:   -7.89 KCAL/MOL
REMARK 924 INTRA-LIGAND FREE ENERGY PREDICTED BY IDOCK:   -0.37 KCAL/MOL
REMARK 927      BINDING AFFINITY PREDICTED BY RF-SCORE:    0.00 PKD
ROOT
HETATM    1  O   UNL     1     -10.693  16.075  65.879  1.00  0.00    -0.323 OA 
HETATM    2  C   UNL     1     -10.804  14.732  65.957  1.00  0.00    -0.318 C  
HETATM    3  C   UNL     1     -11.249  14.199  67.279  1.00  0.00    -0.330 A  
HETATM    4  O   UNL     1     -10.554  14.005  65.009  1.00  0.00    -0.360 OA 
HETATM    5  C   UNL     1     -11.385  12.802  67.401  1.00  0.00    -0.363 A  
HETATM    6  C   UNL     1     -11.812  12.213  68.601  1.00  0.00    -0.306 A  
HETATM    7  C   UNL     1     -12.098  13.055  69.683  1.00  0.00    -0.304 A  
HETATM    8  C   UNL     1     -11.551  15.009  68.382  1.00  0.00    -0.331 A  
HETATM    9  H   UNL     1     -11.654  16.922  69.036  1.00  0.00     0.000 HD 
HETATM   10  C   UNL     1     -11.969  14.442  69.584  1.00  0.00    -0.385 A  
HETATM   11  O   UNL     1     -11.448  16.373  68.288  1.00  0.00    -0.312 OA 
ENDROOT
BRANCH   6  12
HETATM   12  N   UNL     1     -12.056  10.834  68.775  1.00  0.00    -0.785 NA 
HETATM   13  H   UNL     1     -11.599  10.112  68.217  1.00  0.00     0.000 HD 
BRANCH  12  14
HETATM   14  N   UNL     1     -12.883  10.581  69.674  1.00  0.00    -0.592 NA 
HETATM   15  H   UNL     1     -13.835  10.947  69.691  1.00  0.00     0.000 HD 
BRANCH  14  16
HETATM   16  C   UNL     1     -12.347   9.729  70.667  1.00  0.00    -0.168 A  
HETATM   17  C   UNL     1     -12.780   8.242  72.552  1.00  0.00    -0.225 A  
HETATM   18  C   UNL     1     -13.239   9.050  71.507  1.00  0.00    -0.388 A  
HETATM   19  C   UNL     1     -11.410   8.113  72.776  1.00  0.00    -0.336 A  
HETATM   20  C   UNL     1     -10.489   8.773  71.954  1.00  0.00    -0.423 A  
HETATM   21  O   UNL     1     -10.971   7.337  73.819  1.00  0.00    -0.547 OA 
HETATM   22  C   UNL     1      -9.008   8.688  72.121  1.00  0.00    -0.200 C  
HETATM   23  C   UNL     1     -10.971   9.579  70.906  1.00  0.00    -0.407 A  
HETATM   24  H   UNL     1     -10.038   7.249  73.972  1.00  0.00     0.000 HD 
HETATM   25  O   UNL     1      -8.583   7.945  73.165  1.00  0.00    -0.158 OA 
HETATM   26  O   UNL     1      -8.231   9.254  71.369  1.00  0.00    -0.330 OA 
ENDBRANCH  14  16
ENDBRANCH  12  14
ENDBRANCH   6  12
TORSDOF 3
ENDMDL
MODEL       53
REMARK 921   NORMALIZED FREE ENERGY PREDICTED BY IDOCK:   -6.71 KCAL/MOL
REMARK 922        TOTAL FREE ENERGY PREDICTED BY IDOCK:   -8.24 KCAL/MOL
REMARK 923 INTER-LIGAND FREE ENERGY PREDICTED BY IDOCK:   -7.83 KCAL/MOL
REMARK 924 INTRA-LIGAND FREE ENERGY PREDICTED BY IDOCK:   -0.41 KCAL/MOL
REMARK 927      BINDING AFFINITY PREDICTED BY RF-SCORE:    0.00 PKD
ROOT
HETATM    1  O   UNL     1     -11.552  16.418  63.920  1.00  0.00    -1.100 OA 
HETATM    2  C   UNL     1     -12.032  15.228  64.337  1.00  0.00    -0.277 C  
HETATM    3  C   UNL     1     -11.445  14.708  65.608  1.00  0.00    -0.340 A  
HETATM    4  O   UNL     1     -12.888  14.619  63.714  1.00  0.00    -0.677 OA 
HETATM    5  C   UNL     1     -11.924  13.471  66.083  1.00  0.00    -0.454 A  
HETATM    6  C   UNL     1     -11.441  12.912  67.277  1.00  0.00    -0.336 A  
HETATM    7  C   UNL     1     -10.461  13.618  67.987  1.00  0.00    -0.251 A  
HETATM    8  C   UNL     1     -10.470  15.388  66.349  1.00  0.00    -0.303 A  
HETATM    9  H   UNL     1      -9.337  17.064  66.427  1.00  0.00     0.000 HD 
HETATM   10  C   UNL     1      -9.972  14.845  67.533  1.00  0.00    -0.219 A  
HETATM   11  O   UNL     1      -9.998  16.603  65.924  1.00  0.00    -0.392 OA 
ENDROOT
BRANCH   6  12
HETATM   12  N   UNL     1     -11.931  11.725  67.861  1.00  0.00    -0.597 NA 
HETATM   13  H   UNL     1     -12.562  11.084  67.379  1.00  0.00     0.000 HD 
BRANCH  12  14
HETATM   14  N   UNL     1     -11.520  11.533  69.024  1.00  0.00    -0.262 NA 
HETATM   15  H   UNL     1     -11.461  12.262  69.734  1.00  0.00     0.000 HD 
BRANCH  14  16
HETATM   16  C   UNL     1     -11.147  10.186  69.242  1.00  0.00    -0.225 A  
HETATM   17  C   UNL     1     -10.227   8.131  68.304  1.00  0.00    -0.245 A  
HETATM   18  C   UNL     1     -10.562   9.483  68.182  1.00  0.00    -0.265 A  
HETATM   19  C   UNL     1     -10.487   7.459  69.498  1.00  0.00    -0.232 A  
HETATM   20  C   UNL     1     -11.067   8.131  70.581  1.00  0.00    -0.264 A  
HETATM   21  O   UNL     1     -10.177   6.126  69.599  1.00  0.00    -0.177 OA 
HETATM   22  C   UNL     1     -11.377   7.491  71.894  1.00  0.00    -0.260 C  
HETATM   23  C   UNL     1     -11.394   9.493  70.438  1.00  0.00    -0.318 A  
HETATM   24  H   UNL     1     -10.355   5.669  70.413  1.00  0.00     0.000 HD 
HETATM   25  O   UNL     1     -11.095   6.174  71.979  1.00  0.00    -0.248 OA 
HETATM   26  O   UNL     1     -11.857   8.113  72.828  1.00  0.00    -0.389 OA 
ENDBRANCH  14  16
ENDBRANCH  12  14
ENDBRANCH   6  12
TORSDOF 3
ENDMDL
MODEL       54
REMARK 921   NORMALIZED FREE ENERGY PREDICTED BY IDOCK:   -6.70 KCAL/MOL
REMARK 922        TOTAL FREE ENERGY PREDICTED BY IDOCK:   -8.24 KCAL/MOL
REMARK 923 INTER-LIGAND FREE ENERGY PREDICTED BY IDOCK:   -7.90 KCAL/MOL
REMARK 924 INTRA-LIGAND FREE ENERGY PREDICTED BY IDOCK:   -0.34 KCAL/MOL
REMARK 927      BINDING AFFINITY PREDICTED BY RF-SCORE:    0.00 PKD
ROOT
HETATM    1  O   UNL     1     -10.957   7.063  71.826  1.00  0.00    -0.229 OA 
HETATM    2  C   UNL     1     -10.871   8.250  71.191  1.00  0.00    -0.233 C  
HETATM    3  C   UNL     1     -10.738   8.177  69.705  1.00  0.00    -0.229 A  
HETATM    4  O   UNL     1     -10.899   9.311  71.794  1.00  0.00    -0.368 OA 
HETATM    5  C   UNL     1     -10.653   9.396  69.003  1.00  0.00    -0.233 A  
HETATM    6  C   UNL     1     -10.541   9.424  67.604  1.00  0.00    -0.271 A  
HETATM    7  C   UNL     1     -10.512   8.203  66.919  1.00  0.00    -0.379 A  
HETATM    8  C   UNL     1     -10.712   6.976  68.985  1.00  0.00    -0.210 A  
HETATM    9  H   UNL     1     -10.797   4.959  69.150  1.00  0.00     0.000 HD 
HETATM   10  C   UNL     1     -10.594   6.984  67.596  1.00  0.00    -0.327 A  
HETATM   11  O   UNL     1     -10.814   5.774  69.638  1.00  0.00    -0.326 OA 
ENDROOT
BRANCH   6  12
HETATM   12  N   UNL     1     -10.540  10.600  66.824  1.00  0.00    -0.250 NA 
HETATM   13  H   UNL     1      -9.852  10.784  66.093  1.00  0.00     0.000 HD 
BRANCH  12  14
HETATM   14  N   UNL     1     -11.458  11.394  67.114  1.00  0.00    -0.499 NA 
HETATM   15  H   UNL     1     -12.220  11.173  67.754  1.00  0.00     0.000 HD 
BRANCH  14  16
HETATM   16  C   UNL     1     -11.319  12.635  66.450  1.00  0.00    -0.331 A  
HETATM   17  C   UNL     1     -12.081  14.105  64.658  1.00  0.00    -0.469 A  
HETATM   18  C   UNL     1     -12.200  12.926  65.401  1.00  0.00    -0.528 A  
HETATM   19  C   UNL     1     -11.061  15.008  64.954  1.00  0.00    -0.415 A  
HETATM   20  C   UNL     1     -10.165  14.753  65.999  1.00  0.00    -0.320 A  
HETATM   21  O   UNL     1     -10.938  16.150  64.203  1.00  0.00    -1.061 OA 
HETATM   22  C   UNL     1      -9.048  15.666  66.384  1.00  0.00    -0.320 C  
HETATM   23  C   UNL     1     -10.303  13.562  66.736  1.00  0.00    -0.264 A  
HETATM   24  H   UNL     1     -10.243  16.766  64.404  1.00  0.00     0.000 HD 
HETATM   25  O   UNL     1      -8.915  16.773  65.625  1.00  0.00    -0.475 OA 
HETATM   26  O   UNL     1      -8.300  15.427  67.319  1.00  0.00    -0.168 OA 
ENDBRANCH  14  16
ENDBRANCH  12  14
ENDBRANCH   6  12
TORSDOF 3
ENDMDL
MODEL       55
REMARK 921   NORMALIZED FREE ENERGY PREDICTED BY IDOCK:   -6.70 KCAL/MOL
REMARK 922        TOTAL FREE ENERGY PREDICTED BY IDOCK:   -8.24 KCAL/MOL
REMARK 923 INTER-LIGAND FREE ENERGY PREDICTED BY IDOCK:   -7.91 KCAL/MOL
REMARK 924 INTRA-LIGAND FREE ENERGY PREDICTED BY IDOCK:   -0.33 KCAL/MOL
REMARK 927      BINDING AFFINITY PREDICTED BY RF-SCORE:    0.00 PKD
ROOT
HETATM    1  O   UNL     1      -5.254  21.340  66.042  1.00  0.00    -0.202 OA 
HETATM    2  C   UNL     1      -6.313  20.636  65.591  1.00  0.00    -0.237 C  
HETATM    3  C   UNL     1      -7.178  20.029  66.646  1.00  0.00    -0.278 A  
HETATM    4  O   UNL     1      -6.545  20.505  64.399  1.00  0.00    -0.291 OA 
HETATM    5  C   UNL     1      -8.300  19.291  66.217  1.00  0.00    -0.327 A  
HETATM    6  C   UNL     1      -9.177  18.698  67.139  1.00  0.00    -0.287 A  
HETATM    7  C   UNL     1      -8.906  18.855  68.504  1.00  0.00    -0.387 A  
HETATM    8  C   UNL     1      -6.943  20.170  68.020  1.00  0.00    -0.290 A  
HETATM    9  H   UNL     1      -5.712  20.994  69.400  1.00  0.00     0.000 HD 
HETATM   10  C   UNL     1      -7.799  19.581  68.950  1.00  0.00    -0.349 A  
HETATM   11  O   UNL     1      -5.871  20.899  68.468  1.00  0.00    -0.320 OA 
ENDROOT
BRANCH   6  12
HETATM   12  N   UNL     1     -10.366  18.021  66.791  1.00  0.00    -0.365 NA 
HETATM   13  H   UNL     1     -11.161  17.930  67.424  1.00  0.00     0.000 HD 
BRANCH  12  14
HETATM   14  N   UNL     1     -10.351  17.544  65.638  1.00  0.00    -0.633 NA 
HETATM   15  H   UNL     1     -10.324  18.108  64.789  1.00  0.00     0.000 HD 
BRANCH  14  16
HETATM   16  C   UNL     1     -10.377  16.130  65.646  1.00  0.00    -0.382 A  
HETATM   17  C   UNL     1      -9.473  14.063  66.573  1.00  0.00    -0.295 A  
HETATM   18  C   UNL     1      -9.548  15.458  66.553  1.00  0.00    -0.298 A  
HETATM   19  C   UNL     1     -10.227  13.317  65.667  1.00  0.00    -0.289 A  
HETATM   20  C   UNL     1     -11.070  13.953  64.748  1.00  0.00    -0.386 A  
HETATM   21  O   UNL     1     -10.127  11.948  65.678  1.00  0.00    -0.229 OA 
HETATM   22  C   UNL     1     -11.912  13.233  63.747  1.00  0.00    -0.491 C  
HETATM   23  C   UNL     1     -11.133  15.360  64.747  1.00  0.00    -0.416 A  
HETATM   24  H   UNL     1     -10.641  11.440  65.061  1.00  0.00     0.000 HD 
HETATM   25  O   UNL     1     -11.790  11.890  63.745  1.00  0.00    -0.441 OA 
HETATM   26  O   UNL     1     -12.658  13.819  62.979  1.00  0.00    -0.721 OA 
ENDBRANCH  14  16
ENDBRANCH  12  14
ENDBRANCH   6  12
TORSDOF 3
ENDMDL
MODEL       56
REMARK 921   NORMALIZED FREE ENERGY PREDICTED BY IDOCK:   -6.70 KCAL/MOL
REMARK 922        TOTAL FREE ENERGY PREDICTED BY IDOCK:   -8.24 KCAL/MOL
REMARK 923 INTER-LIGAND FREE ENERGY PREDICTED BY IDOCK:   -7.69 KCAL/MOL
REMARK 924 INTRA-LIGAND FREE ENERGY PREDICTED BY IDOCK:   -0.55 KCAL/MOL
REMARK 927      BINDING AFFINITY PREDICTED BY RF-SCORE:    0.00 PKD
ROOT
HETATM    1  O   UNL     1     -12.855  10.413  70.912  1.00  0.00    -0.357 OA 
HETATM    2  C   UNL     1     -12.099  11.415  70.416  1.00  0.00    -0.384 C  
HETATM    3  C   UNL     1     -12.363  12.766  70.994  1.00  0.00    -0.316 A  
HETATM    4  O   UNL     1     -11.257  11.225  69.553  1.00  0.00    -0.252 OA 
HETATM    5  C   UNL     1     -11.590  13.840  70.509  1.00  0.00    -0.087 A  
HETATM    6  C   UNL     1     -11.759  15.142  71.005  1.00  0.00    -0.340 A  
HETATM    7  C   UNL     1     -12.725  15.350  71.997  1.00  0.00    -0.455 A  
HETATM    8  C   UNL     1     -13.316  13.013  71.992  1.00  0.00    -0.492 A  
HETATM    9  H   UNL     1     -14.715  12.152  73.176  1.00  0.00     0.000 HD 
HETATM   10  C   UNL     1     -13.503  14.300  72.491  1.00  0.00    -0.613 A  
HETATM   11  O   UNL     1     -14.070  11.985  72.499  1.00  0.00     0.190 OA 
ENDROOT
BRANCH   6  12
HETATM   12  N   UNL     1     -10.966  16.249  70.635  1.00  0.00    -0.247 NA 
HETATM   13  H   UNL     1     -11.121  17.192  70.993  1.00  0.00     0.000 HD 
BRANCH  12  14
HETATM   14  N   UNL     1     -10.057  15.966  69.828  1.00  0.00    -0.271 NA 
HETATM   15  H   UNL     1      -9.282  15.337  70.041  1.00  0.00     0.000 HD 
BRANCH  14  16
HETATM   16  C   UNL     1     -10.225  16.619  68.585  1.00  0.00    -0.284 A  
HETATM   17  C   UNL     1     -10.398  18.732  67.380  1.00  0.00    -0.472 A  
HETATM   18  C   UNL     1     -10.176  18.018  68.561  1.00  0.00    -0.392 A  
HETATM   19  C   UNL     1     -10.685  18.046  66.200  1.00  0.00    -0.131 A  
HETATM   20  C   UNL     1     -10.738  16.647  66.185  1.00  0.00    -0.132 A  
HETATM   21  O   UNL     1     -10.926  18.758  65.052  1.00  0.00    -0.520 OA 
HETATM   22  C   UNL     1     -11.036  15.835  64.969  1.00  0.00    -0.417 C  
HETATM   23  C   UNL     1     -10.509  15.947  67.384  1.00  0.00    -0.306 A  
HETATM   24  H   UNL     1     -11.122  18.290  64.249  1.00  0.00     0.000 HD 
HETATM   25  O   UNL     1     -11.298  16.540  63.849  1.00  0.00    -1.057 OA 
HETATM   26  O   UNL     1     -11.046  14.614  64.984  1.00  0.00    -0.350 OA 
ENDBRANCH  14  16
ENDBRANCH  12  14
ENDBRANCH   6  12
TORSDOF 3
ENDMDL
MODEL       57
REMARK 921   NORMALIZED FREE ENERGY PREDICTED BY IDOCK:   -6.70 KCAL/MOL
REMARK 922        TOTAL FREE ENERGY PREDICTED BY IDOCK:   -8.24 KCAL/MOL
REMARK 923 INTER-LIGAND FREE ENERGY PREDICTED BY IDOCK:   -7.73 KCAL/MOL
REMARK 924 INTRA-LIGAND FREE ENERGY PREDICTED BY IDOCK:   -0.50 KCAL/MOL
REMARK 927      BINDING AFFINITY PREDICTED BY RF-SCORE:    0.00 PKD
ROOT
HETATM    1  O   UNL     1      -7.877   7.116  71.862  1.00  0.00    -0.091 OA 
HETATM    2  C   UNL     1      -8.653   8.203  71.666  1.00  0.00    -0.140 C  
HETATM    3  C   UNL     1     -10.122   7.942  71.609  1.00  0.00    -0.228 A  
HETATM    4  O   UNL     1      -8.182   9.322  71.544  1.00  0.00    -0.327 OA 
HETATM    5  C   UNL     1     -10.969   9.051  71.413  1.00  0.00    -0.394 A  
HETATM    6  C   UNL     1     -12.364   8.903  71.361  1.00  0.00    -0.313 A  
HETATM    7  C   UNL     1     -12.896   7.616  71.505  1.00  0.00    -0.376 A  
HETATM    8  C   UNL     1     -10.693   6.671  71.756  1.00  0.00    -0.227 A  
HETATM    9  H   UNL     1     -10.284   4.712  72.068  1.00  0.00     0.000 HD 
HETATM   10  C   UNL     1     -12.075   6.503  71.699  1.00  0.00    -0.381 A  
HETATM   11  O   UNL     1      -9.896   5.574  71.968  1.00  0.00    -0.161 OA 
ENDROOT
BRANCH   6  12
HETATM   12  N   UNL     1     -13.279   9.972  71.256  1.00  0.00    -0.391 NA 
HETATM   13  H   UNL     1     -13.935  10.071  70.481  1.00  0.00     0.000 HD 
BRANCH  12  14
HETATM   14  N   UNL     1     -13.211  10.784  72.201  1.00  0.00    -0.591 NA 
HETATM   15  H   UNL     1     -13.246  10.516  73.185  1.00  0.00     0.000 HD 
BRANCH  14  16
HETATM   16  C   UNL     1     -13.080  12.117  71.750  1.00  0.00    -0.352 A  
HETATM   17  C   UNL     1     -13.817  14.435  71.942  1.00  0.00    -0.549 A  
HETATM   18  C   UNL     1     -13.846  13.107  72.378  1.00  0.00    -0.583 A  
HETATM   19  C   UNL     1     -13.019  14.788  70.854  1.00  0.00    -0.364 A  
HETATM   20  C   UNL     1     -12.235  13.827  70.205  1.00  0.00    -0.425 A  
HETATM   21  O   UNL     1     -13.015  16.090  70.420  1.00  0.00    -0.659 OA 
HETATM   22  C   UNL     1     -11.351  14.119  69.037  1.00  0.00    -0.275 C  
HETATM   23  C   UNL     1     -12.277  12.496  70.661  1.00  0.00    -0.365 A  
HETATM   24  H   UNL     1     -12.472  16.330  69.679  1.00  0.00     0.000 HD 
HETATM   25  O   UNL     1     -11.373  15.394  68.597  1.00  0.00    -0.292 OA 
HETATM   26  O   UNL     1     -10.659  13.262  68.511  1.00  0.00    -0.247 OA 
ENDBRANCH  14  16
ENDBRANCH  12  14
ENDBRANCH   6  12
TORSDOF 3
ENDMDL
MODEL       58
REMARK 921   NORMALIZED FREE ENERGY PREDICTED BY IDOCK:   -6.68 KCAL/MOL
REMARK 922        TOTAL FREE ENERGY PREDICTED BY IDOCK:   -8.21 KCAL/MOL
REMARK 923 INTER-LIGAND FREE ENERGY PREDICTED BY IDOCK:   -7.85 KCAL/MOL
REMARK 924 INTRA-LIGAND FREE ENERGY PREDICTED BY IDOCK:   -0.37 KCAL/MOL
REMARK 927      BINDING AFFINITY PREDICTED BY RF-SCORE:    0.00 PKD
ROOT
HETATM    1  O   UNL     1     -11.362  16.707  63.880  1.00  0.00    -1.104 OA 
HETATM    2  C   UNL     1     -10.679  16.140  64.895  1.00  0.00    -0.274 C  
HETATM    3  C   UNL     1     -11.040  14.724  65.202  1.00  0.00    -0.389 A  
HETATM    4  O   UNL     1      -9.823  16.747  65.520  1.00  0.00    -0.564 OA 
HETATM    5  C   UNL     1     -10.344  14.091  66.251  1.00  0.00    -0.294 A  
HETATM    6  C   UNL     1     -10.607  12.757  66.600  1.00  0.00    -0.256 A  
HETATM    7  C   UNL     1     -11.588  12.067  65.876  1.00  0.00    -0.364 A  
HETATM    8  C   UNL     1     -12.010  13.999  64.497  1.00  0.00    -0.448 A  
HETATM    9  H   UNL     1     -13.347  14.088  62.979  1.00  0.00     0.000 HD 
HETATM   10  C   UNL     1     -12.290  12.676  64.833  1.00  0.00    -0.563 A  
HETATM   11  O   UNL     1     -12.689  14.580  63.457  1.00  0.00    -0.707 OA 
ENDROOT
BRANCH   6  12
HETATM   12  N   UNL     1      -9.894  12.029  67.576  1.00  0.00    -0.184 NA 
HETATM   13  H   UNL     1      -9.880  12.286  68.564  1.00  0.00     0.000 HD 
BRANCH  12  14
HETATM   14  N   UNL     1      -9.283  11.043  67.118  1.00  0.00    -0.152 NA 
HETATM   15  H   UNL     1      -8.534  11.107  66.429  1.00  0.00     0.000 HD 
BRANCH  14  16
HETATM   16  C   UNL     1      -9.751   9.825  67.665  1.00  0.00    -0.156 A  
HETATM   17  C   UNL     1     -10.713   7.621  67.253  1.00  0.00    -0.344 A  
HETATM   18  C   UNL     1     -10.178   8.825  66.783  1.00  0.00    -0.354 A  
HETATM   19  C   UNL     1     -10.836   7.409  68.626  1.00  0.00    -0.034 A  
HETATM   20  C   UNL     1     -10.414   8.384  69.538  1.00  0.00    -0.225 A  
HETATM   21  O   UNL     1     -11.385   6.234  69.076  1.00  0.00    -0.490 OA 
HETATM   22  C   UNL     1     -10.507   8.238  71.021  1.00  0.00    -0.202 C  
HETATM   23  C   UNL     1      -9.877   9.588  69.044  1.00  0.00    -0.178 A  
HETATM   24  H   UNL     1     -11.468   6.090  70.011  1.00  0.00     0.000 HD 
HETATM   25  O   UNL     1     -11.072   7.094  71.457  1.00  0.00    -0.235 OA 
HETATM   26  O   UNL     1     -10.104   9.097  71.789  1.00  0.00    -0.329 OA 
ENDBRANCH  14  16
ENDBRANCH  12  14
ENDBRANCH   6  12
TORSDOF 3
ENDMDL
MODEL       59
REMARK 921   NORMALIZED FREE ENERGY PREDICTED BY IDOCK:   -6.67 KCAL/MOL
REMARK 922        TOTAL FREE ENERGY PREDICTED BY IDOCK:   -8.20 KCAL/MOL
REMARK 923 INTER-LIGAND FREE ENERGY PREDICTED BY IDOCK:   -7.89 KCAL/MOL
REMARK 924 INTRA-LIGAND FREE ENERGY PREDICTED BY IDOCK:   -0.31 KCAL/MOL
REMARK 927      BINDING AFFINITY PREDICTED BY RF-SCORE:    0.00 PKD
ROOT
HETATM    1  O   UNL     1     -13.528  15.775  73.078  1.00  0.00    -0.537 OA 
HETATM    2  C   UNL     1     -13.552  14.595  72.424  1.00  0.00    -0.452 C  
HETATM    3  C   UNL     1     -12.591  14.469  71.288  1.00  0.00    -0.415 A  
HETATM    4  O   UNL     1     -14.311  13.693  72.742  1.00  0.00    -0.622 OA 
HETATM    5  C   UNL     1     -12.579  13.249  70.583  1.00  0.00    -0.305 A  
HETATM    6  C   UNL     1     -11.699  13.036  69.511  1.00  0.00    -0.317 A  
HETATM    7  C   UNL     1     -10.829  14.074  69.155  1.00  0.00    -0.235 A  
HETATM    8  C   UNL     1     -11.701  15.482  70.906  1.00  0.00    -0.375 A  
HETATM    9  H   UNL     1     -11.071  17.360  71.327  1.00  0.00     0.000 HD 
HETATM   10  C   UNL     1     -10.825  15.292  69.839  1.00  0.00    -0.295 A  
HETATM   11  O   UNL     1     -11.675  16.673  71.586  1.00  0.00    -0.321 OA 
ENDROOT
BRANCH   6  12
HETATM   12  N   UNL     1     -11.566  11.816  68.814  1.00  0.00    -0.281 NA 
HETATM   13  H   UNL     1     -10.791  11.617  68.180  1.00  0.00     0.000 HD 
BRANCH  12  14
HETATM   14  N   UNL     1     -12.484  11.004  69.046  1.00  0.00    -0.639 NA 
HETATM   15  H   UNL     1     -13.367  10.983  68.536  1.00  0.00     0.000 HD 
BRANCH  14  16
HETATM   16  C   UNL     1     -12.159  10.118  70.100  1.00  0.00    -0.149 A  
HETATM   17  C   UNL     1     -12.891   8.981  72.130  1.00  0.00    -0.478 A  
HETATM   18  C   UNL     1     -13.158   9.799  71.027  1.00  0.00    -0.363 A  
HETATM   19  C   UNL     1     -11.605   8.479  72.323  1.00  0.00    -0.374 A  
HETATM   20  C   UNL     1     -10.582   8.773  71.414  1.00  0.00    -0.349 A  
HETATM   21  O   UNL     1     -11.348   7.698  73.422  1.00  0.00    -0.622 OA 
HETATM   22  C   UNL     1      -9.180   8.276  71.543  1.00  0.00    -0.177 C  
HETATM   23  C   UNL     1     -10.872   9.596  70.309  1.00  0.00    -0.339 A  
HETATM   24  H   UNL     1     -10.471   7.356  73.553  1.00  0.00     0.000 HD 
HETATM   25  O   UNL     1      -8.926   7.531  72.638  1.00  0.00    -0.131 OA 
HETATM   26  O   UNL     1      -8.318   8.529  70.716  1.00  0.00    -0.116 OA 
ENDBRANCH  14  16
ENDBRANCH  12  14
ENDBRANCH   6  12
TORSDOF 3
ENDMDL
MODEL       60
REMARK 921   NORMALIZED FREE ENERGY PREDICTED BY IDOCK:   -6.64 KCAL/MOL
REMARK 922        TOTAL FREE ENERGY PREDICTED BY IDOCK:   -8.17 KCAL/MOL
REMARK 923 INTER-LIGAND FREE ENERGY PREDICTED BY IDOCK:   -7.81 KCAL/MOL
REMARK 924 INTRA-LIGAND FREE ENERGY PREDICTED BY IDOCK:   -0.36 KCAL/MOL
REMARK 927      BINDING AFFINITY PREDICTED BY RF-SCORE:    0.00 PKD
ROOT
HETATM    1  O   UNL     1      -6.068  18.051  65.816  1.00  0.00    -0.210 OA 
HETATM    2  C   UNL     1      -6.810  17.143  66.485  1.00  0.00    -0.260 C  
HETATM    3  C   UNL     1      -8.196  17.575  66.832  1.00  0.00    -0.253 A  
HETATM    4  O   UNL     1      -6.372  16.044  66.786  1.00  0.00    -0.278 OA 
HETATM    5  C   UNL     1      -9.007  16.654  67.525  1.00  0.00    -0.204 A  
HETATM    6  C   UNL     1     -10.328  16.968  67.879  1.00  0.00    -0.338 A  
HETATM    7  C   UNL     1     -10.823  18.230  67.527  1.00  0.00    -0.282 A  
HETATM    8  C   UNL     1      -8.729  18.826  66.491  1.00  0.00    -0.312 A  
HETATM    9  H   UNL     1      -8.334  20.584  65.568  1.00  0.00     0.000 HD 
HETATM   10  C   UNL     1     -10.037  19.159  66.841  1.00  0.00    -0.453 A  
HETATM   11  O   UNL     1      -7.972  19.736  65.799  1.00  0.00    -0.363 OA 
ENDROOT
BRANCH   6  12
HETATM   12  N   UNL     1     -11.228  16.071  68.493  1.00  0.00    -0.358 NA 
HETATM   13  H   UNL     1     -11.547  15.209  68.050  1.00  0.00     0.000 HD 
BRANCH  12  14
HETATM   14  N   UNL     1     -11.596  16.431  69.630  1.00  0.00    -0.299 NA 
HETATM   15  H   UNL     1     -11.509  17.385  69.981  1.00  0.00     0.000 HD 
BRANCH  14  16
HETATM   16  C   UNL     1     -12.148  15.363  70.375  1.00  0.00    -0.372 A  
HETATM   17  C   UNL     1     -13.383  14.662  72.358  1.00  0.00    -0.510 A  
HETATM   18  C   UNL     1     -12.865  15.669  71.538  1.00  0.00    -0.538 A  
HETATM   19  C   UNL     1     -13.176  13.324  72.025  1.00  0.00    -0.446 A  
HETATM   20  C   UNL     1     -12.468  12.980  70.867  1.00  0.00    -0.396 A  
HETATM   21  O   UNL     1     -13.667  12.344  72.850  1.00  0.00    -0.558 OA 
HETATM   22  C   UNL     1     -12.203  11.575  70.435  1.00  0.00    -0.355 C  
HETATM   23  C   UNL     1     -11.957  14.009  70.054  1.00  0.00    -0.404 A  
HETATM   24  H   UNL     1     -13.526  11.432  72.623  1.00  0.00     0.000 HD 
HETATM   25  O   UNL     1     -12.665  10.616  71.264  1.00  0.00    -0.362 OA 
HETATM   26  O   UNL     1     -11.605  11.310  69.404  1.00  0.00    -0.261 OA 
ENDBRANCH  14  16
ENDBRANCH  12  14
ENDBRANCH   6  12
TORSDOF 3
ENDMDL
MODEL       61
REMARK 921   NORMALIZED FREE ENERGY PREDICTED BY IDOCK:   -6.63 KCAL/MOL
REMARK 922        TOTAL FREE ENERGY PREDICTED BY IDOCK:   -8.16 KCAL/MOL
REMARK 923 INTER-LIGAND FREE ENERGY PREDICTED BY IDOCK:   -7.44 KCAL/MOL
REMARK 924 INTRA-LIGAND FREE ENERGY PREDICTED BY IDOCK:   -0.72 KCAL/MOL
REMARK 927      BINDING AFFINITY PREDICTED BY RF-SCORE:    0.00 PKD
ROOT
HETATM    1  O   UNL     1     -12.975  12.760  63.756  1.00  0.00    -0.676 OA 
HETATM    2  C   UNL     1     -12.762  13.254  64.994  1.00  0.00    -0.375 C  
HETATM    3  C   UNL     1     -11.603  12.669  65.730  1.00  0.00    -0.431 A  
HETATM    4  O   UNL     1     -13.474  14.122  65.476  1.00  0.00    -0.643 OA 
HETATM    5  C   UNL     1     -11.341  13.164  67.023  1.00  0.00    -0.349 A  
HETATM    6  C   UNL     1     -10.263  12.683  67.782  1.00  0.00    -0.222 A  
HETATM    7  C   UNL     1      -9.450  11.690  67.220  1.00  0.00    -0.173 A  
HETATM    8  C   UNL     1     -10.764  11.680  65.199  1.00  0.00    -0.296 A  
HETATM    9  H   UNL     1     -10.411  10.523  63.575  1.00  0.00     0.000 HD 
HETATM   10  C   UNL     1      -9.693  11.185  65.941  1.00  0.00    -0.268 A  
HETATM   11  O   UNL     1     -10.980  11.193  63.935  1.00  0.00    -0.374 OA 
ENDROOT
BRANCH   6  12
HETATM   12  N   UNL     1      -9.884  13.188  69.045  1.00  0.00    -0.395 NA 
HETATM   13  H   UNL     1     -10.396  12.985  69.903  1.00  0.00     0.000 HD 
BRANCH  12  14
HETATM   14  N   UNL     1      -8.864  13.906  69.011  1.00  0.00    -0.372 NA 
HETATM   15  H   UNL     1      -7.914  13.551  69.113  1.00  0.00     0.000 HD 
BRANCH  14  16
HETATM   16  C   UNL     1      -9.180  15.271  68.814  1.00  0.00    -0.203 A  
HETATM   17  C   UNL     1     -10.536  17.185  69.485  1.00  0.00    -0.122 A  
HETATM   18  C   UNL     1     -10.127  15.859  69.662  1.00  0.00    -0.271 A  
HETATM   19  C   UNL     1     -10.003  17.939  68.440  1.00  0.00    -0.367 A  
HETATM   20  C   UNL     1      -9.051  17.386  67.576  1.00  0.00    -0.232 A  
HETATM   21  O   UNL     1     -10.430  19.232  68.261  1.00  0.00    -0.390 OA 
HETATM   22  C   UNL     1      -8.428  18.123  66.437  1.00  0.00    -0.238 C  
HETATM   23  C   UNL     1      -8.651  16.051  67.773  1.00  0.00    -0.168 A  
HETATM   24  H   UNL     1     -10.067  19.745  67.550  1.00  0.00     0.000 HD 
HETATM   25  O   UNL     1      -8.871  19.383  66.249  1.00  0.00    -0.348 OA 
HETATM   26  O   UNL     1      -7.579  17.619  65.718  1.00  0.00    -0.530 OA 
ENDBRANCH  14  16
ENDBRANCH  12  14
ENDBRANCH   6  12
TORSDOF 3
ENDMDL
MODEL       62
REMARK 921   NORMALIZED FREE ENERGY PREDICTED BY IDOCK:   -6.60 KCAL/MOL
REMARK 922        TOTAL FREE ENERGY PREDICTED BY IDOCK:   -8.12 KCAL/MOL
REMARK 923 INTER-LIGAND FREE ENERGY PREDICTED BY IDOCK:   -7.60 KCAL/MOL
REMARK 924 INTRA-LIGAND FREE ENERGY PREDICTED BY IDOCK:   -0.52 KCAL/MOL
REMARK 927      BINDING AFFINITY PREDICTED BY RF-SCORE:    0.00 PKD
ROOT
HETATM    1  O   UNL     1     -13.643  13.793  72.902  1.00  0.00    -0.681 OA 
HETATM    2  C   UNL     1     -13.091  14.379  71.819  1.00  0.00    -0.354 C  
HETATM    3  C   UNL     1     -12.558  13.445  70.783  1.00  0.00    -0.369 A  
HETATM    4  O   UNL     1     -13.031  15.593  71.699  1.00  0.00    -0.436 OA 
HETATM    5  C   UNL     1     -11.980  14.016  69.633  1.00  0.00    -0.393 A  
HETATM    6  C   UNL     1     -11.466  13.215  68.601  1.00  0.00    -0.305 A  
HETATM    7  C   UNL     1     -11.541  11.824  68.746  1.00  0.00    -0.367 A  
HETATM    8  C   UNL     1     -12.621  12.049  70.889  1.00  0.00    -0.253 A  
HETATM    9  H   UNL     1     -13.239  10.516  72.059  1.00  0.00     0.000 HD 
HETATM   10  C   UNL     1     -12.109  11.237  69.878  1.00  0.00    -0.414 A  
HETATM   11  O   UNL     1     -13.196  11.463  71.988  1.00  0.00    -0.503 OA 
ENDROOT
BRANCH   6  12
HETATM   12  N   UNL     1     -10.953  13.710  67.383  1.00  0.00    -0.272 NA 
HETATM   13  H   UNL     1     -10.271  13.204  66.818  1.00  0.00     0.000 HD 
BRANCH  12  14
HETATM   14  N   UNL     1     -11.413  14.825  67.062  1.00  0.00    -0.359 NA 
HETATM   15  H   UNL     1     -12.403  15.007  66.899  1.00  0.00     0.000 HD 
BRANCH  14  16
HETATM   16  C   UNL     1     -10.401  15.807  66.950  1.00  0.00    -0.295 A  
HETATM   17  C   UNL     1      -8.041  16.292  66.572  1.00  0.00    -0.337 A  
HETATM   18  C   UNL     1      -9.103  15.386  66.635  1.00  0.00    -0.310 A  
HETATM   19  C   UNL     1      -8.268  17.643  66.837  1.00  0.00    -0.225 A  
HETATM   20  C   UNL     1      -9.553  18.101  67.150  1.00  0.00    -0.277 A  
HETATM   21  O   UNL     1      -7.213  18.520  66.796  1.00  0.00    -0.201 OA 
HETATM   22  C   UNL     1      -9.883  19.527  67.445  1.00  0.00    -0.358 C  
HETATM   23  C   UNL     1     -10.609  17.172  67.206  1.00  0.00    -0.270 A  
HETATM   24  H   UNL     1      -7.367  19.440  66.977  1.00  0.00     0.000 HD 
HETATM   25  O   UNL     1      -8.839  20.380  67.430  1.00  0.00    -0.344 OA 
HETATM   26  O   UNL     1     -11.021  19.898  67.687  1.00  0.00    -0.280 OA 
ENDBRANCH  14  16
ENDBRANCH  12  14
ENDBRANCH   6  12
TORSDOF 3
ENDMDL
MODEL       63
REMARK 921   NORMALIZED FREE ENERGY PREDICTED BY IDOCK:   -6.59 KCAL/MOL
REMARK 922        TOTAL FREE ENERGY PREDICTED BY IDOCK:   -8.11 KCAL/MOL
REMARK 923 INTER-LIGAND FREE ENERGY PREDICTED BY IDOCK:   -7.71 KCAL/MOL
REMARK 924 INTRA-LIGAND FREE ENERGY PREDICTED BY IDOCK:   -0.41 KCAL/MOL
REMARK 927      BINDING AFFINITY PREDICTED BY RF-SCORE:    0.00 PKD
ROOT
HETATM    1  O   UNL     1     -13.049  14.805  73.442  1.00  0.00    -0.538 OA 
HETATM    2  C   UNL     1     -13.090  13.979  72.376  1.00  0.00    -0.443 C  
HETATM    3  C   UNL     1     -12.355  14.453  71.166  1.00  0.00    -0.428 A  
HETATM    4  O   UNL     1     -13.691  12.916  72.402  1.00  0.00    -0.565 OA 
HETATM    5  C   UNL     1     -12.366  13.617  70.032  1.00  0.00    -0.342 A  
HETATM    6  C   UNL     1     -11.690  13.974  68.856  1.00  0.00    -0.340 A  
HETATM    7  C   UNL     1     -11.001  15.193  68.835  1.00  0.00    -0.256 A  
HETATM    8  C   UNL     1     -11.649  15.663  71.109  1.00  0.00    -0.412 A  
HETATM    9  H   UNL     1     -11.123  17.309  72.165  1.00  0.00     0.000 HD 
HETATM   10  C   UNL     1     -10.978  16.038  69.947  1.00  0.00    -0.353 A  
HETATM   11  O   UNL     1     -11.602  16.489  72.203  1.00  0.00    -0.424 OA 
ENDROOT
BRANCH   6  12
HETATM   12  N   UNL     1     -11.581  13.153  67.713  1.00  0.00    -0.316 NA 
HETATM   13  H   UNL     1     -11.225  13.488  66.817  1.00  0.00     0.000 HD 
BRANCH  12  14
HETATM   14  N   UNL     1     -11.962  11.980  67.902  1.00  0.00    -0.547 NA 
HETATM   15  H   UNL     1     -12.766  11.728  68.477  1.00  0.00     0.000 HD 
BRANCH  14  16
HETATM   16  C   UNL     1     -11.149  11.040  67.226  1.00  0.00    -0.294 A  
HETATM   17  C   UNL     1      -9.807  10.525  65.256  1.00  0.00    -0.345 A  
HETATM   18  C   UNL     1     -10.568  11.422  66.010  1.00  0.00    -0.319 A  
HETATM   19  C   UNL     1      -9.626   9.219  65.710  1.00  0.00    -0.271 A  
HETATM   20  C   UNL     1     -10.187   8.803  66.923  1.00  0.00    -0.357 A  
HETATM   21  O   UNL     1      -8.897   8.339  64.949  1.00  0.00    -0.400 OA 
HETATM   22  C   UNL     1     -10.041   7.427  67.484  1.00  0.00    -0.192 C  
HETATM   23  C   UNL     1     -10.949   9.722  67.669  1.00  0.00    -0.226 A  
HETATM   24  H   UNL     1      -8.774   7.450  65.259  1.00  0.00     0.000 HD 
HETATM   25  O   UNL     1      -9.347   6.559  66.719  1.00  0.00    -0.146 OA 
HETATM   26  O   UNL     1     -10.521   7.105  68.559  1.00  0.00    -0.195 OA 
ENDBRANCH  14  16
ENDBRANCH  12  14
ENDBRANCH   6  12
TORSDOF 3
ENDMDL
MODEL       64
REMARK 921   NORMALIZED FREE ENERGY PREDICTED BY IDOCK:   -6.59 KCAL/MOL
REMARK 922        TOTAL FREE ENERGY PREDICTED BY IDOCK:   -8.11 KCAL/MOL
REMARK 923 INTER-LIGAND FREE ENERGY PREDICTED BY IDOCK:   -7.73 KCAL/MOL
REMARK 924 INTRA-LIGAND FREE ENERGY PREDICTED BY IDOCK:   -0.38 KCAL/MOL
REMARK 927      BINDING AFFINITY PREDICTED BY RF-SCORE:    0.00 PKD
ROOT
HETATM    1  O   UNL     1     -12.320  11.969  63.155  1.00  0.00    -0.486 OA 
HETATM    2  C   UNL     1     -12.056  13.161  63.730  1.00  0.00    -0.495 C  
HETATM    3  C   UNL     1     -11.028  13.139  64.813  1.00  0.00    -0.355 A  
HETATM    4  O   UNL     1     -12.621  14.186  63.386  1.00  0.00    -0.818 OA 
HETATM    5  C   UNL     1     -10.717  14.365  65.435  1.00  0.00    -0.359 A  
HETATM    6  C   UNL     1      -9.753  14.442  66.453  1.00  0.00    -0.302 A  
HETATM    7  C   UNL     1      -9.107  13.261  66.840  1.00  0.00    -0.235 A  
HETATM    8  C   UNL     1     -10.356  11.980  65.224  1.00  0.00    -0.275 A  
HETATM    9  H   UNL     1     -10.165   9.990  64.903  1.00  0.00     0.000 HD 
HETATM   10  C   UNL     1      -9.401  12.035  66.238  1.00  0.00    -0.228 A  
HETATM   11  O   UNL     1     -10.622  10.775  64.624  1.00  0.00    -0.328 OA 
ENDROOT
BRANCH   6  12
HETATM   12  N   UNL     1      -9.325  15.641  67.061  1.00  0.00    -0.219 NA 
HETATM   13  H   UNL     1      -9.959  16.282  67.538  1.00  0.00     0.000 HD 
BRANCH  12  14
HETATM   14  N   UNL     1      -8.098  15.842  66.960  1.00  0.00    -0.206 NA 
HETATM   15  H   UNL     1      -7.402  15.099  66.901  1.00  0.00     0.000 HD 
BRANCH  14  16
HETATM   16  C   UNL     1      -7.784  17.221  66.935  1.00  0.00    -0.215 A  
HETATM   17  C   UNL     1      -7.984  19.394  68.025  1.00  0.00    -0.340 A  
HETATM   18  C   UNL     1      -8.202  18.013  68.012  1.00  0.00    -0.261 A  
HETATM   19  C   UNL     1      -7.349  20.004  66.944  1.00  0.00    -0.250 A  
HETATM   20  C   UNL     1      -6.913  19.244  65.853  1.00  0.00    -0.300 A  
HETATM   21  O   UNL     1      -7.162  21.364  66.956  1.00  0.00    -0.801 OA 
HETATM   22  C   UNL     1      -6.223  19.815  64.658  1.00  0.00    -0.263 C  
HETATM   23  C   UNL     1      -7.139  17.855  65.860  1.00  0.00    -0.298 A  
HETATM   24  H   UNL     1      -6.729  21.780  66.220  1.00  0.00     0.000 HD 
HETATM   25  O   UNL     1      -6.066  21.155  64.663  1.00  0.00    -0.267 OA 
HETATM   26  O   UNL     1      -5.830  19.119  63.735  1.00  0.00    -0.426 OA 
ENDBRANCH  14  16
ENDBRANCH  12  14
ENDBRANCH   6  12
TORSDOF 3
ENDMDL
MODEL       65
REMARK 921   NORMALIZED FREE ENERGY PREDICTED BY IDOCK:   -6.57 KCAL/MOL
REMARK 922        TOTAL FREE ENERGY PREDICTED BY IDOCK:   -8.09 KCAL/MOL
REMARK 923 INTER-LIGAND FREE ENERGY PREDICTED BY IDOCK:   -7.70 KCAL/MOL
REMARK 924 INTRA-LIGAND FREE ENERGY PREDICTED BY IDOCK:   -0.38 KCAL/MOL
REMARK 927      BINDING AFFINITY PREDICTED BY RF-SCORE:    0.00 PKD
ROOT
HETATM    1  O   UNL     1     -11.618  16.409  63.742  1.00  0.00    -1.055 OA 
HETATM    2  C   UNL     1     -11.055  16.073  64.921  1.00  0.00    -0.370 C  
HETATM    3  C   UNL     1     -11.335  14.685  65.395  1.00  0.00    -0.344 A  
HETATM    4  O   UNL     1     -10.364  16.854  65.556  1.00  0.00    -0.572 OA 
HETATM    5  C   UNL     1     -10.760  14.290  66.620  1.00  0.00    -0.290 A  
HETATM    6  C   UNL     1     -10.957  13.000  67.135  1.00  0.00    -0.269 A  
HETATM    7  C   UNL     1     -11.748  12.109  66.400  1.00  0.00    -0.394 A  
HETATM    8  C   UNL     1     -12.116  13.763  64.684  1.00  0.00    -0.421 A  
HETATM    9  H   UNL     1     -13.201  13.485  62.998  1.00  0.00     0.000 HD 
HETATM   10  C   UNL     1     -12.329  12.480  65.184  1.00  0.00    -0.496 A  
HETATM   11  O   UNL     1     -12.672  14.110  63.480  1.00  0.00    -0.794 OA 
ENDROOT
BRANCH   6  12
HETATM   12  N   UNL     1     -10.345  12.503  68.306  1.00  0.00    -0.231 NA 
HETATM   13  H   UNL     1     -10.438  12.952  69.218  1.00  0.00     0.000 HD 
BRANCH  12  14
HETATM   14  N   UNL     1      -9.681  11.464  68.121  1.00  0.00    -0.186 NA 
HETATM   15  H   UNL     1      -8.884  11.403  67.487  1.00  0.00     0.000 HD 
BRANCH  14  16
HETATM   16  C   UNL     1     -10.161  10.379  68.892  1.00  0.00    -0.205 A  
HETATM   17  C   UNL     1     -11.061   9.614  71.026  1.00  0.00    -0.438 A  
HETATM   18  C   UNL     1     -10.631  10.644  70.184  1.00  0.00    -0.065 A  
HETATM   19  C   UNL     1     -11.012   8.293  70.582  1.00  0.00    -0.240 A  
HETATM   20  C   UNL     1     -10.553   7.991  69.295  1.00  0.00    -0.193 A  
HETATM   21  O   UNL     1     -11.413   7.287  71.426  1.00  0.00    -0.252 OA 
HETATM   22  C   UNL     1     -10.471   6.607  68.739  1.00  0.00    -0.213 C  
HETATM   23  C   UNL     1     -10.128   9.043  68.462  1.00  0.00    -0.211 A  
HETATM   24  H   UNL     1     -11.380   6.387  71.123  1.00  0.00     0.000 HD 
HETATM   25  O   UNL     1     -10.840   5.620  69.582  1.00  0.00    -0.337 OA 
HETATM   26  O   UNL     1     -10.091   6.381  67.601  1.00  0.00    -0.131 OA 
ENDBRANCH  14  16
ENDBRANCH  12  14
ENDBRANCH   6  12
TORSDOF 3
ENDMDL
MODEL       66
REMARK 921   NORMALIZED FREE ENERGY PREDICTED BY IDOCK:   -6.56 KCAL/MOL
REMARK 922        TOTAL FREE ENERGY PREDICTED BY IDOCK:   -8.07 KCAL/MOL
REMARK 923 INTER-LIGAND FREE ENERGY PREDICTED BY IDOCK:   -7.60 KCAL/MOL
REMARK 924 INTRA-LIGAND FREE ENERGY PREDICTED BY IDOCK:   -0.47 KCAL/MOL
REMARK 927      BINDING AFFINITY PREDICTED BY RF-SCORE:    0.00 PKD
ROOT
HETATM    1  O   UNL     1      -9.152   6.510  69.996  1.00  0.00    -0.149 OA 
HETATM    2  C   UNL     1     -10.122   7.444  69.901  1.00  0.00    -0.195 C  
HETATM    3  C   UNL     1      -9.958   8.431  68.794  1.00  0.00    -0.197 A  
HETATM    4  O   UNL     1     -11.068   7.476  70.672  1.00  0.00    -0.256 OA 
HETATM    5  C   UNL     1     -10.953   9.419  68.655  1.00  0.00    -0.075 A  
HETATM    6  C   UNL     1     -10.889  10.380  67.633  1.00  0.00    -0.306 A  
HETATM    7  C   UNL     1      -9.802  10.334  66.752  1.00  0.00    -0.246 A  
HETATM    8  C   UNL     1      -8.888   8.414  67.888  1.00  0.00    -0.138 A  
HETATM    9  H   UNL     1      -7.190   7.441  67.370  1.00  0.00     0.000 HD 
HETATM   10  C   UNL     1      -8.803   9.365  66.872  1.00  0.00    -0.141 A  
HETATM   11  O   UNL     1      -7.915   7.453  67.985  1.00  0.00    -0.116 OA 
ENDROOT
BRANCH   6  12
HETATM   12  N   UNL     1     -11.888  11.343  67.376  1.00  0.00    -0.601 NA 
HETATM   13  H   UNL     1     -12.713  11.153  66.807  1.00  0.00     0.000 HD 
BRANCH  12  14
HETATM   14  N   UNL     1     -11.666  12.449  67.910  1.00  0.00    -0.357 NA 
HETATM   15  H   UNL     1     -11.550  12.583  68.914  1.00  0.00     0.000 HD 
BRANCH  14  16
HETATM   16  C   UNL     1     -11.594  13.495  66.960  1.00  0.00    -0.359 A  
HETATM   17  C   UNL     1     -12.057  14.240  64.684  1.00  0.00    -0.478 A  
HETATM   18  C   UNL     1     -12.149  13.276  65.693  1.00  0.00    -0.488 A  
HETATM   19  C   UNL     1     -11.393  15.440  64.933  1.00  0.00    -0.363 A  
HETATM   20  C   UNL     1     -10.830  15.696  66.189  1.00  0.00    -0.264 A  
HETATM   21  O   UNL     1     -11.288  16.369  63.928  1.00  0.00    -1.510 OA 
HETATM   22  C   UNL     1     -10.106  16.953  66.541  1.00  0.00    -0.315 C  
HETATM   23  C   UNL     1     -10.936  14.714  67.192  1.00  0.00    -0.316 A  
HETATM   24  H   UNL     1     -10.835  17.187  64.098  1.00  0.00     0.000 HD 
HETATM   25  O   UNL     1      -9.982  17.851  65.542  1.00  0.00    -0.481 OA 
HETATM   26  O   UNL     1      -9.651  17.156  67.656  1.00  0.00    -0.248 OA 
ENDBRANCH  14  16
ENDBRANCH  12  14
ENDBRANCH   6  12
TORSDOF 3
ENDMDL
MODEL       67
REMARK 921   NORMALIZED FREE ENERGY PREDICTED BY IDOCK:   -6.53 KCAL/MOL
REMARK 922        TOTAL FREE ENERGY PREDICTED BY IDOCK:   -8.04 KCAL/MOL
REMARK 923 INTER-LIGAND FREE ENERGY PREDICTED BY IDOCK:   -7.65 KCAL/MOL
REMARK 924 INTRA-LIGAND FREE ENERGY PREDICTED BY IDOCK:   -0.39 KCAL/MOL
REMARK 927      BINDING AFFINITY PREDICTED BY RF-SCORE:    0.00 PKD
ROOT
HETATM    1  O   UNL     1      -7.984   6.376  73.916  1.00  0.00    -0.101 OA 
HETATM    2  C   UNL     1      -8.507   7.530  73.450  1.00  0.00    -0.151 C  
HETATM    3  C   UNL     1      -9.819   7.405  72.749  1.00  0.00    -0.237 A  
HETATM    4  O   UNL     1      -7.941   8.602  73.594  1.00  0.00    -0.412 OA 
HETATM    5  C   UNL     1     -10.404   8.588  72.254  1.00  0.00    -0.402 A  
HETATM    6  C   UNL     1     -11.642   8.568  71.594  1.00  0.00    -0.299 A  
HETATM    7  C   UNL     1     -12.286   7.334  71.437  1.00  0.00    -0.403 A  
HETATM    8  C   UNL     1     -10.497   6.190  72.578  1.00  0.00    -0.201 A  
HETATM    9  H   UNL     1     -10.423   4.202  72.951  1.00  0.00     0.000 HD 
HETATM   10  C   UNL     1     -11.724   6.150  71.919  1.00  0.00    -0.337 A  
HETATM   11  O   UNL     1      -9.964   5.025  73.067  1.00  0.00    -0.155 OA 
ENDROOT
BRANCH   6  12
HETATM   12  N   UNL     1     -12.331   9.716  71.149  1.00  0.00    -0.323 NA 
HETATM   13  H   UNL     1     -13.057  10.179  71.698  1.00  0.00     0.000 HD 
BRANCH  12  14
HETATM   14  N   UNL     1     -11.970  10.111  70.023  1.00  0.00    -0.444 NA 
HETATM   15  H   UNL     1     -11.600   9.499  69.296  1.00  0.00     0.000 HD 
BRANCH  14  16
HETATM   16  C   UNL     1     -12.134  11.508  69.869  1.00  0.00    -0.316 A  
HETATM   17  C   UNL     1     -11.892  13.460  68.427  1.00  0.00    -0.401 A  
HETATM   18  C   UNL     1     -11.817  12.079  68.631  1.00  0.00    -0.366 A  
HETATM   19  C   UNL     1     -12.279  14.293  69.475  1.00  0.00    -0.297 A  
HETATM   20  C   UNL     1     -12.609  13.758  70.726  1.00  0.00    -0.410 A  
HETATM   21  O   UNL     1     -12.326  15.650  69.271  1.00  0.00    -0.584 OA 
HETATM   22  C   UNL     1     -13.035  14.576  71.900  1.00  0.00    -0.341 C  
HETATM   23  C   UNL     1     -12.528  12.365  70.910  1.00  0.00    -0.367 A  
HETATM   24  H   UNL     1     -12.590  16.218  69.986  1.00  0.00     0.000 HD 
HETATM   25  O   UNL     1     -13.053  15.911  71.702  1.00  0.00    -0.465 OA 
HETATM   26  O   UNL     1     -13.342  14.075  72.970  1.00  0.00    -0.641 OA 
ENDBRANCH  14  16
ENDBRANCH  12  14
ENDBRANCH   6  12
TORSDOF 3
ENDMDL
MODEL       68
REMARK 921   NORMALIZED FREE ENERGY PREDICTED BY IDOCK:   -6.53 KCAL/MOL
REMARK 922        TOTAL FREE ENERGY PREDICTED BY IDOCK:   -8.03 KCAL/MOL
REMARK 923 INTER-LIGAND FREE ENERGY PREDICTED BY IDOCK:   -7.89 KCAL/MOL
REMARK 924 INTRA-LIGAND FREE ENERGY PREDICTED BY IDOCK:   -0.15 KCAL/MOL
REMARK 927      BINDING AFFINITY PREDICTED BY RF-SCORE:    0.00 PKD
ROOT
HETATM    1  O   UNL     1     -12.684  13.060  63.226  1.00  0.00    -0.663 OA 
HETATM    2  C   UNL     1     -12.566  13.132  64.569  1.00  0.00    -0.278 C  
HETATM    3  C   UNL     1     -11.528  12.245  65.171  1.00  0.00    -0.390 A  
HETATM    4  O   UNL     1     -13.265  13.873  65.242  1.00  0.00    -0.774 OA 
HETATM    5  C   UNL     1     -11.367  12.295  66.571  1.00  0.00    -0.403 A  
HETATM    6  C   UNL     1     -10.405  11.507  67.222  1.00  0.00    -0.206 A  
HETATM    7  C   UNL     1      -9.606  10.662  66.442  1.00  0.00    -0.230 A  
HETATM    8  C   UNL     1     -10.705  11.391  64.424  1.00  0.00    -0.342 A  
HETATM    9  H   UNL     1     -10.265  10.757  62.552  1.00  0.00     0.000 HD 
HETATM   10  C   UNL     1      -9.750  10.596  65.054  1.00  0.00    -0.336 A  
HETATM   11  O   UNL     1     -10.823  11.336  63.059  1.00  0.00    -0.164 OA 
ENDROOT
BRANCH   6  12
HETATM   12  N   UNL     1     -10.125  11.565  68.604  1.00  0.00    -0.220 NA 
HETATM   13  H   UNL     1      -9.177  11.601  68.980  1.00  0.00     0.000 HD 
BRANCH  12  14
HETATM   14  N   UNL     1     -11.146  11.569  69.322  1.00  0.00    -0.287 NA 
HETATM   15  H   UNL     1     -11.742  10.755  69.468  1.00  0.00     0.000 HD 
BRANCH  14  16
HETATM   16  C   UNL     1     -11.379  12.834  69.909  1.00  0.00     0.040 A  
HETATM   17  C   UNL     1     -10.669  15.157  70.138  1.00  0.00    -0.245 A  
HETATM   18  C   UNL     1     -10.538  13.895  69.550  1.00  0.00     0.111 A  
HETATM   19  C   UNL     1     -11.646  15.368  71.111  1.00  0.00    -0.377 A  
HETATM   20  C   UNL     1     -12.507  14.333  71.492  1.00  0.00    -0.435 A  
HETATM   21  O   UNL     1     -11.749  16.604  71.700  1.00  0.00    -0.644 OA 
HETATM   22  C   UNL     1     -13.580  14.474  72.521  1.00  0.00    -0.487 C  
HETATM   23  C   UNL     1     -12.361  13.071  70.886  1.00  0.00    -0.376 A  
HETATM   24  H   UNL     1     -12.414  16.748  72.362  1.00  0.00     0.000 HD 
HETATM   25  O   UNL     1     -13.660  15.682  73.116  1.00  0.00    -0.541 OA 
HETATM   26  O   UNL     1     -14.333  13.557  72.810  1.00  0.00    -0.640 OA 
ENDBRANCH  14  16
ENDBRANCH  12  14
ENDBRANCH   6  12
TORSDOF 3
ENDMDL
MODEL       69
REMARK 921   NORMALIZED FREE ENERGY PREDICTED BY IDOCK:   -6.52 KCAL/MOL
REMARK 922        TOTAL FREE ENERGY PREDICTED BY IDOCK:   -8.03 KCAL/MOL
REMARK 923 INTER-LIGAND FREE ENERGY PREDICTED BY IDOCK:   -7.59 KCAL/MOL
REMARK 924 INTRA-LIGAND FREE ENERGY PREDICTED BY IDOCK:   -0.44 KCAL/MOL
REMARK 927      BINDING AFFINITY PREDICTED BY RF-SCORE:    0.00 PKD
ROOT
HETATM    1  O   UNL     1     -11.527  16.257  63.881  1.00  0.00    -0.940 OA 
HETATM    2  C   UNL     1     -11.952  15.086  64.399  1.00  0.00    -0.353 C  
HETATM    3  C   UNL     1     -11.499  14.797  65.792  1.00  0.00    -0.322 A  
HETATM    4  O   UNL     1     -12.659  14.316  63.768  1.00  0.00    -0.821 OA 
HETATM    5  C   UNL     1     -11.927  13.587  66.374  1.00  0.00    -0.459 A  
HETATM    6  C   UNL     1     -11.562  13.239  67.684  1.00  0.00    -0.346 A  
HETATM    7  C   UNL     1     -10.753  14.128  68.402  1.00  0.00    -0.264 A  
HETATM    8  C   UNL     1     -10.695  15.664  66.544  1.00  0.00    -0.293 A  
HETATM    9  H   UNL     1      -9.735  17.447  66.523  1.00  0.00     0.000 HD 
HETATM   10  C   UNL     1     -10.316  15.332  67.843  1.00  0.00    -0.246 A  
HETATM   11  O   UNL     1     -10.280  16.858  66.013  1.00  0.00    -0.335 OA 
ENDROOT
BRANCH   6  12
HETATM   12  N   UNL     1     -12.021  12.091  68.365  1.00  0.00    -0.423 NA 
HETATM   13  H   UNL     1     -12.694  11.437  67.965  1.00  0.00     0.000 HD 
BRANCH  12  14
HETATM   14  N   UNL     1     -11.526  11.953  69.502  1.00  0.00    -0.361 NA 
HETATM   15  H   UNL     1     -11.328  12.727  70.135  1.00  0.00     0.000 HD 
BRANCH  14  16
HETATM   16  C   UNL     1     -11.271  10.596  69.811  1.00  0.00    -0.297 A  
HETATM   17  C   UNL     1     -11.433   8.796  71.448  1.00  0.00    -0.366 A  
HETATM   18  C   UNL     1     -11.706  10.107  71.048  1.00  0.00    -0.470 A  
HETATM   19  C   UNL     1     -10.703   7.955  70.608  1.00  0.00    -0.228 A  
HETATM   20  C   UNL     1     -10.255   8.408  69.362  1.00  0.00    -0.208 A  
HETATM   21  O   UNL     1     -10.418   6.677  71.021  1.00  0.00    -0.209 OA 
HETATM   22  C   UNL     1      -9.472   7.575  68.401  1.00  0.00    -0.148 C  
HETATM   23  C   UNL     1     -10.543   9.731  68.977  1.00  0.00    -0.238 A  
HETATM   24  H   UNL     1      -9.921   6.104  70.449  1.00  0.00     0.000 HD 
HETATM   25  O   UNL     1      -9.172   6.329  68.823  1.00  0.00    -0.126 OA 
HETATM   26  O   UNL     1      -9.121   7.992  67.309  1.00  0.00    -0.131 OA 
ENDBRANCH  14  16
ENDBRANCH  12  14
ENDBRANCH   6  12
TORSDOF 3
ENDMDL
MODEL       70
REMARK 921   NORMALIZED FREE ENERGY PREDICTED BY IDOCK:   -6.48 KCAL/MOL
REMARK 922        TOTAL FREE ENERGY PREDICTED BY IDOCK:   -7.98 KCAL/MOL
REMARK 923 INTER-LIGAND FREE ENERGY PREDICTED BY IDOCK:   -7.44 KCAL/MOL
REMARK 924 INTRA-LIGAND FREE ENERGY PREDICTED BY IDOCK:   -0.54 KCAL/MOL
REMARK 927      BINDING AFFINITY PREDICTED BY RF-SCORE:    0.00 PKD
ROOT
HETATM    1  O   UNL     1     -13.400  14.949  73.434  1.00  0.00    -0.537 OA 
HETATM    2  C   UNL     1     -13.294  14.011  72.470  1.00  0.00    -0.539 C  
HETATM    3  C   UNL     1     -12.404  14.362  71.325  1.00  0.00    -0.432 A  
HETATM    4  O   UNL     1     -13.890  12.947  72.534  1.00  0.00    -0.579 OA 
HETATM    5  C   UNL     1     -12.260  13.406  70.300  1.00  0.00    -0.405 A  
HETATM    6  C   UNL     1     -11.432  13.644  69.191  1.00  0.00    -0.297 A  
HETATM    7  C   UNL     1     -10.750  14.866  69.128  1.00  0.00    -0.253 A  
HETATM    8  C   UNL     1     -11.700  15.571  71.229  1.00  0.00    -0.401 A  
HETATM    9  H   UNL     1     -11.327  17.332  72.155  1.00  0.00     0.000 HD 
HETATM   10  C   UNL     1     -10.880  15.828  70.132  1.00  0.00    -0.360 A  
HETATM   11  O   UNL     1     -11.804  16.513  72.220  1.00  0.00    -0.519 OA 
ENDROOT
BRANCH   6  12
HETATM   12  N   UNL     1     -11.168  12.705  68.172  1.00  0.00    -0.250 NA 
HETATM   13  H   UNL     1     -10.417  12.816  67.491  1.00  0.00     0.000 HD 
BRANCH  12  14
HETATM   14  N   UNL     1     -11.940  11.725  68.183  1.00  0.00    -0.557 NA 
HETATM   15  H   UNL     1     -12.954  11.798  68.101  1.00  0.00     0.000 HD 
BRANCH  14  16
HETATM   16  C   UNL     1     -11.246  10.500  68.322  1.00  0.00    -0.291 A  
HETATM   17  C   UNL     1     -10.232   8.576  67.218  1.00  0.00    -0.346 A  
HETATM   18  C   UNL     1     -10.863   9.822  67.158  1.00  0.00    -0.207 A  
HETATM   19  C   UNL     1      -9.985   7.985  68.457  1.00  0.00    -0.192 A  
HETATM   20  C   UNL     1     -10.349   8.636  69.642  1.00  0.00    -0.213 A  
HETATM   21  O   UNL     1      -9.386   6.751  68.504  1.00  0.00    -0.128 OA 
HETATM   22  C   UNL     1     -10.119   8.078  71.007  1.00  0.00    -0.186 C  
HETATM   23  C   UNL     1     -10.981   9.891  69.559  1.00  0.00    -0.274 A  
HETATM   24  H   UNL     1      -9.218   6.349  69.348  1.00  0.00     0.000 HD 
HETATM   25  O   UNL     1      -9.555   6.853  71.047  1.00  0.00    -0.170 OA 
HETATM   26  O   UNL     1     -10.424   8.685  72.022  1.00  0.00    -0.307 OA 
ENDBRANCH  14  16
ENDBRANCH  12  14
ENDBRANCH   6  12
TORSDOF 3
ENDMDL
MODEL       71
REMARK 921   NORMALIZED FREE ENERGY PREDICTED BY IDOCK:   -6.46 KCAL/MOL
REMARK 922        TOTAL FREE ENERGY PREDICTED BY IDOCK:   -7.95 KCAL/MOL
REMARK 923 INTER-LIGAND FREE ENERGY PREDICTED BY IDOCK:   -7.46 KCAL/MOL
REMARK 924 INTRA-LIGAND FREE ENERGY PREDICTED BY IDOCK:   -0.49 KCAL/MOL
REMARK 927      BINDING AFFINITY PREDICTED BY RF-SCORE:    0.00 PKD
ROOT
HETATM    1  O   UNL     1     -11.178  15.660  69.408  1.00  0.00    -0.267 OA 
HETATM    2  C   UNL     1     -11.279  14.314  69.382  1.00  0.00    -0.273 C  
HETATM    3  C   UNL     1     -12.098  13.710  70.475  1.00  0.00    -0.411 A  
HETATM    4  O   UNL     1     -10.735  13.640  68.522  1.00  0.00    -0.243 OA 
HETATM    5  C   UNL     1     -12.235  12.307  70.480  1.00  0.00    -0.387 A  
HETATM    6  C   UNL     1     -12.998  11.653  71.459  1.00  0.00    -0.358 A  
HETATM    7  C   UNL     1     -13.621  12.434  72.441  1.00  0.00    -0.262 A  
HETATM    8  C   UNL     1     -12.741  14.458  71.469  1.00  0.00    -0.345 A  
HETATM    9  H   UNL     1     -13.080  16.333  72.154  1.00  0.00     0.000 HD 
HETATM   10  C   UNL     1     -13.497  13.825  72.455  1.00  0.00    -0.682 A  
HETATM   11  O   UNL     1     -12.644  15.826  71.479  1.00  0.00    -0.420 OA 
ENDROOT
BRANCH   6  12
HETATM   12  N   UNL     1     -13.255  10.265  71.481  1.00  0.00    -0.391 NA 
HETATM   13  H   UNL     1     -13.995   9.843  72.041  1.00  0.00     0.000 HD 
BRANCH  12  14
HETATM   14  N   UNL     1     -12.491   9.604  70.749  1.00  0.00    -0.472 NA 
HETATM   15  H   UNL     1     -12.317   9.818  69.767  1.00  0.00     0.000 HD 
BRANCH  14  16
HETATM   16  C   UNL     1     -11.894   8.524  71.440  1.00  0.00    -0.296 A  
HETATM   17  C   UNL     1     -12.065   6.201  72.163  1.00  0.00    -0.263 A  
HETATM   18  C   UNL     1     -12.563   7.294  71.448  1.00  0.00    -0.423 A  
HETATM   19  C   UNL     1     -10.886   6.333  72.896  1.00  0.00    -0.256 A  
HETATM   20  C   UNL     1     -10.187   7.546  72.908  1.00  0.00    -0.331 A  
HETATM   21  O   UNL     1     -10.419   5.261  73.615  1.00  0.00    -0.210 OA 
HETATM   22  C   UNL     1      -8.918   7.773  73.661  1.00  0.00    -0.277 C  
HETATM   23  C   UNL     1     -10.704   8.633  72.178  1.00  0.00    -0.417 A  
HETATM   24  H   UNL     1      -9.615   5.351  74.114  1.00  0.00     0.000 HD 
HETATM   25  O   UNL     1      -8.478   6.725  74.387  1.00  0.00    -0.136 OA 
HETATM   26  O   UNL     1      -8.319   8.836  73.627  1.00  0.00    -0.339 OA 
ENDBRANCH  14  16
ENDBRANCH  12  14
ENDBRANCH   6  12
TORSDOF 3
ENDMDL
MODEL       72
REMARK 921   NORMALIZED FREE ENERGY PREDICTED BY IDOCK:   -6.45 KCAL/MOL
REMARK 922        TOTAL FREE ENERGY PREDICTED BY IDOCK:   -7.94 KCAL/MOL
REMARK 923 INTER-LIGAND FREE ENERGY PREDICTED BY IDOCK:   -7.58 KCAL/MOL
REMARK 924 INTRA-LIGAND FREE ENERGY PREDICTED BY IDOCK:   -0.36 KCAL/MOL
REMARK 927      BINDING AFFINITY PREDICTED BY RF-SCORE:    0.00 PKD
ROOT
HETATM    1  O   UNL     1      -8.429   8.247  64.576  1.00  0.00    -0.127 OA 
HETATM    2  C   UNL     1      -8.736   9.107  65.569  1.00  0.00    -0.181 C  
HETATM    3  C   UNL     1      -9.428  10.360  65.143  1.00  0.00    -0.303 A  
HETATM    4  O   UNL     1      -8.464   8.874  66.736  1.00  0.00    -0.113 OA 
HETATM    5  C   UNL     1      -9.774  11.283  66.151  1.00  0.00    -0.251 A  
HETATM    6  C   UNL     1     -10.439  12.480  65.845  1.00  0.00    -0.265 A  
HETATM    7  C   UNL     1     -10.750  12.739  64.504  1.00  0.00    -0.380 A  
HETATM    8  C   UNL     1      -9.761  10.651  63.813  1.00  0.00    -0.327 A  
HETATM    9  H   UNL     1      -9.683   9.961  61.911  1.00  0.00     0.000 HD 
HETATM   10  C   UNL     1     -10.415  11.838  63.490  1.00  0.00    -0.500 A  
HETATM   11  O   UNL     1      -9.457   9.764  62.813  1.00  0.00    -0.231 OA 
ENDROOT
BRANCH   6  12
HETATM   12  N   UNL     1     -10.896  13.410  66.804  1.00  0.00    -0.280 NA 
HETATM   13  H   UNL     1     -10.661  14.402  66.774  1.00  0.00     0.000 HD 
BRANCH  12  14
HETATM   14  N   UNL     1     -11.613  12.903  67.690  1.00  0.00    -0.334 NA 
HETATM   15  H   UNL     1     -12.003  11.962  67.638  1.00  0.00     0.000 HD 
BRANCH  14  16
HETATM   16  C   UNL     1     -11.824  13.786  68.774  1.00  0.00    -0.363 A  
HETATM   17  C   UNL     1     -11.479  16.013  69.709  1.00  0.00    -0.318 A  
HETATM   18  C   UNL     1     -11.364  15.103  68.653  1.00  0.00    -0.322 A  
HETATM   19  C   UNL     1     -12.052  15.605  70.913  1.00  0.00    -0.407 A  
HETATM   20  C   UNL     1     -12.528  14.298  71.069  1.00  0.00    -0.432 A  
HETATM   21  O   UNL     1     -12.139  16.499  71.951  1.00  0.00    -0.616 OA 
HETATM   22  C   UNL     1     -13.157  13.780  72.321  1.00  0.00    -0.405 C  
HETATM   23  C   UNL     1     -12.404  13.399  69.993  1.00  0.00    -0.294 A  
HETATM   24  H   UNL     1     -12.529  16.222  72.772  1.00  0.00     0.000 HD 
HETATM   25  O   UNL     1     -13.214  14.655  73.346  1.00  0.00    -0.585 OA 
HETATM   26  O   UNL     1     -13.586  12.641  72.414  1.00  0.00    -0.550 OA 
ENDBRANCH  14  16
ENDBRANCH  12  14
ENDBRANCH   6  12
TORSDOF 3
ENDMDL
MODEL       73
REMARK 921   NORMALIZED FREE ENERGY PREDICTED BY IDOCK:   -6.44 KCAL/MOL
REMARK 922        TOTAL FREE ENERGY PREDICTED BY IDOCK:   -7.94 KCAL/MOL
REMARK 923 INTER-LIGAND FREE ENERGY PREDICTED BY IDOCK:   -7.52 KCAL/MOL
REMARK 924 INTRA-LIGAND FREE ENERGY PREDICTED BY IDOCK:   -0.42 KCAL/MOL
REMARK 927      BINDING AFFINITY PREDICTED BY RF-SCORE:    0.00 PKD
ROOT
HETATM    1  O   UNL     1     -13.246  15.648  71.850  1.00  0.00    -0.434 OA 
HETATM    2  C   UNL     1     -13.266  14.299  71.887  1.00  0.00    -0.375 C  
HETATM    3  C   UNL     1     -12.537  13.615  70.777  1.00  0.00    -0.397 A  
HETATM    4  O   UNL     1     -13.842  13.683  72.769  1.00  0.00    -0.727 OA 
HETATM    5  C   UNL     1     -12.527  12.206  70.781  1.00  0.00    -0.362 A  
HETATM    6  C   UNL     1     -11.855  11.479  69.786  1.00  0.00    -0.357 A  
HETATM    7  C   UNL     1     -11.194  12.194  68.780  1.00  0.00    -0.314 A  
HETATM    8  C   UNL     1     -11.859  14.295  69.757  1.00  0.00    -0.324 A  
HETATM    9  H   UNL     1     -11.373  16.128  69.045  1.00  0.00     0.000 HD 
HETATM   10  C   UNL     1     -11.193  13.591  68.756  1.00  0.00    -0.311 A  
HETATM   11  O   UNL     1     -11.833  15.667  69.736  1.00  0.00    -0.332 OA 
ENDROOT
BRANCH   6  12
HETATM   12  N   UNL     1     -11.725  10.074  69.771  1.00  0.00    -0.442 NA 
HETATM   13  H   UNL     1     -11.119   9.577  69.118  1.00  0.00     0.000 HD 
BRANCH  12  14
HETATM   14  N   UNL     1     -12.421   9.498  70.631  1.00  0.00    -0.496 NA 
HETATM   15  H   UNL     1     -13.360   9.795  70.896  1.00  0.00     0.000 HD 
BRANCH  14  16
HETATM   16  C   UNL     1     -11.757   8.384  71.195  1.00  0.00    -0.280 A  
HETATM   17  C   UNL     1     -10.820   7.345  73.193  1.00  0.00    -0.435 A  
HETATM   18  C   UNL     1     -11.527   8.381  72.576  1.00  0.00    -0.422 A  
HETATM   19  C   UNL     1     -10.321   6.294  72.423  1.00  0.00    -0.191 A  
HETATM   20  C   UNL     1     -10.536   6.260  71.041  1.00  0.00    -0.289 A  
HETATM   21  O   UNL     1      -9.607   5.294  73.036  1.00  0.00    -0.142 OA 
HETATM   22  C   UNL     1     -10.041   5.174  70.144  1.00  0.00    -0.272 C  
HETATM   23  C   UNL     1     -11.252   7.312  70.440  1.00  0.00    -0.302 A  
HETATM   24  H   UNL     1      -9.267   4.579  72.511  1.00  0.00     0.000 HD 
HETATM   25  O   UNL     1      -9.317   4.209  70.746  1.00  0.00    -0.125 OA 
HETATM   26  O   UNL     1     -10.270   5.161  68.944  1.00  0.00    -0.189 OA 
ENDBRANCH  14  16
ENDBRANCH  12  14
ENDBRANCH   6  12
TORSDOF 3
ENDMDL
MODEL       74
REMARK 921   NORMALIZED FREE ENERGY PREDICTED BY IDOCK:   -6.42 KCAL/MOL
REMARK 922        TOTAL FREE ENERGY PREDICTED BY IDOCK:   -7.91 KCAL/MOL
REMARK 923 INTER-LIGAND FREE ENERGY PREDICTED BY IDOCK:   -7.45 KCAL/MOL
REMARK 924 INTRA-LIGAND FREE ENERGY PREDICTED BY IDOCK:   -0.46 KCAL/MOL
REMARK 927      BINDING AFFINITY PREDICTED BY RF-SCORE:    0.00 PKD
ROOT
HETATM    1  O   UNL     1     -12.333  13.847  63.313  1.00  0.00    -0.749 OA 
HETATM    2  C   UNL     1     -12.607  13.800  64.634  1.00  0.00    -0.246 C  
HETATM    3  C   UNL     1     -11.899  12.731  65.399  1.00  0.00    -0.456 A  
HETATM    4  O   UNL     1     -13.383  14.580  65.163  1.00  0.00    -0.430 OA 
HETATM    5  C   UNL     1     -12.151  12.652  66.783  1.00  0.00    -0.236 A  
HETATM    6  C   UNL     1     -11.519  11.688  67.585  1.00  0.00    -0.303 A  
HETATM    7  C   UNL     1     -10.629  10.800  66.970  1.00  0.00    -0.312 A  
HETATM    8  C   UNL     1     -10.996  11.828  64.821  1.00  0.00    -0.303 A  
HETATM    9  H   UNL     1     -10.102  11.281  63.089  1.00  0.00     0.000 HD 
HETATM   10  C   UNL     1     -10.365  10.860  65.600  1.00  0.00    -0.305 A  
HETATM   11  O   UNL     1     -10.714  11.893  63.481  1.00  0.00    -0.384 OA 
ENDROOT
BRANCH   6  12
HETATM   12  N   UNL     1     -11.652  11.602  68.988  1.00  0.00    -0.287 NA 
HETATM   13  H   UNL     1     -11.008  12.053  69.638  1.00  0.00     0.000 HD 
BRANCH  12  14
HETATM   14  N   UNL     1     -12.631  10.922  69.357  1.00  0.00    -0.577 NA 
HETATM   15  H   UNL     1     -13.568  11.014  68.966  1.00  0.00     0.000 HD 
BRANCH  14  16
HETATM   16  C   UNL     1     -12.289  10.007  70.380  1.00  0.00    -0.135 A  
HETATM   17  C   UNL     1     -12.714   9.201  72.643  1.00  0.00    -0.254 A  
HETATM   18  C   UNL     1     -13.036  10.031  71.564  1.00  0.00    -0.535 A  
HETATM   19  C   UNL     1     -11.623   8.338  72.549  1.00  0.00    -0.385 A  
HETATM   20  C   UNL     1     -10.856   8.283  71.379  1.00  0.00    -0.293 A  
HETATM   21  O   UNL     1     -11.301   7.545  73.623  1.00  0.00    -0.561 OA 
HETATM   22  C   UNL     1      -9.676   7.388  71.193  1.00  0.00    -0.163 C  
HETATM   23  C   UNL     1     -11.198   9.125  70.304  1.00  0.00    -0.249 A  
HETATM   24  H   UNL     1     -10.557   6.957  73.559  1.00  0.00     0.000 HD 
HETATM   25  O   UNL     1      -9.348   6.631  72.261  1.00  0.00    -0.139 OA 
HETATM   26  O   UNL     1      -9.045   7.344  70.149  1.00  0.00    -0.148 OA 
ENDBRANCH  14  16
ENDBRANCH  12  14
ENDBRANCH   6  12
TORSDOF 3
ENDMDL
MODEL       75
REMARK 921   NORMALIZED FREE ENERGY PREDICTED BY IDOCK:   -6.42 KCAL/MOL
REMARK 922        TOTAL FREE ENERGY PREDICTED BY IDOCK:   -7.91 KCAL/MOL
REMARK 923 INTER-LIGAND FREE ENERGY PREDICTED BY IDOCK:   -7.54 KCAL/MOL
REMARK 924 INTRA-LIGAND FREE ENERGY PREDICTED BY IDOCK:   -0.36 KCAL/MOL
REMARK 927      BINDING AFFINITY PREDICTED BY RF-SCORE:    0.00 PKD
ROOT
HETATM    1  O   UNL     1      -9.880   4.023  69.633  1.00  0.00    -0.210 OA 
HETATM    2  C   UNL     1     -10.260   5.284  69.338  1.00  0.00    -0.251 C  
HETATM    3  C   UNL     1     -10.608   6.141  70.510  1.00  0.00    -0.312 A  
HETATM    4  O   UNL     1     -10.314   5.692  68.189  1.00  0.00    -0.181 OA 
HETATM    5  C   UNL     1     -11.003   7.468  70.246  1.00  0.00    -0.264 A  
HETATM    6  C   UNL     1     -11.334   8.350  71.286  1.00  0.00    -0.266 A  
HETATM    7  C   UNL     1     -11.266   7.875  72.601  1.00  0.00    -0.459 A  
HETATM    8  C   UNL     1     -10.546   5.704  71.839  1.00  0.00    -0.232 A  
HETATM    9  H   UNL     1     -10.103   4.128  73.031  1.00  0.00     0.000 HD 
HETATM   10  C   UNL     1     -10.879   6.563  72.885  1.00  0.00    -0.288 A  
HETATM   11  O   UNL     1     -10.145   4.424  72.129  1.00  0.00    -0.184 OA 
ENDROOT
BRANCH   6  12
HETATM   12  N   UNL     1     -11.653   9.714  71.109  1.00  0.00    -0.349 NA 
HETATM   13  H   UNL     1     -11.703  10.380  71.880  1.00  0.00     0.000 HD 
BRANCH  12  14
HETATM   14  N   UNL     1     -11.867  10.027  69.920  1.00  0.00    -0.450 NA 
HETATM   15  H   UNL     1     -11.916   9.356  69.154  1.00  0.00     0.000 HD 
BRANCH  14  16
HETATM   16  C   UNL     1     -12.033  11.423  69.759  1.00  0.00    -0.353 A  
HETATM   17  C   UNL     1     -11.805  13.365  68.301  1.00  0.00    -0.393 A  
HETATM   18  C   UNL     1     -11.726  11.985  68.514  1.00  0.00    -0.387 A  
HETATM   19  C   UNL     1     -12.185  14.205  69.347  1.00  0.00    -0.287 A  
HETATM   20  C   UNL     1     -12.504  13.678  70.604  1.00  0.00    -0.417 A  
HETATM   21  O   UNL     1     -12.235  15.560  69.134  1.00  0.00    -0.565 OA 
HETATM   22  C   UNL     1     -12.923  14.504  71.775  1.00  0.00    -0.341 C  
HETATM   23  C   UNL     1     -12.421  12.286  70.796  1.00  0.00    -0.356 A  
HETATM   24  H   UNL     1     -12.494  16.133  69.846  1.00  0.00     0.000 HD 
HETATM   25  O   UNL     1     -12.944  15.837  71.568  1.00  0.00    -0.470 OA 
HETATM   26  O   UNL     1     -13.222  14.009  72.851  1.00  0.00    -0.530 OA 
ENDBRANCH  14  16
ENDBRANCH  12  14
ENDBRANCH   6  12
TORSDOF 3
ENDMDL
MODEL       76
REMARK 921   NORMALIZED FREE ENERGY PREDICTED BY IDOCK:   -6.41 KCAL/MOL
REMARK 922        TOTAL FREE ENERGY PREDICTED BY IDOCK:   -7.90 KCAL/MOL
REMARK 923 INTER-LIGAND FREE ENERGY PREDICTED BY IDOCK:   -7.39 KCAL/MOL
REMARK 924 INTRA-LIGAND FREE ENERGY PREDICTED BY IDOCK:   -0.51 KCAL/MOL
REMARK 927      BINDING AFFINITY PREDICTED BY RF-SCORE:    0.00 PKD
ROOT
HETATM    1  O   UNL     1     -10.036  18.120  68.024  1.00  0.00    -0.310 OA 
HETATM    2  C   UNL     1     -10.514  16.909  68.377  1.00  0.00    -0.355 C  
HETATM    3  C   UNL     1     -10.936  16.029  67.247  1.00  0.00    -0.207 A  
HETATM    4  O   UNL     1     -10.595  16.560  69.544  1.00  0.00    -0.304 OA 
HETATM    5  C   UNL     1     -11.434  14.752  67.573  1.00  0.00    -0.369 A  
HETATM    6  C   UNL     1     -11.841  13.852  66.575  1.00  0.00    -0.414 A  
HETATM    7  C   UNL     1     -11.742  14.260  65.239  1.00  0.00    -0.357 A  
HETATM    8  C   UNL     1     -10.846  16.398  65.899  1.00  0.00    -0.114 A  
HETATM    9  H   UNL     1     -10.284  17.877  64.634  1.00  0.00     0.000 HD 
HETATM   10  C   UNL     1     -11.252  15.521  64.894  1.00  0.00    -0.396 A  
HETATM   11  O   UNL     1     -10.346  17.627  65.549  1.00  0.00    -0.627 OA 
ENDROOT
BRANCH   6  12
HETATM   12  N   UNL     1     -12.267  12.528  66.816  1.00  0.00    -0.481 NA 
HETATM   13  H   UNL     1     -13.215  12.292  67.108  1.00  0.00     0.000 HD 
BRANCH  12  14
HETATM   14  N   UNL     1     -11.374  11.675  66.638  1.00  0.00    -0.400 NA 
HETATM   15  H   UNL     1     -10.822  11.598  65.784  1.00  0.00     0.000 HD 
BRANCH  14  16
HETATM   16  C   UNL     1     -11.215  10.828  67.759  1.00  0.00    -0.316 A  
HETATM   17  C   UNL     1     -10.276   8.764  68.659  1.00  0.00    -0.214 A  
HETATM   18  C   UNL     1     -10.425   9.681  67.614  1.00  0.00    -0.317 A  
HETATM   19  C   UNL     1     -10.933   8.983  69.870  1.00  0.00    -0.193 A  
HETATM   20  C   UNL     1     -11.727  10.122  70.053  1.00  0.00    -0.294 A  
HETATM   21  O   UNL     1     -10.800   8.065  70.881  1.00  0.00    -0.223 OA 
HETATM   22  C   UNL     1     -12.461  10.435  71.315  1.00  0.00    -0.415 C  
HETATM   23  C   UNL     1     -11.862  11.033  68.989  1.00  0.00    -0.399 A  
HETATM   24  H   UNL     1     -11.247   8.214  71.705  1.00  0.00     0.000 HD 
HETATM   25  O   UNL     1     -12.349   9.515  72.296  1.00  0.00    -0.299 OA 
HETATM   26  O   UNL     1     -13.123  11.452  71.451  1.00  0.00    -0.385 OA 
ENDBRANCH  14  16
ENDBRANCH  12  14
ENDBRANCH   6  12
TORSDOF 3
ENDMDL
MODEL       77
REMARK 921   NORMALIZED FREE ENERGY PREDICTED BY IDOCK:   -6.38 KCAL/MOL
REMARK 922        TOTAL FREE ENERGY PREDICTED BY IDOCK:   -7.86 KCAL/MOL
REMARK 923 INTER-LIGAND FREE ENERGY PREDICTED BY IDOCK:   -7.36 KCAL/MOL
REMARK 924 INTRA-LIGAND FREE ENERGY PREDICTED BY IDOCK:   -0.51 KCAL/MOL
REMARK 927      BINDING AFFINITY PREDICTED BY RF-SCORE:    0.00 PKD
ROOT
HETATM    1  O   UNL     1      -8.264   9.319  62.956  1.00  0.00    -0.155 OA 
HETATM    2  C   UNL     1      -9.106  10.215  63.512  1.00  0.00    -0.275 C  
HETATM    3  C   UNL     1      -9.550   9.904  64.904  1.00  0.00    -0.356 A  
HETATM    4  O   UNL     1      -9.479  11.211  62.914  1.00  0.00    -0.321 OA 
HETATM    5  C   UNL     1     -10.424  10.818  65.524  1.00  0.00    -0.264 A  
HETATM    6  C   UNL     1     -10.881  10.614  66.835  1.00  0.00    -0.205 A  
HETATM    7  C   UNL     1     -10.446   9.470  67.515  1.00  0.00    -0.336 A  
HETATM    8  C   UNL     1      -9.131   8.773  65.619  1.00  0.00    -0.191 A  
HETATM    9  H   UNL     1      -7.980   7.110  65.535  1.00  0.00     0.000 HD 
HETATM   10  C   UNL     1      -9.580   8.550  66.919  1.00  0.00    -0.257 A  
HETATM   11  O   UNL     1      -8.264   7.876  65.050  1.00  0.00    -0.140 OA 
ENDROOT
BRANCH   6  12
HETATM   12  N   UNL     1     -11.685  11.525  67.554  1.00  0.00    -0.604 NA 
HETATM   13  H   UNL     1     -11.828  11.468  68.562  1.00  0.00     0.000 HD 
BRANCH  12  14
HETATM   14  N   UNL     1     -12.204  12.406  66.839  1.00  0.00    -0.454 NA 
HETATM   15  H   UNL     1     -12.939  12.225  66.156  1.00  0.00     0.000 HD 
BRANCH  14  16
HETATM   16  C   UNL     1     -11.654  13.686  67.087  1.00  0.00    -0.361 A  
HETATM   17  C   UNL     1     -10.805  15.275  68.731  1.00  0.00    -0.254 A  
HETATM   18  C   UNL     1     -11.294  14.007  68.401  1.00  0.00    -0.321 A  
HETATM   19  C   UNL     1     -10.681  16.247  67.739  1.00  0.00    -0.325 A  
HETATM   20  C   UNL     1     -11.026  15.961  66.413  1.00  0.00    -0.115 A  
HETATM   21  O   UNL     1     -10.223  17.496  68.079  1.00  0.00    -0.316 OA 
HETATM   22  C   UNL     1     -10.921  16.940  65.291  1.00  0.00    -0.044 C  
HETATM   23  C   UNL     1     -11.514  14.678  66.102  1.00  0.00    -0.339 A  
HETATM   24  H   UNL     1     -10.138  18.159  67.403  1.00  0.00     0.000 HD 
HETATM   25  O   UNL     1     -10.497  18.173  65.635  1.00  0.00    -0.626 OA 
HETATM   26  O   UNL     1     -11.204  16.648  64.140  1.00  0.00    -1.103 OA 
ENDBRANCH  14  16
ENDBRANCH  12  14
ENDBRANCH   6  12
TORSDOF 3
ENDMDL
MODEL       78
REMARK 921   NORMALIZED FREE ENERGY PREDICTED BY IDOCK:   -6.38 KCAL/MOL
REMARK 922        TOTAL FREE ENERGY PREDICTED BY IDOCK:   -7.86 KCAL/MOL
REMARK 923 INTER-LIGAND FREE ENERGY PREDICTED BY IDOCK:   -7.40 KCAL/MOL
REMARK 924 INTRA-LIGAND FREE ENERGY PREDICTED BY IDOCK:   -0.46 KCAL/MOL
REMARK 927      BINDING AFFINITY PREDICTED BY RF-SCORE:    0.00 PKD
ROOT
HETATM    1  O   UNL     1      -8.284   8.096  73.073  1.00  0.00    -0.166 OA 
HETATM    2  C   UNL     1      -8.580   8.833  71.982  1.00  0.00    -0.062 C  
HETATM    3  C   UNL     1     -10.036   8.998  71.694  1.00  0.00    -0.383 A  
HETATM    4  O   UNL     1      -7.713   9.329  71.280  1.00  0.00    -0.314 OA 
HETATM    5  C   UNL     1     -10.389   9.768  70.567  1.00  0.00    -0.348 A  
HETATM    6  C   UNL     1     -11.733   9.989  70.228  1.00  0.00    -0.251 A  
HETATM    7  C   UNL     1     -12.721   9.419  71.041  1.00  0.00    -0.270 A  
HETATM    8  C   UNL     1     -11.053   8.450  72.486  1.00  0.00    -0.326 A  
HETATM    9  H   UNL     1     -11.431   7.341  74.138  1.00  0.00     0.000 HD 
HETATM   10  C   UNL     1     -12.393   8.652  72.161  1.00  0.00    -0.452 A  
HETATM   11  O   UNL     1     -10.741   7.713  73.601  1.00  0.00    -0.292 OA 
ENDROOT
BRANCH   6  12
HETATM   12  N   UNL     1     -12.166  10.817  69.171  1.00  0.00    -0.716 NA 
HETATM   13  H   UNL     1     -13.011  10.635  68.629  1.00  0.00     0.000 HD 
BRANCH  12  14
HETATM   14  N   UNL     1     -11.418  11.794  68.962  1.00  0.00    -0.270 NA 
HETATM   15  H   UNL     1     -10.937  12.311  69.698  1.00  0.00     0.000 HD 
BRANCH  14  16
HETATM   16  C   UNL     1     -11.315  12.101  67.585  1.00  0.00    -0.314 A  
HETATM   17  C   UNL     1     -11.869  13.639  65.775  1.00  0.00    -0.397 A  
HETATM   18  C   UNL     1     -11.877  13.301  67.131  1.00  0.00    -0.424 A  
HETATM   19  C   UNL     1     -11.304  12.765  64.847  1.00  0.00    -0.306 A  
HETATM   20  C   UNL     1     -10.729  11.559  65.264  1.00  0.00    -0.337 A  
HETATM   21  O   UNL     1     -11.324  13.095  63.515  1.00  0.00    -0.604 OA 
HETATM   22  C   UNL     1     -10.100  10.568  64.341  1.00  0.00    -0.325 C  
HETATM   23  C   UNL     1     -10.744  11.238  66.635  1.00  0.00    -0.321 A  
HETATM   24  H   UNL     1     -10.939  12.500  62.883  1.00  0.00     0.000 HD 
HETATM   25  O   UNL     1     -10.147  10.885  63.030  1.00  0.00    -0.310 OA 
HETATM   26  O   UNL     1      -9.583   9.537  64.741  1.00  0.00    -0.216 OA 
ENDBRANCH  14  16
ENDBRANCH  12  14
ENDBRANCH   6  12
TORSDOF 3
ENDMDL
MODEL       79
REMARK 921   NORMALIZED FREE ENERGY PREDICTED BY IDOCK:   -6.35 KCAL/MOL
REMARK 922        TOTAL FREE ENERGY PREDICTED BY IDOCK:   -7.82 KCAL/MOL
REMARK 923 INTER-LIGAND FREE ENERGY PREDICTED BY IDOCK:   -7.28 KCAL/MOL
REMARK 924 INTRA-LIGAND FREE ENERGY PREDICTED BY IDOCK:   -0.54 KCAL/MOL
REMARK 927      BINDING AFFINITY PREDICTED BY RF-SCORE:    0.00 PKD
ROOT
HETATM    1  O   UNL     1     -13.548  11.939  72.045  1.00  0.00    -0.339 OA 
HETATM    2  C   UNL     1     -12.565  12.072  71.130  1.00  0.00    -0.271 C  
HETATM    3  C   UNL     1     -11.869  10.809  70.746  1.00  0.00    -0.443 A  
HETATM    4  O   UNL     1     -12.268  13.155  70.652  1.00  0.00    -0.361 OA 
HETATM    5  C   UNL     1     -10.840  10.903  69.787  1.00  0.00    -0.247 A  
HETATM    6  C   UNL     1     -10.140   9.766  69.354  1.00  0.00    -0.209 A  
HETATM    7  C   UNL     1     -10.490   8.527  69.906  1.00  0.00    -0.219 A  
HETATM    8  C   UNL     1     -12.194   9.551  71.270  1.00  0.00    -0.348 A  
HETATM    9  H   UNL     1     -13.424   8.570  72.545  1.00  0.00     0.000 HD 
HETATM   10  C   UNL     1     -11.505   8.411  70.859  1.00  0.00    -0.295 A  
HETATM   11  O   UNL     1     -13.204   9.424  72.189  1.00  0.00    -0.403 OA 
ENDROOT
BRANCH   6  12
HETATM   12  N   UNL     1      -9.162   9.766  68.337  1.00  0.00    -0.129 NA 
HETATM   13  H   UNL     1      -8.670   8.925  68.036  1.00  0.00     0.000 HD 
BRANCH  12  14
HETATM   14  N   UNL     1      -8.955  10.893  67.842  1.00  0.00    -0.138 NA 
HETATM   15  H   UNL     1      -8.394  11.617  68.290  1.00  0.00     0.000 HD 
BRANCH  14  16
HETATM   16  C   UNL     1      -9.589  11.048  66.588  1.00  0.00    -0.189 A  
HETATM   17  C   UNL     1      -9.870  10.222  64.310  1.00  0.00    -0.357 A  
HETATM   18  C   UNL     1      -9.330  10.097  65.593  1.00  0.00    -0.250 A  
HETATM   19  C   UNL     1     -10.675  11.318  64.003  1.00  0.00    -0.377 A  
HETATM   20  C   UNL     1     -10.961  12.286  64.973  1.00  0.00    -0.344 A  
HETATM   21  O   UNL     1     -11.181  11.444  62.732  1.00  0.00    -0.655 OA 
HETATM   22  C   UNL     1     -11.814  13.487  64.730  1.00  0.00    -0.381 C  
HETATM   23  C   UNL     1     -10.409  12.140  66.259  1.00  0.00    -0.250 A  
HETATM   24  H   UNL     1     -11.729  12.191  62.523  1.00  0.00     0.000 HD 
HETATM   25  O   UNL     1     -12.286  13.620  63.473  1.00  0.00    -0.696 OA 
HETATM   26  O   UNL     1     -12.067  14.298  65.607  1.00  0.00    -0.380 OA 
ENDBRANCH  14  16
ENDBRANCH  12  14
ENDBRANCH   6  12
TORSDOF 3
ENDMDL
MODEL       80
REMARK 921   NORMALIZED FREE ENERGY PREDICTED BY IDOCK:   -6.35 KCAL/MOL
REMARK 922        TOTAL FREE ENERGY PREDICTED BY IDOCK:   -7.82 KCAL/MOL
REMARK 923 INTER-LIGAND FREE ENERGY PREDICTED BY IDOCK:   -7.40 KCAL/MOL
REMARK 924 INTRA-LIGAND FREE ENERGY PREDICTED BY IDOCK:   -0.42 KCAL/MOL
REMARK 927      BINDING AFFINITY PREDICTED BY RF-SCORE:    0.00 PKD
ROOT
HETATM    1  O   UNL     1     -13.251  15.755  71.407  1.00  0.00    -0.495 OA 
HETATM    2  C   UNL     1     -12.652  14.975  70.483  1.00  0.00    -0.369 C  
HETATM    3  C   UNL     1     -12.706  13.507  70.747  1.00  0.00    -0.316 A  
HETATM    4  O   UNL     1     -12.102  15.443  69.498  1.00  0.00    -0.333 OA 
HETATM    5  C   UNL     1     -12.099  12.656  69.802  1.00  0.00    -0.301 A  
HETATM    6  C   UNL     1     -12.114  11.262  69.961  1.00  0.00    -0.348 A  
HETATM    7  C   UNL     1     -12.749  10.733  71.092  1.00  0.00    -0.532 A  
HETATM    8  C   UNL     1     -13.337  12.941  71.863  1.00  0.00    -0.435 A  
HETATM    9  H   UNL     1     -14.383  13.357  73.546  1.00  0.00     0.000 HD 
HETATM   10  C   UNL     1     -13.356  11.559  72.042  1.00  0.00    -0.397 A  
HETATM   11  O   UNL     1     -13.955  13.741  72.790  1.00  0.00    -0.714 OA 
ENDROOT
BRANCH   6  12
HETATM   12  N   UNL     1     -11.606  10.342  69.018  1.00  0.00    -0.468 NA 
HETATM   13  H   UNL     1     -11.100   9.496  69.280  1.00  0.00     0.000 HD 
BRANCH  12  14
HETATM   14  N   UNL     1     -11.836  10.662  67.834  1.00  0.00    -0.715 NA 
HETATM   15  H   UNL     1     -12.710  11.080  67.517  1.00  0.00     0.000 HD 
BRANCH  14  16
HETATM   16  C   UNL     1     -10.742  10.378  66.984  1.00  0.00    -0.235 A  
HETATM   17  C   UNL     1      -9.139  11.217  65.348  1.00  0.00    -0.193 A  
HETATM   18  C   UNL     1     -10.179  11.434  66.256  1.00  0.00    -0.274 A  
HETATM   19  C   UNL     1      -8.654   9.924  65.148  1.00  0.00    -0.153 A  
HETATM   20  C   UNL     1      -9.189   8.845  65.861  1.00  0.00    -0.290 A  
HETATM   21  O   UNL     1      -7.649   9.718  64.236  1.00  0.00    -0.123 OA 
HETATM   22  C   UNL     1      -8.728   7.433  65.712  1.00  0.00    -0.109 C  
HETATM   23  C   UNL     1     -10.234   9.086  66.773  1.00  0.00    -0.341 A  
HETATM   24  H   UNL     1      -7.319   8.838  64.100  1.00  0.00     0.000 HD 
HETATM   25  O   UNL     1      -7.759   7.232  64.795  1.00  0.00    -0.100 OA 
HETATM   26  O   UNL     1      -9.198   6.518  66.370  1.00  0.00    -0.155 OA 
ENDBRANCH  14  16
ENDBRANCH  12  14
ENDBRANCH   6  12
TORSDOF 3
ENDMDL
MODEL       81
REMARK 921   NORMALIZED FREE ENERGY PREDICTED BY IDOCK:   -6.33 KCAL/MOL
REMARK 922        TOTAL FREE ENERGY PREDICTED BY IDOCK:   -7.81 KCAL/MOL
REMARK 923 INTER-LIGAND FREE ENERGY PREDICTED BY IDOCK:   -7.26 KCAL/MOL
REMARK 924 INTRA-LIGAND FREE ENERGY PREDICTED BY IDOCK:   -0.54 KCAL/MOL
REMARK 927      BINDING AFFINITY PREDICTED BY RF-SCORE:    0.00 PKD
ROOT
HETATM    1  O   UNL     1      -8.733   8.489  66.317  1.00  0.00    -0.126 OA 
HETATM    2  C   UNL     1      -9.738   9.353  66.574  1.00  0.00    -0.236 C  
HETATM    3  C   UNL     1     -10.105  10.264  65.449  1.00  0.00    -0.354 A  
HETATM    4  O   UNL     1     -10.305   9.385  67.654  1.00  0.00    -0.215 OA 
HETATM    5  C   UNL     1     -11.155  11.177  65.673  1.00  0.00    -0.078 A  
HETATM    6  C   UNL     1     -11.578  12.061  64.669  1.00  0.00    -0.297 A  
HETATM    7  C   UNL     1     -10.924  12.016  63.431  1.00  0.00    -0.475 A  
HETATM    8  C   UNL     1      -9.479  10.244  64.196  1.00  0.00    -0.301 A  
HETATM    9  H   UNL     1      -8.044   9.339  63.091  1.00  0.00     0.000 HD 
HETATM   10  C   UNL     1      -9.880  11.120  63.189  1.00  0.00    -0.403 A  
HETATM   11  O   UNL     1      -8.468   9.353  63.941  1.00  0.00    -0.174 OA 
ENDROOT
BRANCH   6  12
HETATM   12  N   UNL     1     -12.675  12.941  64.786  1.00  0.00    -0.706 NA 
HETATM   13  H   UNL     1     -13.594  12.645  65.117  1.00  0.00     0.000 HD 
BRANCH  12  14
HETATM   14  N   UNL     1     -12.416  14.113  64.447  1.00  0.00    -0.672 NA 
HETATM   15  H   UNL     1     -12.652  14.508  63.537  1.00  0.00     0.000 HD 
BRANCH  14  16
HETATM   16  C   UNL     1     -11.756  14.831  65.472  1.00  0.00    -0.274 A  
HETATM   17  C   UNL     1     -10.089  16.512  66.058  1.00  0.00    -0.368 A  
HETATM   18  C   UNL     1     -10.826  15.809  65.100  1.00  0.00    -0.444 A  
HETATM   19  C   UNL     1     -10.270  16.232  67.412  1.00  0.00    -0.275 A  
HETATM   20  C   UNL     1     -11.195  15.263  67.821  1.00  0.00    -0.327 A  
HETATM   21  O   UNL     1      -9.524  16.910  68.343  1.00  0.00    -0.241 OA 
HETATM   22  C   UNL     1     -11.453  14.903  69.247  1.00  0.00    -0.303 C  
HETATM   23  C   UNL     1     -11.928  14.569  66.841  1.00  0.00    -0.371 A  
HETATM   24  H   UNL     1      -9.647  16.719  69.266  1.00  0.00     0.000 HD 
HETATM   25  O   UNL     1     -10.697  15.554  70.156  1.00  0.00    -0.293 OA 
HETATM   26  O   UNL     1     -12.287  14.073  69.571  1.00  0.00    -0.332 OA 
ENDBRANCH  14  16
ENDBRANCH  12  14
ENDBRANCH   6  12
TORSDOF 3
ENDMDL
MODEL       82
REMARK 921   NORMALIZED FREE ENERGY PREDICTED BY IDOCK:   -6.33 KCAL/MOL
REMARK 922        TOTAL FREE ENERGY PREDICTED BY IDOCK:   -7.80 KCAL/MOL
REMARK 923 INTER-LIGAND FREE ENERGY PREDICTED BY IDOCK:   -7.18 KCAL/MOL
REMARK 924 INTRA-LIGAND FREE ENERGY PREDICTED BY IDOCK:   -0.63 KCAL/MOL
REMARK 927      BINDING AFFINITY PREDICTED BY RF-SCORE:    0.00 PKD
ROOT
HETATM    1  O   UNL     1      -9.333   6.994  68.352  1.00  0.00    -0.132 OA 
HETATM    2  C   UNL     1      -9.496   8.188  68.959  1.00  0.00    -0.155 C  
HETATM    3  C   UNL     1      -8.827   9.345  68.294  1.00  0.00    -0.128 A  
HETATM    4  O   UNL     1     -10.148   8.310  69.984  1.00  0.00    -0.190 OA 
HETATM    5  C   UNL     1      -8.979  10.612  68.892  1.00  0.00    -0.172 A  
HETATM    6  C   UNL     1      -8.397  11.758  68.329  1.00  0.00    -0.159 A  
HETATM    7  C   UNL     1      -7.654  11.610  67.151  1.00  0.00    -0.152 A  
HETATM    8  C   UNL     1      -8.081   9.238  67.113  1.00  0.00    -0.109 A  
HETATM    9  H   UNL     1      -7.427   7.949  65.694  1.00  0.00     0.000 HD 
HETATM   10  C   UNL     1      -7.489  10.364  66.543  1.00  0.00    -0.119 A  
HETATM   11  O   UNL     1      -7.932   8.022  66.495  1.00  0.00    -0.098 OA 
ENDROOT
BRANCH   6  12
HETATM   12  N   UNL     1      -8.576  13.070  68.818  1.00  0.00    -0.373 NA 
HETATM   13  H   UNL     1      -7.810  13.642  69.174  1.00  0.00     0.000 HD 
BRANCH  12  14
HETATM   14  N   UNL     1      -9.759  13.463  68.773  1.00  0.00    -0.418 NA 
HETATM   15  H   UNL     1     -10.420  13.369  69.545  1.00  0.00     0.000 HD 
BRANCH  14  16
HETATM   16  C   UNL     1     -10.078  14.055  67.529  1.00  0.00    -0.237 A  
HETATM   17  C   UNL     1      -9.774  15.942  66.013  1.00  0.00    -0.375 A  
HETATM   18  C   UNL     1      -9.459  15.267  67.196  1.00  0.00    -0.223 A  
HETATM   19  C   UNL     1     -10.730  15.411  65.148  1.00  0.00    -0.440 A  
HETATM   20  C   UNL     1     -11.366  14.200  65.445  1.00  0.00    -0.322 A  
HETATM   21  O   UNL     1     -11.050  16.095  64.001  1.00  0.00    -1.137 OA 
HETATM   22  C   UNL     1     -12.397  13.561  64.575  1.00  0.00    -0.355 C  
HETATM   23  C   UNL     1     -11.033  13.535  66.640  1.00  0.00    -0.293 A  
HETATM   24  H   UNL     1     -11.701  15.733  63.411  1.00  0.00     0.000 HD 
HETATM   25  O   UNL     1     -12.727  14.250  63.463  1.00  0.00    -0.767 OA 
HETATM   26  O   UNL     1     -12.912  12.489  64.851  1.00  0.00    -0.821 OA 
ENDBRANCH  14  16
ENDBRANCH  12  14
ENDBRANCH   6  12
TORSDOF 3
ENDMDL
MODEL       83
REMARK 921   NORMALIZED FREE ENERGY PREDICTED BY IDOCK:   -6.33 KCAL/MOL
REMARK 922        TOTAL FREE ENERGY PREDICTED BY IDOCK:   -7.80 KCAL/MOL
REMARK 923 INTER-LIGAND FREE ENERGY PREDICTED BY IDOCK:   -7.56 KCAL/MOL
REMARK 924 INTRA-LIGAND FREE ENERGY PREDICTED BY IDOCK:   -0.24 KCAL/MOL
REMARK 927      BINDING AFFINITY PREDICTED BY RF-SCORE:    0.00 PKD
ROOT
HETATM    1  O   UNL     1     -12.419  11.079  69.265  1.00  0.00    -0.400 OA 
HETATM    2  C   UNL     1     -11.839  11.609  68.167  1.00  0.00    -0.244 C  
HETATM    3  C   UNL     1     -11.635  13.088  68.198  1.00  0.00    -0.379 A  
HETATM    4  O   UNL     1     -11.504  10.922  67.215  1.00  0.00    -0.458 OA 
HETATM    5  C   UNL     1     -11.025  13.681  67.074  1.00  0.00    -0.298 A  
HETATM    6  C   UNL     1     -10.781  15.062  67.021  1.00  0.00    -0.304 A  
HETATM    7  C   UNL     1     -11.165  15.842  68.119  1.00  0.00    -0.339 A  
HETATM    8  C   UNL     1     -12.000  13.901  69.280  1.00  0.00    -0.357 A  
HETATM    9  H   UNL     1     -12.823  13.902  71.129  1.00  0.00     0.000 HD 
HETATM   10  C   UNL     1     -11.772  15.275  69.242  1.00  0.00    -0.359 A  
HETATM   11  O   UNL     1     -12.577  13.351  70.396  1.00  0.00    -0.259 OA 
ENDROOT
BRANCH   6  12
HETATM   12  N   UNL     1     -10.098  15.715  65.973  1.00  0.00    -0.307 NA 
HETATM   13  H   UNL     1      -9.268  15.329  65.523  1.00  0.00     0.000 HD 
BRANCH  12  14
HETATM   14  N   UNL     1     -10.604  16.808  65.651  1.00  0.00    -0.463 NA 
HETATM   15  H   UNL     1     -11.465  16.900  65.113  1.00  0.00     0.000 HD 
BRANCH  14  16
HETATM   16  C   UNL     1      -9.844  17.906  66.118  1.00  0.00    -0.249 A  
HETATM   17  C   UNL     1      -9.825  20.241  66.823  1.00  0.00    -0.586 A  
HETATM   18  C   UNL     1     -10.518  19.096  66.419  1.00  0.00    -0.548 A  
HETATM   19  C   UNL     1      -8.435  20.209  66.922  1.00  0.00    -0.314 A  
HETATM   20  C   UNL     1      -7.727  19.036  66.634  1.00  0.00    -0.260 A  
HETATM   21  O   UNL     1      -7.762  21.346  67.296  1.00  0.00    -0.729 OA 
HETATM   22  C   UNL     1      -6.242  18.913  66.716  1.00  0.00    -0.181 C  
HETATM   23  C   UNL     1      -8.444  17.894  66.231  1.00  0.00    -0.218 A  
HETATM   24  H   UNL     1      -6.815  21.324  67.363  1.00  0.00     0.000 HD 
HETATM   25  O   UNL     1      -5.584  20.040  67.058  1.00  0.00    -0.171 OA 
HETATM   26  O   UNL     1      -5.658  17.866  66.485  1.00  0.00    -0.137 OA 
ENDBRANCH  14  16
ENDBRANCH  12  14
ENDBRANCH   6  12
TORSDOF 3
ENDMDL
MODEL       84
REMARK 921   NORMALIZED FREE ENERGY PREDICTED BY IDOCK:   -6.31 KCAL/MOL
REMARK 922        TOTAL FREE ENERGY PREDICTED BY IDOCK:   -7.77 KCAL/MOL
REMARK 923 INTER-LIGAND FREE ENERGY PREDICTED BY IDOCK:   -7.44 KCAL/MOL
REMARK 924 INTRA-LIGAND FREE ENERGY PREDICTED BY IDOCK:   -0.33 KCAL/MOL
REMARK 927      BINDING AFFINITY PREDICTED BY RF-SCORE:    0.00 PKD
ROOT
HETATM    1  O   UNL     1     -12.824  14.697  63.456  1.00  0.00    -0.570 OA 
HETATM    2  C   UNL     1     -12.488  14.003  64.563  1.00  0.00    -0.308 C  
HETATM    3  C   UNL     1     -11.480  14.657  65.450  1.00  0.00    -0.352 A  
HETATM    4  O   UNL     1     -12.976  12.914  64.819  1.00  0.00    -0.743 OA 
HETATM    5  C   UNL     1     -11.107  13.969  66.622  1.00  0.00    -0.312 A  
HETATM    6  C   UNL     1     -10.177  14.514  67.522  1.00  0.00    -0.232 A  
HETATM    7  C   UNL     1      -9.625  15.765  67.223  1.00  0.00    -0.220 A  
HETATM    8  C   UNL     1     -10.910  15.910  65.188  1.00  0.00    -0.421 A  
HETATM    9  H   UNL     1     -10.882  17.463  63.889  1.00  0.00     0.000 HD 
HETATM   10  C   UNL     1      -9.980  16.464  66.066  1.00  0.00    -0.369 A  
HETATM   11  O   UNL     1     -11.269  16.613  64.067  1.00  0.00    -1.052 OA 
ENDROOT
BRANCH   6  12
HETATM   12  N   UNL     1      -9.820  13.929  68.755  1.00  0.00    -0.379 NA 
HETATM   13  H   UNL     1     -10.252  14.189  69.642  1.00  0.00     0.000 HD 
BRANCH  12  14
HETATM   14  N   UNL     1      -8.925  13.065  68.658  1.00  0.00    -0.383 NA 
HETATM   15  H   UNL     1      -7.938  13.244  68.839  1.00  0.00     0.000 HD 
BRANCH  14  16
HETATM   16  C   UNL     1      -9.440  11.806  68.269  1.00  0.00    -0.193 A  
HETATM   17  C   UNL     1     -11.102  10.060  68.642  1.00  0.00    -0.223 A  
HETATM   18  C   UNL     1     -10.576  11.323  68.929  1.00  0.00    -0.239 A  
HETATM   19  C   UNL     1     -10.481   9.254  67.688  1.00  0.00    -0.264 A  
HETATM   20  C   UNL     1      -9.346   9.705  67.004  1.00  0.00    -0.180 A  
HETATM   21  O   UNL     1     -10.991   8.006  67.430  1.00  0.00    -0.512 OA 
HETATM   22  C   UNL     1      -8.623   8.910  65.967  1.00  0.00    -0.145 C  
HETATM   23  C   UNL     1      -8.835  10.981  67.306  1.00  0.00    -0.135 A  
HETATM   24  H   UNL     1     -10.569   7.457  66.781  1.00  0.00     0.000 HD 
HETATM   25  O   UNL     1      -9.112   7.674  65.738  1.00  0.00    -0.112 OA 
HETATM   26  O   UNL     1      -7.652   9.345  65.369  1.00  0.00    -0.096 OA 
ENDBRANCH  14  16
ENDBRANCH  12  14
ENDBRANCH   6  12
TORSDOF 3
ENDMDL
MODEL       85
REMARK 921   NORMALIZED FREE ENERGY PREDICTED BY IDOCK:   -6.30 KCAL/MOL
REMARK 922        TOTAL FREE ENERGY PREDICTED BY IDOCK:   -7.77 KCAL/MOL
REMARK 923 INTER-LIGAND FREE ENERGY PREDICTED BY IDOCK:   -7.41 KCAL/MOL
REMARK 924 INTRA-LIGAND FREE ENERGY PREDICTED BY IDOCK:   -0.37 KCAL/MOL
REMARK 927      BINDING AFFINITY PREDICTED BY RF-SCORE:    0.00 PKD
ROOT
HETATM    1  O   UNL     1     -10.783  18.779  65.472  1.00  0.00    -0.569 OA 
HETATM    2  C   UNL     1     -10.783  17.429  65.502  1.00  0.00    -0.078 C  
HETATM    3  C   UNL     1     -10.166  16.813  66.714  1.00  0.00    -0.304 A  
HETATM    4  O   UNL     1     -11.255  16.761  64.596  1.00  0.00    -0.835 OA 
HETATM    5  C   UNL     1     -10.151  15.406  66.789  1.00  0.00    -0.266 A  
HETATM    6  C   UNL     1      -9.605  14.741  67.897  1.00  0.00    -0.210 A  
HETATM    7  C   UNL     1      -9.069  15.515  68.933  1.00  0.00    -0.219 A  
HETATM    8  C   UNL     1      -9.625  17.554  67.773  1.00  0.00    -0.269 A  
HETATM    9  H   UNL     1      -9.276  19.428  68.458  1.00  0.00     0.000 HD 
HETATM   10  C   UNL     1      -9.071  16.911  68.879  1.00  0.00    -0.223 A  
HETATM   11  O   UNL     1      -9.642  18.925  67.740  1.00  0.00    -0.300 OA 
ENDROOT
BRANCH   6  12
HETATM   12  N   UNL     1      -9.633  13.342  68.085  1.00  0.00    -0.218 NA 
HETATM   13  H   UNL     1      -8.821  12.804  68.388  1.00  0.00     0.000 HD 
BRANCH  12  14
HETATM   14  N   UNL     1     -10.743  12.827  67.845  1.00  0.00    -0.215 NA 
HETATM   15  H   UNL     1     -11.094  12.642  66.906  1.00  0.00     0.000 HD 
BRANCH  14  16
HETATM   16  C   UNL     1     -11.459  12.529  69.028  1.00  0.00    -0.304 A  
HETATM   17  C   UNL     1     -12.729  13.376  70.931  1.00  0.00    -0.349 A  
HETATM   18  C   UNL     1     -12.061  13.587  69.721  1.00  0.00    -0.381 A  
HETATM   19  C   UNL     1     -12.793  12.092  71.471  1.00  0.00    -0.289 A  
HETATM   20  C   UNL     1     -12.207  11.009  70.805  1.00  0.00    -0.480 A  
HETATM   21  O   UNL     1     -13.430  11.901  72.672  1.00  0.00    -0.530 OA 
HETATM   22  C   UNL     1     -12.231   9.605  71.309  1.00  0.00    -0.363 C  
HETATM   23  C   UNL     1     -11.541  11.243  69.587  1.00  0.00    -0.401 A  
HETATM   24  H   UNL     1     -13.473  11.026  73.040  1.00  0.00     0.000 HD 
HETATM   25  O   UNL     1     -12.835   9.426  72.503  1.00  0.00    -0.349 OA 
HETATM   26  O   UNL     1     -11.734   8.678  70.689  1.00  0.00    -0.255 OA 
ENDBRANCH  14  16
ENDBRANCH  12  14
ENDBRANCH   6  12
TORSDOF 3
ENDMDL
MODEL       86
REMARK 921   NORMALIZED FREE ENERGY PREDICTED BY IDOCK:   -6.26 KCAL/MOL
REMARK 922        TOTAL FREE ENERGY PREDICTED BY IDOCK:   -7.72 KCAL/MOL
REMARK 923 INTER-LIGAND FREE ENERGY PREDICTED BY IDOCK:   -7.29 KCAL/MOL
REMARK 924 INTRA-LIGAND FREE ENERGY PREDICTED BY IDOCK:   -0.43 KCAL/MOL
REMARK 927      BINDING AFFINITY PREDICTED BY RF-SCORE:    0.00 PKD
ROOT
HETATM    1  O   UNL     1     -12.102  11.016  69.748  1.00  0.00    -0.317 OA 
HETATM    2  C   UNL     1     -11.829  12.273  69.340  1.00  0.00    -0.310 C  
HETATM    3  C   UNL     1     -11.199  12.389  67.991  1.00  0.00    -0.317 A  
HETATM    4  O   UNL     1     -12.081  13.248  70.030  1.00  0.00    -0.322 OA 
HETATM    5  C   UNL     1     -10.904  13.685  67.524  1.00  0.00    -0.275 A  
HETATM    6  C   UNL     1     -10.325  13.890  66.262  1.00  0.00    -0.293 A  
HETATM    7  C   UNL     1     -10.041  12.767  65.475  1.00  0.00    -0.278 A  
HETATM    8  C   UNL     1     -10.906  11.289  67.172  1.00  0.00    -0.270 A  
HETATM    9  H   UNL     1     -11.002   9.271  67.035  1.00  0.00     0.000 HD 
HETATM   10  C   UNL     1     -10.324  11.473  65.920  1.00  0.00    -0.293 A  
HETATM   11  O   UNL     1     -11.200  10.017  67.591  1.00  0.00    -0.248 OA 
ENDROOT
BRANCH   6  12
HETATM   12  N   UNL     1     -10.082  15.157  65.689  1.00  0.00    -0.337 NA 
HETATM   13  H   UNL     1     -10.745  15.626  65.071  1.00  0.00     0.000 HD 
BRANCH  12  14
HETATM   14  N   UNL     1      -8.981  15.648  66.009  1.00  0.00    -0.377 NA 
HETATM   15  H   UNL     1      -8.113  15.115  66.061  1.00  0.00     0.000 HD 
BRANCH  14  16
HETATM   16  C   UNL     1      -9.075  17.031  66.289  1.00  0.00    -0.246 A  
HETATM   17  C   UNL     1     -10.505  18.999  66.468  1.00  0.00    -0.522 A  
HETATM   18  C   UNL     1     -10.343  17.626  66.264  1.00  0.00    -0.342 A  
HETATM   19  C   UNL     1      -9.386  19.802  66.690  1.00  0.00    -0.387 A  
HETATM   20  C   UNL     1      -8.104  19.242  66.727  1.00  0.00    -0.290 A  
HETATM   21  O   UNL     1      -9.554  21.153  66.864  1.00  0.00    -0.619 OA 
HETATM   22  C   UNL     1      -6.855  20.027  66.961  1.00  0.00    -0.221 C  
HETATM   23  C   UNL     1      -7.963  17.857  66.522  1.00  0.00    -0.303 A  
HETATM   24  H   UNL     1      -8.792  21.700  67.015  1.00  0.00     0.000 HD 
HETATM   25  O   UNL     1      -7.024  21.357  67.105  1.00  0.00    -0.547 OA 
HETATM   26  O   UNL     1      -5.754  19.502  67.015  1.00  0.00    -0.175 OA 
ENDBRANCH  14  16
ENDBRANCH  12  14
ENDBRANCH   6  12
TORSDOF 3
ENDMDL
MODEL       87
REMARK 921   NORMALIZED FREE ENERGY PREDICTED BY IDOCK:   -6.23 KCAL/MOL
REMARK 922        TOTAL FREE ENERGY PREDICTED BY IDOCK:   -7.69 KCAL/MOL
REMARK 923 INTER-LIGAND FREE ENERGY PREDICTED BY IDOCK:   -7.14 KCAL/MOL
REMARK 924 INTRA-LIGAND FREE ENERGY PREDICTED BY IDOCK:   -0.55 KCAL/MOL
REMARK 927      BINDING AFFINITY PREDICTED BY RF-SCORE:    0.00 PKD
ROOT
HETATM    1  O   UNL     1     -12.811  10.148  72.247  1.00  0.00    -0.341 OA 
HETATM    2  C   UNL     1     -12.734  11.026  71.225  1.00  0.00    -0.432 C  
HETATM    3  C   UNL     1     -11.944  10.570  70.044  1.00  0.00    -0.367 A  
HETATM    4  O   UNL     1     -13.275  12.120  71.268  1.00  0.00    -0.206 OA 
HETATM    5  C   UNL     1     -11.844  11.454  68.951  1.00  0.00    -0.413 A  
HETATM    6  C   UNL     1     -11.134  11.104  67.792  1.00  0.00    -0.285 A  
HETATM    7  C   UNL     1     -10.519   9.847  67.750  1.00  0.00    -0.292 A  
HETATM    8  C   UNL     1     -11.320   9.318  69.962  1.00  0.00    -0.113 A  
HETATM    9  H   UNL     1     -10.993   7.578  70.944  1.00  0.00     0.000 HD 
HETATM   10  C   UNL     1     -10.603   8.955  68.822  1.00  0.00    -0.185 A  
HETATM   11  O   UNL     1     -11.416   8.427  71.000  1.00  0.00    -0.263 OA 
ENDROOT
BRANCH   6  12
HETATM   12  N   UNL     1     -11.063  11.896  66.626  1.00  0.00    -0.295 NA 
HETATM   13  H   UNL     1     -11.880  12.140  66.067  1.00  0.00     0.000 HD 
BRANCH  12  14
HETATM   14  N   UNL     1      -9.906  12.269  66.345  1.00  0.00    -0.225 NA 
HETATM   15  H   UNL     1      -9.163  11.641  66.040  1.00  0.00     0.000 HD 
BRANCH  14  16
HETATM   16  C   UNL     1      -9.744  13.666  66.498  1.00  0.00    -0.292 A  
HETATM   17  C   UNL     1      -8.819  15.496  67.819  1.00  0.00    -0.173 A  
HETATM   18  C   UNL     1      -8.969  14.129  67.568  1.00  0.00    -0.198 A  
HETATM   19  C   UNL     1      -9.460  16.424  66.999  1.00  0.00    -0.230 A  
HETATM   20  C   UNL     1     -10.240  15.999  65.917  1.00  0.00    -0.386 A  
HETATM   21  O   UNL     1      -9.327  17.763  67.269  1.00  0.00    -0.248 OA 
HETATM   22  C   UNL     1     -10.958  16.922  64.989  1.00  0.00    -0.046 C  
HETATM   23  C   UNL     1     -10.376  14.618  65.680  1.00  0.00    -0.370 A  
HETATM   24  H   UNL     1      -9.764  18.395  66.710  1.00  0.00     0.000 HD 
HETATM   25  O   UNL     1     -10.845  18.236  65.275  1.00  0.00    -0.629 OA 
HETATM   26  O   UNL     1     -11.607  16.519  64.037  1.00  0.00    -1.154 OA 
ENDBRANCH  14  16
ENDBRANCH  12  14
ENDBRANCH   6  12
TORSDOF 3
ENDMDL
MODEL       88
REMARK 921   NORMALIZED FREE ENERGY PREDICTED BY IDOCK:   -6.22 KCAL/MOL
REMARK 922        TOTAL FREE ENERGY PREDICTED BY IDOCK:   -7.68 KCAL/MOL
REMARK 923 INTER-LIGAND FREE ENERGY PREDICTED BY IDOCK:   -7.26 KCAL/MOL
REMARK 924 INTRA-LIGAND FREE ENERGY PREDICTED BY IDOCK:   -0.42 KCAL/MOL
REMARK 927      BINDING AFFINITY PREDICTED BY RF-SCORE:    0.00 PKD
ROOT
HETATM    1  O   UNL     1      -5.704  19.260  67.119  1.00  0.00    -0.171 OA 
HETATM    2  C   UNL     1      -6.536  18.368  66.542  1.00  0.00    -0.195 C  
HETATM    3  C   UNL     1      -7.979  18.751  66.528  1.00  0.00    -0.294 A  
HETATM    4  O   UNL     1      -6.133  17.320  66.064  1.00  0.00    -0.191 OA 
HETATM    5  C   UNL     1      -8.882  17.851  65.928  1.00  0.00     0.147 A  
HETATM    6  C   UNL     1     -10.255  18.134  65.856  1.00  0.00    -0.234 A  
HETATM    7  C   UNL     1     -10.709  19.341  66.404  1.00  0.00    -0.479 A  
HETATM    8  C   UNL     1      -8.471  19.951  67.059  1.00  0.00    -0.328 A  
HETATM    9  H   UNL     1      -7.948  21.671  67.992  1.00  0.00     0.000 HD 
HETATM   10  C   UNL     1      -9.832  20.247  67.005  1.00  0.00    -0.607 A  
HETATM   11  O   UNL     1      -7.615  20.857  67.632  1.00  0.00    -0.272 OA 
ENDROOT
BRANCH   6  12
HETATM   12  N   UNL     1     -11.206  17.328  65.196  1.00  0.00    -0.301 NA 
HETATM   13  H   UNL     1     -12.209  17.514  65.220  1.00  0.00     0.000 HD 
BRANCH  12  14
HETATM   14  N   UNL     1     -10.704  16.366  64.579  1.00  0.00    -0.876 NA 
HETATM   15  H   UNL     1     -10.150  16.461  63.728  1.00  0.00     0.000 HD 
BRANCH  14  16
HETATM   16  C   UNL     1     -10.993  15.127  65.199  1.00  0.00    -0.417 A  
HETATM   17  C   UNL     1     -12.491  13.209  65.359  1.00  0.00    -0.535 A  
HETATM   18  C   UNL     1     -12.107  14.408  64.750  1.00  0.00    -0.462 A  
HETATM   19  C   UNL     1     -11.761  12.718  66.441  1.00  0.00    -0.403 A  
HETATM   20  C   UNL     1     -10.638  13.407  66.913  1.00  0.00    -0.273 A  
HETATM   21  O   UNL     1     -12.160  11.552  67.046  1.00  0.00    -0.443 OA 
HETATM   22  C   UNL     1      -9.799  12.953  68.062  1.00  0.00    -0.223 C  
HETATM   23  C   UNL     1     -10.267  14.611  66.285  1.00  0.00    -0.302 A  
HETATM   24  H   UNL     1     -11.662  11.218  67.783  1.00  0.00     0.000 HD 
HETATM   25  O   UNL     1     -10.212  11.821  68.670  1.00  0.00    -0.214 OA 
HETATM   26  O   UNL     1      -8.809  13.564  68.431  1.00  0.00    -0.182 OA 
ENDBRANCH  14  16
ENDBRANCH  12  14
ENDBRANCH   6  12
TORSDOF 3
ENDMDL
MODEL       89
REMARK 921   NORMALIZED FREE ENERGY PREDICTED BY IDOCK:   -6.22 KCAL/MOL
REMARK 922        TOTAL FREE ENERGY PREDICTED BY IDOCK:   -7.68 KCAL/MOL
REMARK 923 INTER-LIGAND FREE ENERGY PREDICTED BY IDOCK:   -7.13 KCAL/MOL
REMARK 924 INTRA-LIGAND FREE ENERGY PREDICTED BY IDOCK:   -0.54 KCAL/MOL
REMARK 927      BINDING AFFINITY PREDICTED BY RF-SCORE:    0.00 PKD
ROOT
HETATM    1  O   UNL     1     -11.470  16.607  63.883  1.00  0.00    -1.186 OA 
HETATM    2  C   UNL     1     -10.902  16.312  65.071  1.00  0.00    -0.320 C  
HETATM    3  C   UNL     1     -11.233  14.966  65.626  1.00  0.00    -0.347 A  
HETATM    4  O   UNL     1     -10.167  17.097  65.650  1.00  0.00    -0.564 OA 
HETATM    5  C   UNL     1     -10.654  14.616  66.862  1.00  0.00    -0.281 A  
HETATM    6  C   UNL     1     -10.897  13.366  67.452  1.00  0.00    -0.268 A  
HETATM    7  C   UNL     1     -11.738  12.471  66.779  1.00  0.00    -0.453 A  
HETATM    8  C   UNL     1     -12.065  14.042  64.980  1.00  0.00    -0.415 A  
HETATM    9  H   UNL     1     -13.190  13.718  63.328  1.00  0.00     0.000 HD 
HETATM   10  C   UNL     1     -12.324  12.799  65.554  1.00  0.00    -0.495 A  
HETATM   11  O   UNL     1     -12.627  14.346  63.766  1.00  0.00    -0.829 OA 
ENDROOT
BRANCH   6  12
HETATM   12  N   UNL     1     -10.287  12.908  68.640  1.00  0.00    -0.353 NA 
HETATM   13  H   UNL     1     -10.815  12.568  69.443  1.00  0.00     0.000 HD 
BRANCH  12  14
HETATM   14  N   UNL     1      -9.040  12.960  68.613  1.00  0.00    -0.396 NA 
HETATM   15  H   UNL     1      -8.499  13.782  68.881  1.00  0.00     0.000 HD 
BRANCH  14  16
HETATM   16  C   UNL     1      -8.466  11.746  68.169  1.00  0.00    -0.158 A  
HETATM   17  C   UNL     1      -6.637  10.651  66.983  1.00  0.00    -0.081 A  
HETATM   18  C   UNL     1      -7.233  11.802  67.507  1.00  0.00    -0.123 A  
HETATM   19  C   UNL     1      -7.282   9.420  67.109  1.00  0.00    -0.087 A  
HETATM   20  C   UNL     1      -8.512   9.325  67.769  1.00  0.00    -0.116 A  
HETATM   21  O   UNL     1      -6.699   8.300  66.570  1.00  0.00    -0.061 OA 
HETATM   22  C   UNL     1      -9.268   8.050  67.951  1.00  0.00    -0.131 C  
HETATM   23  C   UNL     1      -9.094  10.496  68.291  1.00  0.00    -0.146 A  
HETATM   24  H   UNL     1      -7.139   7.462  66.656  1.00  0.00     0.000 HD 
HETATM   25  O   UNL     1      -8.705   6.957  67.396  1.00  0.00    -0.120 OA 
HETATM   26  O   UNL     1     -10.327   7.998  68.556  1.00  0.00    -0.204 OA 
ENDBRANCH  14  16
ENDBRANCH  12  14
ENDBRANCH   6  12
TORSDOF 3
ENDMDL
MODEL       90
REMARK 921   NORMALIZED FREE ENERGY PREDICTED BY IDOCK:   -6.21 KCAL/MOL
REMARK 922        TOTAL FREE ENERGY PREDICTED BY IDOCK:   -7.66 KCAL/MOL
REMARK 923 INTER-LIGAND FREE ENERGY PREDICTED BY IDOCK:   -7.22 KCAL/MOL
REMARK 924 INTRA-LIGAND FREE ENERGY PREDICTED BY IDOCK:   -0.45 KCAL/MOL
REMARK 927      BINDING AFFINITY PREDICTED BY RF-SCORE:    0.00 PKD
ROOT
HETATM    1  O   UNL     1      -9.419   9.306  65.012  1.00  0.00    -0.209 OA 
HETATM    2  C   UNL     1      -9.940  10.119  65.955  1.00  0.00    -0.267 C  
HETATM    3  C   UNL     1     -10.613  11.349  65.443  1.00  0.00    -0.333 A  
HETATM    4  O   UNL     1      -9.862   9.862  67.146  1.00  0.00    -0.171 OA 
HETATM    5  C   UNL     1     -11.178  12.221  66.394  1.00  0.00    -0.370 A  
HETATM    6  C   UNL     1     -11.843  13.394  66.004  1.00  0.00    -0.383 A  
HETATM    7  C   UNL     1     -11.930  13.679  64.635  1.00  0.00    -0.441 A  
HETATM    8  C   UNL     1     -10.726  11.664  64.082  1.00  0.00    -0.362 A  
HETATM    9  H   UNL     1     -10.282  11.039  62.208  1.00  0.00     0.000 HD 
HETATM   10  C   UNL     1     -11.376  12.828  63.675  1.00  0.00    -0.514 A  
HETATM   11  O   UNL     1     -10.205  10.825  63.131  1.00  0.00    -0.299 OA 
ENDROOT
BRANCH   6  12
HETATM   12  N   UNL     1     -12.508  14.270  66.888  1.00  0.00    -0.543 NA 
HETATM   13  H   UNL     1     -13.314  14.833  66.615  1.00  0.00     0.000 HD 
BRANCH  12  14
HETATM   14  N   UNL     1     -12.017  14.291  68.035  1.00  0.00    -0.497 NA 
HETATM   15  H   UNL     1     -12.361  13.726  68.812  1.00  0.00     0.000 HD 
BRANCH  14  16
HETATM   16  C   UNL     1     -10.928  15.188  68.133  1.00  0.00    -0.287 A  
HETATM   17  C   UNL     1      -8.572  15.509  68.675  1.00  0.00    -0.179 A  
HETATM   18  C   UNL     1      -9.678  14.673  68.496  1.00  0.00    -0.225 A  
HETATM   19  C   UNL     1      -8.711  16.886  68.501  1.00  0.00    -0.251 A  
HETATM   20  C   UNL     1      -9.944  17.436  68.133  1.00  0.00    -0.308 A  
HETATM   21  O   UNL     1      -7.624  17.700  68.703  1.00  0.00    -0.261 OA 
HETATM   22  C   UNL     1     -10.179  18.896  67.923  1.00  0.00    -0.394 C  
HETATM   23  C   UNL     1     -11.044  16.577  67.955  1.00  0.00    -0.275 A  
HETATM   24  H   UNL     1      -7.719  18.638  68.584  1.00  0.00     0.000 HD 
HETATM   25  O   UNL     1      -9.116  19.694  68.149  1.00  0.00    -0.322 OA 
HETATM   26  O   UNL     1     -11.262  19.340  67.574  1.00  0.00    -0.326 OA 
ENDBRANCH  14  16
ENDBRANCH  12  14
ENDBRANCH   6  12
TORSDOF 3
ENDMDL
MODEL       91
REMARK 921   NORMALIZED FREE ENERGY PREDICTED BY IDOCK:   -6.20 KCAL/MOL
REMARK 922        TOTAL FREE ENERGY PREDICTED BY IDOCK:   -7.65 KCAL/MOL
REMARK 923 INTER-LIGAND FREE ENERGY PREDICTED BY IDOCK:   -7.19 KCAL/MOL
REMARK 924 INTRA-LIGAND FREE ENERGY PREDICTED BY IDOCK:   -0.47 KCAL/MOL
REMARK 927      BINDING AFFINITY PREDICTED BY RF-SCORE:    0.00 PKD
ROOT
HETATM    1  O   UNL     1      -7.420   8.150  70.863  1.00  0.00    -0.056 OA 
HETATM    2  C   UNL     1      -8.411   8.979  70.471  1.00  0.00    -0.183 C  
HETATM    3  C   UNL     1      -9.716   8.797  71.172  1.00  0.00    -0.315 A  
HETATM    4  O   UNL     1      -8.247   9.819  69.600  1.00  0.00    -0.124 OA 
HETATM    5  C   UNL     1     -10.775   9.647  70.798  1.00  0.00    -0.401 A  
HETATM    6  C   UNL     1     -12.034   9.558  71.414  1.00  0.00    -0.386 A  
HETATM    7  C   UNL     1     -12.212   8.594  72.414  1.00  0.00    -0.419 A  
HETATM    8  C   UNL     1      -9.931   7.849  72.181  1.00  0.00    -0.207 A  
HETATM    9  H   UNL     1      -9.060   6.378  73.266  1.00  0.00     0.000 HD 
HETATM   10  C   UNL     1     -11.176   7.740  72.799  1.00  0.00    -0.456 A  
HETATM   11  O   UNL     1      -8.914   7.020  72.582  1.00  0.00    -0.124 OA 
ENDROOT
BRANCH   6  12
HETATM   12  N   UNL     1     -13.114  10.429  71.157  1.00  0.00    -0.392 NA 
HETATM   13  H   UNL     1     -13.662  10.400  70.297  1.00  0.00     0.000 HD 
BRANCH  12  14
HETATM   14  N   UNL     1     -13.336  11.237  72.082  1.00  0.00    -0.569 NA 
HETATM   15  H   UNL     1     -13.758  10.980  72.974  1.00  0.00     0.000 HD 
BRANCH  14  16
HETATM   16  C   UNL     1     -12.933  12.551  71.749  1.00  0.00    -0.313 A  
HETATM   17  C   UNL     1     -12.057  14.063  70.047  1.00  0.00    -0.412 A  
HETATM   18  C   UNL     1     -12.529  12.805  70.432  1.00  0.00    -0.231 A  
HETATM   19  C   UNL     1     -11.973  15.088  70.989  1.00  0.00    -0.322 A  
HETATM   20  C   UNL     1     -12.373  14.873  72.313  1.00  0.00    -0.426 A  
HETATM   21  O   UNL     1     -11.485  16.313  70.606  1.00  0.00    -0.455 OA 
HETATM   22  C   UNL     1     -12.319  15.914  73.382  1.00  0.00    -0.538 C  
HETATM   23  C   UNL     1     -12.847  13.600  72.679  1.00  0.00    -0.249 A  
HETATM   24  H   UNL     1     -11.428  17.011  71.247  1.00  0.00     0.000 HD 
HETATM   25  O   UNL     1     -11.814  17.107  73.007  1.00  0.00    -0.100 OA 
HETATM   26  O   UNL     1     -12.703  15.700  74.522  1.00  0.00    -0.508 OA 
ENDBRANCH  14  16
ENDBRANCH  12  14
ENDBRANCH   6  12
TORSDOF 3
ENDMDL
MODEL       92
REMARK 921   NORMALIZED FREE ENERGY PREDICTED BY IDOCK:   -6.20 KCAL/MOL
REMARK 922        TOTAL FREE ENERGY PREDICTED BY IDOCK:   -7.65 KCAL/MOL
REMARK 923 INTER-LIGAND FREE ENERGY PREDICTED BY IDOCK:   -7.39 KCAL/MOL
REMARK 924 INTRA-LIGAND FREE ENERGY PREDICTED BY IDOCK:   -0.25 KCAL/MOL
REMARK 927      BINDING AFFINITY PREDICTED BY RF-SCORE:    0.00 PKD
ROOT
HETATM    1  O   UNL     1      -9.410   8.118  66.257  1.00  0.00    -0.195 OA 
HETATM    2  C   UNL     1     -10.081   9.265  66.491  1.00  0.00    -0.273 C  
HETATM    3  C   UNL     1     -10.076  10.253  65.372  1.00  0.00    -0.354 A  
HETATM    4  O   UNL     1     -10.653   9.477  67.549  1.00  0.00    -0.259 OA 
HETATM    5  C   UNL     1     -10.772  11.462  65.573  1.00  0.00    -0.313 A  
HETATM    6  C   UNL     1     -10.832  12.444  64.571  1.00  0.00    -0.321 A  
HETATM    7  C   UNL     1     -10.177  12.191  63.360  1.00  0.00    -0.422 A  
HETATM    8  C   UNL     1      -9.437  10.034  64.144  1.00  0.00    -0.252 A  
HETATM    9  H   UNL     1      -8.337   8.711  63.078  1.00  0.00     0.000 HD 
HETATM   10  C   UNL     1      -9.480  11.000  63.140  1.00  0.00    -0.363 A  
HETATM   11  O   UNL     1      -8.769   8.859  63.911  1.00  0.00    -0.151 OA 
ENDROOT
BRANCH   6  12
HETATM   12  N   UNL     1     -11.580  13.637  64.664  1.00  0.00    -0.356 NA 
HETATM   13  H   UNL     1     -12.582  13.655  64.853  1.00  0.00     0.000 HD 
BRANCH  12  14
HETATM   14  N   UNL     1     -10.899  14.668  64.492  1.00  0.00    -0.625 NA 
HETATM   15  H   UNL     1     -10.503  14.946  63.594  1.00  0.00     0.000 HD 
BRANCH  14  16
HETATM   16  C   UNL     1     -10.739  15.407  65.688  1.00  0.00    -0.369 A  
HETATM   17  C   UNL     1     -10.848  15.422  68.124  1.00  0.00    -0.285 A  
HETATM   18  C   UNL     1     -10.926  14.742  66.906  1.00  0.00    -0.328 A  
HETATM   19  C   UNL     1     -10.591  16.793  68.136  1.00  0.00    -0.350 A  
HETATM   20  C   UNL     1     -10.394  17.490  66.938  1.00  0.00    -0.315 A  
HETATM   21  O   UNL     1     -10.541  17.456  69.337  1.00  0.00    -0.389 OA 
HETATM   22  C   UNL     1     -10.111  18.954  66.860  1.00  0.00    -0.364 C  
HETATM   23  C   UNL     1     -10.474  16.786  65.722  1.00  0.00    -0.305 A  
HETATM   24  H   UNL     1     -10.366  18.390  69.344  1.00  0.00     0.000 HD 
HETATM   25  O   UNL     1     -10.090  19.606  68.041  1.00  0.00    -0.386 OA 
HETATM   26  O   UNL     1      -9.917  19.527  65.799  1.00  0.00    -0.418 OA 
ENDBRANCH  14  16
ENDBRANCH  12  14
ENDBRANCH   6  12
TORSDOF 3
ENDMDL
MODEL       93
REMARK 921   NORMALIZED FREE ENERGY PREDICTED BY IDOCK:   -6.18 KCAL/MOL
REMARK 922        TOTAL FREE ENERGY PREDICTED BY IDOCK:   -7.63 KCAL/MOL
REMARK 923 INTER-LIGAND FREE ENERGY PREDICTED BY IDOCK:   -7.21 KCAL/MOL
REMARK 924 INTRA-LIGAND FREE ENERGY PREDICTED BY IDOCK:   -0.42 KCAL/MOL
REMARK 927      BINDING AFFINITY PREDICTED BY RF-SCORE:    0.00 PKD
ROOT
HETATM    1  O   UNL     1     -12.628  12.464  63.192  1.00  0.00    -0.591 OA 
HETATM    2  C   UNL     1     -12.281  13.551  63.913  1.00  0.00    -0.399 C  
HETATM    3  C   UNL     1     -11.259  13.318  64.976  1.00  0.00    -0.325 A  
HETATM    4  O   UNL     1     -12.773  14.649  63.707  1.00  0.00    -0.778 OA 
HETATM    5  C   UNL     1     -10.863  14.428  65.748  1.00  0.00    -0.308 A  
HETATM    6  C   UNL     1      -9.898  14.306  66.759  1.00  0.00    -0.270 A  
HETATM    7  C   UNL     1      -9.337  13.043  66.987  1.00  0.00    -0.236 A  
HETATM    8  C   UNL     1     -10.671  12.071  65.229  1.00  0.00    -0.288 A  
HETATM    9  H   UNL     1     -10.621  10.131  64.653  1.00  0.00     0.000 HD 
HETATM   10  C   UNL     1      -9.716  11.928  66.235  1.00  0.00    -0.247 A  
HETATM   11  O   UNL     1     -11.021  10.976  64.482  1.00  0.00    -0.270 OA 
ENDROOT
BRANCH   6  12
HETATM   12  N   UNL     1      -9.386  15.384  67.513  1.00  0.00    -0.202 NA 
HETATM   13  H   UNL     1      -9.920  15.858  68.241  1.00  0.00     0.000 HD 
BRANCH  12  14
HETATM   14  N   UNL     1      -8.220  15.701  67.205  1.00  0.00    -0.193 NA 
HETATM   15  H   UNL     1      -7.500  15.031  66.933  1.00  0.00     0.000 HD 
BRANCH  14  16
HETATM   16  C   UNL     1      -8.011  17.098  67.275  1.00  0.00    -0.179 A  
HETATM   17  C   UNL     1      -8.332  19.279  66.231  1.00  0.00    -0.327 A  
HETATM   18  C   UNL     1      -8.553  17.899  66.262  1.00  0.00    -0.207 A  
HETATM   19  C   UNL     1      -7.549  19.876  67.218  1.00  0.00    -0.271 A  
HETATM   20  C   UNL     1      -6.995  19.108  68.249  1.00  0.00    -0.292 A  
HETATM   21  O   UNL     1      -7.318  21.229  67.165  1.00  0.00    -0.726 OA 
HETATM   22  C   UNL     1      -6.148  19.666  69.345  1.00  0.00    -0.293 C  
HETATM   23  C   UNL     1      -7.231  17.721  68.263  1.00  0.00    -0.237 A  
HETATM   24  H   UNL     1      -6.785  21.635  67.837  1.00  0.00     0.000 HD 
HETATM   25  O   UNL     1      -5.902  20.990  69.273  1.00  0.00    -0.333 OA 
HETATM   26  O   UNL     1      -5.703  18.971  70.246  1.00  0.00    -0.240 OA 
ENDBRANCH  14  16
ENDBRANCH  12  14
ENDBRANCH   6  12
TORSDOF 3
ENDMDL
MODEL       94
REMARK 921   NORMALIZED FREE ENERGY PREDICTED BY IDOCK:   -6.16 KCAL/MOL
REMARK 922        TOTAL FREE ENERGY PREDICTED BY IDOCK:   -7.61 KCAL/MOL
REMARK 923 INTER-LIGAND FREE ENERGY PREDICTED BY IDOCK:   -7.28 KCAL/MOL
REMARK 924 INTRA-LIGAND FREE ENERGY PREDICTED BY IDOCK:   -0.33 KCAL/MOL
REMARK 927      BINDING AFFINITY PREDICTED BY RF-SCORE:    0.00 PKD
ROOT
HETATM    1  O   UNL     1     -14.139  13.497  72.608  1.00  0.00    -0.762 OA 
HETATM    2  C   UNL     1     -13.426  14.162  71.675  1.00  0.00    -0.369 C  
HETATM    3  C   UNL     1     -12.569  13.314  70.796  1.00  0.00    -0.357 A  
HETATM    4  O   UNL     1     -13.481  15.377  71.562  1.00  0.00    -0.453 OA 
HETATM    5  C   UNL     1     -11.813  13.968  69.803  1.00  0.00    -0.385 A  
HETATM    6  C   UNL     1     -10.990  13.250  68.921  1.00  0.00    -0.240 A  
HETATM    7  C   UNL     1     -10.936  11.857  69.056  1.00  0.00    -0.267 A  
HETATM    8  C   UNL     1     -12.493  11.918  70.896  1.00  0.00    -0.300 A  
HETATM    9  H   UNL     1     -13.180  10.304  71.907  1.00  0.00     0.000 HD 
HETATM   10  C   UNL     1     -11.675  11.189  70.035  1.00  0.00    -0.438 A  
HETATM   11  O   UNL     1     -13.232  11.250  71.839  1.00  0.00    -0.482 OA 
ENDROOT
BRANCH   6  12
HETATM   12  N   UNL     1     -10.274  13.822  67.848  1.00  0.00    -0.240 NA 
HETATM   13  H   UNL     1      -9.390  13.447  67.504  1.00  0.00     0.000 HD 
BRANCH  12  14
HETATM   14  N   UNL     1     -10.824  14.830  67.360  1.00  0.00    -0.292 NA 
HETATM   15  H   UNL     1     -11.683  14.800  66.811  1.00  0.00     0.000 HD 
BRANCH  14  16
HETATM   16  C   UNL     1     -10.118  16.019  67.657  1.00  0.00    -0.245 A  
HETATM   17  C   UNL     1     -10.152  18.224  68.701  1.00  0.00    -0.407 A  
HETATM   18  C   UNL     1     -10.764  16.998  68.423  1.00  0.00    -0.361 A  
HETATM   19  C   UNL     1      -8.878  18.490  68.199  1.00  0.00    -0.306 A  
HETATM   20  C   UNL     1      -8.200  17.534  67.434  1.00  0.00    -0.217 A  
HETATM   21  O   UNL     1      -8.297  19.707  68.457  1.00  0.00    -0.339 OA 
HETATM   22  C   UNL     1      -6.836  17.735  66.862  1.00  0.00    -0.179 C  
HETATM   23  C   UNL     1      -8.833  16.305  67.168  1.00  0.00    -0.212 A  
HETATM   24  H   UNL     1      -7.429  19.888  68.115  1.00  0.00     0.000 HD 
HETATM   25  O   UNL     1      -6.280  18.942  67.095  1.00  0.00    -0.171 OA 
HETATM   26  O   UNL     1      -6.261  16.869  66.221  1.00  0.00    -0.257 OA 
ENDBRANCH  14  16
ENDBRANCH  12  14
ENDBRANCH   6  12
TORSDOF 3
ENDMDL
MODEL       95
REMARK 921   NORMALIZED FREE ENERGY PREDICTED BY IDOCK:   -6.16 KCAL/MOL
REMARK 922        TOTAL FREE ENERGY PREDICTED BY IDOCK:   -7.60 KCAL/MOL
REMARK 923 INTER-LIGAND FREE ENERGY PREDICTED BY IDOCK:   -7.22 KCAL/MOL
REMARK 924 INTRA-LIGAND FREE ENERGY PREDICTED BY IDOCK:   -0.39 KCAL/MOL
REMARK 927      BINDING AFFINITY PREDICTED BY RF-SCORE:    0.00 PKD
ROOT
HETATM    1  O   UNL     1      -9.446  11.602  62.662  1.00  0.00    -0.288 OA 
HETATM    2  C   UNL     1     -10.107  11.932  63.792  1.00  0.00    -0.398 C  
HETATM    3  C   UNL     1      -9.986  10.958  64.916  1.00  0.00    -0.361 A  
HETATM    4  O   UNL     1     -10.759  12.960  63.884  1.00  0.00    -0.406 OA 
HETATM    5  C   UNL     1     -10.654  11.269  66.117  1.00  0.00    -0.312 A  
HETATM    6  C   UNL     1     -10.585  10.418  67.231  1.00  0.00    -0.267 A  
HETATM    7  C   UNL     1      -9.831   9.243  67.118  1.00  0.00    -0.251 A  
HETATM    8  C   UNL     1      -9.237   9.775  64.843  1.00  0.00    -0.257 A  
HETATM    9  H   UNL     1      -8.050   8.654  63.646  1.00  0.00     0.000 HD 
HETATM   10  C   UNL     1      -9.162   8.915  65.937  1.00  0.00    -0.290 A  
HETATM   11  O   UNL     1      -8.558   9.455  63.695  1.00  0.00    -0.193 OA 
ENDROOT
BRANCH   6  12
HETATM   12  N   UNL     1     -11.152  10.702  68.492  1.00  0.00    -0.244 NA 
HETATM   13  H   UNL     1     -10.778  10.334  69.367  1.00  0.00     0.000 HD 
BRANCH  12  14
HETATM   14  N   UNL     1     -12.152  11.445  68.435  1.00  0.00    -0.585 NA 
HETATM   15  H   UNL     1     -13.032  11.181  67.992  1.00  0.00     0.000 HD 
BRANCH  14  16
HETATM   16  C   UNL     1     -11.924  12.695  69.056  1.00  0.00    -0.236 A  
HETATM   17  C   UNL     1     -12.236  14.098  71.026  1.00  0.00    -0.432 A  
HETATM   18  C   UNL     1     -12.369  12.870  70.372  1.00  0.00    -0.333 A  
HETATM   19  C   UNL     1     -11.660  15.178  70.359  1.00  0.00    -0.292 A  
HETATM   20  C   UNL     1     -11.199  15.039  69.044  1.00  0.00    -0.279 A  
HETATM   21  O   UNL     1     -11.557  16.387  71.002  1.00  0.00    -0.584 OA 
HETATM   22  C   UNL     1     -10.569  16.141  68.258  1.00  0.00    -0.288 C  
HETATM   23  C   UNL     1     -11.340  13.794  68.404  1.00  0.00    -0.326 A  
HETATM   24  H   UNL     1     -11.164  17.122  70.547  1.00  0.00     0.000 HD 
HETATM   25  O   UNL     1     -10.494  17.333  68.885  1.00  0.00    -0.336 OA 
HETATM   26  O   UNL     1     -10.152  15.978  67.122  1.00  0.00    -0.258 OA 
ENDBRANCH  14  16
ENDBRANCH  12  14
ENDBRANCH   6  12
TORSDOF 3
ENDMDL
MODEL       96
REMARK 921   NORMALIZED FREE ENERGY PREDICTED BY IDOCK:   -6.14 KCAL/MOL
REMARK 922        TOTAL FREE ENERGY PREDICTED BY IDOCK:   -7.58 KCAL/MOL
REMARK 923 INTER-LIGAND FREE ENERGY PREDICTED BY IDOCK:   -7.08 KCAL/MOL
REMARK 924 INTRA-LIGAND FREE ENERGY PREDICTED BY IDOCK:   -0.50 KCAL/MOL
REMARK 927      BINDING AFFINITY PREDICTED BY RF-SCORE:    0.00 PKD
ROOT
HETATM    1  O   UNL     1     -11.911  10.151  70.832  1.00  0.00    -0.308 OA 
HETATM    2  C   UNL     1     -11.601  11.195  70.035  1.00  0.00    -0.338 C  
HETATM    3  C   UNL     1     -12.191  12.507  70.434  1.00  0.00    -0.368 A  
HETATM    4  O   UNL     1     -10.885  11.070  69.054  1.00  0.00    -0.202 OA 
HETATM    5  C   UNL     1     -11.886  13.625  69.632  1.00  0.00    -0.396 A  
HETATM    6  C   UNL     1     -12.385  14.900  69.939  1.00  0.00    -0.280 A  
HETATM    7  C   UNL     1     -13.202  15.035  71.068  1.00  0.00    -0.483 A  
HETATM    8  C   UNL     1     -13.008  12.682  71.559  1.00  0.00    -0.282 A  
HETATM    9  H   UNL     1     -13.860  11.737  73.134  1.00  0.00     0.000 HD 
HETATM   10  C   UNL     1     -13.519  13.940  71.876  1.00  0.00    -0.511 A  
HETATM   11  O   UNL     1     -13.307  11.618  72.371  1.00  0.00    -0.314 OA 
ENDROOT
BRANCH   6  12
HETATM   12  N   UNL     1     -12.054  16.080  69.238  1.00  0.00    -0.382 NA 
HETATM   13  H   UNL     1     -12.552  16.392  68.405  1.00  0.00     0.000 HD 
BRANCH  12  14
HETATM   14  N   UNL     1     -11.094  16.704  69.734  1.00  0.00    -0.391 NA 
HETATM   15  H   UNL     1     -11.007  16.920  70.727  1.00  0.00     0.000 HD 
BRANCH  14  16
HETATM   16  C   UNL     1     -10.139  17.076  68.759  1.00  0.00    -0.307 A  
HETATM   17  C   UNL     1      -9.669  18.311  66.709  1.00  0.00    -0.322 A  
HETATM   18  C   UNL     1     -10.540  17.951  67.742  1.00  0.00    -0.399 A  
HETATM   19  C   UNL     1      -8.379  17.784  66.677  1.00  0.00    -0.259 A  
HETATM   20  C   UNL     1      -7.941  16.910  67.679  1.00  0.00    -0.186 A  
HETATM   21  O   UNL     1      -7.540  18.125  65.645  1.00  0.00    -0.538 OA 
HETATM   22  C   UNL     1      -6.578  16.303  67.724  1.00  0.00    -0.142 C  
HETATM   23  C   UNL     1      -8.832  16.562  68.712  1.00  0.00    -0.255 A  
HETATM   24  H   UNL     1      -6.661  17.766  65.623  1.00  0.00     0.000 HD 
HETATM   25  O   UNL     1      -5.767  16.620  66.693  1.00  0.00    -0.331 OA 
HETATM   26  O   UNL     1      -6.219  15.566  68.628  1.00  0.00    -0.093 OA 
ENDBRANCH  14  16
ENDBRANCH  12  14
ENDBRANCH   6  12
TORSDOF 3
ENDMDL
MODEL       97
REMARK 921   NORMALIZED FREE ENERGY PREDICTED BY IDOCK:   -6.14 KCAL/MOL
REMARK 922        TOTAL FREE ENERGY PREDICTED BY IDOCK:   -7.58 KCAL/MOL
REMARK 923 INTER-LIGAND FREE ENERGY PREDICTED BY IDOCK:   -7.21 KCAL/MOL
REMARK 924 INTRA-LIGAND FREE ENERGY PREDICTED BY IDOCK:   -0.37 KCAL/MOL
REMARK 927      BINDING AFFINITY PREDICTED BY RF-SCORE:    0.00 PKD
ROOT
HETATM    1  O   UNL     1     -11.708   9.165  70.796  1.00  0.00    -0.280 OA 
HETATM    2  C   UNL     1     -12.054  10.452  70.584  1.00  0.00    -0.348 C  
HETATM    3  C   UNL     1     -11.663  11.012  69.256  1.00  0.00    -0.397 A  
HETATM    4  O   UNL     1     -12.647  11.111  71.423  1.00  0.00    -0.385 OA 
HETATM    5  C   UNL     1     -12.013  12.351  68.991  1.00  0.00    -0.291 A  
HETATM    6  C   UNL     1     -11.700  12.957  67.764  1.00  0.00    -0.362 A  
HETATM    7  C   UNL     1     -11.022  12.193  66.805  1.00  0.00    -0.325 A  
HETATM    8  C   UNL     1     -10.991  10.278  68.270  1.00  0.00    -0.264 A  
HETATM    9  H   UNL     1     -10.200   8.469  67.821  1.00  0.00     0.000 HD 
HETATM   10  C   UNL     1     -10.665  10.865  67.048  1.00  0.00    -0.323 A  
HETATM   11  O   UNL     1     -10.655   8.967  68.490  1.00  0.00    -0.209 OA 
ENDROOT
BRANCH   6  12
HETATM   12  N   UNL     1     -12.092  14.260  67.391  1.00  0.00    -0.567 NA 
HETATM   13  H   UNL     1     -12.929  14.717  67.755  1.00  0.00     0.000 HD 
BRANCH  12  14
HETATM   14  N   UNL     1     -11.319  14.801  66.574  1.00  0.00    -0.351 NA 
HETATM   15  H   UNL     1     -11.129  14.434  65.641  1.00  0.00     0.000 HD 
BRANCH  14  16
HETATM   16  C   UNL     1     -10.738  15.982  67.091  1.00  0.00    -0.283 A  
HETATM   17  C   UNL     1      -9.549  17.051  68.933  1.00  0.00    -0.248 A  
HETATM   18  C   UNL     1     -10.090  15.911  68.331  1.00  0.00    -0.223 A  
HETATM   19  C   UNL     1      -9.663  18.288  68.300  1.00  0.00    -0.335 A  
HETATM   20  C   UNL     1     -10.299  18.396  67.058  1.00  0.00    -0.419 A  
HETATM   21  O   UNL     1      -9.150  19.405  68.911  1.00  0.00    -0.370 OA 
HETATM   22  C   UNL     1     -10.462  19.678  66.310  1.00  0.00    -0.519 C  
HETATM   23  C   UNL     1     -10.835  17.236  66.467  1.00  0.00     0.059 A  
HETATM   24  H   UNL     1      -9.227  20.247  68.480  1.00  0.00     0.000 HD 
HETATM   25  O   UNL     1      -9.980  20.776  66.928  1.00  0.00    -0.357 OA 
HETATM   26  O   UNL     1     -10.999  19.733  65.214  1.00  0.00    -0.410 OA 
ENDBRANCH  14  16
ENDBRANCH  12  14
ENDBRANCH   6  12
TORSDOF 3
ENDMDL
MODEL       98
REMARK 921   NORMALIZED FREE ENERGY PREDICTED BY IDOCK:   -6.12 KCAL/MOL
REMARK 922        TOTAL FREE ENERGY PREDICTED BY IDOCK:   -7.56 KCAL/MOL
REMARK 923 INTER-LIGAND FREE ENERGY PREDICTED BY IDOCK:   -7.11 KCAL/MOL
REMARK 924 INTRA-LIGAND FREE ENERGY PREDICTED BY IDOCK:   -0.45 KCAL/MOL
REMARK 927      BINDING AFFINITY PREDICTED BY RF-SCORE:    0.00 PKD
ROOT
HETATM    1  O   UNL     1      -9.632   8.580  65.999  1.00  0.00    -0.227 OA 
HETATM    2  C   UNL     1      -9.871   9.806  65.489  1.00  0.00    -0.308 C  
HETATM    3  C   UNL     1     -10.555  10.763  66.410  1.00  0.00    -0.266 A  
HETATM    4  O   UNL     1      -9.549  10.109  64.351  1.00  0.00    -0.287 OA 
HETATM    5  C   UNL     1     -10.816  12.058  65.919  1.00  0.00    -0.329 A  
HETATM    6  C   UNL     1     -11.442  13.027  66.718  1.00  0.00    -0.345 A  
HETATM    7  C   UNL     1     -11.805  12.672  68.023  1.00  0.00    -0.376 A  
HETATM    8  C   UNL     1     -10.928  10.447  67.723  1.00  0.00    -0.309 A  
HETATM    9  H   UNL     1     -10.921   8.987  69.127  1.00  0.00     0.000 HD 
HETATM   10  C   UNL     1     -11.557  11.394  68.529  1.00  0.00    -0.384 A  
HETATM   11  O   UNL     1     -10.668   9.201  68.236  1.00  0.00    -0.199 OA 
ENDROOT
BRANCH   6  12
HETATM   12  N   UNL     1     -11.657  14.367  66.331  1.00  0.00    -0.365 NA 
HETATM   13  H   UNL     1     -12.531  14.865  66.506  1.00  0.00     0.000 HD 
BRANCH  12  14
HETATM   14  N   UNL     1     -10.680  14.885  65.754  1.00  0.00    -0.314 NA 
HETATM   15  H   UNL     1     -10.296  14.549  64.871  1.00  0.00     0.000 HD 
BRANCH  14  16
HETATM   16  C   UNL     1     -10.165  15.992  66.468  1.00  0.00    -0.293 A  
HETATM   17  C   UNL     1      -8.981  16.793  68.444  1.00  0.00    -0.233 A  
HETATM   18  C   UNL     1      -9.462  15.745  67.654  1.00  0.00    -0.218 A  
HETATM   19  C   UNL     1      -9.211  18.113  68.057  1.00  0.00    -0.279 A  
HETATM   20  C   UNL     1      -9.905  18.398  66.876  1.00  0.00    -0.347 A  
HETATM   21  O   UNL     1      -8.755  19.134  68.854  1.00  0.00    -0.353 OA 
HETATM   22  C   UNL     1     -10.191  19.779  66.386  1.00  0.00    -0.503 C  
HETATM   23  C   UNL     1     -10.379  17.329  66.093  1.00  0.00    -0.320 A  
HETATM   24  H   UNL     1      -8.912  20.033  68.590  1.00  0.00     0.000 HD 
HETATM   25  O   UNL     1      -9.765  20.779  67.186  1.00  0.00    -0.462 OA 
HETATM   26  O   UNL     1     -10.775  19.993  65.336  1.00  0.00    -0.388 OA 
ENDBRANCH  14  16
ENDBRANCH  12  14
ENDBRANCH   6  12
TORSDOF 3
ENDMDL
MODEL       99
REMARK 921   NORMALIZED FREE ENERGY PREDICTED BY IDOCK:   -6.11 KCAL/MOL
REMARK 922        TOTAL FREE ENERGY PREDICTED BY IDOCK:   -7.55 KCAL/MOL
REMARK 923 INTER-LIGAND FREE ENERGY PREDICTED BY IDOCK:   -7.21 KCAL/MOL
REMARK 924 INTRA-LIGAND FREE ENERGY PREDICTED BY IDOCK:   -0.34 KCAL/MOL
REMARK 927      BINDING AFFINITY PREDICTED BY RF-SCORE:    0.00 PKD
ROOT
HETATM    1  O   UNL     1     -13.532  10.812  71.932  1.00  0.00    -0.355 OA 
HETATM    2  C   UNL     1     -12.614  11.324  71.086  1.00  0.00    -0.397 C  
HETATM    3  C   UNL     1     -12.548  12.815  71.034  1.00  0.00    -0.362 A  
HETATM    4  O   UNL     1     -11.888  10.613  70.409  1.00  0.00    -0.290 OA 
HETATM    5  C   UNL     1     -11.597  13.391  70.168  1.00  0.00    -0.171 A  
HETATM    6  C   UNL     1     -11.455  14.784  70.065  1.00  0.00    -0.277 A  
HETATM    7  C   UNL     1     -12.289  15.592  70.848  1.00  0.00    -0.474 A  
HETATM    8  C   UNL     1     -13.361  13.656  71.806  1.00  0.00    -0.388 A  
HETATM    9  H   UNL     1     -14.832  13.697  73.197  1.00  0.00     0.000 HD 
HETATM   10  C   UNL     1     -13.239  15.042  71.712  1.00  0.00    -0.457 A  
HETATM   11  O   UNL     1     -14.281  13.126  72.673  1.00  0.00    -0.677 OA 
ENDROOT
BRANCH   6  12
HETATM   12  N   UNL     1     -10.470  15.433  69.290  1.00  0.00    -0.236 NA 
HETATM   13  H   UNL     1      -9.472  15.239  69.379  1.00  0.00     0.000 HD 
BRANCH  12  14
HETATM   14  N   UNL     1     -10.935  16.265  68.486  1.00  0.00    -0.329 NA 
HETATM   15  H   UNL     1     -11.924  16.509  68.427  1.00  0.00     0.000 HD 
BRANCH  14  16
HETATM   16  C   UNL     1      -9.932  16.831  67.665  1.00  0.00    -0.262 A  
HETATM   17  C   UNL     1      -8.002  16.454  66.222  1.00  0.00    -0.264 A  
HETATM   18  C   UNL     1      -9.057  15.965  66.998  1.00  0.00    -0.236 A  
HETATM   19  C   UNL     1      -7.804  17.830  66.113  1.00  0.00    -0.227 A  
HETATM   20  C   UNL     1      -8.662  18.726  66.761  1.00  0.00    -0.303 A  
HETATM   21  O   UNL     1      -6.751  18.299  65.368  1.00  0.00    -0.447 OA 
HETATM   22  C   UNL     1      -8.524  20.212  66.695  1.00  0.00    -0.282 C  
HETATM   23  C   UNL     1      -9.719  18.214  67.535  1.00  0.00    -0.304 A  
HETATM   24  H   UNL     1      -6.616  19.236  65.294  1.00  0.00     0.000 HD 
HETATM   25  O   UNL     1      -7.472  20.666  65.984  1.00  0.00    -0.101 OA 
HETATM   26  O   UNL     1      -9.307  20.966  67.250  1.00  0.00    -0.369 OA 
ENDBRANCH  14  16
ENDBRANCH  12  14
ENDBRANCH   6  12
TORSDOF 3
ENDMDL
MODEL      100
REMARK 921   NORMALIZED FREE ENERGY PREDICTED BY IDOCK:   -6.11 KCAL/MOL
REMARK 922        TOTAL FREE ENERGY PREDICTED BY IDOCK:   -7.55 KCAL/MOL
REMARK 923 INTER-LIGAND FREE ENERGY PREDICTED BY IDOCK:   -7.22 KCAL/MOL
REMARK 924 INTRA-LIGAND FREE ENERGY PREDICTED BY IDOCK:   -0.33 KCAL/MOL
REMARK 927      BINDING AFFINITY PREDICTED BY RF-SCORE:    0.00 PKD
ROOT
HETATM    1  O   UNL     1     -10.065  17.290  65.883  1.00  0.00    -0.478 OA 
HETATM    2  C   UNL     1     -10.113  16.202  66.680  1.00  0.00    -0.276 C  
HETATM    3  C   UNL     1     -10.896  15.048  66.147  1.00  0.00    -0.329 A  
HETATM    4  O   UNL     1      -9.552  16.167  67.764  1.00  0.00    -0.221 OA 
HETATM    5  C   UNL     1     -10.965  13.889  66.946  1.00  0.00    -0.300 A  
HETATM    6  C   UNL     1     -11.667  12.750  66.519  1.00  0.00    -0.400 A  
HETATM    7  C   UNL     1     -12.305  12.798  65.273  1.00  0.00    -0.546 A  
HETATM    8  C   UNL     1     -11.542  15.055  64.904  1.00  0.00    -0.374 A  
HETATM    9  H   UNL     1     -11.915  16.165  63.252  1.00  0.00     0.000 HD 
HETATM   10  C   UNL     1     -12.251  13.937  64.467  1.00  0.00    -0.451 A  
HETATM   11  O   UNL     1     -11.477  16.161  64.095  1.00  0.00    -0.635 OA 
ENDROOT
BRANCH   6  12
HETATM   12  N   UNL     1     -11.708  11.526  67.219  1.00  0.00    -0.603 NA 
HETATM   13  H   UNL     1     -12.577  11.037  67.438  1.00  0.00     0.000 HD 
BRANCH  12  14
HETATM   14  N   UNL     1     -10.582  11.097  67.543  1.00  0.00    -0.207 NA 
HETATM   15  H   UNL     1      -9.704  11.491  67.207  1.00  0.00     0.000 HD 
BRANCH  14  16
HETATM   16  C   UNL     1     -10.666   9.999  68.431  1.00  0.00    -0.234 A  
HETATM   17  C   UNL     1     -10.655   9.219  70.742  1.00  0.00    -0.351 A  
HETATM   18  C   UNL     1     -10.642  10.258  69.807  1.00  0.00    -0.312 A  
HETATM   19  C   UNL     1     -10.681   7.895  70.305  1.00  0.00    -0.236 A  
HETATM   20  C   UNL     1     -10.710   7.598  68.937  1.00  0.00    -0.117 A  
HETATM   21  O   UNL     1     -10.669   6.883  71.231  1.00  0.00    -0.220 OA 
HETATM   22  C   UNL     1     -10.742   6.212  68.383  1.00  0.00    -0.293 C  
HETATM   23  C   UNL     1     -10.699   8.658  68.012  1.00  0.00    -0.137 A  
HETATM   24  H   UNL     1     -10.687   5.981  70.933  1.00  0.00     0.000 HD 
HETATM   25  O   UNL     1     -10.703   5.220  69.297  1.00  0.00    -0.198 OA 
HETATM   26  O   UNL     1     -10.795   5.987  67.184  1.00  0.00    -0.301 OA 
ENDBRANCH  14  16
ENDBRANCH  12  14
ENDBRANCH   6  12
TORSDOF 3
ENDMDL
MODEL      101
REMARK 921   NORMALIZED FREE ENERGY PREDICTED BY IDOCK:   -6.10 KCAL/MOL
REMARK 922        TOTAL FREE ENERGY PREDICTED BY IDOCK:   -7.53 KCAL/MOL
REMARK 923 INTER-LIGAND FREE ENERGY PREDICTED BY IDOCK:   -7.09 KCAL/MOL
REMARK 924 INTRA-LIGAND FREE ENERGY PREDICTED BY IDOCK:   -0.45 KCAL/MOL
REMARK 927      BINDING AFFINITY PREDICTED BY RF-SCORE:    0.00 PKD
ROOT
HETATM    1  O   UNL     1     -11.268  17.047  64.145  1.00  0.00    -1.130 OA 
HETATM    2  C   UNL     1     -11.644  15.827  64.584  1.00  0.00    -0.218 C  
HETATM    3  C   UNL     1     -11.138  15.447  65.937  1.00  0.00    -0.247 A  
HETATM    4  O   UNL     1     -12.348  15.086  63.917  1.00  0.00    -0.695 OA 
HETATM    5  C   UNL     1     -11.513  14.184  66.436  1.00  0.00    -0.362 A  
HETATM    6  C   UNL     1     -11.097  13.749  67.704  1.00  0.00    -0.273 A  
HETATM    7  C   UNL     1     -10.292  14.606  68.464  1.00  0.00    -0.238 A  
HETATM    8  C   UNL     1     -10.336  16.279  66.729  1.00  0.00    -0.296 A  
HETATM    9  H   UNL     1      -9.428  18.087  66.817  1.00  0.00     0.000 HD 
HETATM   10  C   UNL     1      -9.907  15.861  67.988  1.00  0.00    -0.218 A  
HETATM   11  O   UNL     1      -9.972  17.522  66.280  1.00  0.00    -0.306 OA 
ENDROOT
BRANCH   6  12
HETATM   12  N   UNL     1     -11.502  12.539  68.308  1.00  0.00    -0.285 NA 
HETATM   13  H   UNL     1     -11.393  12.349  69.305  1.00  0.00     0.000 HD 
BRANCH  12  14
HETATM   14  N   UNL     1     -12.005  11.724  67.509  1.00  0.00    -0.607 NA 
HETATM   15  H   UNL     1     -12.940  11.818  67.113  1.00  0.00     0.000 HD 
BRANCH  14  16
HETATM   16  C   UNL     1     -11.128  10.654  67.215  1.00  0.00    -0.243 A  
HETATM   17  C   UNL     1      -9.546   9.666  65.643  1.00  0.00    -0.338 A  
HETATM   18  C   UNL     1     -10.384  10.716  66.030  1.00  0.00    -0.290 A  
HETATM   19  C   UNL     1      -9.452   8.527  66.441  1.00  0.00    -0.232 A  
HETATM   20  C   UNL     1     -10.177   8.431  67.635  1.00  0.00    -0.298 A  
HETATM   21  O   UNL     1      -8.645   7.491  66.039  1.00  0.00    -0.140 OA 
HETATM   22  C   UNL     1     -10.132   7.251  68.548  1.00  0.00    -0.172 C  
HETATM   23  C   UNL     1     -11.013   9.501  68.007  1.00  0.00    -0.155 A  
HETATM   24  H   UNL     1      -8.581   6.715  66.583  1.00  0.00     0.000 HD 
HETATM   25  O   UNL     1      -9.359   6.226  68.135  1.00  0.00    -0.118 OA 
HETATM   26  O   UNL     1     -10.756   7.212  69.597  1.00  0.00    -0.229 OA 
ENDBRANCH  14  16
ENDBRANCH  12  14
ENDBRANCH   6  12
TORSDOF 3
ENDMDL
MODEL      102
REMARK 921   NORMALIZED FREE ENERGY PREDICTED BY IDOCK:   -6.10 KCAL/MOL
REMARK 922        TOTAL FREE ENERGY PREDICTED BY IDOCK:   -7.53 KCAL/MOL
REMARK 923 INTER-LIGAND FREE ENERGY PREDICTED BY IDOCK:   -7.00 KCAL/MOL
REMARK 924 INTRA-LIGAND FREE ENERGY PREDICTED BY IDOCK:   -0.53 KCAL/MOL
REMARK 927      BINDING AFFINITY PREDICTED BY RF-SCORE:    0.00 PKD
ROOT
HETATM    1  O   UNL     1     -11.706   9.093  71.891  1.00  0.00    -0.357 OA 
HETATM    2  C   UNL     1     -11.476   9.765  70.743  1.00  0.00    -0.342 C  
HETATM    3  C   UNL     1     -11.005   8.935  69.596  1.00  0.00    -0.132 A  
HETATM    4  O   UNL     1     -11.643  10.971  70.654  1.00  0.00    -0.312 OA 
HETATM    5  C   UNL     1     -10.761   9.596  68.375  1.00  0.00    -0.251 A  
HETATM    6  C   UNL     1     -10.330   8.894  67.239  1.00  0.00    -0.280 A  
HETATM    7  C   UNL     1     -10.144   7.510  67.350  1.00  0.00    -0.282 A  
HETATM    8  C   UNL     1     -10.814   7.548  69.665  1.00  0.00    -0.202 A  
HETATM    9  H   UNL     1     -10.933   5.932  70.880  1.00  0.00     0.000 HD 
HETATM   10  C   UNL     1     -10.379   6.835  68.550  1.00  0.00    -0.210 A  
HETATM   11  O   UNL     1     -11.063   6.873  70.833  1.00  0.00    -0.250 OA 
ENDROOT
BRANCH   6  12
HETATM   12  N   UNL     1     -10.150   9.469  65.963  1.00  0.00    -0.283 NA 
HETATM   13  H   UNL     1     -10.748   9.255  65.165  1.00  0.00     0.000 HD 
BRANCH  12  14
HETATM   14  N   UNL     1      -9.190  10.264  65.903  1.00  0.00    -0.160 NA 
HETATM   15  H   UNL     1      -8.212   9.979  65.947  1.00  0.00     0.000 HD 
BRANCH  14  16
HETATM   16  C   UNL     1      -9.616  11.606  65.769  1.00  0.00    -0.232 A  
HETATM   17  C   UNL     1      -9.461  13.902  66.575  1.00  0.00    -0.288 A  
HETATM   18  C   UNL     1      -9.042  12.569  66.607  1.00  0.00    -0.203 A  
HETATM   19  C   UNL     1     -10.477  14.287  65.701  1.00  0.00    -0.324 A  
HETATM   20  C   UNL     1     -11.070  13.353  64.844  1.00  0.00    -0.348 A  
HETATM   21  O   UNL     1     -10.897  15.594  65.694  1.00  0.00    -0.334 OA 
HETATM   22  C   UNL     1     -12.160  13.679  63.877  1.00  0.00    -0.411 C  
HETATM   23  C   UNL     1     -10.633  12.016  64.891  1.00  0.00    -0.334 A  
HETATM   24  H   UNL     1     -11.589  15.856  65.099  1.00  0.00     0.000 HD 
HETATM   25  O   UNL     1     -12.588  14.958  63.894  1.00  0.00    -0.831 OA 
HETATM   26  O   UNL     1     -12.637  12.845  63.123  1.00  0.00    -0.636 OA 
ENDBRANCH  14  16
ENDBRANCH  12  14
ENDBRANCH   6  12
TORSDOF 3
ENDMDL
MODEL      103
REMARK 921   NORMALIZED FREE ENERGY PREDICTED BY IDOCK:   -6.06 KCAL/MOL
REMARK 922        TOTAL FREE ENERGY PREDICTED BY IDOCK:   -7.49 KCAL/MOL
REMARK 923 INTER-LIGAND FREE ENERGY PREDICTED BY IDOCK:   -7.09 KCAL/MOL
REMARK 924 INTRA-LIGAND FREE ENERGY PREDICTED BY IDOCK:   -0.40 KCAL/MOL
REMARK 927      BINDING AFFINITY PREDICTED BY RF-SCORE:    0.00 PKD
ROOT
HETATM    1  O   UNL     1     -11.291  15.003  68.343  1.00  0.00    -0.280 OA 
HETATM    2  C   UNL     1     -11.333  13.689  68.649  1.00  0.00    -0.286 C  
HETATM    3  C   UNL     1     -12.080  13.342  69.894  1.00  0.00    -0.389 A  
HETATM    4  O   UNL     1     -10.795  12.844  67.952  1.00  0.00    -0.217 OA 
HETATM    5  C   UNL     1     -12.155  11.980  70.245  1.00  0.00    -0.395 A  
HETATM    6  C   UNL     1     -12.849  11.560  71.391  1.00  0.00    -0.384 A  
HETATM    7  C   UNL     1     -13.467  12.535  72.183  1.00  0.00    -0.523 A  
HETATM    8  C   UNL     1     -12.716  14.289  70.709  1.00  0.00    -0.350 A  
HETATM    9  H   UNL     1     -13.110  16.262  70.934  1.00  0.00     0.000 HD 
HETATM   10  C   UNL     1     -13.404  13.892  71.854  1.00  0.00    -0.496 A  
HETATM   11  O   UNL     1     -12.679  15.621  70.382  1.00  0.00    -0.425 OA 
ENDROOT
BRANCH   6  12
HETATM   12  N   UNL     1     -13.043  10.211  71.760  1.00  0.00    -0.436 NA 
HETATM   13  H   UNL     1     -13.523   9.931  72.616  1.00  0.00     0.000 HD 
BRANCH  12  14
HETATM   14  N   UNL     1     -12.573   9.396  70.942  1.00  0.00    -0.489 NA 
HETATM   15  H   UNL     1     -12.911   9.289  69.986  1.00  0.00     0.000 HD 
BRANCH  14  16
HETATM   16  C   UNL     1     -11.515   8.636  71.494  1.00  0.00    -0.295 A  
HETATM   17  C   UNL     1      -9.118   8.441  71.899  1.00  0.00    -0.288 A  
HETATM   18  C   UNL     1     -10.220   9.164  71.432  1.00  0.00    -0.402 A  
HETATM   19  C   UNL     1      -9.303   7.164  72.428  1.00  0.00    -0.134 A  
HETATM   20  C   UNL     1     -10.584   6.606  72.511  1.00  0.00    -0.245 A  
HETATM   21  O   UNL     1      -8.211   6.453  72.861  1.00  0.00    -0.113 OA 
HETATM   22  C   UNL     1     -10.871   5.250  73.066  1.00  0.00    -0.280 C  
HETATM   23  C   UNL     1     -11.680   7.351  72.038  1.00  0.00    -0.325 A  
HETATM   24  H   UNL     1      -8.337   5.583  73.222  1.00  0.00     0.000 HD 
HETATM   25  O   UNL     1      -9.793   4.545  73.465  1.00  0.00    -0.132 OA 
HETATM   26  O   UNL     1     -12.005   4.804  73.149  1.00  0.00    -0.204 OA 
ENDBRANCH  14  16
ENDBRANCH  12  14
ENDBRANCH   6  12
TORSDOF 3
ENDMDL
MODEL      104
REMARK 921   NORMALIZED FREE ENERGY PREDICTED BY IDOCK:   -6.05 KCAL/MOL
REMARK 922        TOTAL FREE ENERGY PREDICTED BY IDOCK:   -7.48 KCAL/MOL
REMARK 923 INTER-LIGAND FREE ENERGY PREDICTED BY IDOCK:   -7.07 KCAL/MOL
REMARK 924 INTRA-LIGAND FREE ENERGY PREDICTED BY IDOCK:   -0.41 KCAL/MOL
REMARK 927      BINDING AFFINITY PREDICTED BY RF-SCORE:    0.00 PKD
ROOT
HETATM    1  O   UNL     1     -12.182  16.016  69.708  1.00  0.00    -0.244 OA 
HETATM    2  C   UNL     1     -11.751  14.792  69.336  1.00  0.00    -0.323 C  
HETATM    3  C   UNL     1     -12.191  13.663  70.208  1.00  0.00    -0.423 A  
HETATM    4  O   UNL     1     -11.049  14.624  68.351  1.00  0.00    -0.241 OA 
HETATM    5  C   UNL     1     -11.769  12.367  69.850  1.00  0.00    -0.339 A  
HETATM    6  C   UNL     1     -12.145  11.244  70.602  1.00  0.00    -0.383 A  
HETATM    7  C   UNL     1     -12.954  11.445  71.728  1.00  0.00    -0.519 A  
HETATM    8  C   UNL     1     -13.004  13.823  71.337  1.00  0.00    -0.355 A  
HETATM    9  H   UNL     1     -14.000  15.178  72.466  1.00  0.00     0.000 HD 
HETATM   10  C   UNL     1     -13.382  12.721  72.102  1.00  0.00    -0.593 A  
HETATM   11  O   UNL     1     -13.448  15.069  71.700  1.00  0.00    -0.349 OA 
ENDROOT
BRANCH   6  12
HETATM   12  N   UNL     1     -11.837   9.910  70.260  1.00  0.00    -0.409 NA 
HETATM   13  H   UNL     1     -11.079   9.657  69.625  1.00  0.00     0.000 HD 
BRANCH  12  14
HETATM   14  N   UNL     1     -12.579   9.069  70.806  1.00  0.00    -0.494 NA 
HETATM   15  H   UNL     1     -13.553   9.244  71.054  1.00  0.00     0.000 HD 
BRANCH  14  16
HETATM   16  C   UNL     1     -11.912   7.844  71.043  1.00  0.00    -0.252 A  
HETATM   17  C   UNL     1     -11.068   6.245  72.681  1.00  0.00    -0.298 A  
HETATM   18  C   UNL     1     -11.772   7.412  72.368  1.00  0.00    -0.306 A  
HETATM   19  C   UNL     1     -10.483   5.496  71.661  1.00  0.00    -0.231 A  
HETATM   20  C   UNL     1     -10.607   5.893  70.324  1.00  0.00    -0.354 A  
HETATM   21  O   UNL     1      -9.774   4.365  71.982  1.00  0.00    -0.150 OA 
HETATM   22  C   UNL     1     -10.016   5.150  69.172  1.00  0.00    -0.203 C  
HETATM   23  C   UNL     1     -11.321   7.070  70.030  1.00  0.00    -0.293 A  
HETATM   24  H   UNL     1      -9.376   3.855  71.287  1.00  0.00     0.000 HD 
HETATM   25  O   UNL     1      -9.298   4.055  69.495  1.00  0.00    -0.139 OA 
HETATM   26  O   UNL     1     -10.167   5.509  68.015  1.00  0.00    -0.168 OA 
ENDBRANCH  14  16
ENDBRANCH  12  14
ENDBRANCH   6  12
TORSDOF 3
ENDMDL
MODEL      105
REMARK 921   NORMALIZED FREE ENERGY PREDICTED BY IDOCK:   -6.05 KCAL/MOL
REMARK 922        TOTAL FREE ENERGY PREDICTED BY IDOCK:   -7.47 KCAL/MOL
REMARK 923 INTER-LIGAND FREE ENERGY PREDICTED BY IDOCK:   -7.56 KCAL/MOL
REMARK 924 INTRA-LIGAND FREE ENERGY PREDICTED BY IDOCK:    0.09 KCAL/MOL
REMARK 927      BINDING AFFINITY PREDICTED BY RF-SCORE:    0.00 PKD
ROOT
HETATM    1  O   UNL     1     -13.205  16.027  71.485  1.00  0.00    -0.386 OA 
HETATM    2  C   UNL     1     -12.601  15.198  70.608  1.00  0.00    -0.395 C  
HETATM    3  C   UNL     1     -12.758  13.740  70.888  1.00  0.00    -0.394 A  
HETATM    4  O   UNL     1     -11.969  15.616  69.651  1.00  0.00    -0.351 OA 
HETATM    5  C   UNL     1     -12.149  12.839  69.992  1.00  0.00    -0.355 A  
HETATM    6  C   UNL     1     -12.256  11.451  70.169  1.00  0.00    -0.321 A  
HETATM    7  C   UNL     1     -12.985  10.979  71.267  1.00  0.00    -0.472 A  
HETATM    8  C   UNL     1     -13.485  13.230  71.973  1.00  0.00    -0.507 A  
HETATM    9  H   UNL     1     -14.600  13.735  73.586  1.00  0.00     0.000 HD 
HETATM   10  C   UNL     1     -13.596  11.855  72.168  1.00  0.00    -0.188 A  
HETATM   11  O   UNL     1     -14.107  14.081  72.851  1.00  0.00    -0.564 OA 
ENDROOT
BRANCH   6  12
HETATM   12  N   UNL     1     -11.750  10.488  69.269  1.00  0.00    -0.452 NA 
HETATM   13  H   UNL     1     -11.363   9.593  69.569  1.00  0.00     0.000 HD 
BRANCH  12  14
HETATM   14  N   UNL     1     -11.821  10.835  68.073  1.00  0.00    -0.773 NA 
HETATM   15  H   UNL     1     -12.590  10.584  67.452  1.00  0.00     0.000 HD 
BRANCH  14  16
HETATM   16  C   UNL     1     -10.710  11.616  67.678  1.00  0.00    -0.207 A  
HETATM   17  C   UNL     1      -8.283  11.860  67.623  1.00  0.00    -0.148 A  
HETATM   18  C   UNL     1      -9.426  11.114  67.927  1.00  0.00    -0.178 A  
HETATM   19  C   UNL     1      -8.415  13.133  67.071  1.00  0.00    -0.132 A  
HETATM   20  C   UNL     1      -9.681  13.666  66.804  1.00  0.00    -0.275 A  
HETATM   21  O   UNL     1      -7.287  13.867  66.800  1.00  0.00    -0.246 OA 
HETATM   22  C   UNL     1      -9.913  15.018  66.213  1.00  0.00    -0.281 C  
HETATM   23  C   UNL     1     -10.820  12.899  67.115  1.00  0.00    -0.278 A  
HETATM   24  H   UNL     1      -7.376  14.734  66.424  1.00  0.00     0.000 HD 
HETATM   25  O   UNL     1      -8.802  15.744  65.973  1.00  0.00    -0.327 OA 
HETATM   26  O   UNL     1     -11.031  15.441  65.966  1.00  0.00    -0.325 OA 
ENDBRANCH  14  16
ENDBRANCH  12  14
ENDBRANCH   6  12
TORSDOF 3
ENDMDL
MODEL      106
REMARK 921   NORMALIZED FREE ENERGY PREDICTED BY IDOCK:   -6.04 KCAL/MOL
REMARK 922        TOTAL FREE ENERGY PREDICTED BY IDOCK:   -7.46 KCAL/MOL
REMARK 923 INTER-LIGAND FREE ENERGY PREDICTED BY IDOCK:   -7.15 KCAL/MOL
REMARK 924 INTRA-LIGAND FREE ENERGY PREDICTED BY IDOCK:   -0.32 KCAL/MOL
REMARK 927      BINDING AFFINITY PREDICTED BY RF-SCORE:    0.00 PKD
ROOT
HETATM    1  O   UNL     1     -10.151   4.463  68.933  1.00  0.00    -0.086 OA 
HETATM    2  C   UNL     1     -10.419   5.785  68.912  1.00  0.00    -0.256 C  
HETATM    3  C   UNL     1     -10.721   6.401  70.238  1.00  0.00    -0.322 A  
HETATM    4  O   UNL     1     -10.415   6.431  67.875  1.00  0.00    -0.170 OA 
HETATM    5  C   UNL     1     -10.999   7.783  70.261  1.00  0.00    -0.252 A  
HETATM    6  C   UNL     1     -11.279   8.450  71.464  1.00  0.00    -0.267 A  
HETATM    7  C   UNL     1     -11.278   7.702  72.648  1.00  0.00    -0.419 A  
HETATM    8  C   UNL     1     -10.723   5.689  71.444  1.00  0.00    -0.244 A  
HETATM    9  H   UNL     1     -10.437   3.864  72.275  1.00  0.00     0.000 HD 
HETATM   10  C   UNL     1     -11.006   6.332  72.648  1.00  0.00    -0.285 A  
HETATM   11  O   UNL     1     -10.436   4.347  71.457  1.00  0.00    -0.085 OA 
ENDROOT
BRANCH   6  12
HETATM   12  N   UNL     1     -11.480   9.842  71.580  1.00  0.00    -0.366 NA 
HETATM   13  H   UNL     1     -10.825  10.462  72.057  1.00  0.00     0.000 HD 
BRANCH  12  14
HETATM   14  N   UNL     1     -12.533  10.242  71.043  1.00  0.00    -0.351 NA 
HETATM   15  H   UNL     1     -13.233   9.624  70.633  1.00  0.00     0.000 HD 
BRANCH  14  16
HETATM   16  C   UNL     1     -12.643  11.651  71.071  1.00  0.00    -0.331 A  
HETATM   17  C   UNL     1     -13.616  13.617  72.139  1.00  0.00    -0.632 A  
HETATM   18  C   UNL     1     -13.409  12.235  72.087  1.00  0.00    -0.473 A  
HETATM   19  C   UNL     1     -13.060  14.436  71.157  1.00  0.00    -0.352 A  
HETATM   20  C   UNL     1     -12.284  13.889  70.129  1.00  0.00    -0.425 A  
HETATM   21  O   UNL     1     -13.289  15.789  71.204  1.00  0.00    -0.564 OA 
HETATM   22  C   UNL     1     -11.651  14.692  69.041  1.00  0.00    -0.298 C  
HETATM   23  C   UNL     1     -12.086  12.496  70.096  1.00  0.00    -0.368 A  
HETATM   24  H   UNL     1     -12.910  16.347  70.535  1.00  0.00     0.000 HD 
HETATM   25  O   UNL     1     -11.901  16.017  69.076  1.00  0.00    -0.362 OA 
HETATM   26  O   UNL     1     -10.956  14.186  68.174  1.00  0.00    -0.239 OA 
ENDBRANCH  14  16
ENDBRANCH  12  14
ENDBRANCH   6  12
TORSDOF 3
ENDMDL
MODEL      107
REMARK 921   NORMALIZED FREE ENERGY PREDICTED BY IDOCK:   -6.03 KCAL/MOL
REMARK 922        TOTAL FREE ENERGY PREDICTED BY IDOCK:   -7.45 KCAL/MOL
REMARK 923 INTER-LIGAND FREE ENERGY PREDICTED BY IDOCK:   -7.64 KCAL/MOL
REMARK 924 INTRA-LIGAND FREE ENERGY PREDICTED BY IDOCK:    0.19 KCAL/MOL
REMARK 927      BINDING AFFINITY PREDICTED BY RF-SCORE:    0.00 PKD
ROOT
HETATM    1  O   UNL     1     -13.912  13.817  72.790  1.00  0.00    -0.714 OA 
HETATM    2  C   UNL     1     -13.244  14.760  72.094  1.00  0.00    -0.361 C  
HETATM    3  C   UNL     1     -12.337  14.249  71.024  1.00  0.00    -0.431 A  
HETATM    4  O   UNL     1     -13.376  15.952  72.326  1.00  0.00    -0.449 OA 
HETATM    5  C   UNL     1     -11.626  15.202  70.268  1.00  0.00    -0.325 A  
HETATM    6  C   UNL     1     -10.761  14.814  69.233  1.00  0.00    -0.256 A  
HETATM    7  C   UNL     1     -10.619  13.445  68.971  1.00  0.00    -0.106 A  
HETATM    8  C   UNL     1     -12.172  12.889  70.728  1.00  0.00    -0.260 A  
HETATM    9  H   UNL     1     -12.755  11.016  71.232  1.00  0.00     0.000 HD 
HETATM   10  C   UNL     1     -11.313  12.484  69.709  1.00  0.00    -0.111 A  
HETATM   11  O   UNL     1     -12.866  11.938  71.433  1.00  0.00    -0.389 OA 
ENDROOT
BRANCH   6  12
HETATM   12  N   UNL     1     -10.085  15.708  68.376  1.00  0.00    -0.212 NA 
HETATM   13  H   UNL     1     -10.162  16.722  68.455  1.00  0.00     0.000 HD 
BRANCH  12  14
HETATM   14  N   UNL     1      -9.384  15.141  67.514  1.00  0.00    -0.196 NA 
HETATM   15  H   UNL     1      -8.397  14.918  67.640  1.00  0.00     0.000 HD 
BRANCH  14  16
HETATM   16  C   UNL     1     -10.117  14.845  66.341  1.00  0.00    -0.284 A  
HETATM   17  C   UNL     1     -11.515  15.680  64.525  1.00  0.00    -0.304 A  
HETATM   18  C   UNL     1     -10.721  15.905  65.654  1.00  0.00    -0.350 A  
HETATM   19  C   UNL     1     -11.722  14.376  64.074  1.00  0.00    -0.122 A  
HETATM   20  C   UNL     1     -11.130  13.292  64.733  1.00  0.00    -0.359 A  
HETATM   21  O   UNL     1     -12.522  14.165  62.979  1.00  0.00    -1.077 OA 
HETATM   22  C   UNL     1     -11.296  11.868  64.317  1.00  0.00    -0.353 C  
HETATM   23  C   UNL     1     -10.333  13.541  65.866  1.00  0.00    -0.301 A  
HETATM   24  H   UNL     1     -12.663  13.277  62.672  1.00  0.00     0.000 HD 
HETATM   25  O   UNL     1     -12.105  11.664  63.257  1.00  0.00    -0.409 OA 
HETATM   26  O   UNL     1     -10.742  10.948  64.897  1.00  0.00    -0.276 OA 
ENDBRANCH  14  16
ENDBRANCH  12  14
ENDBRANCH   6  12
TORSDOF 3
ENDMDL
MODEL      108
REMARK 921   NORMALIZED FREE ENERGY PREDICTED BY IDOCK:   -6.00 KCAL/MOL
REMARK 922        TOTAL FREE ENERGY PREDICTED BY IDOCK:   -7.41 KCAL/MOL
REMARK 923 INTER-LIGAND FREE ENERGY PREDICTED BY IDOCK:   -6.82 KCAL/MOL
REMARK 924 INTRA-LIGAND FREE ENERGY PREDICTED BY IDOCK:   -0.59 KCAL/MOL
REMARK 927      BINDING AFFINITY PREDICTED BY RF-SCORE:    0.00 PKD
ROOT
HETATM    1  O   UNL     1     -13.167  15.269  73.091  1.00  0.00    -0.461 OA 
HETATM    2  C   UNL     1     -13.320  14.116  72.406  1.00  0.00    -0.494 C  
HETATM    3  C   UNL     1     -12.519  14.002  71.151  1.00  0.00    -0.447 A  
HETATM    4  O   UNL     1     -14.066  13.229  72.789  1.00  0.00    -0.691 OA 
HETATM    5  C   UNL     1     -12.644  12.810  70.410  1.00  0.00    -0.126 A  
HETATM    6  C   UNL     1     -11.918  12.609  69.226  1.00  0.00    -0.246 A  
HETATM    7  C   UNL     1     -11.062  13.631  68.795  1.00  0.00    -0.302 A  
HETATM    8  C   UNL     1     -11.648  14.999  70.692  1.00  0.00    -0.311 A  
HETATM    9  H   UNL     1     -10.898  16.837  71.090  1.00  0.00     0.000 HD 
HETATM   10  C   UNL     1     -10.924  14.820  69.514  1.00  0.00    -0.287 A  
HETATM   11  O   UNL     1     -11.489  16.161  71.402  1.00  0.00    -0.421 OA 
ENDROOT
BRANCH   6  12
HETATM   12  N   UNL     1     -11.922  11.413  68.477  1.00  0.00    -0.555 NA 
HETATM   13  H   UNL     1     -11.699  11.376  67.482  1.00  0.00     0.000 HD 
BRANCH  12  14
HETATM   14  N   UNL     1     -12.225  10.404  69.146  1.00  0.00    -0.695 NA 
HETATM   15  H   UNL     1     -13.177  10.178  69.436  1.00  0.00     0.000 HD 
BRANCH  14  16
HETATM   16  C   UNL     1     -11.096   9.612  69.458  1.00  0.00    -0.168 A  
HETATM   17  C   UNL     1      -9.623   8.721  71.186  1.00  0.00    -0.309 A  
HETATM   18  C   UNL     1     -10.763   9.437  70.807  1.00  0.00    -0.373 A  
HETATM   19  C   UNL     1      -8.791   8.176  70.209  1.00  0.00    -0.141 A  
HETATM   20  C   UNL     1      -9.095   8.327  68.850  1.00  0.00    -0.147 A  
HETATM   21  O   UNL     1      -7.662   7.496  70.592  1.00  0.00    -0.087 OA 
HETATM   22  C   UNL     1      -8.262   7.775  67.741  1.00  0.00    -0.126 C  
HETATM   23  C   UNL     1     -10.248   9.049  68.489  1.00  0.00    -0.224 A  
HETATM   24  H   UNL     1      -7.095   7.126  69.926  1.00  0.00     0.000 HD 
HETATM   25  O   UNL     1      -7.140   7.131  68.122  1.00  0.00    -0.079 OA 
HETATM   26  O   UNL     1      -8.571   7.901  66.566  1.00  0.00    -0.129 OA 
ENDBRANCH  14  16
ENDBRANCH  12  14
ENDBRANCH   6  12
TORSDOF 3
ENDMDL
MODEL      109
REMARK 921   NORMALIZED FREE ENERGY PREDICTED BY IDOCK:   -5.96 KCAL/MOL
REMARK 922        TOTAL FREE ENERGY PREDICTED BY IDOCK:   -7.36 KCAL/MOL
REMARK 923 INTER-LIGAND FREE ENERGY PREDICTED BY IDOCK:   -6.90 KCAL/MOL
REMARK 924 INTRA-LIGAND FREE ENERGY PREDICTED BY IDOCK:   -0.46 KCAL/MOL
REMARK 927      BINDING AFFINITY PREDICTED BY RF-SCORE:    0.00 PKD
ROOT
HETATM    1  O   UNL     1     -11.863  12.699  63.198  1.00  0.00    -0.470 OA 
HETATM    2  C   UNL     1     -11.398  11.986  64.245  1.00  0.00    -0.364 C  
HETATM    3  C   UNL     1     -11.539  12.638  65.581  1.00  0.00    -0.418 A  
HETATM    4  O   UNL     1     -10.896  10.881  64.106  1.00  0.00    -0.305 OA 
HETATM    5  C   UNL     1     -11.073  11.923  66.702  1.00  0.00    -0.360 A  
HETATM    6  C   UNL     1     -11.177  12.452  67.999  1.00  0.00    -0.268 A  
HETATM    7  C   UNL     1     -11.756  13.718  68.150  1.00  0.00    -0.392 A  
HETATM    8  C   UNL     1     -12.118  13.899  65.774  1.00  0.00    -0.425 A  
HETATM    9  H   UNL     1     -12.993  15.466  64.835  1.00  0.00     0.000 HD 
HETATM   10  C   UNL     1     -12.224  14.444  67.052  1.00  0.00    -0.274 A  
HETATM   11  O   UNL     1     -12.600  14.611  64.704  1.00  0.00    -0.573 OA 
ENDROOT
BRANCH   6  12
HETATM   12  N   UNL     1     -10.815  11.763  69.176  1.00  0.00    -0.360 NA 
HETATM   13  H   UNL     1     -11.210  11.978  70.092  1.00  0.00     0.000 HD 
BRANCH  12  14
HETATM   14  N   UNL     1      -9.967  10.867  68.991  1.00  0.00    -0.265 NA 
HETATM   15  H   UNL     1      -9.140  10.977  68.404  1.00  0.00     0.000 HD 
BRANCH  14  16
HETATM   16  C   UNL     1     -10.285   9.679  69.689  1.00  0.00    -0.222 A  
HETATM   17  C   UNL     1     -10.930   8.648  71.804  1.00  0.00    -0.396 A  
HETATM   18  C   UNL     1     -10.664   9.784  71.034  1.00  0.00    -0.342 A  
HETATM   19  C   UNL     1     -10.807   7.382  71.234  1.00  0.00    -0.238 A  
HETATM   20  C   UNL     1     -10.435   7.238  69.892  1.00  0.00    -0.236 A  
HETATM   21  O   UNL     1     -11.047   6.272  72.007  1.00  0.00    -0.242 OA 
HETATM   22  C   UNL     1     -10.283   5.922  69.203  1.00  0.00    -0.215 C  
HETATM   23  C   UNL     1     -10.174   8.394  69.133  1.00  0.00    -0.217 A  
HETATM   24  H   UNL     1     -10.963   5.410  71.618  1.00  0.00     0.000 HD 
HETATM   25  O   UNL     1     -10.493   4.835  69.974  1.00  0.00    -0.194 OA 
HETATM   26  O   UNL     1      -9.984   5.833  68.023  1.00  0.00    -0.127 OA 
ENDBRANCH  14  16
ENDBRANCH  12  14
ENDBRANCH   6  12
TORSDOF 3
ENDMDL
MODEL      110
REMARK 921   NORMALIZED FREE ENERGY PREDICTED BY IDOCK:   -5.95 KCAL/MOL
REMARK 922        TOTAL FREE ENERGY PREDICTED BY IDOCK:   -7.36 KCAL/MOL
REMARK 923 INTER-LIGAND FREE ENERGY PREDICTED BY IDOCK:   -6.99 KCAL/MOL
REMARK 924 INTRA-LIGAND FREE ENERGY PREDICTED BY IDOCK:   -0.36 KCAL/MOL
REMARK 927      BINDING AFFINITY PREDICTED BY RF-SCORE:    0.00 PKD
ROOT
HETATM    1  O   UNL     1      -5.728  18.916  67.554  1.00  0.00    -0.170 OA 
HETATM    2  C   UNL     1      -6.321  17.905  66.884  1.00  0.00    -0.168 C  
HETATM    3  C   UNL     1      -7.812  17.873  66.958  1.00  0.00    -0.234 A  
HETATM    4  O   UNL     1      -5.678  17.074  66.262  1.00  0.00    -0.321 OA 
HETATM    5  C   UNL     1      -8.472  16.838  66.266  1.00  0.00    -0.342 A  
HETATM    6  C   UNL     1      -9.872  16.737  66.267  1.00  0.00    -0.309 A  
HETATM    7  C   UNL     1     -10.601  17.696  66.980  1.00  0.00    -0.254 A  
HETATM    8  C   UNL     1      -8.577  18.817  67.655  1.00  0.00    -0.272 A  
HETATM    9  H   UNL     1      -8.484  20.489  68.794  1.00  0.00     0.000 HD 
HETATM   10  C   UNL     1      -9.968  18.730  67.674  1.00  0.00    -0.390 A  
HETATM   11  O   UNL     1      -7.965  19.849  68.321  1.00  0.00    -0.311 OA 
ENDROOT
BRANCH   6  12
HETATM   12  N   UNL     1     -10.607  15.785  65.529  1.00  0.00    -0.384 NA 
HETATM   13  H   UNL     1     -11.567  15.938  65.220  1.00  0.00     0.000 HD 
BRANCH  12  14
HETATM   14  N   UNL     1      -9.971  14.738  65.290  1.00  0.00    -0.442 NA 
HETATM   15  H   UNL     1      -9.174  14.687  64.656  1.00  0.00     0.000 HD 
BRANCH  14  16
HETATM   16  C   UNL     1     -10.485  13.629  66.002  1.00  0.00    -0.300 A  
HETATM   17  C   UNL     1     -11.906  12.830  67.816  1.00  0.00    -0.387 A  
HETATM   18  C   UNL     1     -11.406  13.871  67.028  1.00  0.00    -0.343 A  
HETATM   19  C   UNL     1     -11.476  11.523  67.589  1.00  0.00    -0.285 A  
HETATM   20  C   UNL     1     -10.560  11.242  66.569  1.00  0.00    -0.315 A  
HETATM   21  O   UNL     1     -11.955  10.512  68.385  1.00  0.00    -0.773 OA 
HETATM   22  C   UNL     1     -10.050   9.874  66.257  1.00  0.00    -0.241 C  
HETATM   23  C   UNL     1     -10.071  12.304  65.786  1.00  0.00    -0.274 A  
HETATM   24  H   UNL     1     -11.662   9.622  68.230  1.00  0.00     0.000 HD 
HETATM   25  O   UNL     1     -10.503   8.888  67.059  1.00  0.00    -0.274 OA 
HETATM   26  O   UNL     1      -9.271   9.660  65.341  1.00  0.00    -0.202 OA 
ENDBRANCH  14  16
ENDBRANCH  12  14
ENDBRANCH   6  12
TORSDOF 3
ENDMDL
MODEL      111
REMARK 921   NORMALIZED FREE ENERGY PREDICTED BY IDOCK:   -5.94 KCAL/MOL
REMARK 922        TOTAL FREE ENERGY PREDICTED BY IDOCK:   -7.35 KCAL/MOL
REMARK 923 INTER-LIGAND FREE ENERGY PREDICTED BY IDOCK:   -6.99 KCAL/MOL
REMARK 924 INTRA-LIGAND FREE ENERGY PREDICTED BY IDOCK:   -0.36 KCAL/MOL
REMARK 927      BINDING AFFINITY PREDICTED BY RF-SCORE:    0.00 PKD
ROOT
HETATM    1  O   UNL     1      -5.329  16.524  67.177  1.00  0.00    -0.190 OA 
HETATM    2  C   UNL     1      -6.004  15.398  67.489  1.00  0.00    -0.044 C  
HETATM    3  C   UNL     1      -7.403  15.599  67.970  1.00  0.00    -0.137 A  
HETATM    4  O   UNL     1      -5.501  14.290  67.384  1.00  0.00    -0.340 OA 
HETATM    5  C   UNL     1      -8.146  14.447  68.299  1.00  0.00    -0.139 A  
HETATM    6  C   UNL     1      -9.473  14.539  68.746  1.00  0.00    -0.183 A  
HETATM    7  C   UNL     1     -10.044  15.813  68.861  1.00  0.00    -0.222 A  
HETATM    8  C   UNL     1      -8.011  16.855  68.092  1.00  0.00    -0.195 A  
HETATM    9  H   UNL     1      -7.733  18.846  67.843  1.00  0.00     0.000 HD 
HETATM   10  C   UNL     1      -9.325  16.967  68.542  1.00  0.00    -0.265 A  
HETATM   11  O   UNL     1      -7.321  17.993  67.760  1.00  0.00    -0.207 OA 
ENDROOT
BRANCH   6  12
HETATM   12  N   UNL     1     -10.308  13.432  69.010  1.00  0.00    -0.430 NA 
HETATM   13  H   UNL     1     -11.212  13.514  69.476  1.00  0.00     0.000 HD 
BRANCH  12  14
HETATM   14  N   UNL     1      -9.836  12.345  68.620  1.00  0.00    -0.387 NA 
HETATM   15  H   UNL     1      -9.239  11.746  69.190  1.00  0.00     0.000 HD 
BRANCH  14  16
HETATM   16  C   UNL     1     -10.225  12.040  67.295  1.00  0.00    -0.204 A  
HETATM   17  C   UNL     1      -9.800  10.740  65.275  1.00  0.00    -0.329 A  
HETATM   18  C   UNL     1      -9.514  11.048  66.608  1.00  0.00    -0.207 A  
HETATM   19  C   UNL     1     -10.805  11.436  64.605  1.00  0.00    -0.292 A  
HETATM   20  C   UNL     1     -11.541  12.430  65.260  1.00  0.00    -0.419 A  
HETATM   21  O   UNL     1     -11.062  11.142  63.289  1.00  0.00    -0.771 OA 
HETATM   22  C   UNL     1     -12.634  13.221  64.620  1.00  0.00    -0.293 C  
HETATM   23  C   UNL     1     -11.239  12.724  66.603  1.00  0.00    -0.344 A  
HETATM   24  H   UNL     1     -11.747  11.616  62.833  1.00  0.00     0.000 HD 
HETATM   25  O   UNL     1     -12.864  12.947  63.319  1.00  0.00    -0.605 OA 
HETATM   26  O   UNL     1     -13.276  14.062  65.229  1.00  0.00    -0.782 OA 
ENDBRANCH  14  16
ENDBRANCH  12  14
ENDBRANCH   6  12
TORSDOF 3
ENDMDL
MODEL      112
REMARK 921   NORMALIZED FREE ENERGY PREDICTED BY IDOCK:   -5.93 KCAL/MOL
REMARK 922        TOTAL FREE ENERGY PREDICTED BY IDOCK:   -7.34 KCAL/MOL
REMARK 923 INTER-LIGAND FREE ENERGY PREDICTED BY IDOCK:   -6.91 KCAL/MOL
REMARK 924 INTRA-LIGAND FREE ENERGY PREDICTED BY IDOCK:   -0.42 KCAL/MOL
REMARK 927      BINDING AFFINITY PREDICTED BY RF-SCORE:    0.00 PKD
ROOT
HETATM    1  O   UNL     1      -6.709   7.206  66.759  1.00  0.00    -0.056 OA 
HETATM    2  C   UNL     1      -7.600   7.844  67.547  1.00  0.00    -0.105 C  
HETATM    3  C   UNL     1      -8.533   8.772  66.842  1.00  0.00    -0.112 A  
HETATM    4  O   UNL     1      -7.636   7.672  68.755  1.00  0.00    -0.097 OA 
HETATM    5  C   UNL     1      -9.484   9.453  67.627  1.00  0.00    -0.154 A  
HETATM    6  C   UNL     1     -10.411  10.334  67.048  1.00  0.00    -0.244 A  
HETATM    7  C   UNL     1     -10.364  10.523  65.661  1.00  0.00    -0.274 A  
HETATM    8  C   UNL     1      -8.521   8.983  65.457  1.00  0.00    -0.144 A  
HETATM    9  H   UNL     1      -7.613   8.462  63.723  1.00  0.00     0.000 HD 
HETATM   10  C   UNL     1      -9.428   9.859  64.865  1.00  0.00    -0.355 A  
HETATM   11  O   UNL     1      -7.620   8.319  64.663  1.00  0.00    -0.093 OA 
ENDROOT
BRANCH   6  12
HETATM   12  N   UNL     1     -11.447  10.983  67.753  1.00  0.00    -0.499 NA 
HETATM   13  H   UNL     1     -11.877  11.853  67.437  1.00  0.00     0.000 HD 
BRANCH  12  14
HETATM   14  N   UNL     1     -11.788  10.392  68.798  1.00  0.00    -0.668 NA 
HETATM   15  H   UNL     1     -11.796   9.378  68.901  1.00  0.00     0.000 HD 
BRANCH  14  16
HETATM   16  C   UNL     1     -12.162  11.293  69.822  1.00  0.00    -0.275 A  
HETATM   17  C   UNL     1     -13.258  11.616  71.977  1.00  0.00    -0.443 A  
HETATM   18  C   UNL     1     -12.803  10.777  70.955  1.00  0.00    -0.480 A  
HETATM   19  C   UNL     1     -13.085  12.995  71.868  1.00  0.00    -0.384 A  
HETATM   20  C   UNL     1     -12.445  13.547  70.752  1.00  0.00    -0.428 A  
HETATM   21  O   UNL     1     -13.558  13.811  72.865  1.00  0.00    -0.681 OA 
HETATM   22  C   UNL     1     -12.216  15.009  70.557  1.00  0.00    -0.337 C  
HETATM   23  C   UNL     1     -11.992  12.685  69.736  1.00  0.00    -0.365 A  
HETATM   24  H   UNL     1     -13.440  14.751  72.791  1.00  0.00     0.000 HD 
HETATM   25  O   UNL     1     -12.707  15.808  71.527  1.00  0.00    -0.434 OA 
HETATM   26  O   UNL     1     -11.629  15.455  69.584  1.00  0.00    -0.285 OA 
ENDBRANCH  14  16
ENDBRANCH  12  14
ENDBRANCH   6  12
TORSDOF 3
ENDMDL
MODEL      113
REMARK 921   NORMALIZED FREE ENERGY PREDICTED BY IDOCK:   -5.93 KCAL/MOL
REMARK 922        TOTAL FREE ENERGY PREDICTED BY IDOCK:   -7.33 KCAL/MOL
REMARK 923 INTER-LIGAND FREE ENERGY PREDICTED BY IDOCK:   -6.87 KCAL/MOL
REMARK 924 INTRA-LIGAND FREE ENERGY PREDICTED BY IDOCK:   -0.47 KCAL/MOL
REMARK 927      BINDING AFFINITY PREDICTED BY RF-SCORE:    0.00 PKD
ROOT
HETATM    1  O   UNL     1     -11.543   8.258  70.915  1.00  0.00    -0.278 OA 
HETATM    2  C   UNL     1     -11.232   9.374  70.224  1.00  0.00    -0.246 C  
HETATM    3  C   UNL     1     -11.901  10.626  70.688  1.00  0.00    -0.463 A  
HETATM    4  O   UNL     1     -10.456   9.358  69.282  1.00  0.00    -0.207 OA 
HETATM    5  C   UNL     1     -11.598  11.816  69.998  1.00  0.00    -0.318 A  
HETATM    6  C   UNL     1     -12.168  13.042  70.374  1.00  0.00    -0.310 A  
HETATM    7  C   UNL     1     -13.055  13.052  71.457  1.00  0.00    -0.400 A  
HETATM    8  C   UNL     1     -12.789  10.677  71.771  1.00  0.00    -0.444 A  
HETATM    9  H   UNL     1     -13.690   9.574  73.211  1.00  0.00     0.000 HD 
HETATM   10  C   UNL     1     -13.371  11.884  72.154  1.00  0.00    -0.361 A  
HETATM   11  O   UNL     1     -13.088   9.539  72.476  1.00  0.00    -0.383 OA 
ENDROOT
BRANCH   6  12
HETATM   12  N   UNL     1     -11.848  14.287  69.790  1.00  0.00    -0.304 NA 
HETATM   13  H   UNL     1     -11.492  15.079  70.326  1.00  0.00     0.000 HD 
BRANCH  12  14
HETATM   14  N   UNL     1     -12.042  14.327  68.558  1.00  0.00    -0.543 NA 
HETATM   15  H   UNL     1     -12.902  14.015  68.107  1.00  0.00     0.000 HD 
BRANCH  14  16
HETATM   16  C   UNL     1     -10.931  14.855  67.860  1.00  0.00    -0.286 A  
HETATM   17  C   UNL     1      -8.734  14.446  66.883  1.00  0.00    -0.218 A  
HETATM   18  C   UNL     1      -9.892  13.983  67.516  1.00  0.00    -0.236 A  
HETATM   19  C   UNL     1      -8.600  15.804  66.596  1.00  0.00    -0.287 A  
HETATM   20  C   UNL     1      -9.620  16.705  66.922  1.00  0.00    -0.259 A  
HETATM   21  O   UNL     1      -7.449  16.252  65.997  1.00  0.00     0.095 OA 
HETATM   22  C   UNL     1      -9.560  18.172  66.649  1.00  0.00    -0.306 C  
HETATM   23  C   UNL     1     -10.778  16.218  67.556  1.00  0.00    -0.300 A  
HETATM   24  H   UNL     1      -7.357  17.177  65.802  1.00  0.00     0.000 HD 
HETATM   25  O   UNL     1      -8.416  18.611  66.085  1.00  0.00    -0.432 OA 
HETATM   26  O   UNL     1     -10.480  18.926  66.920  1.00  0.00    -0.384 OA 
ENDBRANCH  14  16
ENDBRANCH  12  14
ENDBRANCH   6  12
TORSDOF 3
ENDMDL
MODEL      114
REMARK 921   NORMALIZED FREE ENERGY PREDICTED BY IDOCK:   -5.92 KCAL/MOL
REMARK 922        TOTAL FREE ENERGY PREDICTED BY IDOCK:   -7.32 KCAL/MOL
REMARK 923 INTER-LIGAND FREE ENERGY PREDICTED BY IDOCK:   -6.90 KCAL/MOL
REMARK 924 INTRA-LIGAND FREE ENERGY PREDICTED BY IDOCK:   -0.42 KCAL/MOL
REMARK 927      BINDING AFFINITY PREDICTED BY RF-SCORE:    0.00 PKD
ROOT
HETATM    1  O   UNL     1      -8.206   6.762  71.211  1.00  0.00    -0.117 OA 
HETATM    2  C   UNL     1      -8.675   8.022  71.330  1.00  0.00    -0.136 C  
HETATM    3  C   UNL     1      -9.229   8.622  70.081  1.00  0.00    -0.165 A  
HETATM    4  O   UNL     1      -8.644   8.627  72.390  1.00  0.00    -0.341 OA 
HETATM    5  C   UNL     1      -9.736   9.935  70.163  1.00  0.00    -0.255 A  
HETATM    6  C   UNL     1     -10.290  10.574  69.043  1.00  0.00    -0.213 A  
HETATM    7  C   UNL     1     -10.324   9.871  67.832  1.00  0.00    -0.256 A  
HETATM    8  C   UNL     1      -9.286   7.949  68.853  1.00  0.00    -0.150 A  
HETATM    9  H   UNL     1      -8.859   6.207  67.913  1.00  0.00     0.000 HD 
HETATM   10  C   UNL     1      -9.826   8.570  67.728  1.00  0.00    -0.218 A  
HETATM   11  O   UNL     1      -8.820   6.663  68.746  1.00  0.00    -0.127 OA 
ENDROOT
BRANCH   6  12
HETATM   12  N   UNL     1     -10.895  11.848  69.066  1.00  0.00    -0.315 NA 
HETATM   13  H   UNL     1     -10.782  12.506  69.837  1.00  0.00     0.000 HD 
BRANCH  12  14
HETATM   14  N   UNL     1     -11.581  12.095  68.053  1.00  0.00    -0.330 NA 
HETATM   15  H   UNL     1     -12.313  11.480  67.698  1.00  0.00     0.000 HD 
BRANCH  14  16
HETATM   16  C   UNL     1     -11.226  13.326  67.455  1.00  0.00    -0.281 A  
HETATM   17  C   UNL     1     -10.032  15.444  67.663  1.00  0.00    -0.225 A  
HETATM   18  C   UNL     1     -10.374  14.183  68.163  1.00  0.00    -0.239 A  
HETATM   19  C   UNL     1     -10.555  15.868  66.442  1.00  0.00    -0.297 A  
HETATM   20  C   UNL     1     -11.406  15.037  65.704  1.00  0.00    -0.297 A  
HETATM   21  O   UNL     1     -10.233  17.117  65.972  1.00  0.00    -0.380 OA 
HETATM   22  C   UNL     1     -12.006  15.410  64.389  1.00  0.00    -0.228 C  
HETATM   23  C   UNL     1     -11.735  13.771  66.224  1.00  0.00    -0.400 A  
HETATM   24  H   UNL     1     -10.589  17.406  65.141  1.00  0.00     0.000 HD 
HETATM   25  O   UNL     1     -11.708  16.649  63.946  1.00  0.00    -1.153 OA 
HETATM   26  O   UNL     1     -12.723  14.649  63.758  1.00  0.00    -0.778 OA 
ENDBRANCH  14  16
ENDBRANCH  12  14
ENDBRANCH   6  12
TORSDOF 3
ENDMDL
MODEL      115
REMARK 921   NORMALIZED FREE ENERGY PREDICTED BY IDOCK:   -5.90 KCAL/MOL
REMARK 922        TOTAL FREE ENERGY PREDICTED BY IDOCK:   -7.30 KCAL/MOL
REMARK 923 INTER-LIGAND FREE ENERGY PREDICTED BY IDOCK:   -6.95 KCAL/MOL
REMARK 924 INTRA-LIGAND FREE ENERGY PREDICTED BY IDOCK:   -0.35 KCAL/MOL
REMARK 927      BINDING AFFINITY PREDICTED BY RF-SCORE:    0.00 PKD
ROOT
HETATM    1  O   UNL     1      -6.175  18.865  68.234  1.00  0.00    -0.210 OA 
HETATM    2  C   UNL     1      -6.597  17.740  67.619  1.00  0.00    -0.182 C  
HETATM    3  C   UNL     1      -8.018  17.751  67.163  1.00  0.00    -0.229 A  
HETATM    4  O   UNL     1      -5.863  16.779  67.451  1.00  0.00    -0.133 OA 
HETATM    5  C   UNL     1      -8.497  16.598  66.510  1.00  0.00    -0.327 A  
HETATM    6  C   UNL     1      -9.816  16.525  66.033  1.00  0.00    -0.322 A  
HETATM    7  C   UNL     1     -10.650  17.633  66.228  1.00  0.00    -0.215 A  
HETATM    8  C   UNL     1      -8.881  18.842  67.334  1.00  0.00    -0.270 A  
HETATM    9  H   UNL     1      -9.024  20.726  68.063  1.00  0.00     0.000 HD 
HETATM   10  C   UNL     1     -10.196  18.785  66.875  1.00  0.00    -0.431 A  
HETATM   11  O   UNL     1      -8.439  19.986  67.947  1.00  0.00    -0.303 OA 
ENDROOT
BRANCH   6  12
HETATM   12  N   UNL     1     -10.342  15.444  65.294  1.00  0.00    -0.386 NA 
HETATM   13  H   UNL     1     -11.196  15.510  64.740  1.00  0.00     0.000 HD 
BRANCH  12  14
HETATM   14  N   UNL     1      -9.663  14.400  65.383  1.00  0.00    -0.553 NA 
HETATM   15  H   UNL     1      -8.792  14.243  64.877  1.00  0.00     0.000 HD 
BRANCH  14  16
HETATM   16  C   UNL     1     -10.243  13.461  66.267  1.00  0.00    -0.298 A  
HETATM   17  C   UNL     1     -11.032  11.179  66.614  1.00  0.00    -0.289 A  
HETATM   18  C   UNL     1     -10.408  12.145  65.819  1.00  0.00    -0.289 A  
HETATM   19  C   UNL     1     -11.513  11.528  67.875  1.00  0.00    -0.301 A  
HETATM   20  C   UNL     1     -11.362  12.833  68.359  1.00  0.00    -0.331 A  
HETATM   21  O   UNL     1     -12.147  10.578  68.638  1.00  0.00    -0.775 OA 
HETATM   22  C   UNL     1     -11.844  13.290  69.696  1.00  0.00    -0.327 C  
HETATM   23  C   UNL     1     -10.729  13.789  67.544  1.00  0.00    -0.262 A  
HETATM   24  H   UNL     1     -12.474  10.816  69.497  1.00  0.00     0.000 HD 
HETATM   25  O   UNL     1     -12.490  12.360  70.430  1.00  0.00    -0.239 OA 
HETATM   26  O   UNL     1     -11.671  14.430  70.099  1.00  0.00    -0.275 OA 
ENDBRANCH  14  16
ENDBRANCH  12  14
ENDBRANCH   6  12
TORSDOF 3
ENDMDL
MODEL      116
REMARK 921   NORMALIZED FREE ENERGY PREDICTED BY IDOCK:   -5.89 KCAL/MOL
REMARK 922        TOTAL FREE ENERGY PREDICTED BY IDOCK:   -7.29 KCAL/MOL
REMARK 923 INTER-LIGAND FREE ENERGY PREDICTED BY IDOCK:   -7.56 KCAL/MOL
REMARK 924 INTRA-LIGAND FREE ENERGY PREDICTED BY IDOCK:    0.27 KCAL/MOL
REMARK 927      BINDING AFFINITY PREDICTED BY RF-SCORE:    0.00 PKD
ROOT
HETATM    1  O   UNL     1     -11.639  16.413  63.837  1.00  0.00    -1.100 OA 
HETATM    2  C   UNL     1     -10.909  16.387  64.972  1.00  0.00    -0.273 C  
HETATM    3  C   UNL     1     -11.076  15.166  65.816  1.00  0.00    -0.330 A  
HETATM    4  O   UNL     1     -10.165  17.303  65.286  1.00  0.00    -0.563 OA 
HETATM    5  C   UNL     1     -10.326  15.096  67.007  1.00  0.00    -0.271 A  
HETATM    6  C   UNL     1     -10.408  13.980  67.854  1.00  0.00    -0.239 A  
HETATM    7  C   UNL     1     -11.261  12.933  67.486  1.00  0.00    -0.329 A  
HETATM    8  C   UNL     1     -11.914  14.096  65.477  1.00  0.00    -0.391 A  
HETATM    9  H   UNL     1     -13.209  13.399  64.085  1.00  0.00     0.000 HD 
HETATM   10  C   UNL     1     -12.014  12.983  66.310  1.00  0.00    -0.477 A  
HETATM   11  O   UNL     1     -12.641  14.126  64.315  1.00  0.00    -0.676 OA 
ENDROOT
BRANCH   6  12
HETATM   12  N   UNL     1      -9.626  13.797  69.015  1.00  0.00    -0.404 NA 
HETATM   13  H   UNL     1     -10.013  13.823  69.958  1.00  0.00     0.000 HD 
BRANCH  12  14
HETATM   14  N   UNL     1      -8.417  13.601  68.778  1.00  0.00    -0.351 NA 
HETATM   15  H   UNL     1      -8.035  12.708  68.464  1.00  0.00     0.000 HD 
BRANCH  14  16
HETATM   16  C   UNL     1      -7.636  14.760  68.995  1.00  0.00    -0.141 A  
HETATM   17  C   UNL     1      -5.546  15.705  69.826  1.00  0.00    -0.123 A  
HETATM   18  C   UNL     1      -6.349  14.601  69.524  1.00  0.00    -0.127 A  
HETATM   19  C   UNL     1      -6.032  16.993  69.608  1.00  0.00    -0.227 A  
HETATM   20  C   UNL     1      -7.311  17.191  69.075  1.00  0.00    -0.217 A  
HETATM   21  O   UNL     1      -5.244  18.071  69.930  1.00  0.00    -0.186 OA 
HETATM   22  C   UNL     1      -7.908  18.534  68.808  1.00  0.00    -0.275 C  
HETATM   23  C   UNL     1      -8.103  16.066  68.776  1.00  0.00    -0.212 A  
HETATM   24  H   UNL     1      -5.576  18.948  69.781  1.00  0.00     0.000 HD 
HETATM   25  O   UNL     1      -7.140  19.589  69.151  1.00  0.00    -0.346 OA 
HETATM   26  O   UNL     1      -9.017  18.671  68.316  1.00  0.00    -0.300 OA 
ENDBRANCH  14  16
ENDBRANCH  12  14
ENDBRANCH   6  12
TORSDOF 3
ENDMDL
MODEL      117
REMARK 921   NORMALIZED FREE ENERGY PREDICTED BY IDOCK:   -5.89 KCAL/MOL
REMARK 922        TOTAL FREE ENERGY PREDICTED BY IDOCK:   -7.29 KCAL/MOL
REMARK 923 INTER-LIGAND FREE ENERGY PREDICTED BY IDOCK:   -6.95 KCAL/MOL
REMARK 924 INTRA-LIGAND FREE ENERGY PREDICTED BY IDOCK:   -0.34 KCAL/MOL
REMARK 927      BINDING AFFINITY PREDICTED BY RF-SCORE:    0.00 PKD
ROOT
HETATM    1  O   UNL     1      -7.607  17.708  67.504  1.00  0.00    -0.194 OA 
HETATM    2  C   UNL     1      -7.892  16.691  68.343  1.00  0.00    -0.202 C  
HETATM    3  C   UNL     1      -8.907  15.714  67.847  1.00  0.00    -0.171 A  
HETATM    4  O   UNL     1      -7.355  16.580  69.433  1.00  0.00    -0.230 OA 
HETATM    5  C   UNL     1      -9.229  14.631  68.690  1.00  0.00    -0.194 A  
HETATM    6  C   UNL     1     -10.161  13.657  68.301  1.00  0.00    -0.240 A  
HETATM    7  C   UNL     1     -10.770  13.790  67.047  1.00  0.00    -0.283 A  
HETATM    8  C   UNL     1      -9.533  15.810  66.597  1.00  0.00    -0.257 A  
HETATM    9  H   UNL     1      -9.651  16.906  64.899  1.00  0.00     0.000 HD 
HETATM   10  C   UNL     1     -10.467  14.856  66.197  1.00  0.00    -0.313 A  
HETATM   11  O   UNL     1      -9.226  16.841  65.746  1.00  0.00    -0.520 OA 
ENDROOT
BRANCH   6  12
HETATM   12  N   UNL     1     -10.470  12.500  69.048  1.00  0.00    -0.426 NA 
HETATM   13  H   UNL     1      -9.786  11.772  69.257  1.00  0.00     0.000 HD 
BRANCH  12  14
HETATM   14  N   UNL     1     -11.657  12.453  69.430  1.00  0.00    -0.304 NA 
HETATM   15  H   UNL     1     -12.368  13.132  69.161  1.00  0.00     0.000 HD 
BRANCH  14  16
HETATM   16  C   UNL     1     -11.901  11.348  70.278  1.00  0.00    -0.350 A  
HETATM   17  C   UNL     1     -13.154  10.442  72.164  1.00  0.00    -0.427 A  
HETATM   18  C   UNL     1     -12.902  11.469  71.250  1.00  0.00    -0.463 A  
HETATM   19  C   UNL     1     -12.391   9.275  72.122  1.00  0.00    -0.328 A  
HETATM   20  C   UNL     1     -11.385   9.117  71.161  1.00  0.00    -0.392 A  
HETATM   21  O   UNL     1     -12.630   8.283  73.040  1.00  0.00    -0.680 OA 
HETATM   22  C   UNL     1     -10.524   7.903  71.044  1.00  0.00    -0.203 C  
HETATM   23  C   UNL     1     -11.149  10.162  70.248  1.00  0.00    -0.384 A  
HETATM   24  H   UNL     1     -12.110   7.489  73.011  1.00  0.00     0.000 HD 
HETATM   25  O   UNL     1     -10.746   6.943  71.965  1.00  0.00    -0.212 OA 
HETATM   26  O   UNL     1      -9.674   7.785  70.175  1.00  0.00    -0.182 OA 
ENDBRANCH  14  16
ENDBRANCH  12  14
ENDBRANCH   6  12
TORSDOF 3
ENDMDL
MODEL      118
REMARK 921   NORMALIZED FREE ENERGY PREDICTED BY IDOCK:   -5.89 KCAL/MOL
REMARK 922        TOTAL FREE ENERGY PREDICTED BY IDOCK:   -7.28 KCAL/MOL
REMARK 923 INTER-LIGAND FREE ENERGY PREDICTED BY IDOCK:   -6.83 KCAL/MOL
REMARK 924 INTRA-LIGAND FREE ENERGY PREDICTED BY IDOCK:   -0.45 KCAL/MOL
REMARK 927      BINDING AFFINITY PREDICTED BY RF-SCORE:    0.00 PKD
ROOT
HETATM    1  O   UNL     1     -11.378  16.625  68.078  1.00  0.00    -0.251 OA 
HETATM    2  C   UNL     1     -11.348  15.346  67.648  1.00  0.00    -0.290 C  
HETATM    3  C   UNL     1     -11.705  14.316  68.668  1.00  0.00    -0.380 A  
HETATM    4  O   UNL     1     -11.046  15.056  66.502  1.00  0.00    -0.333 OA 
HETATM    5  C   UNL     1     -11.693  12.968  68.258  1.00  0.00    -0.390 A  
HETATM    6  C   UNL     1     -12.030  11.933  69.144  1.00  0.00    -0.276 A  
HETATM    7  C   UNL     1     -12.377  12.276  70.457  1.00  0.00    -0.349 A  
HETATM    8  C   UNL     1     -12.064  14.620  69.988  1.00  0.00    -0.329 A  
HETATM    9  H   UNL     1     -12.350  16.130  71.307  1.00  0.00     0.000 HD 
HETATM   10  C   UNL     1     -12.394  13.606  70.885  1.00  0.00    -0.450 A  
HETATM   11  O   UNL     1     -12.106  15.924  70.412  1.00  0.00    -0.361 OA 
ENDROOT
BRANCH   6  12
HETATM   12  N   UNL     1     -12.126  10.572  68.787  1.00  0.00    -0.772 NA 
HETATM   13  H   UNL     1     -12.993  10.038  68.847  1.00  0.00     0.000 HD 
BRANCH  12  14
HETATM   14  N   UNL     1     -11.049  10.082  68.389  1.00  0.00    -0.438 NA 
HETATM   15  H   UNL     1     -10.634  10.282  67.479  1.00  0.00     0.000 HD 
BRANCH  14  16
HETATM   16  C   UNL     1     -10.471   9.216  69.346  1.00  0.00    -0.219 A  
HETATM   17  C   UNL     1      -8.653   7.689  69.905  1.00  0.00    -0.138 A  
HETATM   18  C   UNL     1      -9.250   8.606  69.034  1.00  0.00    -0.145 A  
HETATM   19  C   UNL     1      -9.284   7.363  71.104  1.00  0.00    -0.155 A  
HETATM   20  C   UNL     1     -10.503   7.956  71.452  1.00  0.00    -0.242 A  
HETATM   21  O   UNL     1      -8.701   6.443  71.940  1.00  0.00    -0.134 OA 
HETATM   22  C   UNL     1     -11.244   7.666  72.716  1.00  0.00    -0.377 C  
HETATM   23  C   UNL     1     -11.086   8.878  70.563  1.00  0.00    -0.288 A  
HETATM   24  H   UNL     1      -9.131   6.220  72.757  1.00  0.00     0.000 HD 
HETATM   25  O   UNL     1     -10.680   6.742  73.521  1.00  0.00    -0.309 OA 
HETATM   26  O   UNL     1     -12.292   8.223  73.002  1.00  0.00    -0.205 OA 
ENDBRANCH  14  16
ENDBRANCH  12  14
ENDBRANCH   6  12
TORSDOF 3
ENDMDL
MODEL      119
REMARK 921   NORMALIZED FREE ENERGY PREDICTED BY IDOCK:   -5.88 KCAL/MOL
REMARK 922        TOTAL FREE ENERGY PREDICTED BY IDOCK:   -7.27 KCAL/MOL
REMARK 923 INTER-LIGAND FREE ENERGY PREDICTED BY IDOCK:   -6.83 KCAL/MOL
REMARK 924 INTRA-LIGAND FREE ENERGY PREDICTED BY IDOCK:   -0.45 KCAL/MOL
REMARK 927      BINDING AFFINITY PREDICTED BY RF-SCORE:    0.00 PKD
ROOT
HETATM    1  O   UNL     1     -13.018  15.820  71.831  1.00  0.00    -0.444 OA 
HETATM    2  C   UNL     1     -13.117  14.506  72.124  1.00  0.00    -0.356 C  
HETATM    3  C   UNL     1     -12.647  13.573  71.058  1.00  0.00    -0.438 A  
HETATM    4  O   UNL     1     -13.563  14.112  73.190  1.00  0.00    -0.579 OA 
HETATM    5  C   UNL     1     -12.727  12.191  71.327  1.00  0.00    -0.363 A  
HETATM    6  C   UNL     1     -12.294  11.241  70.389  1.00  0.00    -0.329 A  
HETATM    7  C   UNL     1     -11.782  11.702  69.170  1.00  0.00    -0.390 A  
HETATM    8  C   UNL     1     -12.122  13.995  69.830  1.00  0.00    -0.348 A  
HETATM    9  H   UNL     1     -11.657  15.620  68.714  1.00  0.00     0.000 HD 
HETATM   10  C   UNL     1     -11.695  13.066  68.883  1.00  0.00    -0.371 A  
HETATM   11  O   UNL     1     -12.013  15.333  69.547  1.00  0.00    -0.320 OA 
ENDROOT
BRANCH   6  12
HETATM   12  N   UNL     1     -12.260   9.848  70.618  1.00  0.00    -0.406 NA 
HETATM   13  H   UNL     1     -13.097   9.266  70.645  1.00  0.00     0.000 HD 
BRANCH  12  14
HETATM   14  N   UNL     1     -11.109   9.397  70.785  1.00  0.00    -0.274 NA 
HETATM   15  H   UNL     1     -10.432   9.791  71.438  1.00  0.00     0.000 HD 
BRANCH  14  16
HETATM   16  C   UNL     1     -10.852   8.275  69.963  1.00  0.00    -0.232 A  
HETATM   17  C   UNL     1     -10.919   5.850  69.715  1.00  0.00    -0.452 A  
HETATM   18  C   UNL     1     -11.202   7.008  70.445  1.00  0.00    -0.339 A  
HETATM   19  C   UNL     1     -10.266   5.948  68.487  1.00  0.00    -0.192 A  
HETATM   20  C   UNL     1      -9.904   7.198  67.971  1.00  0.00    -0.158 A  
HETATM   21  O   UNL     1      -9.971   4.803  67.790  1.00  0.00    -0.157 OA 
HETATM   22  C   UNL     1      -9.206   7.394  66.666  1.00  0.00    -0.158 C  
HETATM   23  C   UNL     1     -10.200   8.352  68.720  1.00  0.00    -0.223 A  
HETATM   24  H   UNL     1      -9.526   4.870  66.954  1.00  0.00     0.000 HD 
HETATM   25  O   UNL     1      -8.895   6.264  65.999  1.00  0.00    -0.151 OA 
HETATM   26  O   UNL     1      -8.930   8.502  66.232  1.00  0.00    -0.147 OA 
ENDBRANCH  14  16
ENDBRANCH  12  14
ENDBRANCH   6  12
TORSDOF 3
ENDMDL
MODEL      120
REMARK 921   NORMALIZED FREE ENERGY PREDICTED BY IDOCK:   -5.87 KCAL/MOL
REMARK 922        TOTAL FREE ENERGY PREDICTED BY IDOCK:   -7.26 KCAL/MOL
REMARK 923 INTER-LIGAND FREE ENERGY PREDICTED BY IDOCK:   -6.80 KCAL/MOL
REMARK 924 INTRA-LIGAND FREE ENERGY PREDICTED BY IDOCK:   -0.46 KCAL/MOL
REMARK 927      BINDING AFFINITY PREDICTED BY RF-SCORE:    0.00 PKD
ROOT
HETATM    1  O   UNL     1     -12.000  16.297  70.952  1.00  0.00    -0.304 OA 
HETATM    2  C   UNL     1     -11.730  15.245  70.150  1.00  0.00    -0.312 C  
HETATM    3  C   UNL     1     -12.203  13.919  70.648  1.00  0.00    -0.443 A  
HETATM    4  O   UNL     1     -11.138  15.373  69.090  1.00  0.00    -0.236 OA 
HETATM    5  C   UNL     1     -11.949  12.795  69.837  1.00  0.00    -0.368 A  
HETATM    6  C   UNL     1     -12.369  11.512  70.218  1.00  0.00    -0.273 A  
HETATM    7  C   UNL     1     -13.051  11.374  71.434  1.00  0.00    -0.377 A  
HETATM    8  C   UNL     1     -12.893  13.743  71.855  1.00  0.00    -0.309 A  
HETATM    9  H   UNL     1     -13.642  14.700  73.475  1.00  0.00     0.000 HD 
HETATM   10  C   UNL     1     -13.312  12.475  72.254  1.00  0.00    -0.475 A  
HETATM   11  O   UNL     1     -13.174  14.820  72.656  1.00  0.00    -0.385 OA 
ENDROOT
BRANCH   6  12
HETATM   12  N   UNL     1     -12.230  10.354  69.423  1.00  0.00    -0.592 NA 
HETATM   13  H   UNL     1     -12.328   9.408  69.792  1.00  0.00     0.000 HD 
BRANCH  12  14
HETATM   14  N   UNL     1     -11.977  10.598  68.226  1.00  0.00    -0.814 NA 
HETATM   15  H   UNL     1     -12.499  11.263  67.657  1.00  0.00     0.000 HD 
BRANCH  14  16
HETATM   16  C   UNL     1     -10.880   9.842  67.749  1.00  0.00    -0.264 A  
HETATM   17  C   UNL     1      -9.109   8.244  68.258  1.00  0.00    -0.135 A  
HETATM   18  C   UNL     1     -10.239   8.972  68.640  1.00  0.00    -0.226 A  
HETATM   19  C   UNL     1      -8.597   8.388  66.969  1.00  0.00    -0.122 A  
HETATM   20  C   UNL     1      -9.213   9.245  66.049  1.00  0.00    -0.262 A  
HETATM   21  O   UNL     1      -7.472   7.686  66.612  1.00  0.00    -0.089 OA 
HETATM   22  C   UNL     1      -8.733   9.456  64.652  1.00  0.00    -0.200 C  
HETATM   23  C   UNL     1     -10.351   9.968  66.454  1.00  0.00    -0.249 A  
HETATM   24  H   UNL     1      -7.123   7.785  65.734  1.00  0.00     0.000 HD 
HETATM   25  O   UNL     1      -7.613   8.785  64.314  1.00  0.00    -0.107 OA 
HETATM   26  O   UNL     1      -9.312  10.191  63.866  1.00  0.00    -0.257 OA 
ENDBRANCH  14  16
ENDBRANCH  12  14
ENDBRANCH   6  12
TORSDOF 3
ENDMDL
MODEL      121
REMARK 921   NORMALIZED FREE ENERGY PREDICTED BY IDOCK:   -5.86 KCAL/MOL
REMARK 922        TOTAL FREE ENERGY PREDICTED BY IDOCK:   -7.25 KCAL/MOL
REMARK 923 INTER-LIGAND FREE ENERGY PREDICTED BY IDOCK:   -6.82 KCAL/MOL
REMARK 924 INTRA-LIGAND FREE ENERGY PREDICTED BY IDOCK:   -0.43 KCAL/MOL
REMARK 927      BINDING AFFINITY PREDICTED BY RF-SCORE:    0.00 PKD
ROOT
HETATM    1  O   UNL     1     -10.812  12.188  63.595  1.00  0.00    -0.386 OA 
HETATM    2  C   UNL     1     -10.536  11.640  64.797  1.00  0.00    -0.304 C  
HETATM    3  C   UNL     1     -10.984  12.430  65.982  1.00  0.00    -0.324 A  
HETATM    4  O   UNL     1      -9.958  10.570  64.904  1.00  0.00    -0.289 OA 
HETATM    5  C   UNL     1     -10.723  11.890  67.257  1.00  0.00    -0.276 A  
HETATM    6  C   UNL     1     -11.121  12.556  68.426  1.00  0.00    -0.258 A  
HETATM    7  C   UNL     1     -11.786  13.781  68.294  1.00  0.00    -0.394 A  
HETATM    8  C   UNL     1     -11.658  13.655  65.890  1.00  0.00    -0.328 A  
HETATM    9  H   UNL     1     -12.403  15.028  64.600  1.00  0.00     0.000 HD 
HETATM   10  C   UNL     1     -12.054  14.335  67.040  1.00  0.00    -0.424 A  
HETATM   11  O   UNL     1     -11.945  14.197  64.663  1.00  0.00    -0.399 OA 
ENDROOT
BRANCH   6  12
HETATM   12  N   UNL     1     -10.974  12.040  69.731  1.00  0.00    -0.450 NA 
HETATM   13  H   UNL     1     -11.537  12.354  70.522  1.00  0.00     0.000 HD 
BRANCH  12  14
HETATM   14  N   UNL     1     -10.091  11.163  69.826  1.00  0.00    -0.308 NA 
HETATM   15  H   UNL     1      -9.163  11.243  69.410  1.00  0.00     0.000 HD 
BRANCH  14  16
HETATM   16  C   UNL     1     -10.526  10.047  70.579  1.00  0.00    -0.198 A  
HETATM   17  C   UNL     1     -12.404   8.704  71.364  1.00  0.00    -0.344 A  
HETATM   18  C   UNL     1     -11.895   9.752  70.591  1.00  0.00    -0.360 A  
HETATM   19  C   UNL     1     -11.541   7.940  72.149  1.00  0.00    -0.328 A  
HETATM   20  C   UNL     1     -10.166   8.203  72.157  1.00  0.00    -0.330 A  
HETATM   21  O   UNL     1     -12.055   6.930  72.922  1.00  0.00    -0.432 OA 
HETATM   22  C   UNL     1      -9.173   7.435  72.965  1.00  0.00    -0.165 C  
HETATM   23  C   UNL     1      -9.673   9.261  71.371  1.00  0.00    -0.269 A  
HETATM   24  H   UNL     1     -11.467   6.410  73.457  1.00  0.00     0.000 HD 
HETATM   25  O   UNL     1      -9.687   6.461  73.744  1.00  0.00    -0.161 OA 
HETATM   26  O   UNL     1      -7.976   7.673  72.928  1.00  0.00    -0.096 OA 
ENDBRANCH  14  16
ENDBRANCH  12  14
ENDBRANCH   6  12
TORSDOF 3
ENDMDL
MODEL      122
REMARK 921   NORMALIZED FREE ENERGY PREDICTED BY IDOCK:   -5.86 KCAL/MOL
REMARK 922        TOTAL FREE ENERGY PREDICTED BY IDOCK:   -7.25 KCAL/MOL
REMARK 923 INTER-LIGAND FREE ENERGY PREDICTED BY IDOCK:   -6.87 KCAL/MOL
REMARK 924 INTRA-LIGAND FREE ENERGY PREDICTED BY IDOCK:   -0.38 KCAL/MOL
REMARK 927      BINDING AFFINITY PREDICTED BY RF-SCORE:    0.00 PKD
ROOT
HETATM    1  O   UNL     1     -11.714  16.577  63.859  1.00  0.00    -1.148 OA 
HETATM    2  C   UNL     1     -11.785  15.279  64.222  1.00  0.00    -0.215 C  
HETATM    3  C   UNL     1     -10.815  14.851  65.272  1.00  0.00    -0.398 A  
HETATM    4  O   UNL     1     -12.590  14.509  63.721  1.00  0.00    -0.825 OA 
HETATM    5  C   UNL     1     -10.860  13.505  65.686  1.00  0.00    -0.292 A  
HETATM    6  C   UNL     1      -9.996  13.017  66.678  1.00  0.00    -0.250 A  
HETATM    7  C   UNL     1      -9.078  13.908  67.249  1.00  0.00    -0.230 A  
HETATM    8  C   UNL     1      -9.886  15.714  65.871  1.00  0.00    -0.350 A  
HETATM    9  H   UNL     1      -9.202  17.619  65.911  1.00  0.00     0.000 HD 
HETATM   10  C   UNL     1      -9.015  15.246  66.853  1.00  0.00    -0.274 A  
HETATM   11  O   UNL     1      -9.831  17.034  65.505  1.00  0.00    -0.551 OA 
ENDROOT
BRANCH   6  12
HETATM   12  N   UNL     1     -10.039  11.710  67.207  1.00  0.00    -0.198 NA 
HETATM   13  H   UNL     1     -10.530  10.940  66.751  1.00  0.00     0.000 HD 
BRANCH  12  14
HETATM   14  N   UNL     1      -9.421  11.584  68.283  1.00  0.00    -0.184 NA 
HETATM   15  H   UNL     1      -8.968  12.355  68.773  1.00  0.00     0.000 HD 
BRANCH  14  16
HETATM   16  C   UNL     1      -9.422  10.247  68.745  1.00  0.00    -0.176 A  
HETATM   17  C   UNL     1     -10.246   7.970  68.449  1.00  0.00    -0.239 A  
HETATM   18  C   UNL     1     -10.147   9.296  68.017  1.00  0.00    -0.234 A  
HETATM   19  C   UNL     1      -9.623   7.582  69.635  1.00  0.00    -0.159 A  
HETATM   20  C   UNL     1      -8.885   8.504  70.387  1.00  0.00    -0.157 A  
HETATM   21  O   UNL     1      -9.747   6.283  70.063  1.00  0.00    -0.165 OA 
HETATM   22  C   UNL     1      -8.185   8.172  71.664  1.00  0.00    -0.126 C  
HETATM   23  C   UNL     1      -8.796   9.833  69.933  1.00  0.00    -0.248 A  
HETATM   24  H   UNL     1      -9.322   6.019  70.871  1.00  0.00     0.000 HD 
HETATM   25  O   UNL     1      -8.333   6.902  72.094  1.00  0.00    -0.106 OA 
HETATM   26  O   UNL     1      -7.527   8.994  72.281  1.00  0.00    -0.340 OA 
ENDBRANCH  14  16
ENDBRANCH  12  14
ENDBRANCH   6  12
TORSDOF 3
ENDMDL
MODEL      123
REMARK 921   NORMALIZED FREE ENERGY PREDICTED BY IDOCK:   -5.84 KCAL/MOL
REMARK 922        TOTAL FREE ENERGY PREDICTED BY IDOCK:   -7.23 KCAL/MOL
REMARK 923 INTER-LIGAND FREE ENERGY PREDICTED BY IDOCK:   -6.78 KCAL/MOL
REMARK 924 INTRA-LIGAND FREE ENERGY PREDICTED BY IDOCK:   -0.45 KCAL/MOL
REMARK 927      BINDING AFFINITY PREDICTED BY RF-SCORE:    0.00 PKD
ROOT
HETATM    1  O   UNL     1      -9.499   6.184  66.142  1.00  0.00    -0.147 OA 
HETATM    2  C   UNL     1      -9.811   7.336  66.772  1.00  0.00    -0.212 C  
HETATM    3  C   UNL     1     -10.344   7.187  68.158  1.00  0.00    -0.234 A  
HETATM    4  O   UNL     1      -9.667   8.425  66.239  1.00  0.00    -0.238 OA 
HETATM    5  C   UNL     1     -10.675   8.366  68.855  1.00  0.00    -0.095 A  
HETATM    6  C   UNL     1     -11.169   8.323  70.168  1.00  0.00    -0.132 A  
HETATM    7  C   UNL     1     -11.328   7.070  70.772  1.00  0.00    -0.339 A  
HETATM    8  C   UNL     1     -10.511   5.952  68.798  1.00  0.00    -0.249 A  
HETATM    9  H   UNL     1     -10.292   3.950  68.589  1.00  0.00     0.000 HD 
HETATM   10  C   UNL     1     -11.007   5.888  70.099  1.00  0.00    -0.412 A  
HETATM   11  O   UNL     1     -10.178   4.787  68.154  1.00  0.00    -0.093 OA 
ENDROOT
BRANCH   6  12
HETATM   12  N   UNL     1     -11.440   9.460  70.960  1.00  0.00    -0.305 NA 
HETATM   13  H   UNL     1     -10.786   9.825  71.653  1.00  0.00     0.000 HD 
BRANCH  12  14
HETATM   14  N   UNL     1     -12.552   9.975  70.731  1.00  0.00    -0.448 NA 
HETATM   15  H   UNL     1     -13.432   9.459  70.742  1.00  0.00     0.000 HD 
BRANCH  14  16
HETATM   16  C   UNL     1     -12.452  11.359  70.456  1.00  0.00    -0.293 A  
HETATM   17  C   UNL     1     -11.840  13.098  68.859  1.00  0.00    -0.361 A  
HETATM   18  C   UNL     1     -12.024  11.750  69.181  1.00  0.00    -0.356 A  
HETATM   19  C   UNL     1     -12.074  14.078  69.823  1.00  0.00    -0.348 A  
HETATM   20  C   UNL     1     -12.508  13.725  71.106  1.00  0.00    -0.450 A  
HETATM   21  O   UNL     1     -11.866  15.397  69.503  1.00  0.00    -0.314 OA 
HETATM   22  C   UNL     1     -12.784  14.708  72.195  1.00  0.00    -0.334 C  
HETATM   23  C   UNL     1     -12.689  12.362  71.410  1.00  0.00    -0.346 A  
HETATM   24  H   UNL     1     -12.026  16.064  70.160  1.00  0.00     0.000 HD 
HETATM   25  O   UNL     1     -12.553  16.000  71.884  1.00  0.00    -0.452 OA 
HETATM   26  O   UNL     1     -13.189  14.368  73.296  1.00  0.00    -0.622 OA 
ENDBRANCH  14  16
ENDBRANCH  12  14
ENDBRANCH   6  12
TORSDOF 3
ENDMDL
MODEL      124
REMARK 921   NORMALIZED FREE ENERGY PREDICTED BY IDOCK:   -5.82 KCAL/MOL
REMARK 922        TOTAL FREE ENERGY PREDICTED BY IDOCK:   -7.20 KCAL/MOL
REMARK 923 INTER-LIGAND FREE ENERGY PREDICTED BY IDOCK:   -6.71 KCAL/MOL
REMARK 924 INTRA-LIGAND FREE ENERGY PREDICTED BY IDOCK:   -0.50 KCAL/MOL
REMARK 927      BINDING AFFINITY PREDICTED BY RF-SCORE:    0.00 PKD
ROOT
HETATM    1  O   UNL     1     -11.253  16.372  70.259  1.00  0.00    -0.367 OA 
HETATM    2  C   UNL     1     -11.226  15.116  69.766  1.00  0.00    -0.279 C  
HETATM    3  C   UNL     1     -11.959  14.094  70.570  1.00  0.00    -0.393 A  
HETATM    4  O   UNL     1     -10.641  14.838  68.731  1.00  0.00    -0.236 OA 
HETATM    5  C   UNL     1     -11.962  12.770  70.086  1.00  0.00    -0.371 A  
HETATM    6  C   UNL     1     -12.637  11.746  70.769  1.00  0.00    -0.253 A  
HETATM    7  C   UNL     1     -13.308  12.074  71.954  1.00  0.00    -0.408 A  
HETATM    8  C   UNL     1     -12.647  14.384  71.756  1.00  0.00    -0.351 A  
HETATM    9  H   UNL     1     -13.146  15.863  73.046  1.00  0.00     0.000 HD 
HETATM   10  C   UNL     1     -13.316  13.379  72.452  1.00  0.00    -0.629 A  
HETATM   11  O   UNL     1     -12.679  15.666  72.242  1.00  0.00    -0.370 OA 
ENDROOT
BRANCH   6  12
HETATM   12  N   UNL     1     -12.760  10.420  70.304  1.00  0.00    -0.526 NA 
HETATM   13  H   UNL     1     -12.944  10.185  69.328  1.00  0.00     0.000 HD 
BRANCH  12  14
HETATM   14  N   UNL     1     -12.623   9.561  71.199  1.00  0.00    -0.386 NA 
HETATM   15  H   UNL     1     -13.395   9.183  71.749  1.00  0.00     0.000 HD 
BRANCH  14  16
HETATM   16  C   UNL     1     -11.273   9.172  71.362  1.00  0.00    -0.349 A  
HETATM   17  C   UNL     1      -9.577   8.195  72.818  1.00  0.00    -0.353 A  
HETATM   18  C   UNL     1     -10.905   8.549  72.561  1.00  0.00    -0.304 A  
HETATM   19  C   UNL     1      -8.592   8.476  71.872  1.00  0.00    -0.188 A  
HETATM   20  C   UNL     1      -8.923   9.093  70.660  1.00  0.00    -0.292 A  
HETATM   21  O   UNL     1      -7.287   8.147  72.145  1.00  0.00    -0.086 OA 
HETATM   22  C   UNL     1      -7.933   9.426  69.593  1.00  0.00    -0.109 C  
HETATM   23  C   UNL     1     -10.266   9.438  70.420  1.00  0.00    -0.310 A  
HETATM   24  H   UNL     1      -6.616   8.338  71.500  1.00  0.00     0.000 HD 
HETATM   25  O   UNL     1      -6.649   9.126  69.877  1.00  0.00    -0.043 OA 
HETATM   26  O   UNL     1      -8.260   9.940  68.535  1.00  0.00    -0.103 OA 
ENDBRANCH  14  16
ENDBRANCH  12  14
ENDBRANCH   6  12
TORSDOF 3
ENDMDL
MODEL      125
REMARK 921   NORMALIZED FREE ENERGY PREDICTED BY IDOCK:   -5.82 KCAL/MOL
REMARK 922        TOTAL FREE ENERGY PREDICTED BY IDOCK:   -7.20 KCAL/MOL
REMARK 923 INTER-LIGAND FREE ENERGY PREDICTED BY IDOCK:   -6.59 KCAL/MOL
REMARK 924 INTRA-LIGAND FREE ENERGY PREDICTED BY IDOCK:   -0.61 KCAL/MOL
REMARK 927      BINDING AFFINITY PREDICTED BY RF-SCORE:    0.00 PKD
ROOT
HETATM    1  O   UNL     1     -10.276  17.832  65.393  1.00  0.00    -0.551 OA 
HETATM    2  C   UNL     1     -10.258  16.863  66.333  1.00  0.00    -0.321 C  
HETATM    3  C   UNL     1     -11.024  15.627  65.996  1.00  0.00    -0.213 A  
HETATM    4  O   UNL     1      -9.655  16.994  67.386  1.00  0.00    -0.241 OA 
HETATM    5  C   UNL     1     -11.025  14.587  66.948  1.00  0.00    -0.316 A  
HETATM    6  C   UNL     1     -11.706  13.383  66.711  1.00  0.00    -0.385 A  
HETATM    7  C   UNL     1     -12.392  13.241  65.499  1.00  0.00    -0.533 A  
HETATM    8  C   UNL     1     -11.718  15.445  64.792  1.00  0.00    -0.232 A  
HETATM    9  H   UNL     1     -12.189  16.306  63.022  1.00  0.00     0.000 HD 
HETATM   10  C   UNL     1     -12.406  14.259  64.543  1.00  0.00    -0.432 A  
HETATM   11  O   UNL     1     -11.719  16.430  63.838  1.00  0.00    -1.085 OA 
ENDROOT
BRANCH   6  12
HETATM   12  N   UNL     1     -11.680  12.266  67.573  1.00  0.00    -0.459 NA 
HETATM   13  H   UNL     1     -11.842  12.332  68.578  1.00  0.00     0.000 HD 
BRANCH  12  14
HETATM   14  N   UNL     1     -11.442  11.189  66.989  1.00  0.00    -0.439 NA 
HETATM   15  H   UNL     1     -12.140  10.657  66.469  1.00  0.00     0.000 HD 
BRANCH  14  16
HETATM   16  C   UNL     1     -10.092  10.792  67.133  1.00  0.00    -0.204 A  
HETATM   17  C   UNL     1      -7.977  10.264  66.038  1.00  0.00    -0.138 A  
HETATM   18  C   UNL     1      -9.301  10.711  65.981  1.00  0.00    -0.219 A  
HETATM   19  C   UNL     1      -7.430   9.878  67.262  1.00  0.00    -0.087 A  
HETATM   20  C   UNL     1      -8.190   9.950  68.435  1.00  0.00    -0.106 A  
HETATM   21  O   UNL     1      -6.138   9.418  67.303  1.00  0.00    -0.055 OA 
HETATM   22  C   UNL     1      -7.683   9.561  69.785  1.00  0.00    -0.123 C  
HETATM   23  C   UNL     1      -9.520  10.405  68.356  1.00  0.00    -0.151 A  
HETATM   24  H   UNL     1      -5.766   9.155  68.137  1.00  0.00     0.000 HD 
HETATM   25  O   UNL     1      -6.422   9.083  69.816  1.00  0.00    -0.037 OA 
HETATM   26  O   UNL     1      -8.364   9.662  70.793  1.00  0.00    -0.264 OA 
ENDBRANCH  14  16
ENDBRANCH  12  14
ENDBRANCH   6  12
TORSDOF 3
ENDMDL
MODEL      126
REMARK 921   NORMALIZED FREE ENERGY PREDICTED BY IDOCK:   -5.81 KCAL/MOL
REMARK 922        TOTAL FREE ENERGY PREDICTED BY IDOCK:   -7.20 KCAL/MOL
REMARK 923 INTER-LIGAND FREE ENERGY PREDICTED BY IDOCK:   -6.80 KCAL/MOL
REMARK 924 INTRA-LIGAND FREE ENERGY PREDICTED BY IDOCK:   -0.39 KCAL/MOL
REMARK 927      BINDING AFFINITY PREDICTED BY RF-SCORE:    0.00 PKD
ROOT
HETATM    1  O   UNL     1     -10.575  17.321  65.187  1.00  0.00    -0.686 OA 
HETATM    2  C   UNL     1     -10.479  16.384  66.153  1.00  0.00    -0.314 C  
HETATM    3  C   UNL     1     -11.161  15.088  65.862  1.00  0.00    -0.334 A  
HETATM    4  O   UNL     1      -9.874  16.586  67.195  1.00  0.00    -0.244 OA 
HETATM    5  C   UNL     1     -11.078  14.079  66.842  1.00  0.00    -0.310 A  
HETATM    6  C   UNL     1     -11.677  12.824  66.647  1.00  0.00    -0.393 A  
HETATM    7  C   UNL     1     -12.365  12.600  65.449  1.00  0.00    -0.499 A  
HETATM    8  C   UNL     1     -11.853  14.824  64.672  1.00  0.00    -0.436 A  
HETATM    9  H   UNL     1     -12.403  15.599  62.884  1.00  0.00     0.000 HD 
HETATM   10  C   UNL     1     -12.460  13.587  64.465  1.00  0.00    -0.344 A  
HETATM   11  O   UNL     1     -11.933  15.779  63.691  1.00  0.00    -0.504 OA 
ENDROOT
BRANCH   6  12
HETATM   12  N   UNL     1     -11.564  11.736  67.540  1.00  0.00    -0.506 NA 
HETATM   13  H   UNL     1     -12.169  11.616  68.352  1.00  0.00     0.000 HD 
BRANCH  12  14
HETATM   14  N   UNL     1     -10.655  10.936  67.241  1.00  0.00    -0.236 NA 
HETATM   15  H   UNL     1     -10.392  10.705  66.283  1.00  0.00     0.000 HD 
BRANCH  14  16
HETATM   16  C   UNL     1     -10.032  10.385  68.385  1.00  0.00    -0.162 A  
HETATM   17  C   UNL     1      -8.054  10.305  69.810  1.00  0.00    -0.125 A  
HETATM   18  C   UNL     1      -8.757  10.849  68.731  1.00  0.00    -0.158 A  
HETATM   19  C   UNL     1      -8.622   9.272  70.555  1.00  0.00    -0.233 A  
HETATM   20  C   UNL     1      -9.897   8.786  70.241  1.00  0.00    -0.198 A  
HETATM   21  O   UNL     1      -7.913   8.729  71.597  1.00  0.00    -0.207 OA 
HETATM   22  C   UNL     1     -10.579   7.686  70.987  1.00  0.00    -0.217 C  
HETATM   23  C   UNL     1     -10.589   9.349  69.153  1.00  0.00    -0.234 A  
HETATM   24  H   UNL     1      -8.301   8.025  72.104  1.00  0.00     0.000 HD 
HETATM   25  O   UNL     1      -9.867   7.138  71.992  1.00  0.00    -0.159 OA 
HETATM   26  O   UNL     1     -11.704   7.305  70.704  1.00  0.00    -0.303 OA 
ENDBRANCH  14  16
ENDBRANCH  12  14
ENDBRANCH   6  12
TORSDOF 3
ENDMDL
MODEL      127
REMARK 921   NORMALIZED FREE ENERGY PREDICTED BY IDOCK:   -5.81 KCAL/MOL
REMARK 922        TOTAL FREE ENERGY PREDICTED BY IDOCK:   -7.19 KCAL/MOL
REMARK 923 INTER-LIGAND FREE ENERGY PREDICTED BY IDOCK:   -6.77 KCAL/MOL
REMARK 924 INTRA-LIGAND FREE ENERGY PREDICTED BY IDOCK:   -0.42 KCAL/MOL
REMARK 927      BINDING AFFINITY PREDICTED BY RF-SCORE:    0.00 PKD
ROOT
HETATM    1  O   UNL     1      -9.992   4.057  69.580  1.00  0.00    -0.166 OA 
HETATM    2  C   UNL     1     -10.249   5.257  70.142  1.00  0.00    -0.280 C  
HETATM    3  C   UNL     1     -10.402   6.394  69.186  1.00  0.00    -0.248 A  
HETATM    4  O   UNL     1     -10.349   5.399  71.350  1.00  0.00    -0.213 OA 
HETATM    5  C   UNL     1     -10.679   7.664  69.731  1.00  0.00    -0.243 A  
HETATM    6  C   UNL     1     -10.852   8.787  68.908  1.00  0.00    -0.008 A  
HETATM    7  C   UNL     1     -10.739   8.615  67.523  1.00  0.00    -0.209 A  
HETATM    8  C   UNL     1     -10.302   6.259  67.795  1.00  0.00    -0.195 A  
HETATM    9  H   UNL     1      -9.986   4.942  66.290  1.00  0.00     0.000 HD 
HETATM   10  C   UNL     1     -10.464   7.365  66.962  1.00  0.00    -0.404 A  
HETATM   11  O   UNL     1     -10.053   5.033  67.234  1.00  0.00    -0.182 OA 
ENDROOT
BRANCH   6  12
HETATM   12  N   UNL     1     -11.218  10.070  69.370  1.00  0.00    -0.347 NA 
HETATM   13  H   UNL     1     -10.835  10.487  70.219  1.00  0.00     0.000 HD 
BRANCH  12  14
HETATM   14  N   UNL     1     -12.053  10.645  68.643  1.00  0.00    -0.812 NA 
HETATM   15  H   UNL     1     -12.849  10.176  68.210  1.00  0.00     0.000 HD 
BRANCH  14  16
HETATM   16  C   UNL     1     -11.768  12.021  68.489  1.00  0.00    -0.332 A  
HETATM   17  C   UNL     1     -11.644  14.223  69.531  1.00  0.00    -0.353 A  
HETATM   18  C   UNL     1     -11.849  12.843  69.620  1.00  0.00    -0.387 A  
HETATM   19  C   UNL     1     -11.364  14.802  68.294  1.00  0.00    -0.301 A  
HETATM   20  C   UNL     1     -11.271  14.012  67.143  1.00  0.00    -0.327 A  
HETATM   21  O   UNL     1     -11.189  16.162  68.214  1.00  0.00    -0.352 OA 
HETATM   22  C   UNL     1     -10.973  14.548  65.781  1.00  0.00    -0.319 C  
HETATM   23  C   UNL     1     -11.478  12.624  67.254  1.00  0.00    -0.402 A  
HETATM   24  H   UNL     1     -10.998  16.556  67.371  1.00  0.00     0.000 HD 
HETATM   25  O   UNL     1     -10.828  15.887  65.704  1.00  0.00    -0.329 OA 
HETATM   26  O   UNL     1     -10.871  13.826  64.802  1.00  0.00    -0.357 OA 
ENDBRANCH  14  16
ENDBRANCH  12  14
ENDBRANCH   6  12
TORSDOF 3
ENDMDL
MODEL      128
REMARK 921   NORMALIZED FREE ENERGY PREDICTED BY IDOCK:   -5.80 KCAL/MOL
REMARK 922        TOTAL FREE ENERGY PREDICTED BY IDOCK:   -7.18 KCAL/MOL
REMARK 923 INTER-LIGAND FREE ENERGY PREDICTED BY IDOCK:   -7.01 KCAL/MOL
REMARK 924 INTRA-LIGAND FREE ENERGY PREDICTED BY IDOCK:   -0.17 KCAL/MOL
REMARK 927      BINDING AFFINITY PREDICTED BY RF-SCORE:    0.00 PKD
ROOT
HETATM    1  O   UNL     1     -12.876  10.141  72.018  1.00  0.00    -0.411 OA 
HETATM    2  C   UNL     1     -12.074  10.586  71.028  1.00  0.00    -0.387 C  
HETATM    3  C   UNL     1     -12.168  12.046  70.731  1.00  0.00    -0.382 A  
HETATM    4  O   UNL     1     -11.324   9.840  70.417  1.00  0.00    -0.262 OA 
HETATM    5  C   UNL     1     -11.342  12.553  69.708  1.00  0.00    -0.111 A  
HETATM    6  C   UNL     1     -11.353  13.915  69.370  1.00  0.00    -0.258 A  
HETATM    7  C   UNL     1     -12.214  14.763  70.078  1.00  0.00    -0.383 A  
HETATM    8  C   UNL     1     -13.012  12.927  71.421  1.00  0.00    -0.270 A  
HETATM    9  H   UNL     1     -14.385  13.065  72.902  1.00  0.00     0.000 HD 
HETATM   10  C   UNL     1     -13.042  14.281  71.094  1.00  0.00    -0.412 A  
HETATM   11  O   UNL     1     -13.813  12.467  72.435  1.00  0.00    -0.404 OA 
ENDROOT
BRANCH   6  12
HETATM   12  N   UNL     1     -10.495  14.512  68.422  1.00  0.00    -0.240 NA 
HETATM   13  H   UNL     1     -10.636  15.454  68.057  1.00  0.00     0.000 HD 
BRANCH  12  14
HETATM   14  N   UNL     1      -9.547  13.779  68.074  1.00  0.00    -0.208 NA 
HETATM   15  H   UNL     1      -8.640  13.761  68.540  1.00  0.00     0.000 HD 
BRANCH  14  16
HETATM   16  C   UNL     1      -9.877  12.976  66.957  1.00  0.00    -0.238 A  
HETATM   17  C   UNL     1      -9.264  11.102  65.521  1.00  0.00    -0.236 A  
HETATM   18  C   UNL     1      -9.037  11.899  66.647  1.00  0.00    -0.203 A  
HETATM   19  C   UNL     1     -10.339  11.385  64.679  1.00  0.00    -0.307 A  
HETATM   20  C   UNL     1     -11.203  12.451  64.960  1.00  0.00    -0.354 A  
HETATM   21  O   UNL     1     -10.539  10.611  63.563  1.00  0.00    -0.500 OA 
HETATM   22  C   UNL     1     -12.377  12.821  64.116  1.00  0.00    -0.407 C  
HETATM   23  C   UNL     1     -10.958  13.239  66.100  1.00  0.00    -0.292 A  
HETATM   24  H   UNL     1     -11.272  10.805  62.990  1.00  0.00     0.000 HD 
HETATM   25  O   UNL     1     -12.553  12.074  63.006  1.00  0.00    -0.408 OA 
HETATM   26  O   UNL     1     -13.127  13.740  64.406  1.00  0.00    -0.339 OA 
ENDBRANCH  14  16
ENDBRANCH  12  14
ENDBRANCH   6  12
TORSDOF 3
ENDMDL
MODEL      129
REMARK 921   NORMALIZED FREE ENERGY PREDICTED BY IDOCK:   -5.79 KCAL/MOL
REMARK 922        TOTAL FREE ENERGY PREDICTED BY IDOCK:   -7.17 KCAL/MOL
REMARK 923 INTER-LIGAND FREE ENERGY PREDICTED BY IDOCK:   -6.57 KCAL/MOL
REMARK 924 INTRA-LIGAND FREE ENERGY PREDICTED BY IDOCK:   -0.61 KCAL/MOL
REMARK 927      BINDING AFFINITY PREDICTED BY RF-SCORE:    0.00 PKD
ROOT
HETATM    1  O   UNL     1      -8.593   5.250  70.524  1.00  0.00    -0.116 OA 
HETATM    2  C   UNL     1      -9.549   6.017  69.957  1.00  0.00    -0.163 C  
HETATM    3  C   UNL     1      -9.199   7.457  69.784  1.00  0.00    -0.140 A  
HETATM    4  O   UNL     1     -10.627   5.559  69.612  1.00  0.00    -0.291 OA 
HETATM    5  C   UNL     1     -10.166   8.291  69.189  1.00  0.00    -0.223 A  
HETATM    6  C   UNL     1      -9.918   9.656  68.973  1.00  0.00    -0.185 A  
HETATM    7  C   UNL     1      -8.678  10.172  69.369  1.00  0.00    -0.186 A  
HETATM    8  C   UNL     1      -7.967   8.009  70.161  1.00  0.00    -0.105 A  
HETATM    9  H   UNL     1      -6.162   7.594  70.980  1.00  0.00     0.000 HD 
HETATM   10  C   UNL     1      -7.706   9.364  69.962  1.00  0.00    -0.124 A  
HETATM   11  O   UNL     1      -6.997   7.219  70.724  1.00  0.00    -0.055 OA 
ENDROOT
BRANCH   6  12
HETATM   12  N   UNL     1     -10.799  10.534  68.305  1.00  0.00    -0.228 NA 
HETATM   13  H   UNL     1     -10.496  11.183  67.579  1.00  0.00     0.000 HD 
BRANCH  12  14
HETATM   14  N   UNL     1     -11.983  10.442  68.688  1.00  0.00    -0.745 NA 
HETATM   15  H   UNL     1     -12.656   9.780  68.302  1.00  0.00     0.000 HD 
BRANCH  14  16
HETATM   16  C   UNL     1     -12.283  11.361  69.720  1.00  0.00    -0.265 A  
HETATM   17  C   UNL     1     -13.195  11.718  71.954  1.00  0.00    -0.468 A  
HETATM   18  C   UNL     1     -12.815  10.863  70.916  1.00  0.00    -0.418 A  
HETATM   19  C   UNL     1     -13.055  13.097  71.800  1.00  0.00    -0.383 A  
HETATM   20  C   UNL     1     -12.523  13.631  70.621  1.00  0.00    -0.417 A  
HETATM   21  O   UNL     1     -13.455  13.929  72.816  1.00  0.00    -0.600 OA 
HETATM   22  C   UNL     1     -12.336  15.092  70.375  1.00  0.00    -0.363 C  
HETATM   23  C   UNL     1     -12.144  12.753  69.589  1.00  0.00    -0.286 A  
HETATM   24  H   UNL     1     -13.359  14.868  72.711  1.00  0.00     0.000 HD 
HETATM   25  O   UNL     1     -12.755  15.906  71.365  1.00  0.00    -0.464 OA 
HETATM   26  O   UNL     1     -11.842  15.524  69.345  1.00  0.00    -0.343 OA 
ENDBRANCH  14  16
ENDBRANCH  12  14
ENDBRANCH   6  12
TORSDOF 3
ENDMDL
MODEL      130
REMARK 921   NORMALIZED FREE ENERGY PREDICTED BY IDOCK:   -5.78 KCAL/MOL
REMARK 922        TOTAL FREE ENERGY PREDICTED BY IDOCK:   -7.16 KCAL/MOL
REMARK 923 INTER-LIGAND FREE ENERGY PREDICTED BY IDOCK:   -6.71 KCAL/MOL
REMARK 924 INTRA-LIGAND FREE ENERGY PREDICTED BY IDOCK:   -0.46 KCAL/MOL
REMARK 927      BINDING AFFINITY PREDICTED BY RF-SCORE:    0.00 PKD
ROOT
HETATM    1  O   UNL     1     -11.126   6.659  73.439  1.00  0.00    -0.207 OA 
HETATM    2  C   UNL     1     -11.481   7.443  72.400  1.00  0.00    -0.300 C  
HETATM    3  C   UNL     1     -10.738   7.199  71.128  1.00  0.00    -0.252 A  
HETATM    4  O   UNL     1     -12.351   8.293  72.497  1.00  0.00    -0.353 OA 
HETATM    5  C   UNL     1     -11.084   7.992  70.015  1.00  0.00    -0.154 A  
HETATM    6  C   UNL     1     -10.449   7.823  68.775  1.00  0.00    -0.181 A  
HETATM    7  C   UNL     1      -9.454   6.843  68.671  1.00  0.00    -0.134 A  
HETATM    8  C   UNL     1      -9.742   6.225  70.983  1.00  0.00    -0.176 A  
HETATM    9  H   UNL     1      -8.722   4.763  71.944  1.00  0.00     0.000 HD 
HETATM   10  C   UNL     1      -9.095   6.048  69.762  1.00  0.00    -0.145 A  
HETATM   11  O   UNL     1      -9.397   5.424  72.042  1.00  0.00    -0.143 OA 
ENDROOT
BRANCH   6  12
HETATM   12  N   UNL     1     -10.799   8.514  67.595  1.00  0.00    -0.494 NA 
HETATM   13  H   UNL     1     -11.652   8.324  67.069  1.00  0.00     0.000 HD 
BRANCH  12  14
HETATM   14  N   UNL     1      -9.966   9.380  67.257  1.00  0.00    -0.182 NA 
HETATM   15  H   UNL     1      -8.971   9.194  67.131  1.00  0.00     0.000 HD 
BRANCH  14  16
HETATM   16  C   UNL     1     -10.563  10.648  67.067  1.00  0.00    -0.262 A  
HETATM   17  C   UNL     1     -11.580  12.615  68.091  1.00  0.00    -0.386 A  
HETATM   18  C   UNL     1     -10.927  11.383  68.202  1.00  0.00    -0.284 A  
HETATM   19  C   UNL     1     -11.887  13.123  66.829  1.00  0.00    -0.385 A  
HETATM   20  C   UNL     1     -11.534  12.418  65.672  1.00  0.00    -0.412 A  
HETATM   21  O   UNL     1     -12.550  14.321  66.732  1.00  0.00    -0.563 OA 
HETATM   22  C   UNL     1     -11.821  12.890  64.285  1.00  0.00    -0.395 C  
HETATM   23  C   UNL     1     -10.875  11.182  65.806  1.00  0.00    -0.218 A  
HETATM   24  H   UNL     1     -12.759  14.667  65.873  1.00  0.00     0.000 HD 
HETATM   25  O   UNL     1     -12.497  14.055  64.196  1.00  0.00    -0.665 OA 
HETATM   26  O   UNL     1     -11.474  12.264  63.296  1.00  0.00    -0.417 OA 
ENDBRANCH  14  16
ENDBRANCH  12  14
ENDBRANCH   6  12
TORSDOF 3
ENDMDL
MODEL      131
REMARK 921   NORMALIZED FREE ENERGY PREDICTED BY IDOCK:   -5.77 KCAL/MOL
REMARK 922        TOTAL FREE ENERGY PREDICTED BY IDOCK:   -7.15 KCAL/MOL
REMARK 923 INTER-LIGAND FREE ENERGY PREDICTED BY IDOCK:   -6.71 KCAL/MOL
REMARK 924 INTRA-LIGAND FREE ENERGY PREDICTED BY IDOCK:   -0.43 KCAL/MOL
REMARK 927      BINDING AFFINITY PREDICTED BY RF-SCORE:    0.00 PKD
ROOT
HETATM    1  O   UNL     1      -7.262   7.200  67.826  1.00  0.00    -0.086 OA 
HETATM    2  C   UNL     1      -8.113   8.113  68.340  1.00  0.00    -0.128 C  
HETATM    3  C   UNL     1      -8.847   8.942  67.339  1.00  0.00    -0.136 A  
HETATM    4  O   UNL     1      -8.267   8.250  69.543  1.00  0.00    -0.115 OA 
HETATM    5  C   UNL     1      -9.751   9.904  67.834  1.00  0.00    -0.162 A  
HETATM    6  C   UNL     1     -10.496  10.718  66.966  1.00  0.00    -0.247 A  
HETATM    7  C   UNL     1     -10.315  10.552  65.588  1.00  0.00    -0.274 A  
HETATM    8  C   UNL     1      -8.698   8.802  65.953  1.00  0.00    -0.170 A  
HETATM    9  H   UNL     1      -7.740   7.766  64.500  1.00  0.00     0.000 HD 
HETATM   10  C   UNL     1      -9.423   9.606  65.076  1.00  0.00    -0.312 A  
HETATM   11  O   UNL     1      -7.841   7.861  65.440  1.00  0.00    -0.098 OA 
ENDROOT
BRANCH   6  12
HETATM   12  N   UNL     1     -11.482  11.639  67.381  1.00  0.00    -0.453 NA 
HETATM   13  H   UNL     1     -11.861  12.363  66.771  1.00  0.00     0.000 HD 
BRANCH  12  14
HETATM   14  N   UNL     1     -11.846  11.482  68.564  1.00  0.00    -0.473 NA 
HETATM   15  H   UNL     1     -12.066  10.576  68.978  1.00  0.00     0.000 HD 
BRANCH  14  16
HETATM   16  C   UNL     1     -11.920  12.708  69.266  1.00  0.00    -0.246 A  
HETATM   17  C   UNL     1     -11.140  15.011  69.468  1.00  0.00    -0.292 A  
HETATM   18  C   UNL     1     -11.167  13.789  68.790  1.00  0.00    -0.303 A  
HETATM   19  C   UNL     1     -11.865  15.162  70.650  1.00  0.00    -0.325 A  
HETATM   20  C   UNL     1     -12.633  14.105  71.153  1.00  0.00    -0.439 A  
HETATM   21  O   UNL     1     -11.812  16.358  71.321  1.00  0.00    -0.632 OA 
HETATM   22  C   UNL     1     -13.441  14.182  72.407  1.00  0.00    -0.517 C  
HETATM   23  C   UNL     1     -12.649  12.884  70.454  1.00  0.00    -0.145 A  
HETATM   24  H   UNL     1     -12.306  16.460  72.126  1.00  0.00     0.000 HD 
HETATM   25  O   UNL     1     -13.364  15.350  73.077  1.00  0.00    -0.470 OA 
HETATM   26  O   UNL     1     -14.122  13.250  72.804  1.00  0.00    -0.691 OA 
ENDBRANCH  14  16
ENDBRANCH  12  14
ENDBRANCH   6  12
TORSDOF 3
ENDMDL
MODEL      132
REMARK 921   NORMALIZED FREE ENERGY PREDICTED BY IDOCK:   -5.77 KCAL/MOL
REMARK 922        TOTAL FREE ENERGY PREDICTED BY IDOCK:   -7.15 KCAL/MOL
REMARK 923 INTER-LIGAND FREE ENERGY PREDICTED BY IDOCK:   -6.61 KCAL/MOL
REMARK 924 INTRA-LIGAND FREE ENERGY PREDICTED BY IDOCK:   -0.54 KCAL/MOL
REMARK 927      BINDING AFFINITY PREDICTED BY RF-SCORE:    0.00 PKD
ROOT
HETATM    1  O   UNL     1      -9.964  20.142  66.795  1.00  0.00    -0.422 OA 
HETATM    2  C   UNL     1      -9.960  18.868  66.352  1.00  0.00    -0.393 C  
HETATM    3  C   UNL     1      -9.059  17.933  67.089  1.00  0.00    -0.251 A  
HETATM    4  O   UNL     1     -10.648  18.507  65.410  1.00  0.00    -0.589 OA 
HETATM    5  C   UNL     1      -9.031  16.590  66.663  1.00  0.00    -0.285 A  
HETATM    6  C   UNL     1      -8.224  15.638  67.306  1.00  0.00    -0.191 A  
HETATM    7  C   UNL     1      -7.440  16.060  68.388  1.00  0.00    -0.143 A  
HETATM    8  C   UNL     1      -8.265  18.316  68.179  1.00  0.00    -0.283 A  
HETATM    9  H   UNL     1      -7.748  19.870  69.369  1.00  0.00     0.000 HD 
HETATM   10  C   UNL     1      -7.452  17.387  68.825  1.00  0.00    -0.258 A  
HETATM   11  O   UNL     1      -8.286  19.611  68.630  1.00  0.00    -0.338 OA 
ENDROOT
BRANCH   6  12
HETATM   12  N   UNL     1      -8.208  14.262  66.996  1.00  0.00    -0.367 NA 
HETATM   13  H   UNL     1      -7.458  13.633  67.286  1.00  0.00     0.000 HD 
BRANCH  12  14
HETATM   14  N   UNL     1      -9.197  13.886  66.334  1.00  0.00    -0.464 NA 
HETATM   15  H   UNL     1      -9.387  14.181  65.377  1.00  0.00     0.000 HD 
BRANCH  14  16
HETATM   16  C   UNL     1     -10.024  13.003  67.067  1.00  0.00    -0.242 A  
HETATM   17  C   UNL     1     -12.132  12.663  68.245  1.00  0.00    -0.135 A  
HETATM   18  C   UNL     1     -11.288  13.457  67.464  1.00  0.00    -0.327 A  
HETATM   19  C   UNL     1     -11.712  11.397  68.650  1.00  0.00    -0.329 A  
HETATM   20  C   UNL     1     -10.457  10.907  68.268  1.00  0.00    -0.205 A  
HETATM   21  O   UNL     1     -12.539  10.635  69.437  1.00  0.00    -0.683 OA 
HETATM   22  C   UNL     1      -9.931   9.564  68.654  1.00  0.00    -0.167 C  
HETATM   23  C   UNL     1      -9.623  11.722  67.479  1.00  0.00    -0.179 A  
HETATM   24  H   UNL     1     -12.253   9.772  69.713  1.00  0.00     0.000 HD 
HETATM   25  O   UNL     1     -10.736   8.831  69.450  1.00  0.00    -0.224 OA 
HETATM   26  O   UNL     1      -8.842   9.157  68.280  1.00  0.00    -0.129 OA 
ENDBRANCH  14  16
ENDBRANCH  12  14
ENDBRANCH   6  12
TORSDOF 3
ENDMDL
MODEL      133
REMARK 921   NORMALIZED FREE ENERGY PREDICTED BY IDOCK:   -5.77 KCAL/MOL
REMARK 922        TOTAL FREE ENERGY PREDICTED BY IDOCK:   -7.14 KCAL/MOL
REMARK 923 INTER-LIGAND FREE ENERGY PREDICTED BY IDOCK:   -6.60 KCAL/MOL
REMARK 924 INTRA-LIGAND FREE ENERGY PREDICTED BY IDOCK:   -0.54 KCAL/MOL
REMARK 927      BINDING AFFINITY PREDICTED BY RF-SCORE:    0.00 PKD
ROOT
HETATM    1  O   UNL     1      -8.425   7.780  65.429  1.00  0.00    -0.141 OA 
HETATM    2  C   UNL     1      -9.239   8.846  65.573  1.00  0.00    -0.178 C  
HETATM    3  C   UNL     1      -9.774   9.066  66.950  1.00  0.00    -0.260 A  
HETATM    4  O   UNL     1      -9.518   9.580  64.638  1.00  0.00    -0.228 OA 
HETATM    5  C   UNL     1     -10.623  10.174  67.145  1.00  0.00    -0.308 A  
HETATM    6  C   UNL     1     -11.161  10.466  68.408  1.00  0.00    -0.268 A  
HETATM    7  C   UNL     1     -10.833   9.621  69.476  1.00  0.00    -0.253 A  
HETATM    8  C   UNL     1      -9.464   8.247  68.044  1.00  0.00    -0.140 A  
HETATM    9  H   UNL     1      -8.415   6.619  68.633  1.00  0.00     0.000 HD 
HETATM   10  C   UNL     1      -9.995   8.517  69.304  1.00  0.00    -0.195 A  
HETATM   11  O   UNL     1      -8.625   7.174  67.890  1.00  0.00    -0.123 OA 
ENDROOT
BRANCH   6  12
HETATM   12  N   UNL     1     -11.944  11.602  68.701  1.00  0.00    -0.459 NA 
HETATM   13  H   UNL     1     -12.946  11.653  68.514  1.00  0.00     0.000 HD 
BRANCH  12  14
HETATM   14  N   UNL     1     -11.296  12.539  69.211  1.00  0.00    -0.351 NA 
HETATM   15  H   UNL     1     -10.976  12.549  70.179  1.00  0.00     0.000 HD 
BRANCH  14  16
HETATM   16  C   UNL     1     -11.057  13.585  68.289  1.00  0.00    -0.261 A  
HETATM   17  C   UNL     1      -9.952  15.712  67.834  1.00  0.00    -0.223 A  
HETATM   18  C   UNL     1     -10.185  14.613  68.667  1.00  0.00    -0.244 A  
HETATM   19  C   UNL     1     -10.606  15.798  66.605  1.00  0.00    -0.307 A  
HETATM   20  C   UNL     1     -11.481  14.787  66.191  1.00  0.00    -0.311 A  
HETATM   21  O   UNL     1     -10.389  16.893  65.806  1.00  0.00    -0.459 OA 
HETATM   22  C   UNL     1     -12.218  14.798  64.893  1.00  0.00    -0.300 C  
HETATM   23  C   UNL     1     -11.699  13.688  67.044  1.00  0.00    -0.419 A  
HETATM   24  H   UNL     1     -10.834  16.951  64.969  1.00  0.00     0.000 HD 
HETATM   25  O   UNL     1     -12.022  15.889  64.123  1.00  0.00    -0.577 OA 
HETATM   26  O   UNL     1     -12.953  13.885  64.550  1.00  0.00    -0.596 OA 
ENDBRANCH  14  16
ENDBRANCH  12  14
ENDBRANCH   6  12
TORSDOF 3
ENDMDL
MODEL      134
REMARK 921   NORMALIZED FREE ENERGY PREDICTED BY IDOCK:   -5.75 KCAL/MOL
REMARK 922        TOTAL FREE ENERGY PREDICTED BY IDOCK:   -7.12 KCAL/MOL
REMARK 923 INTER-LIGAND FREE ENERGY PREDICTED BY IDOCK:   -6.63 KCAL/MOL
REMARK 924 INTRA-LIGAND FREE ENERGY PREDICTED BY IDOCK:   -0.49 KCAL/MOL
REMARK 927      BINDING AFFINITY PREDICTED BY RF-SCORE:    0.00 PKD
ROOT
HETATM    1  O   UNL     1      -7.157   7.345  65.490  1.00  0.00    -0.058 OA 
HETATM    2  C   UNL     1      -7.947   8.434  65.600  1.00  0.00    -0.115 C  
HETATM    3  C   UNL     1      -7.668   9.315  66.773  1.00  0.00    -0.094 A  
HETATM    4  O   UNL     1      -8.831   8.677  64.794  1.00  0.00    -0.123 OA 
HETATM    5  C   UNL     1      -8.467  10.467  66.920  1.00  0.00    -0.125 A  
HETATM    6  C   UNL     1      -8.266  11.361  67.984  1.00  0.00    -0.140 A  
HETATM    7  C   UNL     1      -7.249  11.076  68.903  1.00  0.00    -0.103 A  
HETATM    8  C   UNL     1      -6.656   9.067  67.709  1.00  0.00    -0.061 A  
HETATM    9  H   UNL     1      -5.162   7.797  68.216  1.00  0.00     0.000 HD 
HETATM   10  C   UNL     1      -6.447   9.939  68.776  1.00  0.00    -0.045 A  
HETATM   11  O   UNL     1      -5.849   7.965  67.581  1.00  0.00    -0.038 OA 
ENDROOT
BRANCH   6  12
HETATM   12  N   UNL     1      -8.963  12.577  68.150  1.00  0.00    -0.197 NA 
HETATM   13  H   UNL     1      -8.496  13.477  68.259  1.00  0.00     0.000 HD 
BRANCH  12  14
HETATM   14  N   UNL     1     -10.204  12.446  68.151  1.00  0.00    -0.219 NA 
HETATM   15  H   UNL     1     -10.722  11.936  68.867  1.00  0.00     0.000 HD 
BRANCH  14  16
HETATM   16  C   UNL     1     -10.809  13.088  67.046  1.00  0.00    -0.261 A  
HETATM   17  C   UNL     1     -12.251  12.888  65.089  1.00  0.00    -0.519 A  
HETATM   18  C   UNL     1     -11.669  12.338  66.235  1.00  0.00    -0.431 A  
HETATM   19  C   UNL     1     -11.966  14.206  64.733  1.00  0.00    -0.431 A  
HETATM   20  C   UNL     1     -11.115  14.988  65.522  1.00  0.00    -0.358 A  
HETATM   21  O   UNL     1     -12.524  14.728  63.593  1.00  0.00    -1.064 OA 
HETATM   22  C   UNL     1     -10.759  16.405  65.217  1.00  0.00    -0.295 C  
HETATM   23  C   UNL     1     -10.541  14.416  66.673  1.00  0.00    -0.282 A  
HETATM   24  H   UNL     1     -12.329  15.626  63.350  1.00  0.00     0.000 HD 
HETATM   25  O   UNL     1     -11.288  16.905  64.081  1.00  0.00    -1.208 OA 
HETATM   26  O   UNL     1     -10.035  17.069  65.942  1.00  0.00    -0.462 OA 
ENDBRANCH  14  16
ENDBRANCH  12  14
ENDBRANCH   6  12
TORSDOF 3
ENDMDL
MODEL      135
REMARK 921   NORMALIZED FREE ENERGY PREDICTED BY IDOCK:   -5.75 KCAL/MOL
REMARK 922        TOTAL FREE ENERGY PREDICTED BY IDOCK:   -7.12 KCAL/MOL
REMARK 923 INTER-LIGAND FREE ENERGY PREDICTED BY IDOCK:   -6.73 KCAL/MOL
REMARK 924 INTRA-LIGAND FREE ENERGY PREDICTED BY IDOCK:   -0.39 KCAL/MOL
REMARK 927      BINDING AFFINITY PREDICTED BY RF-SCORE:    0.00 PKD
ROOT
HETATM    1  O   UNL     1     -10.739   7.193  70.837  1.00  0.00    -0.226 OA 
HETATM    2  C   UNL     1     -10.646   8.297  70.066  1.00  0.00    -0.235 C  
HETATM    3  C   UNL     1     -11.449   9.470  70.523  1.00  0.00    -0.337 A  
HETATM    4  O   UNL     1      -9.951   8.330  69.063  1.00  0.00    -0.179 OA 
HETATM    5  C   UNL     1     -11.374  10.646  69.750  1.00  0.00    -0.371 A  
HETATM    6  C   UNL     1     -12.083  11.802  70.112  1.00  0.00    -0.317 A  
HETATM    7  C   UNL     1     -12.875  11.756  71.266  1.00  0.00    -0.409 A  
HETATM    8  C   UNL     1     -12.248   9.465  71.675  1.00  0.00    -0.390 A  
HETATM    9  H   UNL     1     -12.866   8.339  73.240  1.00  0.00     0.000 HD 
HETATM   10  C   UNL     1     -12.965  10.601  72.045  1.00  0.00    -0.466 A  
HETATM   11  O   UNL     1     -12.325   8.342  72.459  1.00  0.00    -0.376 OA 
ENDROOT
BRANCH   6  12
HETATM   12  N   UNL     1     -11.991  13.041  69.442  1.00  0.00    -0.303 NA 
HETATM   13  H   UNL     1     -12.560  13.279  68.629  1.00  0.00     0.000 HD 
BRANCH  12  14
HETATM   14  N   UNL     1     -11.148  13.816  69.937  1.00  0.00    -0.469 NA 
HETATM   15  H   UNL     1     -10.886  13.818  70.922  1.00  0.00     0.000 HD 
BRANCH  14  16
HETATM   16  C   UNL     1     -10.597  14.691  68.971  1.00  0.00    -0.247 A  
HETATM   17  C   UNL     1     -10.776  15.669  66.744  1.00  0.00    -0.300 A  
HETATM   18  C   UNL     1     -11.292  14.871  67.769  1.00  0.00    -0.341 A  
HETATM   19  C   UNL     1      -9.540  16.293  66.910  1.00  0.00    -0.232 A  
HETATM   20  C   UNL     1      -8.818  16.140  68.100  1.00  0.00    -0.184 A  
HETATM   21  O   UNL     1      -9.031  17.055  65.888  1.00  0.00    -0.517 OA 
HETATM   22  C   UNL     1      -7.491  16.773  68.361  1.00  0.00    -0.202 C  
HETATM   23  C   UNL     1      -9.357  15.334  69.120  1.00  0.00    -0.236 A  
HETATM   24  H   UNL     1      -8.188  17.480  66.000  1.00  0.00     0.000 HD 
HETATM   25  O   UNL     1      -6.984  17.498  67.343  1.00  0.00    -0.159 OA 
HETATM   26  O   UNL     1      -6.901  16.641  69.422  1.00  0.00    -0.230 OA 
ENDBRANCH  14  16
ENDBRANCH  12  14
ENDBRANCH   6  12
TORSDOF 3
ENDMDL
MODEL      136
REMARK 921   NORMALIZED FREE ENERGY PREDICTED BY IDOCK:   -5.75 KCAL/MOL
REMARK 922        TOTAL FREE ENERGY PREDICTED BY IDOCK:   -7.12 KCAL/MOL
REMARK 923 INTER-LIGAND FREE ENERGY PREDICTED BY IDOCK:   -6.61 KCAL/MOL
REMARK 924 INTRA-LIGAND FREE ENERGY PREDICTED BY IDOCK:   -0.51 KCAL/MOL
REMARK 927      BINDING AFFINITY PREDICTED BY RF-SCORE:    0.00 PKD
ROOT
HETATM    1  O   UNL     1      -9.787   8.647  72.081  1.00  0.00    -0.297 OA 
HETATM    2  C   UNL     1     -10.132   9.028  70.833  1.00  0.00    -0.262 C  
HETATM    3  C   UNL     1      -9.522   8.233  69.726  1.00  0.00    -0.163 A  
HETATM    4  O   UNL     1     -10.892   9.961  70.627  1.00  0.00    -0.301 OA 
HETATM    5  C   UNL     1      -9.863   8.592  68.407  1.00  0.00    -0.189 A  
HETATM    6  C   UNL     1      -9.349   7.892  67.305  1.00  0.00    -0.148 A  
HETATM    7  C   UNL     1      -8.480   6.821  67.550  1.00  0.00    -0.121 A  
HETATM    8  C   UNL     1      -8.655   7.152  69.932  1.00  0.00    -0.141 A  
HETATM    9  H   UNL     1      -7.732   6.031  71.344  1.00  0.00     0.000 HD 
HETATM   10  C   UNL     1      -8.128   6.449  68.850  1.00  0.00    -0.111 A  
HETATM   11  O   UNL     1      -8.320   6.764  71.205  1.00  0.00    -0.121 OA 
ENDROOT
BRANCH   6  12
HETATM   12  N   UNL     1      -9.711   8.134  65.962  1.00  0.00    -0.459 NA 
HETATM   13  H   UNL     1     -10.471   7.644  65.492  1.00  0.00     0.000 HD 
BRANCH  12  14
HETATM   14  N   UNL     1      -9.012   9.005  65.406  1.00  0.00    -0.224 NA 
HETATM   15  H   UNL     1      -7.993   8.978  65.364  1.00  0.00     0.000 HD 
BRANCH  14  16
HETATM   16  C   UNL     1      -9.797  10.036  64.838  1.00  0.00    -0.281 A  
HETATM   17  C   UNL     1     -10.352  11.342  62.855  1.00  0.00    -0.159 A  
HETATM   18  C   UNL     1      -9.657  10.297  63.470  1.00  0.00    -0.321 A  
HETATM   19  C   UNL     1     -11.195  12.153  63.614  1.00  0.00    -0.464 A  
HETATM   20  C   UNL     1     -11.365  11.919  64.983  1.00  0.00    -0.333 A  
HETATM   21  O   UNL     1     -11.854  13.192  63.004  1.00  0.00    -0.834 OA 
HETATM   22  C   UNL     1     -12.249  12.734  65.868  1.00  0.00    -0.359 C  
HETATM   23  C   UNL     1     -10.658  10.860  65.583  1.00  0.00    -0.233 A  
HETATM   24  H   UNL     1     -12.429  13.743  63.522  1.00  0.00     0.000 HD 
HETATM   25  O   UNL     1     -12.873  13.770  65.270  1.00  0.00    -0.681 OA 
HETATM   26  O   UNL     1     -12.395  12.486  67.054  1.00  0.00    -0.403 OA 
ENDBRANCH  14  16
ENDBRANCH  12  14
ENDBRANCH   6  12
TORSDOF 3
ENDMDL
MODEL      137
REMARK 921   NORMALIZED FREE ENERGY PREDICTED BY IDOCK:   -5.74 KCAL/MOL
REMARK 922        TOTAL FREE ENERGY PREDICTED BY IDOCK:   -7.11 KCAL/MOL
REMARK 923 INTER-LIGAND FREE ENERGY PREDICTED BY IDOCK:   -6.78 KCAL/MOL
REMARK 924 INTRA-LIGAND FREE ENERGY PREDICTED BY IDOCK:   -0.32 KCAL/MOL
REMARK 927      BINDING AFFINITY PREDICTED BY RF-SCORE:    0.00 PKD
ROOT
HETATM    1  O   UNL     1      -8.427   8.199  70.667  1.00  0.00    -0.121 OA 
HETATM    2  C   UNL     1      -9.153   9.299  70.377  1.00  0.00    -0.247 C  
HETATM    3  C   UNL     1     -10.509   9.357  70.999  1.00  0.00    -0.392 A  
HETATM    4  O   UNL     1      -8.726  10.185  69.653  1.00  0.00    -0.186 OA 
HETATM    5  C   UNL     1     -11.297  10.493  70.727  1.00  0.00    -0.295 A  
HETATM    6  C   UNL     1     -12.579  10.640  71.280  1.00  0.00    -0.427 A  
HETATM    7  C   UNL     1     -13.059   9.621  72.112  1.00  0.00    -0.520 A  
HETATM    8  C   UNL     1     -11.022   8.362  71.841  1.00  0.00    -0.305 A  
HETATM    9  H   UNL     1     -10.618   6.579  72.712  1.00  0.00     0.000 HD 
HETATM   10  C   UNL     1     -12.295   8.486  72.393  1.00  0.00    -0.424 A  
HETATM   11  O   UNL     1     -10.270   7.254  72.141  1.00  0.00    -0.187 OA 
ENDROOT
BRANCH   6  12
HETATM   12  N   UNL     1     -13.391  11.784  71.126  1.00  0.00     0.138 NA 
HETATM   13  H   UNL     1     -14.238  11.795  70.558  1.00  0.00     0.000 HD 
BRANCH  12  14
HETATM   14  N   UNL     1     -12.975  12.781  71.752  1.00  0.00    -0.351 NA 
HETATM   15  H   UNL     1     -13.074  12.903  72.759  1.00  0.00     0.000 HD 
BRANCH  14  16
HETATM   16  C   UNL     1     -12.350  13.721  70.900  1.00  0.00    -0.380 A  
HETATM   17  C   UNL     1     -11.205  15.865  70.695  1.00  0.00    -0.402 A  
HETATM   18  C   UNL     1     -11.781  14.862  71.480  1.00  0.00    -0.394 A  
HETATM   19  C   UNL     1     -11.201  15.740  69.306  1.00  0.00    -0.324 A  
HETATM   20  C   UNL     1     -11.756  14.611  68.691  1.00  0.00    -0.362 A  
HETATM   21  O   UNL     1     -10.654  16.742  68.544  1.00  0.00    -0.313 OA 
HETATM   22  C   UNL     1     -11.792  14.396  67.214  1.00  0.00    -0.405 C  
HETATM   23  C   UNL     1     -12.330  13.612  69.500  1.00  0.00    -0.232 A  
HETATM   24  H   UNL     1     -10.652  16.656  67.598  1.00  0.00     0.000 HD 
HETATM   25  O   UNL     1     -11.278  15.396  66.469  1.00  0.00    -0.278 OA 
HETATM   26  O   UNL     1     -12.259  13.386  66.712  1.00  0.00    -0.377 OA 
ENDBRANCH  14  16
ENDBRANCH  12  14
ENDBRANCH   6  12
TORSDOF 3
ENDMDL
MODEL      138
REMARK 921   NORMALIZED FREE ENERGY PREDICTED BY IDOCK:   -5.73 KCAL/MOL
REMARK 922        TOTAL FREE ENERGY PREDICTED BY IDOCK:   -7.10 KCAL/MOL
REMARK 923 INTER-LIGAND FREE ENERGY PREDICTED BY IDOCK:   -6.59 KCAL/MOL
REMARK 924 INTRA-LIGAND FREE ENERGY PREDICTED BY IDOCK:   -0.51 KCAL/MOL
REMARK 927      BINDING AFFINITY PREDICTED BY RF-SCORE:    0.00 PKD
ROOT
HETATM    1  O   UNL     1      -5.990  18.248  69.400  1.00  0.00    -0.228 OA 
HETATM    2  C   UNL     1      -6.801  17.194  69.171  1.00  0.00    -0.236 C  
HETATM    3  C   UNL     1      -8.143  17.526  68.607  1.00  0.00    -0.263 A  
HETATM    4  O   UNL     1      -6.457  16.048  69.412  1.00  0.00    -0.154 OA 
HETATM    5  C   UNL     1      -9.019  16.453  68.346  1.00  0.00    -0.214 A  
HETATM    6  C   UNL     1     -10.294  16.669  67.803  1.00  0.00    -0.306 A  
HETATM    7  C   UNL     1     -10.680  17.987  67.527  1.00  0.00    -0.352 A  
HETATM    8  C   UNL     1      -8.562  18.830  68.312  1.00  0.00    -0.327 A  
HETATM    9  H   UNL     1      -8.009  20.778  68.335  1.00  0.00     0.000 HD 
HETATM   10  C   UNL     1      -9.828  19.065  67.779  1.00  0.00    -0.398 A  
HETATM   11  O   UNL     1      -7.725  19.894  68.536  1.00  0.00    -0.308 OA 
ENDROOT
BRANCH   6  12
HETATM   12  N   UNL     1     -11.191  15.644  67.433  1.00  0.00    -0.271 NA 
HETATM   13  H   UNL     1     -11.439  14.870  68.049  1.00  0.00     0.000 HD 
BRANCH  12  14
HETATM   14  N   UNL     1     -11.652  15.774  66.280  1.00  0.00     0.278 NA 
HETATM   15  H   UNL     1     -12.112  16.620  65.943  1.00  0.00     0.000 HD 
BRANCH  14  16
HETATM   16  C   UNL     1     -11.462  14.613  65.496  1.00  0.00    -0.341 A  
HETATM   17  C   UNL     1     -12.169  13.297  63.567  1.00  0.00    -0.513 A  
HETATM   18  C   UNL     1     -12.256  14.450  64.354  1.00  0.00    -0.481 A  
HETATM   19  C   UNL     1     -11.285  12.280  63.927  1.00  0.00    -0.421 A  
HETATM   20  C   UNL     1     -10.472  12.410  65.059  1.00  0.00    -0.324 A  
HETATM   21  O   UNL     1     -11.225  11.142  63.161  1.00  0.00    -0.807 OA 
HETATM   22  C   UNL     1      -9.498  11.374  65.513  1.00  0.00    -0.227 C  
HETATM   23  C   UNL     1     -10.573  13.580  65.836  1.00  0.00    -0.284 A  
HETATM   24  H   UNL     1     -10.622  10.450  63.406  1.00  0.00     0.000 HD 
HETATM   25  O   UNL     1      -9.463  10.246  64.773  1.00  0.00    -0.233 OA 
HETATM   26  O   UNL     1      -8.784  11.531  66.491  1.00  0.00    -0.177 OA 
ENDBRANCH  14  16
ENDBRANCH  12  14
ENDBRANCH   6  12
TORSDOF 3
ENDMDL
MODEL      139
REMARK 921   NORMALIZED FREE ENERGY PREDICTED BY IDOCK:   -5.71 KCAL/MOL
REMARK 922        TOTAL FREE ENERGY PREDICTED BY IDOCK:   -7.07 KCAL/MOL
REMARK 923 INTER-LIGAND FREE ENERGY PREDICTED BY IDOCK:   -6.67 KCAL/MOL
REMARK 924 INTRA-LIGAND FREE ENERGY PREDICTED BY IDOCK:   -0.40 KCAL/MOL
REMARK 927      BINDING AFFINITY PREDICTED BY RF-SCORE:    0.00 PKD
ROOT
HETATM    1  O   UNL     1     -11.602  16.425  68.666  1.00  0.00    -0.311 OA 
HETATM    2  C   UNL     1     -11.851  15.539  69.653  1.00  0.00    -0.366 C  
HETATM    3  C   UNL     1     -11.830  14.103  69.248  1.00  0.00    -0.381 A  
HETATM    4  O   UNL     1     -12.079  15.893  70.799  1.00  0.00    -0.389 OA 
HETATM    5  C   UNL     1     -12.078  13.144  70.250  1.00  0.00    -0.399 A  
HETATM    6  C   UNL     1     -12.064  11.770  69.964  1.00  0.00    -0.310 A  
HETATM    7  C   UNL     1     -11.798  11.373  68.648  1.00  0.00    -0.377 A  
HETATM    8  C   UNL     1     -11.562  13.666  67.943  1.00  0.00    -0.341 A  
HETATM    9  H   UNL     1     -11.114  14.278  66.066  1.00  0.00     0.000 HD 
HETATM   10  C   UNL     1     -11.551  12.306  67.639  1.00  0.00    -0.421 A  
HETATM   11  O   UNL     1     -11.296  14.574  66.950  1.00  0.00    -0.326 OA 
ENDROOT
BRANCH   6  12
HETATM   12  N   UNL     1     -12.215  10.749  70.928  1.00  0.00    -0.357 NA 
HETATM   13  H   UNL     1     -12.314  10.935  71.926  1.00  0.00     0.000 HD 
BRANCH  12  14
HETATM   14  N   UNL     1     -12.216   9.600  70.443  1.00  0.00    -0.475 NA 
HETATM   15  H   UNL     1     -12.805   9.312  69.661  1.00  0.00     0.000 HD 
BRANCH  14  16
HETATM   16  C   UNL     1     -11.306   8.742  71.103  1.00  0.00    -0.285 A  
HETATM   17  C   UNL     1      -8.985   8.257  71.677  1.00  0.00    -0.235 A  
HETATM   18  C   UNL     1      -9.949   9.090  71.101  1.00  0.00    -0.365 A  
HETATM   19  C   UNL     1      -9.372   7.050  72.258  1.00  0.00    -0.136 A  
HETATM   20  C   UNL     1     -10.720   6.672  72.283  1.00  0.00    -0.250 A  
HETATM   21  O   UNL     1      -8.414   6.229  72.799  1.00  0.00    -0.123 OA 
HETATM   22  C   UNL     1     -11.220   5.400  72.885  1.00  0.00    -0.314 C  
HETATM   23  C   UNL     1     -11.675   7.525  71.700  1.00  0.00    -0.313 A  
HETATM   24  H   UNL     1      -8.678   5.406  73.194  1.00  0.00     0.000 HD 
HETATM   25  O   UNL     1     -10.272   4.585  73.392  1.00  0.00    -0.151 OA 
HETATM   26  O   UNL     1     -12.406   5.114  72.915  1.00  0.00    -0.045 OA 
ENDBRANCH  14  16
ENDBRANCH  12  14
ENDBRANCH   6  12
TORSDOF 3
ENDMDL
MODEL      140
REMARK 921   NORMALIZED FREE ENERGY PREDICTED BY IDOCK:   -5.71 KCAL/MOL
REMARK 922        TOTAL FREE ENERGY PREDICTED BY IDOCK:   -7.07 KCAL/MOL
REMARK 923 INTER-LIGAND FREE ENERGY PREDICTED BY IDOCK:   -6.72 KCAL/MOL
REMARK 924 INTRA-LIGAND FREE ENERGY PREDICTED BY IDOCK:   -0.35 KCAL/MOL
REMARK 927      BINDING AFFINITY PREDICTED BY RF-SCORE:    0.00 PKD
ROOT
HETATM    1  O   UNL     1      -9.851   3.660  67.639  1.00  0.00    -0.120 OA 
HETATM    2  C   UNL     1     -10.128   4.830  67.026  1.00  0.00    -0.189 C  
HETATM    3  C   UNL     1     -10.275   6.010  67.928  1.00  0.00    -0.217 A  
HETATM    4  O   UNL     1     -10.250   4.913  65.814  1.00  0.00    -0.207 OA 
HETATM    5  C   UNL     1     -10.557   7.253  67.327  1.00  0.00    -0.395 A  
HETATM    6  C   UNL     1     -10.697   8.419  68.096  1.00  0.00    -0.034 A  
HETATM    7  C   UNL     1     -10.552   8.315  69.485  1.00  0.00    -0.216 A  
HETATM    8  C   UNL     1     -10.131   5.947  69.321  1.00  0.00    -0.194 A  
HETATM    9  H   UNL     1      -9.738   4.713  70.878  1.00  0.00     0.000 HD 
HETATM   10  C   UNL     1     -10.274   7.092  70.101  1.00  0.00    -0.204 A  
HETATM   11  O   UNL     1      -9.836   4.756  69.933  1.00  0.00    -0.185 OA 
ENDROOT
BRANCH   6  12
HETATM   12  N   UNL     1     -10.892   9.711  67.563  1.00  0.00    -0.391 NA 
HETATM   13  H   UNL     1     -11.813  10.134  67.447  1.00  0.00     0.000 HD 
BRANCH  12  14
HETATM   14  N   UNL     1      -9.831  10.287  67.247  1.00  0.00    -0.176 NA 
HETATM   15  H   UNL     1      -8.902   9.937  67.481  1.00  0.00     0.000 HD 
BRANCH  14  16
HETATM   16  C   UNL     1     -10.066  11.481  66.527  1.00  0.00    -0.213 A  
HETATM   17  C   UNL     1      -9.601  13.864  66.288  1.00  0.00    -0.274 A  
HETATM   18  C   UNL     1      -9.371  12.634  66.912  1.00  0.00    -0.228 A  
HETATM   19  C   UNL     1     -10.548  13.955  65.269  1.00  0.00    -0.361 A  
HETATM   20  C   UNL     1     -11.259  12.823  64.854  1.00  0.00    -0.331 A  
HETATM   21  O   UNL     1     -10.783  15.173  64.680  1.00  0.00    -0.589 OA 
HETATM   22  C   UNL     1     -12.286  12.832  63.770  1.00  0.00    -0.446 C  
HETATM   23  C   UNL     1     -11.011  11.594  65.493  1.00  0.00    -0.327 A  
HETATM   24  H   UNL     1     -11.429  15.235  63.985  1.00  0.00     0.000 HD 
HETATM   25  O   UNL     1     -12.533  14.035  63.214  1.00  0.00    -0.795 OA 
HETATM   26  O   UNL     1     -12.869  11.820  63.413  1.00  0.00    -0.632 OA 
ENDBRANCH  14  16
ENDBRANCH  12  14
ENDBRANCH   6  12
TORSDOF 3
ENDMDL
MODEL      141
REMARK 921   NORMALIZED FREE ENERGY PREDICTED BY IDOCK:   -5.70 KCAL/MOL
REMARK 922        TOTAL FREE ENERGY PREDICTED BY IDOCK:   -7.06 KCAL/MOL
REMARK 923 INTER-LIGAND FREE ENERGY PREDICTED BY IDOCK:   -7.04 KCAL/MOL
REMARK 924 INTRA-LIGAND FREE ENERGY PREDICTED BY IDOCK:   -0.01 KCAL/MOL
REMARK 927      BINDING AFFINITY PREDICTED BY RF-SCORE:    0.00 PKD
ROOT
HETATM    1  O   UNL     1     -10.120   9.116  70.621  1.00  0.00    -0.209 OA 
HETATM    2  C   UNL     1     -10.936  10.038  70.066  1.00  0.00    -0.300 C  
HETATM    3  C   UNL     1     -10.687  10.331  68.623  1.00  0.00    -0.255 A  
HETATM    4  O   UNL     1     -11.816  10.593  70.705  1.00  0.00    -0.312 OA 
HETATM    5  C   UNL     1     -11.522  11.282  68.003  1.00  0.00    -0.369 A  
HETATM    6  C   UNL     1     -11.372  11.610  66.647  1.00  0.00    -0.270 A  
HETATM    7  C   UNL     1     -10.362  10.966  65.921  1.00  0.00    -0.310 A  
HETATM    8  C   UNL     1      -9.692   9.703  67.862  1.00  0.00    -0.146 A  
HETATM    9  H   UNL     1      -8.203   8.333  67.915  1.00  0.00     0.000 HD 
HETATM   10  C   UNL     1      -9.523  10.021  66.516  1.00  0.00    -0.222 A  
HETATM   11  O   UNL     1      -8.877   8.758  68.432  1.00  0.00    -0.137 OA 
ENDROOT
BRANCH   6  12
HETATM   12  N   UNL     1     -12.221  12.483  65.935  1.00  0.00    -0.624 NA 
HETATM   13  H   UNL     1     -13.227  12.336  65.848  1.00  0.00     0.000 HD 
BRANCH  12  14
HETATM   14  N   UNL     1     -11.626  13.453  65.423  1.00  0.00    -0.307 NA 
HETATM   15  H   UNL     1     -11.329  13.488  64.448  1.00  0.00     0.000 HD 
BRANCH  14  16
HETATM   16  C   UNL     1     -11.411  14.498  66.351  1.00  0.00    -0.360 A  
HETATM   17  C   UNL     1     -10.341  16.638  66.827  1.00  0.00    -0.295 A  
HETATM   18  C   UNL     1     -10.649  15.599  65.943  1.00  0.00    -0.354 A  
HETATM   19  C   UNL     1     -10.790  16.579  68.146  1.00  0.00    -0.345 A  
HETATM   20  C   UNL     1     -11.559  15.496  68.589  1.00  0.00    -0.379 A  
HETATM   21  O   UNL     1     -10.462  17.592  69.012  1.00  0.00    -0.358 OA 
HETATM   22  C   UNL     1     -12.081  15.355  69.980  1.00  0.00    -0.359 C  
HETATM   23  C   UNL     1     -11.859  14.462  67.682  1.00  0.00    -0.412 A  
HETATM   24  H   UNL     1     -10.768  17.552  69.910  1.00  0.00     0.000 HD 
HETATM   25  O   UNL     1     -11.734  16.340  70.834  1.00  0.00    -0.376 OA 
HETATM   26  O   UNL     1     -12.773  14.410  70.326  1.00  0.00    -0.348 OA 
ENDBRANCH  14  16
ENDBRANCH  12  14
ENDBRANCH   6  12
TORSDOF 3
ENDMDL
MODEL      142
REMARK 921   NORMALIZED FREE ENERGY PREDICTED BY IDOCK:   -5.68 KCAL/MOL
REMARK 922        TOTAL FREE ENERGY PREDICTED BY IDOCK:   -7.04 KCAL/MOL
REMARK 923 INTER-LIGAND FREE ENERGY PREDICTED BY IDOCK:   -6.42 KCAL/MOL
REMARK 924 INTRA-LIGAND FREE ENERGY PREDICTED BY IDOCK:   -0.61 KCAL/MOL
REMARK 927      BINDING AFFINITY PREDICTED BY RF-SCORE:    0.00 PKD
ROOT
HETATM    1  O   UNL     1     -11.880  15.662  68.946  1.00  0.00    -0.379 OA 
HETATM    2  C   UNL     1     -11.756  14.331  68.761  1.00  0.00    -0.343 C  
HETATM    3  C   UNL     1     -12.242  13.477  69.884  1.00  0.00    -0.356 A  
HETATM    4  O   UNL     1     -11.276  13.860  67.741  1.00  0.00    -0.273 OA 
HETATM    5  C   UNL     1     -12.137  12.080  69.728  1.00  0.00    -0.317 A  
HETATM    6  C   UNL     1     -12.583  11.199  70.726  1.00  0.00    -0.352 A  
HETATM    7  C   UNL     1     -13.134  11.747  71.891  1.00  0.00    -0.482 A  
HETATM    8  C   UNL     1     -12.806  13.987  71.062  1.00  0.00    -0.340 A  
HETATM    9  H   UNL     1     -13.323  15.687  72.033  1.00  0.00     0.000 HD 
HETATM   10  C   UNL     1     -13.246  13.128  72.067  1.00  0.00    -0.543 A  
HETATM   11  O   UNL     1     -12.940  15.341  71.235  1.00  0.00    -0.369 OA 
ENDROOT
BRANCH   6  12
HETATM   12  N   UNL     1     -12.593   9.793  70.607  1.00  0.00    -0.503 NA 
HETATM   13  H   UNL     1     -13.329   9.279  70.123  1.00  0.00     0.000 HD 
BRANCH  12  14
HETATM   14  N   UNL     1     -11.616   9.238  71.151  1.00  0.00    -0.301 NA 
HETATM   15  H   UNL     1     -11.555   9.046  72.151  1.00  0.00     0.000 HD 
BRANCH  14  16
HETATM   16  C   UNL     1     -10.605   8.907  70.220  1.00  0.00    -0.218 A  
HETATM   17  C   UNL     1      -8.310   9.253  69.468  1.00  0.00    -0.131 A  
HETATM   18  C   UNL     1      -9.339   9.483  70.386  1.00  0.00    -0.311 A  
HETATM   19  C   UNL     1      -8.543   8.443  68.357  1.00  0.00    -0.139 A  
HETATM   20  C   UNL     1      -9.794   7.846  68.161  1.00  0.00    -0.193 A  
HETATM   21  O   UNL     1      -7.533   8.243  67.449  1.00  0.00    -0.091 OA 
HETATM   22  C   UNL     1     -10.128   6.966  67.002  1.00  0.00    -0.221 C  
HETATM   23  C   UNL     1     -10.816   8.089  69.098  1.00  0.00    -0.038 A  
HETATM   24  H   UNL     1      -7.692   7.692  66.692  1.00  0.00     0.000 HD 
HETATM   25  O   UNL     1      -9.141   6.794  66.099  1.00  0.00    -0.154 OA 
HETATM   26  O   UNL     1     -11.222   6.438  66.876  1.00  0.00    -0.368 OA 
ENDBRANCH  14  16
ENDBRANCH  12  14
ENDBRANCH   6  12
TORSDOF 3
ENDMDL
MODEL      143
REMARK 921   NORMALIZED FREE ENERGY PREDICTED BY IDOCK:   -5.65 KCAL/MOL
REMARK 922        TOTAL FREE ENERGY PREDICTED BY IDOCK:   -7.00 KCAL/MOL
REMARK 923 INTER-LIGAND FREE ENERGY PREDICTED BY IDOCK:   -7.79 KCAL/MOL
REMARK 924 INTRA-LIGAND FREE ENERGY PREDICTED BY IDOCK:    0.78 KCAL/MOL
REMARK 927      BINDING AFFINITY PREDICTED BY RF-SCORE:    0.00 PKD
ROOT
HETATM    1  O   UNL     1     -11.630  16.521  70.392  1.00  0.00    -0.151 OA 
HETATM    2  C   UNL     1     -10.653  16.016  69.610  1.00  0.00    -0.311 C  
HETATM    3  C   UNL     1     -10.746  14.553  69.327  1.00  0.00    -0.241 A  
HETATM    4  O   UNL     1      -9.753  16.713  69.166  1.00  0.00    -0.262 OA 
HETATM    5  C   UNL     1      -9.749  13.988  68.507  1.00  0.00    -0.215 A  
HETATM    6  C   UNL     1      -9.765  12.624  68.176  1.00  0.00    -0.219 A  
HETATM    7  C   UNL     1     -10.802  11.833  68.687  1.00  0.00    -0.259 A  
HETATM    8  C   UNL     1     -11.771  13.731  69.814  1.00  0.00    -0.302 A  
HETATM    9  H   UNL     1     -13.462  13.698  70.927  1.00  0.00     0.000 HD 
HETATM   10  C   UNL     1     -11.799  12.373  69.502  1.00  0.00    -0.368 A  
HETATM   11  O   UNL     1     -12.767  14.256  70.597  1.00  0.00    -0.334 OA 
ENDROOT
BRANCH   6  12
HETATM   12  N   UNL     1      -8.856  12.004  67.293  1.00  0.00    -0.175 NA 
HETATM   13  H   UNL     1      -7.847  12.148  67.339  1.00  0.00     0.000 HD 
BRANCH  12  14
HETATM   14  N   UNL     1      -9.402  11.262  66.451  1.00  0.00    -0.187 NA 
HETATM   15  H   UNL     1      -9.260  10.254  66.403  1.00  0.00     0.000 HD 
BRANCH  14  16
HETATM   16  C   UNL     1     -10.242  11.984  65.571  1.00  0.00    -0.258 A  
HETATM   17  C   UNL     1     -11.725  11.926  63.635  1.00  0.00    -0.572 A  
HETATM   18  C   UNL     1     -10.929  11.272  64.580  1.00  0.00    -0.281 A  
HETATM   19  C   UNL     1     -11.834  13.316  63.666  1.00  0.00    -0.458 A  
HETATM   20  C   UNL     1     -11.166  14.061  64.645  1.00  0.00    -0.377 A  
HETATM   21  O   UNL     1     -12.599  13.950  62.719  1.00  0.00    -0.846 OA 
HETATM   22  C   UNL     1     -11.229  15.549  64.752  1.00  0.00    -0.390 C  
HETATM   23  C   UNL     1     -10.371  13.383  65.588  1.00  0.00    -0.295 A  
HETATM   24  H   UNL     1     -12.672  14.897  62.740  1.00  0.00     0.000 HD 
HETATM   25  O   UNL     1     -11.960  16.168  63.803  1.00  0.00    -0.926 OA 
HETATM   26  O   UNL     1     -10.656  16.166  65.636  1.00  0.00    -0.358 OA 
ENDBRANCH  14  16
ENDBRANCH  12  14
ENDBRANCH   6  12
TORSDOF 3
ENDMDL
MODEL      144
REMARK 921   NORMALIZED FREE ENERGY PREDICTED BY IDOCK:   -5.61 KCAL/MOL
REMARK 922        TOTAL FREE ENERGY PREDICTED BY IDOCK:   -6.95 KCAL/MOL
REMARK 923 INTER-LIGAND FREE ENERGY PREDICTED BY IDOCK:   -6.41 KCAL/MOL
REMARK 924 INTRA-LIGAND FREE ENERGY PREDICTED BY IDOCK:   -0.54 KCAL/MOL
REMARK 927      BINDING AFFINITY PREDICTED BY RF-SCORE:    0.00 PKD
ROOT
HETATM    1  O   UNL     1     -11.491  14.973  66.522  1.00  0.00    -0.330 OA 
HETATM    2  C   UNL     1     -11.582  13.654  66.793  1.00  0.00    -0.364 C  
HETATM    3  C   UNL     1     -11.856  13.307  68.219  1.00  0.00    -0.389 A  
HETATM    4  O   UNL     1     -11.446  12.804  65.927  1.00  0.00    -0.322 OA 
HETATM    5  C   UNL     1     -11.966  11.940  68.543  1.00  0.00    -0.273 A  
HETATM    6  C   UNL     1     -12.237  11.522  69.856  1.00  0.00    -0.258 A  
HETATM    7  C   UNL     1     -12.393  12.504  70.842  1.00  0.00    -0.349 A  
HETATM    8  C   UNL     1     -12.026  14.261  69.232  1.00  0.00    -0.335 A  
HETATM    9  H   UNL     1     -12.061  16.245  69.632  1.00  0.00     0.000 HD 
HETATM   10  C   UNL     1     -12.288  13.864  70.543  1.00  0.00    -0.439 A  
HETATM   11  O   UNL     1     -11.945  15.599  68.945  1.00  0.00    -0.367 OA 
ENDROOT
BRANCH   6  12
HETATM   12  N   UNL     1     -12.447  10.181  70.241  1.00  0.00    -0.509 NA 
HETATM   13  H   UNL     1     -13.362   9.730  70.214  1.00  0.00     0.000 HD 
BRANCH  12  14
HETATM   14  N   UNL     1     -11.410   9.600  70.618  1.00  0.00    -0.288 NA 
HETATM   15  H   UNL     1     -10.826   9.920  71.390  1.00  0.00     0.000 HD 
BRANCH  14  16
HETATM   16  C   UNL     1     -11.136   8.445  69.848  1.00  0.00    -0.108 A  
HETATM   17  C   UNL     1     -11.167   6.009  69.714  1.00  0.00    -0.440 A  
HETATM   18  C   UNL     1     -11.467   7.196  70.389  1.00  0.00    -0.317 A  
HETATM   19  C   UNL     1     -10.516   6.061  68.482  1.00  0.00    -0.234 A  
HETATM   20  C   UNL     1     -10.175   7.291  67.907  1.00  0.00    -0.237 A  
HETATM   21  O   UNL     1     -10.205   4.888  67.839  1.00  0.00    -0.123 OA 
HETATM   22  C   UNL     1      -9.482   7.436  66.593  1.00  0.00    -0.187 C  
HETATM   23  C   UNL     1     -10.488   8.474  68.602  1.00  0.00    -0.200 A  
HETATM   24  H   UNL     1      -9.762   4.924  66.999  1.00  0.00     0.000 HD 
HETATM   25  O   UNL     1      -9.154   6.281  65.978  1.00  0.00    -0.156 OA 
HETATM   26  O   UNL     1      -9.223   8.526  66.107  1.00  0.00    -0.187 OA 
ENDBRANCH  14  16
ENDBRANCH  12  14
ENDBRANCH   6  12
TORSDOF 3
ENDMDL
MODEL      145
REMARK 921   NORMALIZED FREE ENERGY PREDICTED BY IDOCK:   -5.60 KCAL/MOL
REMARK 922        TOTAL FREE ENERGY PREDICTED BY IDOCK:   -6.95 KCAL/MOL
REMARK 923 INTER-LIGAND FREE ENERGY PREDICTED BY IDOCK:   -6.58 KCAL/MOL
REMARK 924 INTRA-LIGAND FREE ENERGY PREDICTED BY IDOCK:   -0.37 KCAL/MOL
REMARK 927      BINDING AFFINITY PREDICTED BY RF-SCORE:    0.00 PKD
ROOT
HETATM    1  O   UNL     1     -12.853  14.448  72.557  1.00  0.00    -0.357 OA 
HETATM    2  C   UNL     1     -12.624  14.806  71.276  1.00  0.00    -0.334 C  
HETATM    3  C   UNL     1     -12.409  13.678  70.322  1.00  0.00    -0.392 A  
HETATM    4  O   UNL     1     -12.595  15.975  70.925  1.00  0.00    -0.362 OA 
HETATM    5  C   UNL     1     -12.174  14.007  68.972  1.00  0.00    -0.280 A  
HETATM    6  C   UNL     1     -11.976  13.012  68.003  1.00  0.00    -0.290 A  
HETATM    7  C   UNL     1     -12.014  11.674  68.414  1.00  0.00    -0.266 A  
HETATM    8  C   UNL     1     -12.446  12.327  70.694  1.00  0.00    -0.236 A  
HETATM    9  H   UNL     1     -12.719  11.058  72.248  1.00  0.00     0.000 HD 
HETATM   10  C   UNL     1     -12.244  11.325  69.747  1.00  0.00    -0.343 A  
HETATM   11  O   UNL     1     -12.693  11.974  71.996  1.00  0.00    -0.191 OA 
ENDROOT
BRANCH   6  12
HETATM   12  N   UNL     1     -11.823  13.258  66.622  1.00  0.00    -0.380 NA 
HETATM   13  H   UNL     1     -12.611  13.325  65.976  1.00  0.00     0.000 HD 
BRANCH  12  14
HETATM   14  N   UNL     1     -10.635  13.387  66.265  1.00  0.00    -0.287 NA 
HETATM   15  H   UNL     1     -10.039  14.168  66.539  1.00  0.00     0.000 HD 
BRANCH  14  16
HETATM   16  C   UNL     1     -10.209  12.323  65.435  1.00  0.00    -0.270 A  
HETATM   17  C   UNL     1     -10.080  11.399  63.182  1.00  0.00    -0.390 A  
HETATM   18  C   UNL     1     -10.416  12.438  64.055  1.00  0.00    -0.443 A  
HETATM   19  C   UNL     1      -9.539  10.218  63.688  1.00  0.00    -0.277 A  
HETATM   20  C   UNL     1      -9.314  10.069  65.061  1.00  0.00    -0.314 A  
HETATM   21  O   UNL     1      -9.235   9.195  62.824  1.00  0.00    -0.509 OA 
HETATM   22  C   UNL     1      -8.737   8.842  65.686  1.00  0.00    -0.184 C  
HETATM   23  C   UNL     1      -9.656  11.128  65.923  1.00  0.00    -0.250 A  
HETATM   24  H   UNL     1      -8.867   8.390  63.169  1.00  0.00     0.000 HD 
HETATM   25  O   UNL     1      -8.466   7.830  64.836  1.00  0.00    -0.112 OA 
HETATM   26  O   UNL     1      -8.527   8.756  66.886  1.00  0.00    -0.110 OA 
ENDBRANCH  14  16
ENDBRANCH  12  14
ENDBRANCH   6  12
TORSDOF 3
ENDMDL
MODEL      146
REMARK 921   NORMALIZED FREE ENERGY PREDICTED BY IDOCK:   -5.60 KCAL/MOL
REMARK 922        TOTAL FREE ENERGY PREDICTED BY IDOCK:   -6.95 KCAL/MOL
REMARK 923 INTER-LIGAND FREE ENERGY PREDICTED BY IDOCK:   -6.69 KCAL/MOL
REMARK 924 INTRA-LIGAND FREE ENERGY PREDICTED BY IDOCK:   -0.25 KCAL/MOL
REMARK 927      BINDING AFFINITY PREDICTED BY RF-SCORE:    0.00 PKD
ROOT
HETATM    1  O   UNL     1      -7.658   6.432  72.855  1.00  0.00    -0.094 OA 
HETATM    2  C   UNL     1      -8.282   7.536  72.394  1.00  0.00    -0.104 C  
HETATM    3  C   UNL     1      -9.172   7.325  71.214  1.00  0.00    -0.151 A  
HETATM    4  O   UNL     1      -8.126   8.631  72.909  1.00  0.00    -0.388 OA 
HETATM    5  C   UNL     1      -9.850   8.451  70.705  1.00  0.00    -0.208 A  
HETATM    6  C   UNL     1     -10.718   8.344  69.607  1.00  0.00    -0.198 A  
HETATM    7  C   UNL     1     -10.893   7.083  69.024  1.00  0.00    -0.212 A  
HETATM    8  C   UNL     1      -9.378   6.078  70.608  1.00  0.00    -0.160 A  
HETATM    9  H   UNL     1      -8.889   4.114  70.682  1.00  0.00     0.000 HD 
HETATM   10  C   UNL     1     -10.231   5.954  69.512  1.00  0.00    -0.288 A  
HETATM   11  O   UNL     1      -8.749   4.960  71.093  1.00  0.00    -0.121 OA 
ENDROOT
BRANCH   6  12
HETATM   12  N   UNL     1     -11.497   9.404  69.096  1.00  0.00    -0.384 NA 
HETATM   13  H   UNL     1     -12.411   9.267  68.663  1.00  0.00     0.000 HD 
BRANCH  12  14
HETATM   14  N   UNL     1     -10.963  10.525  69.224  1.00  0.00    -0.227 NA 
HETATM   15  H   UNL     1     -10.078  10.787  68.789  1.00  0.00     0.000 HD 
BRANCH  14  16
HETATM   16  C   UNL     1     -11.727  11.389  70.043  1.00  0.00    -0.334 A  
HETATM   17  C   UNL     1     -13.323  11.607  71.875  1.00  0.00    -0.403 A  
HETATM   18  C   UNL     1     -12.493  10.822  71.069  1.00  0.00    -0.522 A  
HETATM   19  C   UNL     1     -13.402  12.982  71.653  1.00  0.00    -0.292 A  
HETATM   20  C   UNL     1     -12.647  13.584  70.640  1.00  0.00    -0.345 A  
HETATM   21  O   UNL     1     -14.238  13.740  72.434  1.00  0.00    -0.648 OA 
HETATM   22  C   UNL     1     -12.670  15.046  70.336  1.00  0.00    -0.325 C  
HETATM   23  C   UNL     1     -11.816  12.776  69.841  1.00  0.00    -0.371 A  
HETATM   24  H   UNL     1     -14.292  14.676  72.283  1.00  0.00     0.000 HD 
HETATM   25  O   UNL     1     -13.513  15.782  71.089  1.00  0.00    -0.575 OA 
HETATM   26  O   UNL     1     -11.977  15.544  69.463  1.00  0.00    -0.343 OA 
ENDBRANCH  14  16
ENDBRANCH  12  14
ENDBRANCH   6  12
TORSDOF 3
ENDMDL
MODEL      147
REMARK 921   NORMALIZED FREE ENERGY PREDICTED BY IDOCK:   -5.60 KCAL/MOL
REMARK 922        TOTAL FREE ENERGY PREDICTED BY IDOCK:   -6.95 KCAL/MOL
REMARK 923 INTER-LIGAND FREE ENERGY PREDICTED BY IDOCK:   -6.59 KCAL/MOL
REMARK 924 INTRA-LIGAND FREE ENERGY PREDICTED BY IDOCK:   -0.35 KCAL/MOL
REMARK 927      BINDING AFFINITY PREDICTED BY RF-SCORE:    0.00 PKD
ROOT
HETATM    1  O   UNL     1      -9.761   3.438  69.011  1.00  0.00    -0.114 OA 
HETATM    2  C   UNL     1      -9.872   4.556  69.758  1.00  0.00    -0.225 C  
HETATM    3  C   UNL     1     -10.144   5.812  68.998  1.00  0.00    -0.249 A  
HETATM    4  O   UNL     1      -9.758   4.538  70.973  1.00  0.00    -0.164 OA 
HETATM    5  C   UNL     1     -10.275   7.002  69.742  1.00  0.00    -0.213 A  
HETATM    6  C   UNL     1     -10.545   8.228  69.113  1.00  0.00    -0.165 A  
HETATM    7  C   UNL     1     -10.678   8.240  67.719  1.00  0.00    -0.165 A  
HETATM    8  C   UNL     1     -10.290   5.863  67.606  1.00  0.00    -0.212 A  
HETATM    9  H   UNL     1     -10.287   4.753  65.912  1.00  0.00     0.000 HD 
HETATM   10  C   UNL     1     -10.550   7.072  66.963  1.00  0.00    -0.412 A  
HETATM   11  O   UNL     1     -10.188   4.718  66.857  1.00  0.00    -0.216 OA 
ENDROOT
BRANCH   6  12
HETATM   12  N   UNL     1     -10.776   9.443  69.793  1.00  0.00    -0.228 NA 
HETATM   13  H   UNL     1     -10.028  10.078  70.071  1.00  0.00     0.000 HD 
BRANCH  12  14
HETATM   14  N   UNL     1     -11.982   9.667  70.021  1.00  0.00    -0.459 NA 
HETATM   15  H   UNL     1     -12.718   8.965  69.934  1.00  0.00     0.000 HD 
BRANCH  14  16
HETATM   16  C   UNL     1     -12.211  11.006  70.414  1.00  0.00    -0.373 A  
HETATM   17  C   UNL     1     -13.294  12.533  71.978  1.00  0.00    -0.528 A  
HETATM   18  C   UNL     1     -12.973  11.236  71.566  1.00  0.00    -0.520 A  
HETATM   19  C   UNL     1     -12.860  13.624  71.226  1.00  0.00    -0.344 A  
HETATM   20  C   UNL     1     -12.092  13.433  70.071  1.00  0.00    -0.404 A  
HETATM   21  O   UNL     1     -13.201  14.893  71.626  1.00  0.00    -0.314 OA 
HETATM   22  C   UNL     1     -11.584  14.543  69.211  1.00  0.00    -0.302 C  
HETATM   23  C   UNL     1     -11.778  12.120  69.675  1.00  0.00    -0.396 A  
HETATM   24  H   UNL     1     -12.905  15.636  71.113  1.00  0.00     0.000 HD 
HETATM   25  O   UNL     1     -11.945  15.786  69.593  1.00  0.00    -0.356 OA 
HETATM   26  O   UNL     1     -10.893  14.343  68.225  1.00  0.00    -0.233 OA 
ENDBRANCH  14  16
ENDBRANCH  12  14
ENDBRANCH   6  12
TORSDOF 3
ENDMDL
MODEL      148
REMARK 921   NORMALIZED FREE ENERGY PREDICTED BY IDOCK:   -5.58 KCAL/MOL
REMARK 922        TOTAL FREE ENERGY PREDICTED BY IDOCK:   -6.92 KCAL/MOL
REMARK 923 INTER-LIGAND FREE ENERGY PREDICTED BY IDOCK:   -6.41 KCAL/MOL
REMARK 924 INTRA-LIGAND FREE ENERGY PREDICTED BY IDOCK:   -0.51 KCAL/MOL
REMARK 927      BINDING AFFINITY PREDICTED BY RF-SCORE:    0.00 PKD
ROOT
HETATM    1  O   UNL     1      -8.925   5.996  66.125  1.00  0.00    -0.147 OA 
HETATM    2  C   UNL     1      -9.239   7.215  66.611  1.00  0.00    -0.160 C  
HETATM    3  C   UNL     1      -9.936   7.220  67.932  1.00  0.00    -0.192 A  
HETATM    4  O   UNL     1      -8.971   8.242  66.008  1.00  0.00    -0.168 OA 
HETATM    5  C   UNL     1     -10.275   8.474  68.479  1.00  0.00    -0.225 A  
HETATM    6  C   UNL     1     -10.918   8.576  69.723  1.00  0.00    -0.127 A  
HETATM    7  C   UNL     1     -11.220   7.393  70.409  1.00  0.00    -0.284 A  
HETATM    8  C   UNL     1     -10.248   6.059  68.651  1.00  0.00    -0.188 A  
HETATM    9  H   UNL     1     -10.124   4.038  68.642  1.00  0.00     0.000 HD 
HETATM   10  C   UNL     1     -10.894   6.140  69.884  1.00  0.00    -0.420 A  
HETATM   11  O   UNL     1      -9.913   4.825  68.154  1.00  0.00    -0.145 OA 
ENDROOT
BRANCH   6  12
HETATM   12  N   UNL     1     -11.211   9.792  70.376  1.00  0.00    -0.278 NA 
HETATM   13  H   UNL     1     -10.600  10.209  71.078  1.00  0.00     0.000 HD 
BRANCH  12  14
HETATM   14  N   UNL     1     -12.286  10.310  70.012  1.00  0.00    -0.517 NA 
HETATM   15  H   UNL     1     -13.181   9.820  70.008  1.00  0.00     0.000 HD 
BRANCH  14  16
HETATM   16  C   UNL     1     -12.120  11.654  69.606  1.00  0.00    -0.280 A  
HETATM   17  C   UNL     1     -12.186  14.012  70.228  1.00  0.00    -0.430 A  
HETATM   18  C   UNL     1     -12.271  12.659  70.570  1.00  0.00    -0.383 A  
HETATM   19  C   UNL     1     -11.957  14.377  68.902  1.00  0.00    -0.302 A  
HETATM   20  C   UNL     1     -11.796  13.400  67.912  1.00  0.00    -0.392 A  
HETATM   21  O   UNL     1     -11.899  15.709  68.573  1.00  0.00    -0.440 OA 
HETATM   22  C   UNL     1     -11.545  13.703  66.472  1.00  0.00    -0.366 C  
HETATM   23  C   UNL     1     -11.883  12.044  68.277  1.00  0.00    -0.351 A  
HETATM   24  H   UNL     1     -11.743  15.957  67.670  1.00  0.00     0.000 HD 
HETATM   25  O   UNL     1     -11.517  15.012  66.149  1.00  0.00    -0.321 OA 
HETATM   26  O   UNL     1     -11.382  12.826  65.638  1.00  0.00    -0.299 OA 
ENDBRANCH  14  16
ENDBRANCH  12  14
ENDBRANCH   6  12
TORSDOF 3
ENDMDL
MODEL      149
REMARK 921   NORMALIZED FREE ENERGY PREDICTED BY IDOCK:   -5.58 KCAL/MOL
REMARK 922        TOTAL FREE ENERGY PREDICTED BY IDOCK:   -6.92 KCAL/MOL
REMARK 923 INTER-LIGAND FREE ENERGY PREDICTED BY IDOCK:   -6.56 KCAL/MOL
REMARK 924 INTRA-LIGAND FREE ENERGY PREDICTED BY IDOCK:   -0.36 KCAL/MOL
REMARK 927      BINDING AFFINITY PREDICTED BY RF-SCORE:    0.00 PKD
ROOT
HETATM    1  O   UNL     1     -10.978  16.390  67.520  1.00  0.00    -0.285 OA 
HETATM    2  C   UNL     1     -10.827  15.059  67.360  1.00  0.00    -0.305 C  
HETATM    3  C   UNL     1     -11.344  14.214  68.477  1.00  0.00    -0.312 A  
HETATM    4  O   UNL     1     -10.300  14.581  66.368  1.00  0.00    -0.280 OA 
HETATM    5  C   UNL     1     -11.213  12.817  68.346  1.00  0.00    -0.313 A  
HETATM    6  C   UNL     1     -11.684  11.944  69.339  1.00  0.00    -0.339 A  
HETATM    7  C   UNL     1     -12.289  12.500  70.473  1.00  0.00    -0.345 A  
HETATM    8  C   UNL     1     -11.961  14.732  69.623  1.00  0.00    -0.316 A  
HETATM    9  H   UNL     1     -12.541  16.438  70.548  1.00  0.00     0.000 HD 
HETATM   10  C   UNL     1     -12.428  13.882  70.624  1.00  0.00    -0.436 A  
HETATM   11  O   UNL     1     -12.122  16.087  69.771  1.00  0.00    -0.275 OA 
ENDROOT
BRANCH   6  12
HETATM   12  N   UNL     1     -11.669  10.536  69.242  1.00  0.00    -0.452 NA 
HETATM   13  H   UNL     1     -12.467   9.991  68.916  1.00  0.00     0.000 HD 
BRANCH  12  14
HETATM   14  N   UNL     1     -10.587  10.022  69.590  1.00  0.00    -0.234 NA 
HETATM   15  H   UNL     1      -9.674  10.341  69.265  1.00  0.00     0.000 HD 
BRANCH  14  16
HETATM   16  C   UNL     1     -10.773   8.947  70.490  1.00  0.00    -0.230 A  
HETATM   17  C   UNL     1     -11.792   8.149  72.558  1.00  0.00    -0.438 A  
HETATM   18  C   UNL     1     -11.612   9.145  71.593  1.00  0.00    -0.449 A  
HETATM   19  C   UNL     1     -11.118   6.935  72.432  1.00  0.00    -0.260 A  
HETATM   20  C   UNL     1     -10.274   6.699  71.340  1.00  0.00    -0.220 A  
HETATM   21  O   UNL     1     -11.282   5.973  73.397  1.00  0.00    -0.455 OA 
HETATM   22  C   UNL     1      -9.518   5.430  71.127  1.00  0.00    -0.156 C  
HETATM   23  C   UNL     1     -10.109   7.714  70.379  1.00  0.00    -0.190 A  
HETATM   24  H   UNL     1     -10.823   5.147  73.312  1.00  0.00     0.000 HD 
HETATM   25  O   UNL     1      -9.662   4.499  72.092  1.00  0.00    -0.149 OA 
HETATM   26  O   UNL     1      -8.812   5.246  70.147  1.00  0.00    -0.120 OA 
ENDBRANCH  14  16
ENDBRANCH  12  14
ENDBRANCH   6  12
TORSDOF 3
ENDMDL
MODEL      150
REMARK 921   NORMALIZED FREE ENERGY PREDICTED BY IDOCK:   -5.58 KCAL/MOL
REMARK 922        TOTAL FREE ENERGY PREDICTED BY IDOCK:   -6.92 KCAL/MOL
REMARK 923 INTER-LIGAND FREE ENERGY PREDICTED BY IDOCK:   -6.59 KCAL/MOL
REMARK 924 INTRA-LIGAND FREE ENERGY PREDICTED BY IDOCK:   -0.33 KCAL/MOL
REMARK 927      BINDING AFFINITY PREDICTED BY RF-SCORE:    0.00 PKD
ROOT
HETATM    1  O   UNL     1      -9.559   4.951  73.801  1.00  0.00    -0.127 OA 
HETATM    2  C   UNL     1      -9.582   6.232  73.376  1.00  0.00    -0.149 C  
HETATM    3  C   UNL     1      -9.952   6.427  71.943  1.00  0.00    -0.193 A  
HETATM    4  O   UNL     1      -9.315   7.165  74.117  1.00  0.00    -0.229 OA 
HETATM    5  C   UNL     1      -9.995   7.751  71.461  1.00  0.00    -0.205 A  
HETATM    6  C   UNL     1     -10.347   8.031  70.131  1.00  0.00    -0.215 A  
HETATM    7  C   UNL     1     -10.654   6.955  69.289  1.00  0.00    -0.250 A  
HETATM    8  C   UNL     1     -10.272   5.377  71.072  1.00  0.00    -0.229 A  
HETATM    9  H   UNL     1     -10.477   3.368  70.927  1.00  0.00     0.000 HD 
HETATM   10  C   UNL     1     -10.617   5.635  69.747  1.00  0.00    -0.400 A  
HETATM   11  O   UNL     1     -10.259   4.080  71.517  1.00  0.00    -0.135 OA 
ENDROOT
BRANCH   6  12
HETATM   12  N   UNL     1     -10.497   9.329  69.599  1.00  0.00    -0.216 NA 
HETATM   13  H   UNL     1      -9.716   9.879  69.240  1.00  0.00     0.000 HD 
BRANCH  12  14
HETATM   14  N   UNL     1     -11.675   9.741  69.609  1.00  0.00    -0.451 NA 
HETATM   15  H   UNL     1     -12.485   9.143  69.771  1.00  0.00     0.000 HD 
BRANCH  14  16
HETATM   16  C   UNL     1     -11.755  11.132  69.369  1.00  0.00    -0.332 A  
HETATM   17  C   UNL     1     -12.246  13.348  70.264  1.00  0.00    -0.405 A  
HETATM   18  C   UNL     1     -12.085  11.970  70.441  1.00  0.00    -0.407 A  
HETATM   19  C   UNL     1     -12.087  13.905  68.996  1.00  0.00    -0.329 A  
HETATM   20  C   UNL     1     -11.753  13.099  67.901  1.00  0.00    -0.398 A  
HETATM   21  O   UNL     1     -12.271  15.255  68.828  1.00  0.00    -0.576 OA 
HETATM   22  C   UNL     1     -11.562  13.613  66.512  1.00  0.00    -0.366 C  
HETATM   23  C   UNL     1     -11.593  11.715  68.101  1.00  0.00    -0.389 A  
HETATM   24  H   UNL     1     -12.164  15.634  67.964  1.00  0.00     0.000 HD 
HETATM   25  O   UNL     1     -11.771  14.935  66.348  1.00  0.00    -0.307 OA 
HETATM   26  O   UNL     1     -11.243  12.886  65.584  1.00  0.00    -0.285 OA 
ENDBRANCH  14  16
ENDBRANCH  12  14
ENDBRANCH   6  12
TORSDOF 3
ENDMDL
MODEL      151
REMARK 921   NORMALIZED FREE ENERGY PREDICTED BY IDOCK:   -5.58 KCAL/MOL
REMARK 922        TOTAL FREE ENERGY PREDICTED BY IDOCK:   -6.92 KCAL/MOL
REMARK 923 INTER-LIGAND FREE ENERGY PREDICTED BY IDOCK:   -6.28 KCAL/MOL
REMARK 924 INTRA-LIGAND FREE ENERGY PREDICTED BY IDOCK:   -0.64 KCAL/MOL
REMARK 927      BINDING AFFINITY PREDICTED BY RF-SCORE:    0.00 PKD
ROOT
HETATM    1  O   UNL     1      -8.386   8.821  64.172  1.00  0.00    -0.170 OA 
HETATM    2  C   UNL     1      -8.985   9.400  65.234  1.00  0.00    -0.204 C  
HETATM    3  C   UNL     1      -9.901  10.535  64.916  1.00  0.00    -0.379 A  
HETATM    4  O   UNL     1      -8.788   9.018  66.377  1.00  0.00    -0.134 OA 
HETATM    5  C   UNL     1     -10.553  11.162  65.997  1.00  0.00    -0.298 A  
HETATM    6  C   UNL     1     -11.443  12.228  65.791  1.00  0.00    -0.367 A  
HETATM    7  C   UNL     1     -11.666  12.658  64.477  1.00  0.00    -0.416 A  
HETATM    8  C   UNL     1     -10.154  10.989  63.615  1.00  0.00    -0.371 A  
HETATM    9  H   UNL     1      -9.723  10.694  61.659  1.00  0.00     0.000 HD 
HETATM   10  C   UNL     1     -11.029  12.051  63.392  1.00  0.00    -0.475 A  
HETATM   11  O   UNL     1      -9.551  10.386  62.541  1.00  0.00    -0.292 OA 
ENDROOT
BRANCH   6  12
HETATM   12  N   UNL     1     -12.198  12.848  66.810  1.00  0.00    -0.432 NA 
HETATM   13  H   UNL     1     -13.109  13.278  66.645  1.00  0.00     0.000 HD 
BRANCH  12  14
HETATM   14  N   UNL     1     -11.647  12.821  67.929  1.00  0.00    -0.329 NA 
HETATM   15  H   UNL     1     -11.680  12.020  68.559  1.00  0.00     0.000 HD 
BRANCH  14  16
HETATM   16  C   UNL     1     -10.973  14.029  68.221  1.00  0.00    -0.255 A  
HETATM   17  C   UNL     1     -11.026  16.468  68.206  1.00  0.00    -0.346 A  
HETATM   18  C   UNL     1     -11.651  15.235  68.001  1.00  0.00    -0.325 A  
HETATM   19  C   UNL     1      -9.697  16.508  68.627  1.00  0.00    -0.247 A  
HETATM   20  C   UNL     1      -8.989  15.323  68.861  1.00  0.00    -0.209 A  
HETATM   21  O   UNL     1      -9.085  17.724  68.801  1.00  0.00    -0.275 OA 
HETATM   22  C   UNL     1      -7.567  15.275  69.315  1.00  0.00    -0.213 C  
HETATM   23  C   UNL     1      -9.638  14.092  68.651  1.00  0.00    -0.179 A  
HETATM   24  H   UNL     1      -8.179  17.751  69.088  1.00  0.00     0.000 HD 
HETATM   25  O   UNL     1      -6.962  16.472  69.459  1.00  0.00    -0.229 OA 
HETATM   26  O   UNL     1      -6.987  14.224  69.537  1.00  0.00    -0.131 OA 
ENDBRANCH  14  16
ENDBRANCH  12  14
ENDBRANCH   6  12
TORSDOF 3
ENDMDL
MODEL      152
REMARK 921   NORMALIZED FREE ENERGY PREDICTED BY IDOCK:   -5.57 KCAL/MOL
REMARK 922        TOTAL FREE ENERGY PREDICTED BY IDOCK:   -6.91 KCAL/MOL
REMARK 923 INTER-LIGAND FREE ENERGY PREDICTED BY IDOCK:   -6.46 KCAL/MOL
REMARK 924 INTRA-LIGAND FREE ENERGY PREDICTED BY IDOCK:   -0.45 KCAL/MOL
REMARK 927      BINDING AFFINITY PREDICTED BY RF-SCORE:    0.00 PKD
ROOT
HETATM    1  O   UNL     1     -11.733   7.582  71.882  1.00  0.00    -0.267 OA 
HETATM    2  C   UNL     1     -11.626   8.813  71.340  1.00  0.00    -0.299 C  
HETATM    3  C   UNL     1     -11.221   8.851  69.904  1.00  0.00    -0.076 A  
HETATM    4  O   UNL     1     -11.845   9.826  71.986  1.00  0.00    -0.261 OA 
HETATM    5  C   UNL     1     -11.104  10.118  69.298  1.00  0.00    -0.270 A  
HETATM    6  C   UNL     1     -10.743  10.250  67.948  1.00  0.00    -0.264 A  
HETATM    7  C   UNL     1     -10.496   9.083  67.214  1.00  0.00    -0.343 A  
HETATM    8  C   UNL     1     -10.972   7.706  69.136  1.00  0.00     0.021 A  
HETATM    9  H   UNL     1     -10.928   5.682  69.170  1.00  0.00     0.000 HD 
HETATM   10  C   UNL     1     -10.604   7.817  67.796  1.00  0.00    -0.254 A  
HETATM   11  O   UNL     1     -11.097   6.458  69.691  1.00  0.00    -0.327 OA 
ENDROOT
BRANCH   6  12
HETATM   12  N   UNL     1     -10.691  11.474  67.249  1.00  0.00    -0.231 NA 
HETATM   13  H   UNL     1      -9.886  11.767  66.695  1.00  0.00     0.000 HD 
BRANCH  12  14
HETATM   14  N   UNL     1     -11.723  12.165  67.372  1.00  0.00    -0.509 NA 
HETATM   15  H   UNL     1     -12.654  11.849  67.103  1.00  0.00     0.000 HD 
BRANCH  14  16
HETATM   16  C   UNL     1     -11.450  13.437  67.927  1.00  0.00    -0.315 A  
HETATM   17  C   UNL     1     -11.680  14.938  69.836  1.00  0.00    -0.347 A  
HETATM   18  C   UNL     1     -11.858  13.684  69.244  1.00  0.00    -0.395 A  
HETATM   19  C   UNL     1     -11.095  15.971  69.104  1.00  0.00    -0.317 A  
HETATM   20  C   UNL     1     -10.670  15.759  67.788  1.00  0.00    -0.307 A  
HETATM   21  O   UNL     1     -10.947  17.205  69.687  1.00  0.00    -0.353 OA 
HETATM   22  C   UNL     1     -10.033  16.807  66.936  1.00  0.00    -0.273 C  
HETATM   23  C   UNL     1     -10.856  14.489  67.211  1.00  0.00    -0.297 A  
HETATM   24  H   UNL     1     -10.549  17.909  69.189  1.00  0.00     0.000 HD 
HETATM   25  O   UNL     1      -9.915  18.025  67.504  1.00  0.00    -0.303 OA 
HETATM   26  O   UNL     1      -9.648  16.581  65.799  1.00  0.00    -0.476 OA 
ENDBRANCH  14  16
ENDBRANCH  12  14
ENDBRANCH   6  12
TORSDOF 3
ENDMDL
MODEL      153
REMARK 921   NORMALIZED FREE ENERGY PREDICTED BY IDOCK:   -5.56 KCAL/MOL
REMARK 922        TOTAL FREE ENERGY PREDICTED BY IDOCK:   -6.90 KCAL/MOL
REMARK 923 INTER-LIGAND FREE ENERGY PREDICTED BY IDOCK:   -6.40 KCAL/MOL
REMARK 924 INTRA-LIGAND FREE ENERGY PREDICTED BY IDOCK:   -0.49 KCAL/MOL
REMARK 927      BINDING AFFINITY PREDICTED BY RF-SCORE:    0.00 PKD
ROOT
HETATM    1  O   UNL     1     -12.657  16.081  72.431  1.00  0.00    -0.443 OA 
HETATM    2  C   UNL     1     -12.924  14.774  72.226  1.00  0.00    -0.341 C  
HETATM    3  C   UNL     1     -12.333  14.183  70.989  1.00  0.00    -0.438 A  
HETATM    4  O   UNL     1     -13.605  14.122  73.002  1.00  0.00    -0.651 OA 
HETATM    5  C   UNL     1     -12.582  12.818  70.741  1.00  0.00    -0.308 A  
HETATM    6  C   UNL     1     -12.054  12.175  69.610  1.00  0.00    -0.218 A  
HETATM    7  C   UNL     1     -11.272  12.930  68.727  1.00  0.00    -0.323 A  
HETATM    8  C   UNL     1     -11.540  14.904  70.085  1.00  0.00    -0.289 A  
HETATM    9  H   UNL     1     -10.726  16.716  69.696  1.00  0.00     0.000 HD 
HETATM   10  C   UNL     1     -11.014  14.284  68.953  1.00  0.00    -0.275 A  
HETATM   11  O   UNL     1     -11.264  16.228  70.309  1.00  0.00    -0.367 OA 
ENDROOT
BRANCH   6  12
HETATM   12  N   UNL     1     -12.185  10.796  69.339  1.00  0.00    -0.574 NA 
HETATM   13  H   UNL     1     -12.755  10.429  68.577  1.00  0.00     0.000 HD 
BRANCH  12  14
HETATM   14  N   UNL     1     -11.537  10.070  70.119  1.00  0.00    -0.326 NA 
HETATM   15  H   UNL     1     -11.662  10.067  71.132  1.00  0.00     0.000 HD 
BRANCH  14  16
HETATM   16  C   UNL     1     -10.607   9.250  69.437  1.00  0.00    -0.223 A  
HETATM   17  C   UNL     1      -8.875   7.540  69.590  1.00  0.00    -0.141 A  
HETATM   18  C   UNL     1      -9.857   8.336  70.187  1.00  0.00    -0.184 A  
HETATM   19  C   UNL     1      -8.624   7.661  68.223  1.00  0.00    -0.124 A  
HETATM   20  C   UNL     1      -9.358   8.560  67.441  1.00  0.00    -0.178 A  
HETATM   21  O   UNL     1      -7.641   6.892  67.652  1.00  0.00    -0.105 OA 
HETATM   22  C   UNL     1      -9.157   8.750  65.974  1.00  0.00    -0.213 C  
HETATM   23  C   UNL     1     -10.344   9.350  68.061  1.00  0.00    -0.267 A  
HETATM   24  H   UNL     1      -7.470   6.974  66.721  1.00  0.00     0.000 HD 
HETATM   25  O   UNL     1      -8.171   8.012  65.422  1.00  0.00    -0.136 OA 
HETATM   26  O   UNL     1      -9.834   9.523  65.315  1.00  0.00    -0.282 OA 
ENDBRANCH  14  16
ENDBRANCH  12  14
ENDBRANCH   6  12
TORSDOF 3
ENDMDL
MODEL      154
REMARK 921   NORMALIZED FREE ENERGY PREDICTED BY IDOCK:   -5.56 KCAL/MOL
REMARK 922        TOTAL FREE ENERGY PREDICTED BY IDOCK:   -6.89 KCAL/MOL
REMARK 923 INTER-LIGAND FREE ENERGY PREDICTED BY IDOCK:   -6.43 KCAL/MOL
REMARK 924 INTRA-LIGAND FREE ENERGY PREDICTED BY IDOCK:   -0.47 KCAL/MOL
REMARK 927      BINDING AFFINITY PREDICTED BY RF-SCORE:    0.00 PKD
ROOT
HETATM    1  O   UNL     1     -12.484  13.854  63.602  1.00  0.00    -0.768 OA 
HETATM    2  C   UNL     1     -12.510  13.664  64.938  1.00  0.00    -0.384 C  
HETATM    3  C   UNL     1     -11.428  12.792  65.485  1.00  0.00    -0.372 A  
HETATM    4  O   UNL     1     -13.363  14.172  65.649  1.00  0.00    -0.602 OA 
HETATM    5  C   UNL     1     -11.414  12.574  66.877  1.00  0.00    -0.416 A  
HETATM    6  C   UNL     1     -10.426  11.780  67.480  1.00  0.00    -0.202 A  
HETATM    7  C   UNL     1      -9.450  11.204  66.658  1.00  0.00    -0.204 A  
HETATM    8  C   UNL     1     -10.431  12.204  64.696  1.00  0.00    -0.299 A  
HETATM    9  H   UNL     1      -9.729  12.015  62.806  1.00  0.00     0.000 HD 
HETATM   10  C   UNL     1      -9.446  11.406  65.276  1.00  0.00    -0.233 A  
HETATM   11  O   UNL     1     -10.405  12.414  63.341  1.00  0.00    -0.413 OA 
ENDROOT
BRANCH   6  12
HETATM   12  N   UNL     1     -10.294  11.587  68.872  1.00  0.00    -0.311 NA 
HETATM   13  H   UNL     1      -9.597  12.071  69.439  1.00  0.00     0.000 HD 
BRANCH  12  14
HETATM   14  N   UNL     1     -11.109  10.769  69.343  1.00  0.00    -0.248 NA 
HETATM   15  H   UNL     1     -12.098  10.972  69.493  1.00  0.00     0.000 HD 
BRANCH  14  16
HETATM   16  C   UNL     1     -10.504   9.527  69.646  1.00  0.00    -0.223 A  
HETATM   17  C   UNL     1     -10.235   7.174  69.059  1.00  0.00    -0.191 A  
HETATM   18  C   UNL     1     -10.747   8.447  68.788  1.00  0.00    -0.086 A  
HETATM   19  C   UNL     1      -9.476   6.965  70.210  1.00  0.00    -0.162 A  
HETATM   20  C   UNL     1      -9.209   8.022  71.088  1.00  0.00    -0.174 A  
HETATM   21  O   UNL     1      -8.999   5.707  70.480  1.00  0.00    -0.134 OA 
HETATM   22  C   UNL     1      -8.405   7.887  72.339  1.00  0.00    -0.138 C  
HETATM   23  C   UNL     1      -9.731   9.296  70.796  1.00  0.00    -0.348 A  
HETATM   24  H   UNL     1      -8.482   5.565  71.264  1.00  0.00     0.000 HD 
HETATM   25  O   UNL     1      -7.961   6.643  72.613  1.00  0.00    -0.102 OA 
HETATM   26  O   UNL     1      -8.166   8.837  73.069  1.00  0.00    -0.418 OA 
ENDBRANCH  14  16
ENDBRANCH  12  14
ENDBRANCH   6  12
TORSDOF 3
ENDMDL
MODEL      155
REMARK 921   NORMALIZED FREE ENERGY PREDICTED BY IDOCK:   -5.55 KCAL/MOL
REMARK 922        TOTAL FREE ENERGY PREDICTED BY IDOCK:   -6.88 KCAL/MOL
REMARK 923 INTER-LIGAND FREE ENERGY PREDICTED BY IDOCK:   -6.54 KCAL/MOL
REMARK 924 INTRA-LIGAND FREE ENERGY PREDICTED BY IDOCK:   -0.34 KCAL/MOL
REMARK 927      BINDING AFFINITY PREDICTED BY RF-SCORE:    0.00 PKD
ROOT
HETATM    1  O   UNL     1     -12.987  15.849  71.443  1.00  0.00    -0.474 OA 
HETATM    2  C   UNL     1     -12.351  15.046  70.564  1.00  0.00    -0.356 C  
HETATM    3  C   UNL     1     -12.507  13.581  70.802  1.00  0.00    -0.428 A  
HETATM    4  O   UNL     1     -11.692  15.493  69.638  1.00  0.00    -0.311 OA 
HETATM    5  C   UNL     1     -11.864  12.707  69.902  1.00  0.00    -0.364 A  
HETATM    6  C   UNL     1     -11.967  11.314  70.039  1.00  0.00    -0.368 A  
HETATM    7  C   UNL     1     -12.727  10.811  71.102  1.00  0.00    -0.532 A  
HETATM    8  C   UNL     1     -13.263  13.039  71.850  1.00  0.00    -0.430 A  
HETATM    9  H   UNL     1     -14.431  13.495  73.440  1.00  0.00     0.000 HD 
HETATM   10  C   UNL     1     -13.371  11.658  72.006  1.00  0.00    -0.405 A  
HETATM   11  O   UNL     1     -13.917  13.863  72.730  1.00  0.00    -0.697 OA 
ENDROOT
BRANCH   6  12
HETATM   12  N   UNL     1     -11.428  10.378  69.131  1.00  0.00    -0.394 NA 
HETATM   13  H   UNL     1     -11.958   9.987  68.352  1.00  0.00     0.000 HD 
BRANCH  12  14
HETATM   14  N   UNL     1     -10.242  10.074  69.372  1.00  0.00    -0.207 NA 
HETATM   15  H   UNL     1      -9.614  10.639  69.943  1.00  0.00     0.000 HD 
BRANCH  14  16
HETATM   16  C   UNL     1      -9.869   8.855  68.759  1.00  0.00    -0.173 A  
HETATM   17  C   UNL     1     -10.057   7.388  66.819  1.00  0.00    -0.305 A  
HETATM   18  C   UNL     1     -10.331   8.599  67.462  1.00  0.00    -0.336 A  
HETATM   19  C   UNL     1      -9.319   6.406  67.479  1.00  0.00    -0.118 A  
HETATM   20  C   UNL     1      -8.837   6.629  68.775  1.00  0.00    -0.126 A  
HETATM   21  O   UNL     1      -9.076   5.211  66.848  1.00  0.00    -0.115 OA 
HETATM   22  C   UNL     1      -8.038   5.635  69.552  1.00  0.00    -0.103 C  
HETATM   23  C   UNL     1      -9.122   7.855  69.403  1.00  0.00    -0.145 A  
HETATM   24  H   UNL     1      -8.574   4.543  67.299  1.00  0.00     0.000 HD 
HETATM   25  O   UNL     1      -7.826   4.453  68.938  1.00  0.00    -0.069 OA 
HETATM   26  O   UNL     1      -7.609   5.872  70.670  1.00  0.00    -0.087 OA 
ENDBRANCH  14  16
ENDBRANCH  12  14
ENDBRANCH   6  12
TORSDOF 3
ENDMDL
MODEL      156
REMARK 921   NORMALIZED FREE ENERGY PREDICTED BY IDOCK:   -5.55 KCAL/MOL
REMARK 922        TOTAL FREE ENERGY PREDICTED BY IDOCK:   -6.88 KCAL/MOL
REMARK 923 INTER-LIGAND FREE ENERGY PREDICTED BY IDOCK:   -6.32 KCAL/MOL
REMARK 924 INTRA-LIGAND FREE ENERGY PREDICTED BY IDOCK:   -0.57 KCAL/MOL
REMARK 927      BINDING AFFINITY PREDICTED BY RF-SCORE:    0.00 PKD
ROOT
HETATM    1  O   UNL     1     -11.561  11.322  62.720  1.00  0.00     0.415 OA 
HETATM    2  C   UNL     1     -10.759  11.464  63.796  1.00  0.00    -0.403 C  
HETATM    3  C   UNL     1     -11.254  12.401  64.848  1.00  0.00    -0.353 A  
HETATM    4  O   UNL     1      -9.699  10.866  63.897  1.00  0.00    -0.248 OA 
HETATM    5  C   UNL     1     -10.449  12.572  65.992  1.00  0.00    -0.282 A  
HETATM    6  C   UNL     1     -10.842  13.421  67.038  1.00  0.00    -0.273 A  
HETATM    7  C   UNL     1     -12.060  14.101  66.914  1.00  0.00    -0.466 A  
HETATM    8  C   UNL     1     -12.469  13.093  64.763  1.00  0.00    -0.402 A  
HETATM    9  H   UNL     1     -14.108  13.401  63.615  1.00  0.00     0.000 HD 
HETATM   10  C   UNL     1     -12.872  13.947  65.789  1.00  0.00    -0.437 A  
HETATM   11  O   UNL     1     -13.284  12.931  63.672  1.00  0.00    -0.208 OA 
ENDROOT
BRANCH   6  12
HETATM   12  N   UNL     1     -10.136  13.578  68.250  1.00  0.00    -0.242 NA 
HETATM   13  H   UNL     1      -9.645  14.435  68.503  1.00  0.00     0.000 HD 
BRANCH  12  14
HETATM   14  N   UNL     1     -10.170  12.568  68.983  1.00  0.00    -0.426 NA 
HETATM   15  H   UNL     1      -9.542  11.771  68.884  1.00  0.00     0.000 HD 
BRANCH  14  16
HETATM   16  C   UNL     1     -11.182  12.659  69.968  1.00  0.00     0.302 A  
HETATM   17  C   UNL     1     -13.009  11.552  71.144  1.00  0.00    -0.329 A  
HETATM   18  C   UNL     1     -11.951  11.519  70.231  1.00  0.00    -0.455 A  
HETATM   19  C   UNL     1     -13.319  12.742  71.801  1.00  0.00    -0.342 A  
HETATM   20  C   UNL     1     -12.569  13.901  71.566  1.00  0.00    -0.419 A  
HETATM   21  O   UNL     1     -14.376  12.770  72.677  1.00  0.00    -0.579 OA 
HETATM   22  C   UNL     1     -12.830  15.214  72.227  1.00  0.00    -0.343 C  
HETATM   23  C   UNL     1     -11.506  13.846  70.645  1.00  0.00     0.075 A  
HETATM   24  H   UNL     1     -14.586  13.581  73.124  1.00  0.00     0.000 HD 
HETATM   25  O   UNL     1     -13.886  15.243  73.066  1.00  0.00    -0.426 OA 
HETATM   26  O   UNL     1     -12.138  16.199  72.020  1.00  0.00    -0.476 OA 
ENDBRANCH  14  16
ENDBRANCH  12  14
ENDBRANCH   6  12
TORSDOF 3
ENDMDL
MODEL      157
REMARK 921   NORMALIZED FREE ENERGY PREDICTED BY IDOCK:   -5.55 KCAL/MOL
REMARK 922        TOTAL FREE ENERGY PREDICTED BY IDOCK:   -6.88 KCAL/MOL
REMARK 923 INTER-LIGAND FREE ENERGY PREDICTED BY IDOCK:   -6.34 KCAL/MOL
REMARK 924 INTRA-LIGAND FREE ENERGY PREDICTED BY IDOCK:   -0.54 KCAL/MOL
REMARK 927      BINDING AFFINITY PREDICTED BY RF-SCORE:    0.00 PKD
ROOT
HETATM    1  O   UNL     1     -12.048   9.850  70.833  1.00  0.00    -0.302 OA 
HETATM    2  C   UNL     1     -12.229  11.139  70.475  1.00  0.00    -0.384 C  
HETATM    3  C   UNL     1     -11.735  11.504  69.115  1.00  0.00    -0.395 A  
HETATM    4  O   UNL     1     -12.760  11.949  71.218  1.00  0.00    -0.382 OA 
HETATM    5  C   UNL     1     -11.912  12.839  68.699  1.00  0.00    -0.272 A  
HETATM    6  C   UNL     1     -11.492  13.269  67.431  1.00  0.00    -0.332 A  
HETATM    7  C   UNL     1     -10.886  12.333  66.584  1.00  0.00    -0.296 A  
HETATM    8  C   UNL     1     -11.130  10.595  68.237  1.00  0.00    -0.279 A  
HETATM    9  H   UNL     1     -10.553   8.668  68.009  1.00  0.00     0.000 HD 
HETATM   10  C   UNL     1     -10.700  11.005  66.976  1.00  0.00    -0.319 A  
HETATM   11  O   UNL     1     -10.963   9.284  68.604  1.00  0.00    -0.128 OA 
ENDROOT
BRANCH   6  12
HETATM   12  N   UNL     1     -11.712  14.562  66.910  1.00  0.00    -0.385 NA 
HETATM   13  H   UNL     1     -12.547  15.111  67.114  1.00  0.00     0.000 HD 
BRANCH  12  14
HETATM   14  N   UNL     1     -10.789  14.970  66.176  1.00  0.00    -0.324 NA 
HETATM   15  H   UNL     1     -10.540  14.545  65.284  1.00  0.00     0.000 HD 
BRANCH  14  16
HETATM   16  C   UNL     1     -10.126  16.092  66.728  1.00  0.00    -0.268 A  
HETATM   17  C   UNL     1      -9.870  18.517  66.758  1.00  0.00    -0.359 A  
HETATM   18  C   UNL     1     -10.522  17.367  66.306  1.00  0.00    -0.276 A  
HETATM   19  C   UNL     1      -8.795  18.401  67.639  1.00  0.00    -0.263 A  
HETATM   20  C   UNL     1      -8.373  17.143  68.086  1.00  0.00    -0.226 A  
HETATM   21  O   UNL     1      -8.145  19.535  68.058  1.00  0.00    -0.296 OA 
HETATM   22  C   UNL     1      -7.236  16.928  69.029  1.00  0.00    -0.232 C  
HETATM   23  C   UNL     1      -9.046  15.998  67.620  1.00  0.00    -0.200 A  
HETATM   24  H   UNL     1      -7.413  19.456  68.658  1.00  0.00     0.000 HD 
HETATM   25  O   UNL     1      -6.584  18.044  69.416  1.00  0.00    -0.248 OA 
HETATM   26  O   UNL     1      -6.912  15.818  69.421  1.00  0.00    -0.179 OA 
ENDBRANCH  14  16
ENDBRANCH  12  14
ENDBRANCH   6  12
TORSDOF 3
ENDMDL
MODEL      158
REMARK 921   NORMALIZED FREE ENERGY PREDICTED BY IDOCK:   -5.53 KCAL/MOL
REMARK 922        TOTAL FREE ENERGY PREDICTED BY IDOCK:   -6.87 KCAL/MOL
REMARK 923 INTER-LIGAND FREE ENERGY PREDICTED BY IDOCK:   -6.59 KCAL/MOL
REMARK 924 INTRA-LIGAND FREE ENERGY PREDICTED BY IDOCK:   -0.28 KCAL/MOL
REMARK 927      BINDING AFFINITY PREDICTED BY RF-SCORE:    0.00 PKD
ROOT
HETATM    1  O   UNL     1     -10.414  10.894  63.686  1.00  0.00    -0.346 OA 
HETATM    2  C   UNL     1     -10.842  11.069  64.954  1.00  0.00    -0.140 C  
HETATM    3  C   UNL     1     -10.254  10.141  65.965  1.00  0.00    -0.288 A  
HETATM    4  O   UNL     1     -11.657  11.928  65.251  1.00  0.00    -0.306 OA 
HETATM    5  C   UNL     1     -10.669  10.294  67.303  1.00  0.00    -0.323 A  
HETATM    6  C   UNL     1     -10.158   9.476  68.323  1.00  0.00    -0.183 A  
HETATM    7  C   UNL     1      -9.222   8.494  67.974  1.00  0.00    -0.143 A  
HETATM    8  C   UNL     1      -9.311   9.151  65.656  1.00  0.00    -0.235 A  
HETATM    9  H   UNL     1      -8.232   8.320  64.158  1.00  0.00     0.000 HD 
HETATM   10  C   UNL     1      -8.798   8.324  66.654  1.00  0.00    -0.166 A  
HETATM   11  O   UNL     1      -8.872   8.991  64.367  1.00  0.00    -0.170 OA 
ENDROOT
BRANCH   6  12
HETATM   12  N   UNL     1     -10.457   9.625  69.694  1.00  0.00    -0.214 NA 
HETATM   13  H   UNL     1      -9.740   9.707  70.415  1.00  0.00     0.000 HD 
BRANCH  12  14
HETATM   14  N   UNL     1     -11.679   9.647  69.940  1.00  0.00    -0.450 NA 
HETATM   15  H   UNL     1     -12.309   8.863  69.769  1.00  0.00     0.000 HD 
BRANCH  14  16
HETATM   16  C   UNL     1     -12.091  10.885  70.486  1.00  0.00    -0.371 A  
HETATM   17  C   UNL     1     -13.485  12.054  72.111  1.00  0.00    -0.338 A  
HETATM   18  C   UNL     1     -12.985  10.869  71.563  1.00  0.00    -0.556 A  
HETATM   19  C   UNL     1     -13.099  13.281  71.572  1.00  0.00    -0.328 A  
HETATM   20  C   UNL     1     -12.204  13.337  70.497  1.00  0.00    -0.416 A  
HETATM   21  O   UNL     1     -13.615  14.438  72.101  1.00  0.00    -0.360 OA 
HETATM   22  C   UNL     1     -11.737  14.605  69.863  1.00  0.00    -0.299 C  
HETATM   23  C   UNL     1     -11.710  12.132  69.963  1.00  0.00    -0.330 A  
HETATM   24  H   UNL     1     -13.352  15.274  71.733  1.00  0.00     0.000 HD 
HETATM   25  O   UNL     1     -12.267  15.738  70.369  1.00  0.00    -0.392 OA 
HETATM   26  O   UNL     1     -10.932  14.619  68.944  1.00  0.00    -0.235 OA 
ENDBRANCH  14  16
ENDBRANCH  12  14
ENDBRANCH   6  12
TORSDOF 3
ENDMDL
MODEL      159
REMARK 921   NORMALIZED FREE ENERGY PREDICTED BY IDOCK:   -5.53 KCAL/MOL
REMARK 922        TOTAL FREE ENERGY PREDICTED BY IDOCK:   -6.86 KCAL/MOL
REMARK 923 INTER-LIGAND FREE ENERGY PREDICTED BY IDOCK:   -6.68 KCAL/MOL
REMARK 924 INTRA-LIGAND FREE ENERGY PREDICTED BY IDOCK:   -0.18 KCAL/MOL
REMARK 927      BINDING AFFINITY PREDICTED BY RF-SCORE:    0.00 PKD
ROOT
HETATM    1  O   UNL     1     -12.068  16.108  63.793  1.00  0.00    -0.946 OA 
HETATM    2  C   UNL     1     -11.148  15.663  64.675  1.00  0.00    -0.373 C  
HETATM    3  C   UNL     1     -10.998  14.180  64.753  1.00  0.00    -0.409 A  
HETATM    4  O   UNL     1     -10.487  16.425  65.362  1.00  0.00    -0.515 OA 
HETATM    5  C   UNL     1     -10.043  13.673  65.657  1.00  0.00    -0.299 A  
HETATM    6  C   UNL     1      -9.822  12.293  65.786  1.00  0.00    -0.244 A  
HETATM    7  C   UNL     1     -10.583  11.426  64.993  1.00  0.00    -0.359 A  
HETATM    8  C   UNL     1     -11.736  13.281  63.971  1.00  0.00    -0.430 A  
HETATM    9  H   UNL     1     -13.158  13.134  62.537  1.00  0.00     0.000 HD 
HETATM   10  C   UNL     1     -11.536  11.907  64.091  1.00  0.00    -0.434 A  
HETATM   11  O   UNL     1     -12.658  13.744  63.068  1.00  0.00    -0.721 OA 
ENDROOT
BRANCH   6  12
HETATM   12  N   UNL     1      -8.826  11.714  66.602  1.00  0.00    -0.184 NA 
HETATM   13  H   UNL     1      -8.715  11.938  67.591  1.00  0.00     0.000 HD 
BRANCH  12  14
HETATM   14  N   UNL     1      -8.095  10.902  65.999  1.00  0.00    -0.197 NA 
HETATM   15  H   UNL     1      -7.375  11.173  65.329  1.00  0.00     0.000 HD 
BRANCH  14  16
HETATM   16  C   UNL     1      -8.382   9.563  66.351  1.00  0.00    -0.119 A  
HETATM   17  C   UNL     1      -8.167   7.199  65.790  1.00  0.00    -0.132 A  
HETATM   18  C   UNL     1      -7.871   8.542  65.540  1.00  0.00    -0.104 A  
HETATM   19  C   UNL     1      -8.996   6.861  66.859  1.00  0.00    -0.122 A  
HETATM   20  C   UNL     1      -9.521   7.853  67.694  1.00  0.00    -0.170 A  
HETATM   21  O   UNL     1      -9.300   5.540  67.080  1.00  0.00    -0.113 OA 
HETATM   22  C   UNL     1     -10.413   7.580  68.860  1.00  0.00    -0.203 C  
HETATM   23  C   UNL     1      -9.209   9.200  67.427  1.00  0.00    -0.150 A  
HETATM   24  H   UNL     1      -9.864   5.310  67.809  1.00  0.00     0.000 HD 
HETATM   25  O   UNL     1     -10.730   6.284  69.057  1.00  0.00    -0.235 OA 
HETATM   26  O   UNL     1     -10.831   8.468  69.586  1.00  0.00    -0.225 OA 
ENDBRANCH  14  16
ENDBRANCH  12  14
ENDBRANCH   6  12
TORSDOF 3
ENDMDL
MODEL      160
REMARK 921   NORMALIZED FREE ENERGY PREDICTED BY IDOCK:   -5.52 KCAL/MOL
REMARK 922        TOTAL FREE ENERGY PREDICTED BY IDOCK:   -6.85 KCAL/MOL
REMARK 923 INTER-LIGAND FREE ENERGY PREDICTED BY IDOCK:   -6.38 KCAL/MOL
REMARK 924 INTRA-LIGAND FREE ENERGY PREDICTED BY IDOCK:   -0.47 KCAL/MOL
REMARK 927      BINDING AFFINITY PREDICTED BY RF-SCORE:    0.00 PKD
ROOT
HETATM    1  O   UNL     1     -11.498  16.571  63.918  1.00  0.00    -1.145 OA 
HETATM    2  C   UNL     1     -11.748  15.324  64.368  1.00  0.00    -0.285 C  
HETATM    3  C   UNL     1     -10.919  14.880  65.527  1.00  0.00    -0.355 A  
HETATM    4  O   UNL     1     -12.596  14.608  63.858  1.00  0.00    -0.834 OA 
HETATM    5  C   UNL     1     -11.153  13.586  66.033  1.00  0.00    -0.300 A  
HETATM    6  C   UNL     1     -10.431  13.091  67.130  1.00  0.00    -0.243 A  
HETATM    7  C   UNL     1      -9.462  13.919  67.711  1.00  0.00    -0.214 A  
HETATM    8  C   UNL     1      -9.946  15.682  66.139  1.00  0.00    -0.312 A  
HETATM    9  H   UNL     1      -9.049  17.497  66.098  1.00  0.00     0.000 HD 
HETATM   10  C   UNL     1      -9.213  15.204  67.225  1.00  0.00    -0.208 A  
HETATM   11  O   UNL     1      -9.709  16.954  65.683  1.00  0.00    -0.538 OA 
ENDROOT
BRANCH   6  12
HETATM   12  N   UNL     1     -10.667  11.844  67.747  1.00  0.00    -0.200 NA 
HETATM   13  H   UNL     1     -11.377  11.186  67.423  1.00  0.00     0.000 HD 
BRANCH  12  14
HETATM   14  N   UNL     1      -9.927  11.622  68.727  1.00  0.00    -0.345 NA 
HETATM   15  H   UNL     1      -9.750  12.297  69.471  1.00  0.00     0.000 HD 
BRANCH  14  16
HETATM   16  C   UNL     1      -9.362  10.326  68.686  1.00  0.00    -0.162 A  
HETATM   17  C   UNL     1      -8.380   8.471  69.929  1.00  0.00    -0.123 A  
HETATM   18  C   UNL     1      -9.002   9.723  69.897  1.00  0.00    -0.254 A  
HETATM   19  C   UNL     1      -8.099   7.808  68.734  1.00  0.00    -0.126 A  
HETATM   20  C   UNL     1      -8.449   8.378  67.504  1.00  0.00    -0.129 A  
HETATM   21  O   UNL     1      -7.466   6.591  68.776  1.00  0.00    -0.084 OA 
HETATM   22  C   UNL     1      -8.187   7.738  66.181  1.00  0.00    -0.123 C  
HETATM   23  C   UNL     1      -9.076   9.638  67.495  1.00  0.00    -0.142 A  
HETATM   24  H   UNL     1      -7.274   6.140  67.962  1.00  0.00     0.000 HD 
HETATM   25  O   UNL     1      -7.541   6.554  66.226  1.00  0.00    -0.086 OA 
HETATM   26  O   UNL     1      -8.531   8.250  65.127  1.00  0.00    -0.169 OA 
ENDBRANCH  14  16
ENDBRANCH  12  14
ENDBRANCH   6  12
TORSDOF 3
ENDMDL
MODEL      161
REMARK 921   NORMALIZED FREE ENERGY PREDICTED BY IDOCK:   -5.51 KCAL/MOL
REMARK 922        TOTAL FREE ENERGY PREDICTED BY IDOCK:   -6.84 KCAL/MOL
REMARK 923 INTER-LIGAND FREE ENERGY PREDICTED BY IDOCK:   -6.39 KCAL/MOL
REMARK 924 INTRA-LIGAND FREE ENERGY PREDICTED BY IDOCK:   -0.45 KCAL/MOL
REMARK 927      BINDING AFFINITY PREDICTED BY RF-SCORE:    0.00 PKD
ROOT
HETATM    1  O   UNL     1      -5.137  13.811  68.211  1.00  0.00    -0.090 OA 
HETATM    2  C   UNL     1      -6.431  13.631  68.552  1.00  0.00    -0.090 C  
HETATM    3  C   UNL     1      -7.145  12.547  67.814  1.00  0.00    -0.126 A  
HETATM    4  O   UNL     1      -6.976  14.311  69.406  1.00  0.00    -0.128 OA 
HETATM    5  C   UNL     1      -8.496  12.321  68.146  1.00  0.00    -0.176 A  
HETATM    6  C   UNL     1      -9.242  11.313  67.514  1.00  0.00    -0.158 A  
HETATM    7  C   UNL     1      -8.608  10.536  66.538  1.00  0.00    -0.140 A  
HETATM    8  C   UNL     1      -6.543  11.744  66.836  1.00  0.00    -0.114 A  
HETATM    9  H   UNL     1      -4.816  11.382  65.844  1.00  0.00     0.000 HD 
HETATM   10  C   UNL     1      -7.270  10.744  66.193  1.00  0.00    -0.126 A  
HETATM   11  O   UNL     1      -5.224  11.926  66.507  1.00  0.00    -0.309 OA 
ENDROOT
BRANCH   6  12
HETATM   12  N   UNL     1     -10.569  10.969  67.852  1.00  0.00    -0.193 NA 
HETATM   13  H   UNL     1     -10.896  10.004  67.914  1.00  0.00     0.000 HD 
BRANCH  12  14
HETATM   14  N   UNL     1     -11.303  11.954  68.067  1.00  0.00    -0.264 NA 
HETATM   15  H   UNL     1     -11.652  12.214  68.989  1.00  0.00     0.000 HD 
BRANCH  14  16
HETATM   16  C   UNL     1     -11.594  12.670  66.882  1.00  0.00    -0.373 A  
HETATM   17  C   UNL     1     -12.409  12.596  64.584  1.00  0.00    -0.546 A  
HETATM   18  C   UNL     1     -12.154  11.969  65.807  1.00  0.00    -0.011 A  
HETATM   19  C   UNL     1     -12.091  13.944  64.419  1.00  0.00    -0.443 A  
HETATM   20  C   UNL     1     -11.535  14.678  65.473  1.00  0.00    -0.341 A  
HETATM   21  O   UNL     1     -12.323  14.544  63.206  1.00  0.00    -1.033 OA 
HETATM   22  C   UNL     1     -11.168  16.123  65.384  1.00  0.00    -0.006 C  
HETATM   23  C   UNL     1     -11.289  14.028  66.697  1.00  0.00    -0.345 A  
HETATM   24  H   UNL     1     -12.106  15.462  63.095  1.00  0.00     0.000 HD 
HETATM   25  O   UNL     1     -11.372  16.701  64.182  1.00  0.00    -1.141 OA 
HETATM   26  O   UNL     1     -10.710  16.741  66.332  1.00  0.00    -0.234 OA 
ENDBRANCH  14  16
ENDBRANCH  12  14
ENDBRANCH   6  12
TORSDOF 3
ENDMDL
MODEL      162
REMARK 921   NORMALIZED FREE ENERGY PREDICTED BY IDOCK:   -5.50 KCAL/MOL
REMARK 922        TOTAL FREE ENERGY PREDICTED BY IDOCK:   -6.83 KCAL/MOL
REMARK 923 INTER-LIGAND FREE ENERGY PREDICTED BY IDOCK:   -6.41 KCAL/MOL
REMARK 924 INTRA-LIGAND FREE ENERGY PREDICTED BY IDOCK:   -0.42 KCAL/MOL
REMARK 927      BINDING AFFINITY PREDICTED BY RF-SCORE:    0.00 PKD
ROOT
HETATM    1  O   UNL     1      -7.040  17.275  67.982  1.00  0.00    -0.173 OA 
HETATM    2  C   UNL     1      -8.168  16.638  68.357  1.00  0.00    -0.206 C  
HETATM    3  C   UNL     1      -8.168  15.158  68.159  1.00  0.00    -0.145 A  
HETATM    4  O   UNL     1      -9.124  17.235  68.826  1.00  0.00    -0.270 OA 
HETATM    5  C   UNL     1      -9.325  14.453  68.546  1.00  0.00    -0.204 A  
HETATM    6  C   UNL     1      -9.408  13.059  68.410  1.00  0.00    -0.149 A  
HETATM    7  C   UNL     1      -8.306  12.381  67.874  1.00  0.00    -0.165 A  
HETATM    8  C   UNL     1      -7.083  14.444  67.633  1.00  0.00    -0.183 A  
HETATM    9  H   UNL     1      -5.199  14.615  66.911  1.00  0.00     0.000 HD 
HETATM   10  C   UNL     1      -7.149  13.060  67.484  1.00  0.00    -0.158 A  
HETATM   11  O   UNL     1      -5.935  15.100  67.267  1.00  0.00    -0.325 OA 
ENDROOT
BRANCH   6  12
HETATM   12  N   UNL     1     -10.494  12.274  68.854  1.00  0.00    -0.396 NA 
HETATM   13  H   UNL     1     -11.391  12.671  69.136  1.00  0.00     0.000 HD 
BRANCH  12  14
HETATM   14  N   UNL     1     -10.254  11.050  68.868  1.00  0.00    -0.201 NA 
HETATM   15  H   UNL     1      -9.632  10.584  68.207  1.00  0.00     0.000 HD 
BRANCH  14  16
HETATM   16  C   UNL     1     -10.945  10.383  69.906  1.00  0.00    -0.305 A  
HETATM   17  C   UNL     1     -13.003  10.166  71.197  1.00  0.00    -0.488 A  
HETATM   18  C   UNL     1     -12.279  10.736  70.146  1.00  0.00    -0.425 A  
HETATM   19  C   UNL     1     -12.390   9.235  72.034  1.00  0.00    -0.363 A  
HETATM   20  C   UNL     1     -11.060   8.854  71.822  1.00  0.00    -0.433 A  
HETATM   21  O   UNL     1     -13.103   8.699  73.078  1.00  0.00    -0.732 OA 
HETATM   22  C   UNL     1     -10.329   7.864  72.667  1.00  0.00    -0.308 C  
HETATM   23  C   UNL     1     -10.349   9.438  70.757  1.00  0.00    -0.366 A  
HETATM   24  H   UNL     1     -12.685   8.065  73.648  1.00  0.00     0.000 HD 
HETATM   25  O   UNL     1     -11.025   7.361  73.708  1.00  0.00    -0.276 OA 
HETATM   26  O   UNL     1      -9.176   7.532  72.438  1.00  0.00    -0.138 OA 
ENDBRANCH  14  16
ENDBRANCH  12  14
ENDBRANCH   6  12
TORSDOF 3
ENDMDL
MODEL      163
REMARK 921   NORMALIZED FREE ENERGY PREDICTED BY IDOCK:   -5.49 KCAL/MOL
REMARK 922        TOTAL FREE ENERGY PREDICTED BY IDOCK:   -6.82 KCAL/MOL
REMARK 923 INTER-LIGAND FREE ENERGY PREDICTED BY IDOCK:   -6.28 KCAL/MOL
REMARK 924 INTRA-LIGAND FREE ENERGY PREDICTED BY IDOCK:   -0.54 KCAL/MOL
REMARK 927      BINDING AFFINITY PREDICTED BY RF-SCORE:    0.00 PKD
ROOT
HETATM    1  O   UNL     1     -12.667  12.595  64.024  1.00  0.00    -0.672 OA 
HETATM    2  C   UNL     1     -12.178  13.627  64.744  1.00  0.00    -0.403 C  
HETATM    3  C   UNL     1     -11.199  13.261  65.810  1.00  0.00    -0.313 A  
HETATM    4  O   UNL     1     -12.518  14.781  64.535  1.00  0.00    -0.542 OA 
HETATM    5  C   UNL     1     -10.659  14.310  66.580  1.00  0.00    -0.278 A  
HETATM    6  C   UNL     1      -9.720  14.062  67.594  1.00  0.00    -0.228 A  
HETATM    7  C   UNL     1      -9.334  12.736  67.825  1.00  0.00    -0.199 A  
HETATM    8  C   UNL     1     -10.783  11.948  66.067  1.00  0.00    -0.285 A  
HETATM    9  H   UNL     1     -10.993  10.017  65.495  1.00  0.00     0.000 HD 
HETATM   10  C   UNL     1      -9.858  11.681  67.074  1.00  0.00    -0.211 A  
HETATM   11  O   UNL     1     -11.275  10.907  65.320  1.00  0.00     0.053 OA 
ENDROOT
BRANCH   6  12
HETATM   12  N   UNL     1      -9.070  15.063  68.346  1.00  0.00    -0.178 NA 
HETATM   13  H   UNL     1      -9.481  15.493  69.175  1.00  0.00     0.000 HD 
BRANCH  12  14
HETATM   14  N   UNL     1      -7.946  15.372  67.902  1.00  0.00    -0.129 NA 
HETATM   15  H   UNL     1      -7.166  14.720  67.822  1.00  0.00     0.000 HD 
BRANCH  14  16
HETATM   16  C   UNL     1      -7.879  16.733  67.522  1.00  0.00    -0.168 A  
HETATM   17  C   UNL     1      -6.514  18.561  66.658  1.00  0.00    -0.209 A  
HETATM   18  C   UNL     1      -6.674  17.213  66.994  1.00  0.00    -0.227 A  
HETATM   19  C   UNL     1      -7.567  19.453  66.857  1.00  0.00    -0.243 A  
HETATM   20  C   UNL     1      -8.788  19.008  67.378  1.00  0.00    -0.312 A  
HETATM   21  O   UNL     1      -7.392  20.778  66.546  1.00  0.00    -0.480 OA 
HETATM   22  C   UNL     1      -9.966  19.893  67.620  1.00  0.00    -0.419 C  
HETATM   23  C   UNL     1      -8.929  17.647  67.708  1.00  0.00    -0.247 A  
HETATM   24  H   UNL     1      -8.109  21.386  66.682  1.00  0.00     0.000 HD 
HETATM   25  O   UNL     1      -9.780  21.199  67.338  1.00  0.00    -0.347 OA 
HETATM   26  O   UNL     1     -11.027  19.467  68.050  1.00  0.00    -0.239 OA 
ENDBRANCH  14  16
ENDBRANCH  12  14
ENDBRANCH   6  12
TORSDOF 3
ENDMDL
MODEL      164
REMARK 921   NORMALIZED FREE ENERGY PREDICTED BY IDOCK:   -5.47 KCAL/MOL
REMARK 922        TOTAL FREE ENERGY PREDICTED BY IDOCK:   -6.80 KCAL/MOL
REMARK 923 INTER-LIGAND FREE ENERGY PREDICTED BY IDOCK:   -6.32 KCAL/MOL
REMARK 924 INTRA-LIGAND FREE ENERGY PREDICTED BY IDOCK:   -0.48 KCAL/MOL
REMARK 927      BINDING AFFINITY PREDICTED BY RF-SCORE:    0.00 PKD
ROOT
HETATM    1  O   UNL     1     -12.854  16.100  71.823  1.00  0.00    -0.367 OA 
HETATM    2  C   UNL     1     -13.121  14.841  72.231  1.00  0.00    -0.356 C  
HETATM    3  C   UNL     1     -12.753  13.762  71.267  1.00  0.00    -0.450 A  
HETATM    4  O   UNL     1     -13.630  14.605  73.315  1.00  0.00    -0.521 OA 
HETATM    5  C   UNL     1     -13.007  12.432  71.657  1.00  0.00    -0.409 A  
HETATM    6  C   UNL     1     -12.681  11.352  70.821  1.00  0.00    -0.253 A  
HETATM    7  C   UNL     1     -12.095  11.632  69.580  1.00  0.00    -0.345 A  
HETATM    8  C   UNL     1     -12.159  14.002  70.020  1.00  0.00    -0.348 A  
HETATM    9  H   UNL     1     -11.477  15.446  68.776  1.00  0.00     0.000 HD 
HETATM   10  C   UNL     1     -11.835  12.943  69.174  1.00  0.00    -0.353 A  
HETATM   11  O   UNL     1     -11.880  15.284  69.621  1.00  0.00    -0.301 OA 
ENDROOT
BRANCH   6  12
HETATM   12  N   UNL     1     -12.823   9.994  71.175  1.00  0.00    -0.364 NA 
HETATM   13  H   UNL     1     -13.598   9.412  70.856  1.00  0.00     0.000 HD 
BRANCH  12  14
HETATM   14  N   UNL     1     -11.913   9.572  71.916  1.00  0.00    -0.358 NA 
HETATM   15  H   UNL     1     -11.903   9.689  72.929  1.00  0.00     0.000 HD 
BRANCH  14  16
HETATM   16  C   UNL     1     -10.896   8.912  71.188  1.00  0.00    -0.281 A  
HETATM   17  C   UNL     1     -10.213   6.921  69.954  1.00  0.00    -0.214 A  
HETATM   18  C   UNL     1     -11.188   7.660  70.631  1.00  0.00    -0.280 A  
HETATM   19  C   UNL     1      -8.919   7.428  69.836  1.00  0.00    -0.141 A  
HETATM   20  C   UNL     1      -8.592   8.677  70.376  1.00  0.00    -0.160 A  
HETATM   21  O   UNL     1      -7.963   6.683  69.191  1.00  0.00    -0.108 OA 
HETATM   22  C   UNL     1      -7.235   9.295  70.293  1.00  0.00    -0.087 C  
HETATM   23  C   UNL     1      -9.588   9.406  71.052  1.00  0.00    -0.272 A  
HETATM   24  H   UNL     1      -7.082   7.029  69.111  1.00  0.00     0.000 HD 
HETATM   25  O   UNL     1      -6.293   8.547  69.682  1.00  0.00    -0.038 OA 
HETATM   26  O   UNL     1      -6.990  10.400  70.751  1.00  0.00    -0.313 OA 
ENDBRANCH  14  16
ENDBRANCH  12  14
ENDBRANCH   6  12
TORSDOF 3
ENDMDL
MODEL      165
REMARK 921   NORMALIZED FREE ENERGY PREDICTED BY IDOCK:   -5.47 KCAL/MOL
REMARK 922        TOTAL FREE ENERGY PREDICTED BY IDOCK:   -6.79 KCAL/MOL
REMARK 923 INTER-LIGAND FREE ENERGY PREDICTED BY IDOCK:   -6.36 KCAL/MOL
REMARK 924 INTRA-LIGAND FREE ENERGY PREDICTED BY IDOCK:   -0.43 KCAL/MOL
REMARK 927      BINDING AFFINITY PREDICTED BY RF-SCORE:    0.00 PKD
ROOT
HETATM    1  O   UNL     1     -10.115   5.497  72.569  1.00  0.00    -0.171 OA 
HETATM    2  C   UNL     1     -10.119   5.908  71.284  1.00  0.00    -0.196 C  
HETATM    3  C   UNL     1     -10.594   7.306  71.057  1.00  0.00    -0.235 A  
HETATM    4  O   UNL     1      -9.758   5.183  70.370  1.00  0.00    -0.172 OA 
HETATM    5  C   UNL     1     -10.607   7.777  69.729  1.00  0.00    -0.241 A  
HETATM    6  C   UNL     1     -11.024   9.082  69.423  1.00  0.00    -0.065 A  
HETATM    7  C   UNL     1     -11.433   9.908  70.477  1.00  0.00    -0.391 A  
HETATM    8  C   UNL     1     -11.005   8.164  72.085  1.00  0.00    -0.306 A  
HETATM    9  H   UNL     1     -11.263   8.323  74.087  1.00  0.00     0.000 HD 
HETATM   10  C   UNL     1     -11.430   9.460  71.800  1.00  0.00    -0.413 A  
HETATM   11  O   UNL     1     -10.985   7.741  73.390  1.00  0.00    -0.327 OA 
ENDROOT
BRANCH   6  12
HETATM   12  N   UNL     1     -10.982   9.654  68.134  1.00  0.00    -0.469 NA 
HETATM   13  H   UNL     1     -10.331   9.350  67.409  1.00  0.00     0.000 HD 
BRANCH  12  14
HETATM   14  N   UNL     1     -11.815  10.568  67.964  1.00  0.00    -0.740 NA 
HETATM   15  H   UNL     1     -12.803  10.489  68.204  1.00  0.00     0.000 HD 
BRANCH  14  16
HETATM   16  C   UNL     1     -11.229  11.725  67.401  1.00  0.00    -0.297 A  
HETATM   17  C   UNL     1     -11.320  13.438  65.666  1.00  0.00    -0.316 A  
HETATM   18  C   UNL     1     -11.874  12.330  66.314  1.00  0.00    -0.387 A  
HETATM   19  C   UNL     1     -10.097  13.951  66.097  1.00  0.00    -0.308 A  
HETATM   20  C   UNL     1      -9.426  13.375  67.182  1.00  0.00    -0.244 A  
HETATM   21  O   UNL     1      -9.550  15.024  65.438  1.00  0.00    -0.417 OA 
HETATM   22  C   UNL     1      -8.116  13.862  67.709  1.00  0.00    -0.172 C  
HETATM   23  C   UNL     1     -10.002  12.262  67.822  1.00  0.00    -0.200 A  
HETATM   24  H   UNL     1      -8.717  15.373  65.731  1.00  0.00     0.000 HD 
HETATM   25  O   UNL     1      -7.571  14.899  67.041  1.00  0.00    -0.166 OA 
HETATM   26  O   UNL     1      -7.571  13.354  68.676  1.00  0.00    -0.126 OA 
ENDBRANCH  14  16
ENDBRANCH  12  14
ENDBRANCH   6  12
TORSDOF 3
ENDMDL
MODEL      166
REMARK 921   NORMALIZED FREE ENERGY PREDICTED BY IDOCK:   -5.45 KCAL/MOL
REMARK 922        TOTAL FREE ENERGY PREDICTED BY IDOCK:   -6.77 KCAL/MOL
REMARK 923 INTER-LIGAND FREE ENERGY PREDICTED BY IDOCK:   -6.40 KCAL/MOL
REMARK 924 INTRA-LIGAND FREE ENERGY PREDICTED BY IDOCK:   -0.38 KCAL/MOL
REMARK 927      BINDING AFFINITY PREDICTED BY RF-SCORE:    0.00 PKD
ROOT
HETATM    1  O   UNL     1     -12.848  15.066  71.028  1.00  0.00    -0.332 OA 
HETATM    2  C   UNL     1     -12.162  14.142  70.323  1.00  0.00    -0.349 C  
HETATM    3  C   UNL     1     -12.342  12.728  70.769  1.00  0.00    -0.375 A  
HETATM    4  O   UNL     1     -11.443  14.446  69.384  1.00  0.00    -0.258 OA 
HETATM    5  C   UNL     1     -11.648  11.731  70.054  1.00  0.00    -0.318 A  
HETATM    6  C   UNL     1     -11.768  10.375  70.394  1.00  0.00    -0.331 A  
HETATM    7  C   UNL     1     -12.597  10.035  71.470  1.00  0.00    -0.525 A  
HETATM    8  C   UNL     1     -13.167  12.349  71.836  1.00  0.00    -0.382 A  
HETATM    9  H   UNL     1     -14.431  13.036  73.261  1.00  0.00     0.000 HD 
HETATM   10  C   UNL     1     -13.293  11.007  72.192  1.00  0.00    -0.285 A  
HETATM   11  O   UNL     1     -13.871  13.294  72.538  1.00  0.00    -0.668 OA 
ENDROOT
BRANCH   6  12
HETATM   12  N   UNL     1     -11.178   9.314  69.674  1.00  0.00    -0.425 NA 
HETATM   13  H   UNL     1     -10.446   9.452  68.976  1.00  0.00     0.000 HD 
BRANCH  12  14
HETATM   14  N   UNL     1     -11.635   8.192  69.972  1.00  0.00    -0.456 NA 
HETATM   15  H   UNL     1     -12.479   8.050  70.526  1.00  0.00     0.000 HD 
BRANCH  14  16
HETATM   16  C   UNL     1     -10.845   7.139  69.453  1.00  0.00    -0.206 A  
HETATM   17  C   UNL     1     -10.156   4.806  69.629  1.00  0.00    -0.275 A  
HETATM   18  C   UNL     1     -10.953   5.876  70.048  1.00  0.00    -0.430 A  
HETATM   19  C   UNL     1      -9.227   4.994  68.607  1.00  0.00    -0.122 A  
HETATM   20  C   UNL     1      -9.095   6.242  67.985  1.00  0.00    -0.112 A  
HETATM   21  O   UNL     1      -8.433   3.943  68.221  1.00  0.00    -0.089 OA 
HETATM   22  C   UNL     1      -8.129   6.529  66.884  1.00  0.00    -0.113 C  
HETATM   23  C   UNL     1      -9.908   7.305  68.420  1.00  0.00    -0.161 A  
HETATM   24  H   UNL     1      -7.799   4.072  67.525  1.00  0.00     0.000 HD 
HETATM   25  O   UNL     1      -7.333   5.500  66.527  1.00  0.00    -0.079 OA 
HETATM   26  O   UNL     1      -8.059   7.622  66.344  1.00  0.00    -0.106 OA 
ENDBRANCH  14  16
ENDBRANCH  12  14
ENDBRANCH   6  12
TORSDOF 3
ENDMDL
MODEL      167
REMARK 921   NORMALIZED FREE ENERGY PREDICTED BY IDOCK:   -5.44 KCAL/MOL
REMARK 922        TOTAL FREE ENERGY PREDICTED BY IDOCK:   -6.76 KCAL/MOL
REMARK 923 INTER-LIGAND FREE ENERGY PREDICTED BY IDOCK:   -6.16 KCAL/MOL
REMARK 924 INTRA-LIGAND FREE ENERGY PREDICTED BY IDOCK:   -0.60 KCAL/MOL
REMARK 927      BINDING AFFINITY PREDICTED BY RF-SCORE:    0.00 PKD
ROOT
HETATM    1  O   UNL     1      -8.978  16.829  68.291  1.00  0.00    -0.214 OA 
HETATM    2  C   UNL     1      -9.590  15.631  68.172  1.00  0.00    -0.196 C  
HETATM    3  C   UNL     1     -10.339  15.415  66.899  1.00  0.00    -0.277 A  
HETATM    4  O   UNL     1      -9.532  14.785  69.050  1.00  0.00    -0.208 OA 
HETATM    5  C   UNL     1     -10.985  14.174  66.731  1.00  0.00    -0.300 A  
HETATM    6  C   UNL     1     -11.701  13.878  65.561  1.00  0.00    -0.349 A  
HETATM    7  C   UNL     1     -11.759  14.853  64.558  1.00  0.00    -0.388 A  
HETATM    8  C   UNL     1     -10.414  16.364  65.870  1.00  0.00    -0.337 A  
HETATM    9  H   UNL     1      -9.830  18.216  65.297  1.00  0.00     0.000 HD 
HETATM   10  C   UNL     1     -11.126  16.090  64.704  1.00  0.00    -0.346 A  
HETATM   11  O   UNL     1      -9.778  17.573  65.995  1.00  0.00    -0.473 OA 
ENDROOT
BRANCH   6  12
HETATM   12  N   UNL     1     -12.299  12.630  65.282  1.00  0.00    -0.576 NA 
HETATM   13  H   UNL     1     -12.868  12.121  65.959  1.00  0.00     0.000 HD 
BRANCH  12  14
HETATM   14  N   UNL     1     -12.067  12.210  64.131  1.00  0.00    -0.408 NA 
HETATM   15  H   UNL     1     -12.611  12.470  63.309  1.00  0.00     0.000 HD 
BRANCH  14  16
HETATM   16  C   UNL     1     -10.959  11.330  64.098  1.00  0.00    -0.305 A  
HETATM   17  C   UNL     1      -9.269  10.203  62.748  1.00  0.00    -0.322 A  
HETATM   18  C   UNL     1     -10.327  11.109  62.868  1.00  0.00    -0.095 A  
HETATM   19  C   UNL     1      -8.835   9.494  63.868  1.00  0.00    -0.210 A  
HETATM   20  C   UNL     1      -9.440   9.693  65.114  1.00  0.00    -0.332 A  
HETATM   21  O   UNL     1      -7.811   8.590  63.734  1.00  0.00    -0.135 OA 
HETATM   22  C   UNL     1      -9.037   8.979  66.363  1.00  0.00    -0.170 C  
HETATM   23  C   UNL     1     -10.502  10.610  65.214  1.00  0.00    -0.264 A  
HETATM   24  H   UNL     1      -7.516   8.107  64.496  1.00  0.00     0.000 HD 
HETATM   25  O   UNL     1      -8.049   8.072  66.220  1.00  0.00    -0.104 OA 
HETATM   26  O   UNL     1      -9.568   9.196  67.441  1.00  0.00    -0.143 OA 
ENDBRANCH  14  16
ENDBRANCH  12  14
ENDBRANCH   6  12
TORSDOF 3
ENDMDL
MODEL      168
REMARK 921   NORMALIZED FREE ENERGY PREDICTED BY IDOCK:   -5.44 KCAL/MOL
REMARK 922        TOTAL FREE ENERGY PREDICTED BY IDOCK:   -6.75 KCAL/MOL
REMARK 923 INTER-LIGAND FREE ENERGY PREDICTED BY IDOCK:   -6.26 KCAL/MOL
REMARK 924 INTRA-LIGAND FREE ENERGY PREDICTED BY IDOCK:   -0.49 KCAL/MOL
REMARK 927      BINDING AFFINITY PREDICTED BY RF-SCORE:    0.00 PKD
ROOT
HETATM    1  O   UNL     1     -13.055   8.854  72.783  1.00  0.00    -0.377 OA 
HETATM    2  C   UNL     1     -12.790   9.752  71.811  1.00  0.00    -0.434 C  
HETATM    3  C   UNL     1     -11.414   9.690  71.236  1.00  0.00    -0.463 A  
HETATM    4  O   UNL     1     -13.622  10.561  71.432  1.00  0.00    -0.186 OA 
HETATM    5  C   UNL     1     -11.098  10.607  70.214  1.00  0.00    -0.310 A  
HETATM    6  C   UNL     1      -9.833  10.612  69.604  1.00  0.00    -0.013 A  
HETATM    7  C   UNL     1      -8.886   9.679  70.043  1.00  0.00    -0.259 A  
HETATM    8  C   UNL     1     -10.441   8.768  71.644  1.00  0.00    -0.317 A  
HETATM    9  H   UNL     1     -10.065   7.224  72.899  1.00  0.00     0.000 HD 
HETATM   10  C   UNL     1      -9.177   8.763  71.056  1.00  0.00    -0.278 A  
HETATM   11  O   UNL     1     -10.725   7.849  72.622  1.00  0.00    -0.290 OA 
ENDROOT
BRANCH   6  12
HETATM   12  N   UNL     1      -9.471  11.437  68.518  1.00  0.00    -0.187 NA 
HETATM   13  H   UNL     1      -8.503  11.666  68.289  1.00  0.00     0.000 HD 
BRANCH  12  14
HETATM   14  N   UNL     1     -10.446  11.861  67.864  1.00  0.00    -0.199 NA 
HETATM   15  H   UNL     1     -11.253  12.324  68.281  1.00  0.00     0.000 HD 
BRANCH  14  16
HETATM   16  C   UNL     1     -10.302  11.623  66.478  1.00  0.00    -0.224 A  
HETATM   17  C   UNL     1     -11.260  11.836  64.245  1.00  0.00    -0.414 A  
HETATM   18  C   UNL     1     -11.303  12.091  65.619  1.00  0.00    -0.381 A  
HETATM   19  C   UNL     1     -10.208  11.092  63.713  1.00  0.00    -0.377 A  
HETATM   20  C   UNL     1      -9.186  10.612  64.540  1.00  0.00    -0.264 A  
HETATM   21  O   UNL     1     -10.188  10.827  62.366  1.00  0.00    -0.717 OA 
HETATM   22  C   UNL     1      -8.023   9.811  64.053  1.00  0.00    -0.147 C  
HETATM   23  C   UNL     1      -9.247  10.881  65.920  1.00  0.00    -0.214 A  
HETATM   24  H   UNL     1      -9.471  10.320  62.004  1.00  0.00     0.000 HD 
HETATM   25  O   UNL     1      -8.022   9.530  62.734  1.00  0.00    -0.118 OA 
HETATM   26  O   UNL     1      -7.133   9.431  64.798  1.00  0.00    -0.096 OA 
ENDBRANCH  14  16
ENDBRANCH  12  14
ENDBRANCH   6  12
TORSDOF 3
ENDMDL
MODEL      169
REMARK 921   NORMALIZED FREE ENERGY PREDICTED BY IDOCK:   -5.43 KCAL/MOL
REMARK 922        TOTAL FREE ENERGY PREDICTED BY IDOCK:   -6.75 KCAL/MOL
REMARK 923 INTER-LIGAND FREE ENERGY PREDICTED BY IDOCK:   -6.30 KCAL/MOL
REMARK 924 INTRA-LIGAND FREE ENERGY PREDICTED BY IDOCK:   -0.45 KCAL/MOL
REMARK 927      BINDING AFFINITY PREDICTED BY RF-SCORE:    0.00 PKD
ROOT
HETATM    1  O   UNL     1     -13.595  15.113  73.515  1.00  0.00    -0.342 OA 
HETATM    2  C   UNL     1     -13.650  14.267  72.464  1.00  0.00    -0.520 C  
HETATM    3  C   UNL     1     -12.764  14.613  71.313  1.00  0.00    -0.402 A  
HETATM    4  O   UNL     1     -14.377  13.287  72.459  1.00  0.00    -0.662 OA 
HETATM    5  C   UNL     1     -12.786  13.752  70.199  1.00  0.00    -0.151 A  
HETATM    6  C   UNL     1     -11.976  13.991  69.077  1.00  0.00    -0.357 A  
HETATM    7  C   UNL     1     -11.142  15.116  69.093  1.00  0.00    -0.263 A  
HETATM    8  C   UNL     1     -11.912  15.726  71.295  1.00  0.00    -0.434 A  
HETATM    9  H   UNL     1     -11.276  17.326  72.360  1.00  0.00     0.000 HD 
HETATM   10  C   UNL     1     -11.106  15.983  70.187  1.00  0.00    -0.372 A  
HETATM   11  O   UNL     1     -11.854  16.572  72.373  1.00  0.00    -0.532 OA 
ENDROOT
BRANCH   6  12
HETATM   12  N   UNL     1     -11.876  13.130  67.963  1.00  0.00    -0.362 NA 
HETATM   13  H   UNL     1     -12.135  13.410  67.017  1.00  0.00     0.000 HD 
BRANCH  12  14
HETATM   14  N   UNL     1     -11.442  11.995  68.246  1.00  0.00    -0.279 NA 
HETATM   15  H   UNL     1     -11.803  11.420  69.007  1.00  0.00     0.000 HD 
BRANCH  14  16
HETATM   16  C   UNL     1     -10.392  11.597  67.386  1.00  0.00    -0.205 A  
HETATM   17  C   UNL     1      -9.722  10.889  65.150  1.00  0.00    -0.312 A  
HETATM   18  C   UNL     1     -10.696  11.348  66.042  1.00  0.00    -0.318 A  
HETATM   19  C   UNL     1      -8.423  10.662  65.602  1.00  0.00    -0.178 A  
HETATM   20  C   UNL     1      -8.081  10.904  66.937  1.00  0.00    -0.137 A  
HETATM   21  O   UNL     1      -7.480  10.188  64.723  1.00  0.00    -0.141 OA 
HETATM   22  C   UNL     1      -6.715  10.690  67.503  1.00  0.00    -0.070 C  
HETATM   23  C   UNL     1      -9.075  11.368  67.819  1.00  0.00    -0.158 A  
HETATM   24  H   UNL     1      -6.595  10.033  65.031  1.00  0.00     0.000 HD 
HETATM   25  O   UNL     1      -5.800  10.199  66.642  1.00  0.00    -0.052 OA 
HETATM   26  O   UNL     1      -6.444  10.938  68.667  1.00  0.00    -0.053 OA 
ENDBRANCH  14  16
ENDBRANCH  12  14
ENDBRANCH   6  12
TORSDOF 3
ENDMDL
MODEL      170
REMARK 921   NORMALIZED FREE ENERGY PREDICTED BY IDOCK:   -5.42 KCAL/MOL
REMARK 922        TOTAL FREE ENERGY PREDICTED BY IDOCK:   -6.74 KCAL/MOL
REMARK 923 INTER-LIGAND FREE ENERGY PREDICTED BY IDOCK:   -6.40 KCAL/MOL
REMARK 924 INTRA-LIGAND FREE ENERGY PREDICTED BY IDOCK:   -0.34 KCAL/MOL
REMARK 927      BINDING AFFINITY PREDICTED BY RF-SCORE:    0.00 PKD
ROOT
HETATM    1  O   UNL     1     -13.530  15.912  71.994  1.00  0.00    -0.424 OA 
HETATM    2  C   UNL     1     -12.822  15.387  70.973  1.00  0.00    -0.463 C  
HETATM    3  C   UNL     1     -12.667  13.902  70.994  1.00  0.00    -0.428 A  
HETATM    4  O   UNL     1     -12.340  16.083  70.093  1.00  0.00    -0.256 OA 
HETATM    5  C   UNL     1     -11.940  13.312  69.940  1.00  0.00    -0.400 A  
HETATM    6  C   UNL     1     -11.756  11.923  69.871  1.00  0.00    -0.308 A  
HETATM    7  C   UNL     1     -12.314  11.132  70.882  1.00  0.00    -0.500 A  
HETATM    8  C   UNL     1     -13.215  13.077  71.985  1.00  0.00    -0.444 A  
HETATM    9  H   UNL     1     -14.318  13.060  73.683  1.00  0.00     0.000 HD 
HETATM   10  C   UNL     1     -13.037  11.696  71.936  1.00  0.00    -0.490 A  
HETATM   11  O   UNL     1     -13.946  13.619  73.011  1.00  0.00    -0.453 OA 
ENDROOT
BRANCH   6  12
HETATM   12  N   UNL     1     -11.118  11.252  68.805  1.00  0.00    -0.212 NA 
HETATM   13  H   UNL     1     -11.628  10.785  68.055  1.00  0.00     0.000 HD 
BRANCH  12  14
HETATM   14  N   UNL     1      -9.872  11.283  68.868  1.00  0.00    -0.339 NA 
HETATM   15  H   UNL     1      -9.352  11.646  69.667  1.00  0.00     0.000 HD 
BRANCH  14  16
HETATM   16  C   UNL     1      -9.266  10.757  67.704  1.00  0.00    -0.147 A  
HETATM   17  C   UNL     1      -9.420   9.203  65.829  1.00  0.00    -0.322 A  
HETATM   18  C   UNL     1      -9.981   9.814  66.955  1.00  0.00    -0.270 A  
HETATM   19  C   UNL     1      -8.119   9.526  65.445  1.00  0.00    -0.125 A  
HETATM   20  C   UNL     1      -7.376  10.467  66.166  1.00  0.00    -0.136 A  
HETATM   21  O   UNL     1      -7.569   8.902  64.352  1.00  0.00    -0.105 OA 
HETATM   22  C   UNL     1      -5.980  10.873  65.823  1.00  0.00    -0.094 C  
HETATM   23  C   UNL     1      -7.960  11.072  67.295  1.00  0.00    -0.126 A  
HETATM   24  H   UNL     1      -6.682   9.122  64.091  1.00  0.00     0.000 HD 
HETATM   25  O   UNL     1      -5.435  10.237  64.765  1.00  0.00    -0.095 OA 
HETATM   26  O   UNL     1      -5.370  11.718  66.457  1.00  0.00    -0.265 OA 
ENDBRANCH  14  16
ENDBRANCH  12  14
ENDBRANCH   6  12
TORSDOF 3
ENDMDL
MODEL      171
REMARK 921   NORMALIZED FREE ENERGY PREDICTED BY IDOCK:   -5.42 KCAL/MOL
REMARK 922        TOTAL FREE ENERGY PREDICTED BY IDOCK:   -6.73 KCAL/MOL
REMARK 923 INTER-LIGAND FREE ENERGY PREDICTED BY IDOCK:   -6.41 KCAL/MOL
REMARK 924 INTRA-LIGAND FREE ENERGY PREDICTED BY IDOCK:   -0.32 KCAL/MOL
REMARK 927      BINDING AFFINITY PREDICTED BY RF-SCORE:    0.00 PKD
ROOT
HETATM    1  O   UNL     1      -9.621   3.621  66.818  1.00  0.00    -0.204 OA 
HETATM    2  C   UNL     1     -10.236   4.735  66.369  1.00  0.00    -0.275 C  
HETATM    3  C   UNL     1      -9.823   6.009  67.031  1.00  0.00    -0.179 A  
HETATM    4  O   UNL     1     -11.073   4.700  65.481  1.00  0.00    -0.200 OA 
HETATM    5  C   UNL     1     -10.436   7.197  66.586  1.00  0.00    -0.205 A  
HETATM    6  C   UNL     1     -10.100   8.442  67.140  1.00  0.00    -0.265 A  
HETATM    7  C   UNL     1      -9.136   8.473  68.156  1.00  0.00    -0.138 A  
HETATM    8  C   UNL     1      -8.859   6.081  68.045  1.00  0.00    -0.110 A  
HETATM    9  H   UNL     1      -7.576   4.994  69.173  1.00  0.00     0.000 HD 
HETATM   10  C   UNL     1      -8.518   7.307  68.613  1.00  0.00    -0.129 A  
HETATM   11  O   UNL     1      -8.230   4.945  68.485  1.00  0.00    -0.085 OA 
ENDROOT
BRANCH   6  12
HETATM   12  N   UNL     1     -10.603   9.681  66.689  1.00  0.00    -0.152 NA 
HETATM   13  H   UNL     1     -11.419  10.135  67.100  1.00  0.00     0.000 HD 
BRANCH  12  14
HETATM   14  N   UNL     1      -9.955  10.169  65.741  1.00  0.00    -0.264 NA 
HETATM   15  H   UNL     1      -9.095   9.764  65.370  1.00  0.00     0.000 HD 
BRANCH  14  16
HETATM   16  C   UNL     1     -10.551  11.349  65.239  1.00  0.00    -0.277 A  
HETATM   17  C   UNL     1     -12.164  12.345  63.703  1.00  0.00    -0.653 A  
HETATM   18  C   UNL     1     -11.574  11.222  64.291  1.00  0.00     0.088 A  
HETATM   19  C   UNL     1     -11.724  13.620  64.055  1.00  0.00    -0.364 A  
HETATM   20  C   UNL     1     -10.708  13.787  65.003  1.00  0.00    -0.391 A  
HETATM   21  O   UNL     1     -12.294  14.716  63.455  1.00  0.00    -1.032 OA 
HETATM   22  C   UNL     1     -10.180  15.114  65.439  1.00  0.00    -0.372 C  
HETATM   23  C   UNL     1     -10.129  12.644  65.584  1.00  0.00    -0.285 A  
HETATM   24  H   UNL     1     -11.994  15.584  63.694  1.00  0.00     0.000 HD 
HETATM   25  O   UNL     1     -10.725  16.185  64.826  1.00  0.00    -0.648 OA 
HETATM   26  O   UNL     1      -9.312  15.225  66.290  1.00  0.00    -0.268 OA 
ENDBRANCH  14  16
ENDBRANCH  12  14
ENDBRANCH   6  12
TORSDOF 3
ENDMDL
MODEL      172
REMARK 921   NORMALIZED FREE ENERGY PREDICTED BY IDOCK:   -5.41 KCAL/MOL
REMARK 922        TOTAL FREE ENERGY PREDICTED BY IDOCK:   -6.72 KCAL/MOL
REMARK 923 INTER-LIGAND FREE ENERGY PREDICTED BY IDOCK:   -6.38 KCAL/MOL
REMARK 924 INTRA-LIGAND FREE ENERGY PREDICTED BY IDOCK:   -0.34 KCAL/MOL
REMARK 927      BINDING AFFINITY PREDICTED BY RF-SCORE:    0.00 PKD
ROOT
HETATM    1  O   UNL     1      -8.137   9.294  62.885  1.00  0.00    -0.137 OA 
HETATM    2  C   UNL     1      -9.025  10.155  63.424  1.00  0.00    -0.246 C  
HETATM    3  C   UNL     1      -9.424   9.868  64.834  1.00  0.00    -0.355 A  
HETATM    4  O   UNL     1      -9.471  11.103  62.797  1.00  0.00    -0.327 OA 
HETATM    5  C   UNL     1     -10.345  10.748  65.437  1.00  0.00    -0.315 A  
HETATM    6  C   UNL     1     -10.766  10.565  66.764  1.00  0.00    -0.188 A  
HETATM    7  C   UNL     1     -10.247   9.477  67.476  1.00  0.00    -0.283 A  
HETATM    8  C   UNL     1      -8.923   8.794  65.581  1.00  0.00    -0.200 A  
HETATM    9  H   UNL     1      -7.670   7.204  65.535  1.00  0.00     0.000 HD 
HETATM   10  C   UNL     1      -9.335   8.592  66.897  1.00  0.00    -0.219 A  
HETATM   11  O   UNL     1      -8.010   7.932  65.028  1.00  0.00    -0.122 OA 
ENDROOT
BRANCH   6  12
HETATM   12  N   UNL     1     -11.614  11.449  67.464  1.00  0.00    -0.558 NA 
HETATM   13  H   UNL     1     -11.786  11.380  68.467  1.00  0.00     0.000 HD 
BRANCH  12  14
HETATM   14  N   UNL     1     -12.133  12.324  66.741  1.00  0.00    -0.565 NA 
HETATM   15  H   UNL     1     -12.875  12.138  66.066  1.00  0.00     0.000 HD 
BRANCH  14  16
HETATM   16  C   UNL     1     -11.572  13.602  66.965  1.00  0.00    -0.359 A  
HETATM   17  C   UNL     1     -10.076  15.359  66.172  1.00  0.00    -0.325 A  
HETATM   18  C   UNL     1     -10.717  14.130  65.989  1.00  0.00    -0.299 A  
HETATM   19  C   UNL     1     -10.278  16.075  67.351  1.00  0.00    -0.273 A  
HETATM   20  C   UNL     1     -11.129  15.581  68.347  1.00  0.00    -0.315 A  
HETATM   21  O   UNL     1      -9.624  17.269  67.531  1.00  0.00    -0.252 OA 
HETATM   22  C   UNL     1     -11.403  16.283  69.636  1.00  0.00    -0.266 C  
HETATM   23  C   UNL     1     -11.767  14.343  68.142  1.00  0.00    -0.377 A  
HETATM   24  H   UNL     1      -9.762  17.756  68.335  1.00  0.00     0.000 HD 
HETATM   25  O   UNL     1     -10.738  17.442  69.819  1.00  0.00    -0.008 OA 
HETATM   26  O   UNL     1     -12.174  15.838  70.472  1.00  0.00    -0.387 OA 
ENDBRANCH  14  16
ENDBRANCH  12  14
ENDBRANCH   6  12
TORSDOF 3
ENDMDL
MODEL      173
REMARK 921   NORMALIZED FREE ENERGY PREDICTED BY IDOCK:   -5.38 KCAL/MOL
REMARK 922        TOTAL FREE ENERGY PREDICTED BY IDOCK:   -6.69 KCAL/MOL
REMARK 923 INTER-LIGAND FREE ENERGY PREDICTED BY IDOCK:   -6.28 KCAL/MOL
REMARK 924 INTRA-LIGAND FREE ENERGY PREDICTED BY IDOCK:   -0.41 KCAL/MOL
REMARK 927      BINDING AFFINITY PREDICTED BY RF-SCORE:    0.00 PKD
ROOT
HETATM    1  O   UNL     1      -5.943  15.109  70.082  1.00  0.00    -0.133 OA 
HETATM    2  C   UNL     1      -6.873  14.731  69.179  1.00  0.00    -0.133 C  
HETATM    3  C   UNL     1      -7.110  13.260  69.078  1.00  0.00    -0.044 A  
HETATM    4  O   UNL     1      -7.476  15.540  68.493  1.00  0.00    -0.112 OA 
HETATM    5  C   UNL     1      -8.079  12.823  68.153  1.00  0.00    -0.158 A  
HETATM    6  C   UNL     1      -8.378  11.460  68.000  1.00  0.00    -0.143 A  
HETATM    7  C   UNL     1      -7.683  10.539  68.793  1.00  0.00    -0.109 A  
HETATM    8  C   UNL     1      -6.439  12.308  69.858  1.00  0.00     0.009 A  
HETATM    9  H   UNL     1      -5.052  12.058  71.311  1.00  0.00     0.000 HD 
HETATM   10  C   UNL     1      -6.718  10.950  69.715  1.00  0.00    -0.144 A  
HETATM   11  O   UNL     1      -5.506  12.704  70.782  1.00  0.00    -0.154 OA 
ENDROOT
BRANCH   6  12
HETATM   12  N   UNL     1      -9.394  10.953  67.161  1.00  0.00    -0.159 NA 
HETATM   13  H   UNL     1     -10.262  10.551  67.517  1.00  0.00     0.000 HD 
BRANCH  12  14
HETATM   14  N   UNL     1      -9.130  11.042  65.945  1.00  0.00    -0.193 NA 
HETATM   15  H   UNL     1      -8.344  10.571  65.497  1.00  0.00     0.000 HD 
BRANCH  14  16
HETATM   16  C   UNL     1     -10.046  11.874  65.261  1.00  0.00    -0.257 A  
HETATM   17  C   UNL     1     -11.849  12.037  63.626  1.00  0.00    -0.602 A  
HETATM   18  C   UNL     1     -10.958  11.272  64.385  1.00  0.00    -0.331 A  
HETATM   19  C   UNL     1     -11.829  13.427  63.729  1.00  0.00    -0.431 A  
HETATM   20  C   UNL     1     -10.935  14.064  64.598  1.00  0.00    -0.401 A  
HETATM   21  O   UNL     1     -12.692  14.170  62.962  1.00  0.00    -0.842 OA 
HETATM   22  C   UNL     1     -10.848  15.544  64.772  1.00  0.00    -0.363 C  
HETATM   23  C   UNL     1     -10.047  13.276  65.355  1.00  0.00    -0.267 A  
HETATM   24  H   UNL     1     -12.677  15.117  63.032  1.00  0.00     0.000 HD 
HETATM   25  O   UNL     1     -11.679  16.270  63.995  1.00  0.00    -0.930 OA 
HETATM   26  O   UNL     1     -10.074  16.066  65.560  1.00  0.00    -0.382 OA 
ENDBRANCH  14  16
ENDBRANCH  12  14
ENDBRANCH   6  12
TORSDOF 3
ENDMDL
MODEL      174
REMARK 921   NORMALIZED FREE ENERGY PREDICTED BY IDOCK:   -5.37 KCAL/MOL
REMARK 922        TOTAL FREE ENERGY PREDICTED BY IDOCK:   -6.68 KCAL/MOL
REMARK 923 INTER-LIGAND FREE ENERGY PREDICTED BY IDOCK:   -6.29 KCAL/MOL
REMARK 924 INTRA-LIGAND FREE ENERGY PREDICTED BY IDOCK:   -0.39 KCAL/MOL
REMARK 927      BINDING AFFINITY PREDICTED BY RF-SCORE:    0.00 PKD
ROOT
HETATM    1  O   UNL     1      -7.844   9.206  71.590  1.00  0.00    -0.340 OA 
HETATM    2  C   UNL     1      -8.038   9.764  70.376  1.00  0.00    -0.101 C  
HETATM    3  C   UNL     1      -9.457  10.071  70.030  1.00  0.00    -0.184 A  
HETATM    4  O   UNL     1      -7.113   9.999  69.616  1.00  0.00    -0.075 OA 
HETATM    5  C   UNL     1      -9.703  10.662  68.774  1.00  0.00    -0.193 A  
HETATM    6  C   UNL     1     -11.004  10.999  68.369  1.00  0.00    -0.230 A  
HETATM    7  C   UNL     1     -12.060  10.728  69.249  1.00  0.00    -0.278 A  
HETATM    8  C   UNL     1     -10.539   9.822  70.885  1.00  0.00    -0.274 A  
HETATM    9  H   UNL     1     -11.063   9.098  72.702  1.00  0.00     0.000 HD 
HETATM   10  C   UNL     1     -11.838  10.142  70.498  1.00  0.00    -0.408 A  
HETATM   11  O   UNL     1     -10.330   9.267  72.122  1.00  0.00    -0.129 OA 
ENDROOT
BRANCH   6  12
HETATM   12  N   UNL     1     -11.321  11.670  67.169  1.00  0.00    -0.393 NA 
HETATM   13  H   UNL     1     -10.853  11.480  66.283  1.00  0.00     0.000 HD 
BRANCH  12  14
HETATM   14  N   UNL     1     -12.228  12.519  67.295  1.00  0.00    -0.397 NA 
HETATM   15  H   UNL     1     -13.206  12.344  67.067  1.00  0.00     0.000 HD 
BRANCH  14  16
HETATM   16  C   UNL     1     -11.740  13.750  67.790  1.00  0.00    -0.358 A  
HETATM   17  C   UNL     1     -11.788  15.412  69.575  1.00  0.00    -0.370 A  
HETATM   18  C   UNL     1     -12.177  14.176  69.051  1.00  0.00    -0.274 A  
HETATM   19  C   UNL     1     -10.957  16.249  68.830  1.00  0.00    -0.334 A  
HETATM   20  C   UNL     1     -10.497  15.855  67.568  1.00  0.00    -0.298 A  
HETATM   21  O   UNL     1     -10.601  17.471  69.344  1.00  0.00    -0.404 OA 
HETATM   22  C   UNL     1      -9.604  16.686  66.707  1.00  0.00    -0.257 C  
HETATM   23  C   UNL     1     -10.898  14.606  67.059  1.00  0.00    -0.304 A  
HETATM   24  H   UNL     1     -10.035  18.040  68.837  1.00  0.00     0.000 HD 
HETATM   25  O   UNL     1      -9.280  17.897  67.205  1.00  0.00    -0.250 OA 
HETATM   26  O   UNL     1      -9.198  16.300  65.622  1.00  0.00    -0.444 OA 
ENDBRANCH  14  16
ENDBRANCH  12  14
ENDBRANCH   6  12
TORSDOF 3
ENDMDL
MODEL      175
REMARK 921   NORMALIZED FREE ENERGY PREDICTED BY IDOCK:   -5.36 KCAL/MOL
REMARK 922        TOTAL FREE ENERGY PREDICTED BY IDOCK:   -6.67 KCAL/MOL
REMARK 923 INTER-LIGAND FREE ENERGY PREDICTED BY IDOCK:   -6.16 KCAL/MOL
REMARK 924 INTRA-LIGAND FREE ENERGY PREDICTED BY IDOCK:   -0.51 KCAL/MOL
REMARK 927      BINDING AFFINITY PREDICTED BY RF-SCORE:    0.00 PKD
ROOT
HETATM    1  O   UNL     1     -12.760   8.674  72.911  1.00  0.00    -0.289 OA 
HETATM    2  C   UNL     1     -12.725   9.476  71.825  1.00  0.00    -0.404 C  
HETATM    3  C   UNL     1     -11.395   9.600  71.159  1.00  0.00    -0.456 A  
HETATM    4  O   UNL     1     -13.718  10.060  71.420  1.00  0.00    -0.242 OA 
HETATM    5  C   UNL     1     -11.317  10.422  70.017  1.00  0.00    -0.384 A  
HETATM    6  C   UNL     1     -10.111  10.586  69.318  1.00  0.00    -0.224 A  
HETATM    7  C   UNL     1      -8.979   9.910  69.789  1.00  0.00    -0.242 A  
HETATM    8  C   UNL     1     -10.242   8.935  71.596  1.00  0.00    -0.345 A  
HETATM    9  H   UNL     1      -9.508   7.660  72.988  1.00  0.00     0.000 HD 
HETATM   10  C   UNL     1      -9.033   9.091  70.919  1.00  0.00    -0.300 A  
HETATM   11  O   UNL     1     -10.290   8.111  72.692  1.00  0.00    -0.295 OA 
ENDROOT
BRANCH   6  12
HETATM   12  N   UNL     1      -9.974  11.319  68.120  1.00  0.00    -0.176 NA 
HETATM   13  H   UNL     1     -10.593  11.199  67.318  1.00  0.00     0.000 HD 
BRANCH  12  14
HETATM   14  N   UNL     1      -9.023  12.127  68.135  1.00  0.00    -0.190 NA 
HETATM   15  H   UNL     1      -8.042  11.852  68.164  1.00  0.00     0.000 HD 
BRANCH  14  16
HETATM   16  C   UNL     1      -9.465  13.471  68.106  1.00  0.00    -0.214 A  
HETATM   17  C   UNL     1     -11.226  15.043  67.490  1.00  0.00    -0.333 A  
HETATM   18  C   UNL     1     -10.747  13.734  67.608  1.00  0.00    -0.256 A  
HETATM   19  C   UNL     1     -10.413  16.112  67.863  1.00  0.00    -0.290 A  
HETATM   20  C   UNL     1      -9.128  15.887  68.370  1.00  0.00    -0.189 A  
HETATM   21  O   UNL     1     -10.883  17.394  67.720  1.00  0.00    -0.361 OA 
HETATM   22  C   UNL     1      -8.194  16.972  68.795  1.00  0.00    -0.245 C  
HETATM   23  C   UNL     1      -8.666  14.562  68.483  1.00  0.00    -0.177 A  
HETATM   24  H   UNL     1     -10.329  18.123  67.974  1.00  0.00     0.000 HD 
HETATM   25  O   UNL     1      -8.651  18.230  68.627  1.00  0.00    -0.320 OA 
HETATM   26  O   UNL     1      -7.089  16.740  69.259  1.00  0.00    -0.229 OA 
ENDBRANCH  14  16
ENDBRANCH  12  14
ENDBRANCH   6  12
TORSDOF 3
ENDMDL
MODEL      176
REMARK 921   NORMALIZED FREE ENERGY PREDICTED BY IDOCK:   -5.36 KCAL/MOL
REMARK 922        TOTAL FREE ENERGY PREDICTED BY IDOCK:   -6.67 KCAL/MOL
REMARK 923 INTER-LIGAND FREE ENERGY PREDICTED BY IDOCK:   -6.28 KCAL/MOL
REMARK 924 INTRA-LIGAND FREE ENERGY PREDICTED BY IDOCK:   -0.39 KCAL/MOL
REMARK 927      BINDING AFFINITY PREDICTED BY RF-SCORE:    0.00 PKD
ROOT
HETATM    1  O   UNL     1      -7.615   5.072  65.540  1.00  0.00    -0.083 OA 
HETATM    2  C   UNL     1      -8.322   6.219  65.463  1.00  0.00    -0.147 C  
HETATM    3  C   UNL     1      -9.069   6.599  66.698  1.00  0.00    -0.159 A  
HETATM    4  O   UNL     1      -8.348   6.897  64.448  1.00  0.00    -0.028 OA 
HETATM    5  C   UNL     1      -9.814   7.795  66.662  1.00  0.00    -0.295 A  
HETATM    6  C   UNL     1     -10.535   8.238  67.782  1.00  0.00    -0.215 A  
HETATM    7  C   UNL     1     -10.497   7.456  68.943  1.00  0.00    -0.213 A  
HETATM    8  C   UNL     1      -9.051   5.847  67.880  1.00  0.00    -0.109 A  
HETATM    9  H   UNL     1      -8.306   4.179  68.755  1.00  0.00     0.000 HD 
HETATM   10  C   UNL     1      -9.766   6.267  69.000  1.00  0.00    -0.147 A  
HETATM   11  O   UNL     1      -8.318   4.689  67.954  1.00  0.00    -0.098 OA 
ENDROOT
BRANCH   6  12
HETATM   12  N   UNL     1     -11.231   9.464  67.852  1.00  0.00    -0.467 NA 
HETATM   13  H   UNL     1     -11.525   9.987  67.027  1.00  0.00     0.000 HD 
BRANCH  12  14
HETATM   14  N   UNL     1     -11.452   9.848  69.019  1.00  0.00    -0.475 NA 
HETATM   15  H   UNL     1     -11.412   9.239  69.835  1.00  0.00     0.000 HD 
BRANCH  14  16
HETATM   16  C   UNL     1     -11.764  11.226  69.076  1.00  0.00    -0.342 A  
HETATM   17  C   UNL     1     -11.705  13.395  67.963  1.00  0.00    -0.391 A  
HETATM   18  C   UNL     1     -11.483  12.015  67.954  1.00  0.00    -0.396 A  
HETATM   19  C   UNL     1     -12.206  14.008  69.111  1.00  0.00    -0.262 A  
HETATM   20  C   UNL     1     -12.504  13.250  70.250  1.00  0.00    -0.255 A  
HETATM   21  O   UNL     1     -12.397  15.367  69.117  1.00  0.00    -0.588 OA 
HETATM   22  C   UNL     1     -13.046  13.824  71.517  1.00  0.00    -0.357 C  
HETATM   23  C   UNL     1     -12.276  11.862  70.220  1.00  0.00    -0.353 A  
HETATM   24  H   UNL     1     -12.739  15.784  69.899  1.00  0.00     0.000 HD 
HETATM   25  O   UNL     1     -13.206  15.163  71.527  1.00  0.00    -0.360 OA 
HETATM   26  O   UNL     1     -13.321  13.130  72.484  1.00  0.00    -0.534 OA 
ENDBRANCH  14  16
ENDBRANCH  12  14
ENDBRANCH   6  12
TORSDOF 3
ENDMDL
MODEL      177
REMARK 921   NORMALIZED FREE ENERGY PREDICTED BY IDOCK:   -5.35 KCAL/MOL
REMARK 922        TOTAL FREE ENERGY PREDICTED BY IDOCK:   -6.65 KCAL/MOL
REMARK 923 INTER-LIGAND FREE ENERGY PREDICTED BY IDOCK:   -6.30 KCAL/MOL
REMARK 924 INTRA-LIGAND FREE ENERGY PREDICTED BY IDOCK:   -0.35 KCAL/MOL
REMARK 927      BINDING AFFINITY PREDICTED BY RF-SCORE:    0.00 PKD
ROOT
HETATM    1  O   UNL     1      -7.668   5.604  64.605  1.00  0.00    -0.086 OA 
HETATM    2  C   UNL     1      -8.151   6.760  65.105  1.00  0.00    -0.132 C  
HETATM    3  C   UNL     1      -9.111   6.618  66.240  1.00  0.00    -0.168 A  
HETATM    4  O   UNL     1      -7.824   7.848  64.657  1.00  0.00    -0.119 OA 
HETATM    5  C   UNL     1      -9.634   7.802  66.797  1.00  0.00    -0.274 A  
HETATM    6  C   UNL     1     -10.531   7.766  67.876  1.00  0.00    -0.201 A  
HETATM    7  C   UNL     1     -10.899   6.514  68.386  1.00  0.00    -0.357 A  
HETATM    8  C   UNL     1      -9.498   5.385  66.782  1.00  0.00    -0.139 A  
HETATM    9  H   UNL     1      -9.253   3.380  66.642  1.00  0.00     0.000 HD 
HETATM   10  C   UNL     1     -10.394   5.329  67.848  1.00  0.00    -0.189 A  
HETATM   11  O   UNL     1      -8.990   4.216  66.274  1.00  0.00    -0.115 OA 
ENDROOT
BRANCH   6  12
HETATM   12  N   UNL     1     -11.029   8.906  68.543  1.00  0.00    -0.454 NA 
HETATM   13  H   UNL     1     -11.491   9.677  68.061  1.00  0.00     0.000 HD 
BRANCH  12  14
HETATM   14  N   UNL     1     -10.849   8.881  69.777  1.00  0.00    -0.301 NA 
HETATM   15  H   UNL     1     -10.285   8.180  70.257  1.00  0.00     0.000 HD 
BRANCH  14  16
HETATM   16  C   UNL     1     -11.519   9.939  70.435  1.00  0.00    -0.301 A  
HETATM   17  C   UNL     1     -13.099  10.609  72.168  1.00  0.00    -0.382 A  
HETATM   18  C   UNL     1     -12.356   9.623  71.512  1.00  0.00    -0.477 A  
HETATM   19  C   UNL     1     -13.021  11.934  71.739  1.00  0.00    -0.350 A  
HETATM   20  C   UNL     1     -12.191  12.288  70.668  1.00  0.00    -0.378 A  
HETATM   21  O   UNL     1     -13.774  12.890  72.374  1.00  0.00    -0.565 OA 
HETATM   22  C   UNL     1     -12.046  13.680  70.148  1.00  0.00    -0.361 C  
HETATM   23  C   UNL     1     -11.449  11.281  70.024  1.00  0.00    -0.359 A  
HETATM   24  H   UNL     1     -13.720  13.792  72.082  1.00  0.00     0.000 HD 
HETATM   25  O   UNL     1     -12.808  14.611  70.757  1.00  0.00    -0.337 OA 
HETATM   26  O   UNL     1     -11.291  13.959  69.229  1.00  0.00    -0.253 OA 
ENDBRANCH  14  16
ENDBRANCH  12  14
ENDBRANCH   6  12
TORSDOF 3
ENDMDL
MODEL      178
REMARK 921   NORMALIZED FREE ENERGY PREDICTED BY IDOCK:   -5.29 KCAL/MOL
REMARK 922        TOTAL FREE ENERGY PREDICTED BY IDOCK:   -6.58 KCAL/MOL
REMARK 923 INTER-LIGAND FREE ENERGY PREDICTED BY IDOCK:   -6.06 KCAL/MOL
REMARK 924 INTRA-LIGAND FREE ENERGY PREDICTED BY IDOCK:   -0.52 KCAL/MOL
REMARK 927      BINDING AFFINITY PREDICTED BY RF-SCORE:    0.00 PKD
ROOT
HETATM    1  O   UNL     1      -9.055  17.223  68.216  1.00  0.00    -0.246 OA 
HETATM    2  C   UNL     1      -9.715  16.108  68.596  1.00  0.00    -0.227 C  
HETATM    3  C   UNL     1     -10.182  15.227  67.486  1.00  0.00    -0.239 A  
HETATM    4  O   UNL     1      -9.914  15.843  69.771  1.00  0.00    -0.267 OA 
HETATM    5  C   UNL     1     -10.869  14.049  67.840  1.00  0.00    -0.255 A  
HETATM    6  C   UNL     1     -11.333  13.154  66.863  1.00  0.00    -0.318 A  
HETATM    7  C   UNL     1     -11.097  13.465  65.518  1.00  0.00    -0.296 A  
HETATM    8  C   UNL     1      -9.960  15.501  66.129  1.00  0.00    -0.309 A  
HETATM    9  H   UNL     1      -9.125  16.814  64.834  1.00  0.00     0.000 HD 
HETATM   10  C   UNL     1     -10.419  14.628  65.145  1.00  0.00    -0.440 A  
HETATM   11  O   UNL     1      -9.276  16.629  65.754  1.00  0.00    -0.502 OA 
ENDROOT
BRANCH   6  12
HETATM   12  N   UNL     1     -11.949  11.915  67.140  1.00  0.00    -0.603 NA 
HETATM   13  H   UNL     1     -12.438  11.364  66.434  1.00  0.00     0.000 HD 
BRANCH  12  14
HETATM   14  N   UNL     1     -11.839  11.557  68.331  1.00  0.00    -0.515 NA 
HETATM   15  H   UNL     1     -12.381  11.955  69.097  1.00  0.00     0.000 HD 
BRANCH  14  16
HETATM   16  C   UNL     1     -10.877  10.533  68.493  1.00  0.00    -0.234 A  
HETATM   17  C   UNL     1      -8.671   9.898  69.320  1.00  0.00    -0.172 A  
HETATM   18  C   UNL     1      -9.694  10.840  69.178  1.00  0.00    -0.181 A  
HETATM   19  C   UNL     1      -8.818   8.629  68.762  1.00  0.00    -0.139 A  
HETATM   20  C   UNL     1      -9.988   8.284  68.074  1.00  0.00    -0.224 A  
HETATM   21  O   UNL     1      -7.798   7.719  68.886  1.00  0.00    -0.117 OA 
HETATM   22  C   UNL     1     -10.229   6.949  67.449  1.00  0.00    -0.203 C  
HETATM   23  C   UNL     1     -11.007   9.246  67.945  1.00  0.00    -0.076 A  
HETATM   24  H   UNL     1      -7.898   6.854  68.505  1.00  0.00     0.000 HD 
HETATM   25  O   UNL     1      -9.212   6.069  67.551  1.00  0.00    -0.114 OA 
HETATM   26  O   UNL     1     -11.273   6.672  66.880  1.00  0.00    -0.391 OA 
ENDBRANCH  14  16
ENDBRANCH  12  14
ENDBRANCH   6  12
TORSDOF 3
ENDMDL
MODEL      179
REMARK 921   NORMALIZED FREE ENERGY PREDICTED BY IDOCK:   -5.28 KCAL/MOL
REMARK 922        TOTAL FREE ENERGY PREDICTED BY IDOCK:   -6.56 KCAL/MOL
REMARK 923 INTER-LIGAND FREE ENERGY PREDICTED BY IDOCK:   -6.03 KCAL/MOL
REMARK 924 INTRA-LIGAND FREE ENERGY PREDICTED BY IDOCK:   -0.53 KCAL/MOL
REMARK 927      BINDING AFFINITY PREDICTED BY RF-SCORE:    0.00 PKD
ROOT
HETATM    1  O   UNL     1     -11.765  13.861  70.427  1.00  0.00    -0.275 OA 
HETATM    2  C   UNL     1     -11.901  15.001  69.718  1.00  0.00    -0.321 C  
HETATM    3  C   UNL     1     -11.064  15.095  68.484  1.00  0.00    -0.281 A  
HETATM    4  O   UNL     1     -12.656  15.895  70.065  1.00  0.00    -0.264 OA 
HETATM    5  C   UNL     1     -11.181  16.267  67.711  1.00  0.00    -0.163 A  
HETATM    6  C   UNL     1     -10.444  16.435  66.528  1.00  0.00    -0.282 A  
HETATM    7  C   UNL     1      -9.582  15.404  66.135  1.00  0.00    -0.362 A  
HETATM    8  C   UNL     1     -10.195  14.082  68.055  1.00  0.00    -0.238 A  
HETATM    9  H   UNL     1      -9.486  12.235  68.485  1.00  0.00     0.000 HD 
HETATM   10  C   UNL     1      -9.450  14.235  66.888  1.00  0.00    -0.272 A  
HETATM   11  O   UNL     1     -10.075  12.921  68.776  1.00  0.00    -0.168 OA 
ENDROOT
BRANCH   6  12
HETATM   12  N   UNL     1     -10.571  17.537  65.656  1.00  0.00    -0.556 NA 
HETATM   13  H   UNL     1     -10.529  17.453  64.640  1.00  0.00     0.000 HD 
BRANCH  12  14
HETATM   14  N   UNL     1     -10.741  18.625  66.244  1.00  0.00    -0.313 NA 
HETATM   15  H   UNL     1     -11.651  19.066  66.373  1.00  0.00     0.000 HD 
BRANCH  14  16
HETATM   16  C   UNL     1      -9.523  19.173  66.712  1.00  0.00    -0.330 A  
HETATM   17  C   UNL     1      -8.256  20.050  68.602  1.00  0.00    -0.043 A  
HETATM   18  C   UNL     1      -9.405  19.448  68.080  1.00  0.00    -0.402 A  
HETATM   19  C   UNL     1      -7.208  20.396  67.750  1.00  0.00    -0.299 A  
HETATM   20  C   UNL     1      -7.289  20.132  66.378  1.00  0.00    -0.313 A  
HETATM   21  O   UNL     1      -6.095  21.009  68.270  1.00  0.00    -0.337 OA 
HETATM   22  C   UNL     1      -6.215  20.467  65.397  1.00  0.00    -0.245 C  
HETATM   23  C   UNL     1      -8.453  19.523  65.872  1.00  0.00    -0.115 A  
HETATM   24  H   UNL     1      -5.382  21.245  67.689  1.00  0.00     0.000 HD 
HETATM   25  O   UNL     1      -5.135  21.093  65.909  1.00  0.00    -0.189 OA 
HETATM   26  O   UNL     1      -6.306  20.197  64.209  1.00  0.00    -0.264 OA 
ENDBRANCH  14  16
ENDBRANCH  12  14
ENDBRANCH   6  12
TORSDOF 3
ENDMDL
MODEL      180
REMARK 921   NORMALIZED FREE ENERGY PREDICTED BY IDOCK:   -5.27 KCAL/MOL
REMARK 922        TOTAL FREE ENERGY PREDICTED BY IDOCK:   -6.55 KCAL/MOL
REMARK 923 INTER-LIGAND FREE ENERGY PREDICTED BY IDOCK:   -6.02 KCAL/MOL
REMARK 924 INTRA-LIGAND FREE ENERGY PREDICTED BY IDOCK:   -0.53 KCAL/MOL
REMARK 927      BINDING AFFINITY PREDICTED BY RF-SCORE:    0.00 PKD
ROOT
HETATM    1  O   UNL     1     -10.279  19.609  66.357  1.00  0.00    -0.407 OA 
HETATM    2  C   UNL     1     -10.082  18.310  66.050  1.00  0.00    -0.271 C  
HETATM    3  C   UNL     1      -9.045  17.607  66.862  1.00  0.00    -0.262 A  
HETATM    4  O   UNL     1     -10.712  17.750  65.166  1.00  0.00    -0.638 OA 
HETATM    5  C   UNL     1      -8.814  16.246  66.579  1.00  0.00    -0.318 A  
HETATM    6  C   UNL     1      -7.868  15.502  67.301  1.00  0.00    -0.204 A  
HETATM    7  C   UNL     1      -7.153  16.151  68.315  1.00  0.00    -0.130 A  
HETATM    8  C   UNL     1      -8.314  18.220  67.888  1.00  0.00    -0.250 A  
HETATM    9  H   UNL     1      -8.035  19.953  68.897  1.00  0.00     0.000 HD 
HETATM   10  C   UNL     1      -7.365  17.499  68.611  1.00  0.00    -0.256 A  
HETATM   11  O   UNL     1      -8.531  19.538  68.201  1.00  0.00    -0.310 OA 
ENDROOT
BRANCH   6  12
HETATM   12  N   UNL     1      -7.643  14.118  67.137  1.00  0.00    -0.342 NA 
HETATM   13  H   UNL     1      -6.905  13.611  67.625  1.00  0.00     0.000 HD 
BRANCH  12  14
HETATM   14  N   UNL     1      -8.432  13.574  66.338  1.00  0.00    -0.255 NA 
HETATM   15  H   UNL     1      -8.561  13.874  65.372  1.00  0.00     0.000 HD 
BRANCH  14  16
HETATM   16  C   UNL     1      -9.128  12.494  66.929  1.00  0.00    -0.213 A  
HETATM   17  C   UNL     1      -9.442  10.079  67.062  1.00  0.00    -0.197 A  
HETATM   18  C   UNL     1      -8.757  11.192  66.568  1.00  0.00    -0.174 A  
HETATM   19  C   UNL     1     -10.525  10.258  67.922  1.00  0.00    -0.212 A  
HETATM   20  C   UNL     1     -10.922  11.544  68.309  1.00  0.00    -0.272 A  
HETATM   21  O   UNL     1     -11.206   9.159  68.382  1.00  0.00    -0.464 OA 
HETATM   22  C   UNL     1     -12.065  11.826  69.226  1.00  0.00    -0.229 C  
HETATM   23  C   UNL     1     -10.217  12.652  67.802  1.00  0.00    -0.222 A  
HETATM   24  H   UNL     1     -11.944   9.282  68.968  1.00  0.00     0.000 HD 
HETATM   25  O   UNL     1     -12.748  10.744  69.653  1.00  0.00    -0.234 OA 
HETATM   26  O   UNL     1     -12.368  12.960  69.565  1.00  0.00    -0.158 OA 
ENDBRANCH  14  16
ENDBRANCH  12  14
ENDBRANCH   6  12
TORSDOF 3
ENDMDL
MODEL      181
REMARK 921   NORMALIZED FREE ENERGY PREDICTED BY IDOCK:   -5.23 KCAL/MOL
REMARK 922        TOTAL FREE ENERGY PREDICTED BY IDOCK:   -6.52 KCAL/MOL
REMARK 923 INTER-LIGAND FREE ENERGY PREDICTED BY IDOCK:   -6.07 KCAL/MOL
REMARK 924 INTRA-LIGAND FREE ENERGY PREDICTED BY IDOCK:   -0.44 KCAL/MOL
REMARK 927      BINDING AFFINITY PREDICTED BY RF-SCORE:    0.00 PKD
ROOT
HETATM    1  O   UNL     1     -13.849  13.665  72.748  1.00  0.00    -0.727 OA 
HETATM    2  C   UNL     1     -13.204  12.813  71.924  1.00  0.00    -0.412 C  
HETATM    3  C   UNL     1     -12.509  13.443  70.762  1.00  0.00    -0.418 A  
HETATM    4  O   UNL     1     -13.192  11.607  72.118  1.00  0.00    -0.504 OA 
HETATM    5  C   UNL     1     -11.816  12.589  69.881  1.00  0.00    -0.373 A  
HETATM    6  C   UNL     1     -11.122  13.095  68.771  1.00  0.00    -0.269 A  
HETATM    7  C   UNL     1     -11.138  14.479  68.558  1.00  0.00    -0.271 A  
HETATM    8  C   UNL     1     -12.496  14.823  70.519  1.00  0.00    -0.352 A  
HETATM    9  H   UNL     1     -13.135  16.618  71.206  1.00  0.00     0.000 HD 
HETATM   10  C   UNL     1     -11.819  15.344  69.418  1.00  0.00    -0.372 A  
HETATM   11  O   UNL     1     -13.144  15.682  71.370  1.00  0.00    -0.479 OA 
ENDROOT
BRANCH   6  12
HETATM   12  N   UNL     1     -10.335  12.317  67.896  1.00  0.00    -0.203 NA 
HETATM   13  H   UNL     1      -9.511  12.678  67.415  1.00  0.00     0.000 HD 
BRANCH  12  14
HETATM   14  N   UNL     1     -10.743  11.145  67.765  1.00  0.00    -0.207 NA 
HETATM   15  H   UNL     1     -11.622  10.895  67.312  1.00  0.00     0.000 HD 
BRANCH  14  16
HETATM   16  C   UNL     1      -9.844  10.203  68.317  1.00  0.00    -0.145 A  
HETATM   17  C   UNL     1      -9.343   7.858  68.766  1.00  0.00    -0.146 A  
HETATM   18  C   UNL     1     -10.151   8.842  68.189  1.00  0.00    -0.227 A  
HETATM   19  C   UNL     1      -8.214   8.230  69.495  1.00  0.00    -0.119 A  
HETATM   20  C   UNL     1      -7.873   9.580  69.640  1.00  0.00    -0.116 A  
HETATM   21  O   UNL     1      -7.441   7.257  70.078  1.00  0.00    -0.081 OA 
HETATM   22  C   UNL     1      -6.682  10.066  70.400  1.00  0.00    -0.138 C  
HETATM   23  C   UNL     1      -8.698  10.555  69.049  1.00  0.00    -0.160 A  
HETATM   24  H   UNL     1      -6.672   7.511  70.575  1.00  0.00     0.000 HD 
HETATM   25  O   UNL     1      -5.942   9.107  70.993  1.00  0.00    -0.043 OA 
HETATM   26  O   UNL     1      -6.398  11.250  70.483  1.00  0.00    -0.306 OA 
ENDBRANCH  14  16
ENDBRANCH  12  14
ENDBRANCH   6  12
TORSDOF 3
ENDMDL
MODEL      182
REMARK 921   NORMALIZED FREE ENERGY PREDICTED BY IDOCK:   -5.23 KCAL/MOL
REMARK 922        TOTAL FREE ENERGY PREDICTED BY IDOCK:   -6.51 KCAL/MOL
REMARK 923 INTER-LIGAND FREE ENERGY PREDICTED BY IDOCK:   -6.11 KCAL/MOL
REMARK 924 INTRA-LIGAND FREE ENERGY PREDICTED BY IDOCK:   -0.40 KCAL/MOL
REMARK 927      BINDING AFFINITY PREDICTED BY RF-SCORE:    0.00 PKD
ROOT
HETATM    1  O   UNL     1     -12.827  15.062  71.036  1.00  0.00    -0.332 OA 
HETATM    2  C   UNL     1     -12.164  14.118  70.335  1.00  0.00    -0.356 C  
HETATM    3  C   UNL     1     -12.362  12.714  70.803  1.00  0.00    -0.372 A  
HETATM    4  O   UNL     1     -11.451  14.397  69.385  1.00  0.00    -0.258 OA 
HETATM    5  C   UNL     1     -11.693  11.696  70.094  1.00  0.00    -0.381 A  
HETATM    6  C   UNL     1     -11.832  10.346  70.452  1.00  0.00    -0.328 A  
HETATM    7  C   UNL     1     -12.654  10.034  71.542  1.00  0.00    -0.525 A  
HETATM    8  C   UNL     1     -13.181  12.362  71.884  1.00  0.00    -0.382 A  
HETATM    9  H   UNL     1     -14.417  13.089  73.314  1.00  0.00     0.000 HD 
HETATM   10  C   UNL     1     -13.325  11.027  72.260  1.00  0.00    -0.097 A  
HETATM   11  O   UNL     1     -13.861  13.328  72.581  1.00  0.00    -0.712 OA 
ENDROOT
BRANCH   6  12
HETATM   12  N   UNL     1     -11.267   9.266  69.741  1.00  0.00    -0.411 NA 
HETATM   13  H   UNL     1     -10.520   9.379  69.055  1.00  0.00     0.000 HD 
BRANCH  12  14
HETATM   14  N   UNL     1     -11.768   8.160  70.029  1.00  0.00    -0.408 NA 
HETATM   15  H   UNL     1     -12.742   7.913  69.853  1.00  0.00     0.000 HD 
BRANCH  14  16
HETATM   16  C   UNL     1     -10.829   7.290  70.629  1.00  0.00    -0.242 A  
HETATM   17  C   UNL     1     -10.444   5.347  72.053  1.00  0.00    -0.278 A  
HETATM   18  C   UNL     1     -11.313   6.210  71.379  1.00  0.00    -0.336 A  
HETATM   19  C   UNL     1      -9.068   5.565  71.994  1.00  0.00    -0.141 A  
HETATM   20  C   UNL     1      -8.548   6.631  71.251  1.00  0.00    -0.126 A  
HETATM   21  O   UNL     1      -8.226   4.726  72.680  1.00  0.00    -0.108 OA 
HETATM   22  C   UNL     1      -7.091   6.934  71.131  1.00  0.00    -0.075 C  
HETATM   23  C   UNL     1      -9.439   7.487  70.577  1.00  0.00    -0.164 A  
HETATM   24  H   UNL     1      -7.288   4.875  72.639  1.00  0.00     0.000 HD 
HETATM   25  O   UNL     1      -6.269   6.123  71.829  1.00  0.00    -0.039 OA 
HETATM   26  O   UNL     1      -6.668   7.857  70.451  1.00  0.00    -0.038 OA 
ENDBRANCH  14  16
ENDBRANCH  12  14
ENDBRANCH   6  12
TORSDOF 3
ENDMDL
MODEL      183
REMARK 921   NORMALIZED FREE ENERGY PREDICTED BY IDOCK:   -5.22 KCAL/MOL
REMARK 922        TOTAL FREE ENERGY PREDICTED BY IDOCK:   -6.50 KCAL/MOL
REMARK 923 INTER-LIGAND FREE ENERGY PREDICTED BY IDOCK:   -5.98 KCAL/MOL
REMARK 924 INTRA-LIGAND FREE ENERGY PREDICTED BY IDOCK:   -0.52 KCAL/MOL
REMARK 927      BINDING AFFINITY PREDICTED BY RF-SCORE:    0.00 PKD
ROOT
HETATM    1  O   UNL     1      -7.349   7.138  64.900  1.00  0.00    -0.074 OA 
HETATM    2  C   UNL     1      -7.669   8.449  64.898  1.00  0.00    -0.106 C  
HETATM    3  C   UNL     1      -7.328   9.197  66.144  1.00  0.00    -0.095 A  
HETATM    4  O   UNL     1      -8.202   8.984  63.938  1.00  0.00    -0.155 OA 
HETATM    5  C   UNL     1      -7.639  10.571  66.180  1.00  0.00    -0.135 A  
HETATM    6  C   UNL     1      -7.342  11.356  67.305  1.00  0.00    -0.130 A  
HETATM    7  C   UNL     1      -6.728  10.735  68.400  1.00  0.00    -0.059 A  
HETATM    8  C   UNL     1      -6.708   8.612  67.257  1.00  0.00    -0.063 A  
HETATM    9  H   UNL     1      -5.954   6.885  67.999  1.00  0.00     0.000 HD 
HETATM   10  C   UNL     1      -6.412   9.374  68.386  1.00  0.00    -0.053 A  
HETATM   11  O   UNL     1      -6.375   7.282  67.244  1.00  0.00    -0.050 OA 
ENDROOT
BRANCH   6  12
HETATM   12  N   UNL     1      -7.541  12.751  67.383  1.00  0.00    -0.208 NA 
HETATM   13  H   UNL     1      -6.809  13.431  67.178  1.00  0.00     0.000 HD 
BRANCH  12  14
HETATM   14  N   UNL     1      -8.696  13.073  67.727  1.00  0.00    -0.176 NA 
HETATM   15  H   UNL     1      -9.143  12.756  68.587  1.00  0.00     0.000 HD 
BRANCH  14  16
HETATM   16  C   UNL     1      -9.313  13.929  66.786  1.00  0.00    -0.275 A  
HETATM   17  C   UNL     1      -9.392  16.142  65.763  1.00  0.00    -0.221 A  
HETATM   18  C   UNL     1      -8.794  15.220  66.627  1.00  0.00    -0.328 A  
HETATM   19  C   UNL     1     -10.535  15.781  65.050  1.00  0.00    -0.301 A  
HETATM   20  C   UNL     1     -11.080  14.498  65.180  1.00  0.00    -0.374 A  
HETATM   21  O   UNL     1     -11.129  16.702  64.223  1.00  0.00    -1.270 OA 
HETATM   22  C   UNL     1     -12.297  14.029  64.454  1.00  0.00    -0.367 C  
HETATM   23  C   UNL     1     -10.461  13.584  66.054  1.00  0.00    -0.299 A  
HETATM   24  H   UNL     1     -11.907  16.456  63.738  1.00  0.00     0.000 HD 
HETATM   25  O   UNL     1     -12.891  14.946  63.664  1.00  0.00    -0.587 OA 
HETATM   26  O   UNL     1     -12.729  12.893  64.569  1.00  0.00    -0.654 OA 
ENDBRANCH  14  16
ENDBRANCH  12  14
ENDBRANCH   6  12
TORSDOF 3
ENDMDL
MODEL      184
REMARK 921   NORMALIZED FREE ENERGY PREDICTED BY IDOCK:   -5.20 KCAL/MOL
REMARK 922        TOTAL FREE ENERGY PREDICTED BY IDOCK:   -6.48 KCAL/MOL
REMARK 923 INTER-LIGAND FREE ENERGY PREDICTED BY IDOCK:   -6.06 KCAL/MOL
REMARK 924 INTRA-LIGAND FREE ENERGY PREDICTED BY IDOCK:   -0.42 KCAL/MOL
REMARK 927      BINDING AFFINITY PREDICTED BY RF-SCORE:    0.00 PKD
ROOT
HETATM    1  O   UNL     1      -8.086   5.097  69.485  1.00  0.00    -0.081 OA 
HETATM    2  C   UNL     1      -8.783   6.025  70.175  1.00  0.00    -0.139 C  
HETATM    3  C   UNL     1      -9.387   7.116  69.354  1.00  0.00    -0.147 A  
HETATM    4  O   UNL     1      -8.907   5.973  71.388  1.00  0.00    -0.135 OA 
HETATM    5  C   UNL     1     -10.130   8.101  70.034  1.00  0.00    -0.196 A  
HETATM    6  C   UNL     1     -10.747   9.156  69.343  1.00  0.00    -0.198 A  
HETATM    7  C   UNL     1     -10.602   9.206  67.951  1.00  0.00    -0.272 A  
HETATM    8  C   UNL     1      -9.270   7.197  67.960  1.00  0.00    -0.130 A  
HETATM    9  H   UNL     1      -8.492   6.296  66.322  1.00  0.00     0.000 HD 
HETATM   10  C   UNL     1      -9.869   8.240  67.257  1.00  0.00    -0.258 A  
HETATM   11  O   UNL     1      -8.571   6.241  67.267  1.00  0.00    -0.108 OA 
ENDROOT
BRANCH   6  12
HETATM   12  N   UNL     1     -11.577  10.128  69.940  1.00  0.00    -0.365 NA 
HETATM   13  H   UNL     1     -11.650  10.256  70.950  1.00  0.00     0.000 HD 
BRANCH  12  14
HETATM   14  N   UNL     1     -12.213  10.817  69.117  1.00  0.00    -0.716 NA 
HETATM   15  H   UNL     1     -12.632  10.444  68.265  1.00  0.00     0.000 HD 
BRANCH  14  16
HETATM   16  C   UNL     1     -12.286  12.176  69.502  1.00  0.00    -0.109 A  
HETATM   17  C   UNL     1     -11.656  14.484  69.025  1.00  0.00    -0.330 A  
HETATM   18  C   UNL     1     -11.681  13.131  68.675  1.00  0.00    -0.362 A  
HETATM   19  C   UNL     1     -12.235  14.898  70.225  1.00  0.00    -0.335 A  
HETATM   20  C   UNL     1     -12.853  13.973  71.074  1.00  0.00    -0.410 A  
HETATM   21  O   UNL     1     -12.184  16.226  70.571  1.00  0.00    -0.399 OA 
HETATM   22  C   UNL     1     -13.498  14.331  72.372  1.00  0.00    -0.489 C  
HETATM   23  C   UNL     1     -12.869  12.616  70.702  1.00  0.00    -0.021 A  
HETATM   24  H   UNL     1     -12.578  16.508  71.388  1.00  0.00     0.000 HD 
HETATM   25  O   UNL     1     -13.422  15.632  72.720  1.00  0.00    -0.485 OA 
HETATM   26  O   UNL     1     -14.054  13.502  73.077  1.00  0.00    -0.369 OA 
ENDBRANCH  14  16
ENDBRANCH  12  14
ENDBRANCH   6  12
TORSDOF 3
ENDMDL
MODEL      185
REMARK 921   NORMALIZED FREE ENERGY PREDICTED BY IDOCK:   -5.19 KCAL/MOL
REMARK 922        TOTAL FREE ENERGY PREDICTED BY IDOCK:   -6.46 KCAL/MOL
REMARK 923 INTER-LIGAND FREE ENERGY PREDICTED BY IDOCK:   -6.06 KCAL/MOL
REMARK 924 INTRA-LIGAND FREE ENERGY PREDICTED BY IDOCK:   -0.41 KCAL/MOL
REMARK 927      BINDING AFFINITY PREDICTED BY RF-SCORE:    0.00 PKD
ROOT
HETATM    1  O   UNL     1     -13.140  15.500  71.143  1.00  0.00    -0.472 OA 
HETATM    2  C   UNL     1     -12.858  14.181  71.180  1.00  0.00    -0.360 C  
HETATM    3  C   UNL     1     -12.152  13.640  69.982  1.00  0.00    -0.417 A  
HETATM    4  O   UNL     1     -13.163  13.480  72.132  1.00  0.00    -0.413 OA 
HETATM    5  C   UNL     1     -11.832  12.267  69.983  1.00  0.00    -0.372 A  
HETATM    6  C   UNL     1     -11.156  11.675  68.905  1.00  0.00    -0.232 A  
HETATM    7  C   UNL     1     -10.807  12.487  67.819  1.00  0.00    -0.254 A  
HETATM    8  C   UNL     1     -11.781  14.421  68.879  1.00  0.00    -0.322 A  
HETATM    9  H   UNL     1     -11.808  16.294  68.109  1.00  0.00     0.000 HD 
HETATM   10  C   UNL     1     -11.115  13.849  67.796  1.00  0.00    -0.281 A  
HETATM   11  O   UNL     1     -12.059  15.764  68.857  1.00  0.00    -0.333 OA 
ENDROOT
BRANCH   6  12
HETATM   12  N   UNL     1     -10.724  10.332  68.871  1.00  0.00    -0.214 NA 
HETATM   13  H   UNL     1      -9.990   9.966  69.478  1.00  0.00     0.000 HD 
BRANCH  12  14
HETATM   14  N   UNL     1     -11.325   9.634  68.030  1.00  0.00    -0.485 NA 
HETATM   15  H   UNL     1     -12.333   9.671  67.875  1.00  0.00     0.000 HD 
BRANCH  14  16
HETATM   16  C   UNL     1     -10.447   8.786  67.315  1.00  0.00    -0.283 A  
HETATM   17  C   UNL     1      -8.866   8.547  65.473  1.00  0.00    -0.196 A  
HETATM   18  C   UNL     1      -9.704   9.338  66.264  1.00  0.00    -0.340 A  
HETATM   19  C   UNL     1      -8.771   7.178  65.722  1.00  0.00    -0.107 A  
HETATM   20  C   UNL     1      -9.495   6.592  66.766  1.00  0.00    -0.194 A  
HETATM   21  O   UNL     1      -7.963   6.406  64.924  1.00  0.00    -0.114 OA 
HETATM   22  C   UNL     1      -9.449   5.138  67.103  1.00  0.00    -0.131 C  
HETATM   23  C   UNL     1     -10.331   7.407  67.552  1.00  0.00    -0.320 A  
HETATM   24  H   UNL     1      -7.899   5.474  65.093  1.00  0.00     0.000 HD 
HETATM   25  O   UNL     1      -8.676   4.380  66.299  1.00  0.00    -0.112 OA 
HETATM   26  O   UNL     1     -10.073   4.664  68.039  1.00  0.00    -0.105 OA 
ENDBRANCH  14  16
ENDBRANCH  12  14
ENDBRANCH   6  12
TORSDOF 3
ENDMDL
MODEL      186
REMARK 921   NORMALIZED FREE ENERGY PREDICTED BY IDOCK:   -5.19 KCAL/MOL
REMARK 922        TOTAL FREE ENERGY PREDICTED BY IDOCK:   -6.46 KCAL/MOL
REMARK 923 INTER-LIGAND FREE ENERGY PREDICTED BY IDOCK:   -5.76 KCAL/MOL
REMARK 924 INTRA-LIGAND FREE ENERGY PREDICTED BY IDOCK:   -0.70 KCAL/MOL
REMARK 927      BINDING AFFINITY PREDICTED BY RF-SCORE:    0.00 PKD
ROOT
HETATM    1  O   UNL     1     -10.291  10.231  65.566  1.00  0.00    -0.258 OA 
HETATM    2  C   UNL     1     -10.032   9.346  66.552  1.00  0.00    -0.269 C  
HETATM    3  C   UNL     1      -9.097   9.821  67.613  1.00  0.00    -0.140 A  
HETATM    4  O   UNL     1     -10.531   8.232  66.569  1.00  0.00    -0.255 OA 
HETATM    5  C   UNL     1      -8.806   8.930  68.666  1.00  0.00    -0.137 A  
HETATM    6  C   UNL     1      -7.949   9.297  69.715  1.00  0.00    -0.103 A  
HETATM    7  C   UNL     1      -7.383  10.578  69.688  1.00  0.00    -0.151 A  
HETATM    8  C   UNL     1      -8.517  11.097  67.625  1.00  0.00    -0.122 A  
HETATM    9  H   UNL     1      -8.403  12.859  66.633  1.00  0.00     0.000 HD 
HETATM   10  C   UNL     1      -7.657  11.476  68.654  1.00  0.00    -0.134 A  
HETATM   11  O   UNL     1      -8.797  11.994  66.625  1.00  0.00    -0.198 OA 
ENDROOT
BRANCH   6  12
HETATM   12  N   UNL     1      -7.679   8.496  70.845  1.00  0.00    -0.080 NA 
HETATM   13  H   UNL     1      -7.060   7.685  70.820  1.00  0.00     0.000 HD 
BRANCH  12  14
HETATM   14  N   UNL     1      -8.267   8.874  71.878  1.00  0.00    -0.367 NA 
HETATM   15  H   UNL     1      -7.864   9.515  72.561  1.00  0.00     0.000 HD 
BRANCH  14  16
HETATM   16  C   UNL     1      -9.559   8.309  71.992  1.00  0.00    -0.248 A  
HETATM   17  C   UNL     1     -10.917   6.284  72.077  1.00  0.00    -0.299 A  
HETATM   18  C   UNL     1      -9.669   6.913  72.031  1.00  0.00    -0.160 A  
HETATM   19  C   UNL     1     -12.080   7.054  72.075  1.00  0.00    -0.294 A  
HETATM   20  C   UNL     1     -12.009   8.452  72.042  1.00  0.00    -0.419 A  
HETATM   21  O   UNL     1     -13.300   6.425  72.096  1.00  0.00    -0.454 OA 
HETATM   22  C   UNL     1     -13.201   9.350  72.040  1.00  0.00    -0.449 C  
HETATM   23  C   UNL     1     -10.743   9.065  71.998  1.00  0.00    -0.333 A  
HETATM   24  H   UNL     1     -14.092   6.950  72.094  1.00  0.00     0.000 HD 
HETATM   25  O   UNL     1     -14.398   8.727  72.033  1.00  0.00    -0.420 OA 
HETATM   26  O   UNL     1     -13.103  10.567  72.039  1.00  0.00    -0.467 OA 
ENDBRANCH  14  16
ENDBRANCH  12  14
ENDBRANCH   6  12
TORSDOF 3
ENDMDL
MODEL      187
REMARK 921   NORMALIZED FREE ENERGY PREDICTED BY IDOCK:   -5.16 KCAL/MOL
REMARK 922        TOTAL FREE ENERGY PREDICTED BY IDOCK:   -6.43 KCAL/MOL
REMARK 923 INTER-LIGAND FREE ENERGY PREDICTED BY IDOCK:   -5.96 KCAL/MOL
REMARK 924 INTRA-LIGAND FREE ENERGY PREDICTED BY IDOCK:   -0.47 KCAL/MOL
REMARK 927      BINDING AFFINITY PREDICTED BY RF-SCORE:    0.00 PKD
ROOT
HETATM    1  O   UNL     1     -12.081  16.145  63.756  1.00  0.00    -0.946 OA 
HETATM    2  C   UNL     1     -11.182  15.775  64.692  1.00  0.00    -0.363 C  
HETATM    3  C   UNL     1     -11.009  14.303  64.870  1.00  0.00    -0.413 A  
HETATM    4  O   UNL     1     -10.555  16.592  65.348  1.00  0.00    -0.509 OA 
HETATM    5  C   UNL     1     -10.073  13.873  65.833  1.00  0.00    -0.331 A  
HETATM    6  C   UNL     1      -9.834  12.508  66.058  1.00  0.00    -0.257 A  
HETATM    7  C   UNL     1     -10.555  11.578  65.299  1.00  0.00    -0.339 A  
HETATM    8  C   UNL     1     -11.706  13.342  64.126  1.00  0.00    -0.420 A  
HETATM    9  H   UNL     1     -13.081  13.077  62.663  1.00  0.00     0.000 HD 
HETATM   10  C   UNL     1     -11.488  11.982  64.341  1.00  0.00    -0.413 A  
HETATM   11  O   UNL     1     -12.608  13.729  63.168  1.00  0.00    -0.793 OA 
ENDROOT
BRANCH   6  12
HETATM   12  N   UNL     1      -8.854  12.002  66.938  1.00  0.00    -0.192 NA 
HETATM   13  H   UNL     1      -9.056  11.729  67.900  1.00  0.00     0.000 HD 
BRANCH  12  14
HETATM   14  N   UNL     1      -7.718  11.920  66.429  1.00  0.00    -0.381 NA 
HETATM   15  H   UNL     1      -7.209  12.714  66.042  1.00  0.00     0.000 HD 
BRANCH  14  16
HETATM   16  C   UNL     1      -7.219  10.596  66.449  1.00  0.00    -0.134 A  
HETATM   17  C   UNL     1      -6.936   8.487  65.257  1.00  0.00    -0.078 A  
HETATM   18  C   UNL     1      -7.348   9.823  65.289  1.00  0.00    -0.120 A  
HETATM   19  C   UNL     1      -6.397   7.902  66.402  1.00  0.00    -0.046 A  
HETATM   20  C   UNL     1      -6.249   8.645  67.579  1.00  0.00    -0.053 A  
HETATM   21  O   UNL     1      -6.019   6.583  66.366  1.00  0.00    -0.023 OA 
HETATM   22  C   UNL     1      -5.679   8.099  68.846  1.00  0.00    -0.035 C  
HETATM   23  C   UNL     1      -6.667   9.989  67.589  1.00  0.00    -0.075 A  
HETATM   24  H   UNL     1      -5.651   6.185  67.146  1.00  0.00     0.000 HD 
HETATM   25  O   UNL     1      -5.335   6.796  68.814  1.00  0.00    -0.015 OA 
HETATM   26  O   UNL     1      -5.538   8.784  69.848  1.00  0.00    -0.028 OA 
ENDBRANCH  14  16
ENDBRANCH  12  14
ENDBRANCH   6  12
TORSDOF 3
ENDMDL
MODEL      188
REMARK 921   NORMALIZED FREE ENERGY PREDICTED BY IDOCK:   -5.16 KCAL/MOL
REMARK 922        TOTAL FREE ENERGY PREDICTED BY IDOCK:   -6.43 KCAL/MOL
REMARK 923 INTER-LIGAND FREE ENERGY PREDICTED BY IDOCK:   -6.01 KCAL/MOL
REMARK 924 INTRA-LIGAND FREE ENERGY PREDICTED BY IDOCK:   -0.42 KCAL/MOL
REMARK 927      BINDING AFFINITY PREDICTED BY RF-SCORE:    0.00 PKD
ROOT
HETATM    1  O   UNL     1     -13.824  13.605  72.847  1.00  0.00    -0.659 OA 
HETATM    2  C   UNL     1     -13.213  12.951  71.837  1.00  0.00    -0.423 C  
HETATM    3  C   UNL     1     -12.513  13.816  70.841  1.00  0.00    -0.451 A  
HETATM    4  O   UNL     1     -13.233  11.734  71.747  1.00  0.00    -0.457 OA 
HETATM    5  C   UNL     1     -11.854  13.171  69.775  1.00  0.00    -0.386 A  
HETATM    6  C   UNL     1     -11.158  13.903  68.800  1.00  0.00    -0.265 A  
HETATM    7  C   UNL     1     -11.137  15.299  68.912  1.00  0.00    -0.269 A  
HETATM    8  C   UNL     1     -12.464  15.214  70.923  1.00  0.00    -0.365 A  
HETATM    9  H   UNL     1     -13.044  16.816  72.017  1.00  0.00     0.000 HD 
HETATM   10  C   UNL     1     -11.784  15.957  69.961  1.00  0.00    -0.340 A  
HETATM   11  O   UNL     1     -13.077  15.868  71.961  1.00  0.00    -0.457 OA 
ENDROOT
BRANCH   6  12
HETATM   12  N   UNL     1     -10.403  13.328  67.755  1.00  0.00    -0.229 NA 
HETATM   13  H   UNL     1      -9.523  13.721  67.421  1.00  0.00     0.000 HD 
BRANCH  12  14
HETATM   14  N   UNL     1     -10.914  12.295  67.278  1.00  0.00    -0.244 NA 
HETATM   15  H   UNL     1     -11.886  12.228  66.976  1.00  0.00     0.000 HD 
BRANCH  14  16
HETATM   16  C   UNL     1      -9.989  11.228  67.205  1.00  0.00    -0.192 A  
HETATM   17  C   UNL     1      -8.363   9.833  68.372  1.00  0.00    -0.110 A  
HETATM   18  C   UNL     1      -9.337  10.836  68.381  1.00  0.00    -0.167 A  
HETATM   19  C   UNL     1      -8.021   9.213  67.171  1.00  0.00    -0.106 A  
HETATM   20  C   UNL     1      -8.655   9.574  65.976  1.00  0.00    -0.145 A  
HETATM   21  O   UNL     1      -7.046   8.246  67.170  1.00  0.00    -0.076 OA 
HETATM   22  C   UNL     1      -8.352   8.960  64.650  1.00  0.00    -0.170 C  
HETATM   23  C   UNL     1      -9.634  10.585  66.007  1.00  0.00    -0.242 A  
HETATM   24  H   UNL     1      -6.813   7.824  66.351  1.00  0.00     0.000 HD 
HETATM   25  O   UNL     1      -7.374   8.031  64.650  1.00  0.00    -0.075 OA 
HETATM   26  O   UNL     1      -8.944   9.280  63.631  1.00  0.00    -0.180 OA 
ENDBRANCH  14  16
ENDBRANCH  12  14
ENDBRANCH   6  12
TORSDOF 3
ENDMDL
MODEL      189
REMARK 921   NORMALIZED FREE ENERGY PREDICTED BY IDOCK:   -5.14 KCAL/MOL
REMARK 922        TOTAL FREE ENERGY PREDICTED BY IDOCK:   -6.41 KCAL/MOL
REMARK 923 INTER-LIGAND FREE ENERGY PREDICTED BY IDOCK:   -6.00 KCAL/MOL
REMARK 924 INTRA-LIGAND FREE ENERGY PREDICTED BY IDOCK:   -0.41 KCAL/MOL
REMARK 927      BINDING AFFINITY PREDICTED BY RF-SCORE:    0.00 PKD
ROOT
HETATM    1  O   UNL     1      -9.509   8.026  68.435  1.00  0.00    -0.144 OA 
HETATM    2  C   UNL     1      -9.815   9.254  68.904  1.00  0.00    -0.165 C  
HETATM    3  C   UNL     1      -9.984  10.315  67.868  1.00  0.00    -0.191 A  
HETATM    4  O   UNL     1      -9.943   9.478  70.098  1.00  0.00    -0.209 OA 
HETATM    5  C   UNL     1     -10.311  11.610  68.315  1.00  0.00    -0.212 A  
HETATM    6  C   UNL     1     -10.503  12.667  67.411  1.00  0.00    -0.224 A  
HETATM    7  C   UNL     1     -10.358  12.400  66.044  1.00  0.00    -0.275 A  
HETATM    8  C   UNL     1      -9.853  10.085  66.491  1.00  0.00    -0.210 A  
HETATM    9  H   UNL     1      -9.466   8.675  65.090  1.00  0.00     0.000 HD 
HETATM   10  C   UNL     1     -10.032  11.123  65.579  1.00  0.00    -0.298 A  
HETATM   11  O   UNL     1      -9.555   8.831  66.024  1.00  0.00    -0.245 OA 
ENDROOT
BRANCH   6  12
HETATM   12  N   UNL     1     -10.918  13.966  67.774  1.00  0.00    -0.252 NA 
HETATM   13  H   UNL     1     -11.258  14.203  68.706  1.00  0.00     0.000 HD 
BRANCH  12  14
HETATM   14  N   UNL     1     -10.827  14.797  66.848  1.00  0.00    -0.309 NA 
HETATM   15  H   UNL     1     -11.187  14.642  65.906  1.00  0.00     0.000 HD 
BRANCH  14  16
HETATM   16  C   UNL     1     -10.167  15.980  67.255  1.00  0.00    -0.277 A  
HETATM   17  C   UNL     1      -8.619  17.036  68.817  1.00  0.00    -0.238 A  
HETATM   18  C   UNL     1      -9.259  15.897  68.318  1.00  0.00    -0.189 A  
HETATM   19  C   UNL     1      -8.892  18.283  68.257  1.00  0.00    -0.287 A  
HETATM   20  C   UNL     1      -9.789  18.404  67.189  1.00  0.00    -0.329 A  
HETATM   21  O   UNL     1      -8.276  19.398  68.770  1.00  0.00    -0.360 OA 
HETATM   22  C   UNL     1     -10.136  19.698  66.530  1.00  0.00    -0.461 C  
HETATM   23  C   UNL     1     -10.421  17.245  66.701  1.00  0.00    -0.257 A  
HETATM   24  H   UNL     1      -8.462  20.247  68.388  1.00  0.00     0.000 HD 
HETATM   25  O   UNL     1      -9.549  20.793  67.056  1.00  0.00    -0.400 OA 
HETATM   26  O   UNL     1     -10.902  19.764  65.582  1.00  0.00    -0.462 OA 
ENDBRANCH  14  16
ENDBRANCH  12  14
ENDBRANCH   6  12
TORSDOF 3
ENDMDL
MODEL      190
REMARK 921   NORMALIZED FREE ENERGY PREDICTED BY IDOCK:   -5.13 KCAL/MOL
REMARK 922        TOTAL FREE ENERGY PREDICTED BY IDOCK:   -6.40 KCAL/MOL
REMARK 923 INTER-LIGAND FREE ENERGY PREDICTED BY IDOCK:   -5.92 KCAL/MOL
REMARK 924 INTRA-LIGAND FREE ENERGY PREDICTED BY IDOCK:   -0.48 KCAL/MOL
REMARK 927      BINDING AFFINITY PREDICTED BY RF-SCORE:    0.00 PKD
ROOT
HETATM    1  O   UNL     1      -5.223  21.050  65.948  1.00  0.00    -0.186 OA 
HETATM    2  C   UNL     1      -6.420  20.428  65.924  1.00  0.00    -0.224 C  
HETATM    3  C   UNL     1      -6.985  20.070  67.259  1.00  0.00    -0.267 A  
HETATM    4  O   UNL     1      -6.999  20.177  64.879  1.00  0.00    -0.280 OA 
HETATM    5  C   UNL     1      -8.239  19.426  67.279  1.00  0.00    -0.311 A  
HETATM    6  C   UNL     1      -8.853  19.065  68.488  1.00  0.00    -0.362 A  
HETATM    7  C   UNL     1      -8.184  19.360  69.682  1.00  0.00     0.365 A  
HETATM    8  C   UNL     1      -6.349  20.354  68.474  1.00  0.00    -0.314 A  
HETATM    9  H   UNL     1      -4.707  21.191  69.313  1.00  0.00     0.000 HD 
HETATM   10  C   UNL     1      -6.940  19.997  69.685  1.00  0.00    -0.176 A  
HETATM   11  O   UNL     1      -5.138  20.998  68.488  1.00  0.00    -0.269 OA 
ENDROOT
BRANCH   6  12
HETATM   12  N   UNL     1     -10.142  18.500  68.594  1.00  0.00    -0.377 NA 
HETATM   13  H   UNL     1     -10.865  18.869  69.212  1.00  0.00     0.000 HD 
BRANCH  12  14
HETATM   14  N   UNL     1     -10.314  17.505  67.860  1.00  0.00    -0.354 NA 
HETATM   15  H   UNL     1     -10.234  17.527  66.844  1.00  0.00     0.000 HD 
BRANCH  14  16
HETATM   16  C   UNL     1     -10.631  16.344  68.602  1.00  0.00    -0.305 A  
HETATM   17  C   UNL     1     -10.976  13.929  68.593  1.00  0.00    -0.281 A  
HETATM   18  C   UNL     1     -10.610  15.110  67.941  1.00  0.00    -0.257 A  
HETATM   19  C   UNL     1     -11.382  13.973  69.927  1.00  0.00    -0.145 A  
HETATM   20  C   UNL     1     -11.411  15.188  70.622  1.00  0.00    -0.330 A  
HETATM   21  O   UNL     1     -11.762  12.811  70.551  1.00  0.00    -0.531 OA 
HETATM   22  C   UNL     1     -11.829  15.325  72.049  1.00  0.00    -0.434 C  
HETATM   23  C   UNL     1     -11.037  16.365  69.947  1.00  0.00    -0.313 A  
HETATM   24  H   UNL     1     -12.039  12.842  71.459  1.00  0.00     0.000 HD 
HETATM   25  O   UNL     1     -12.227  14.184  72.649  1.00  0.00    -0.030 OA 
HETATM   26  O   UNL     1     -11.816  16.396  72.634  1.00  0.00    -0.533 OA 
ENDBRANCH  14  16
ENDBRANCH  12  14
ENDBRANCH   6  12
TORSDOF 3
ENDMDL
MODEL      191
REMARK 921   NORMALIZED FREE ENERGY PREDICTED BY IDOCK:   -5.09 KCAL/MOL
REMARK 922        TOTAL FREE ENERGY PREDICTED BY IDOCK:   -6.35 KCAL/MOL
REMARK 923 INTER-LIGAND FREE ENERGY PREDICTED BY IDOCK:   -5.77 KCAL/MOL
REMARK 924 INTRA-LIGAND FREE ENERGY PREDICTED BY IDOCK:   -0.58 KCAL/MOL
REMARK 927      BINDING AFFINITY PREDICTED BY RF-SCORE:    0.00 PKD
ROOT
HETATM    1  O   UNL     1     -12.703  13.674  63.033  1.00  0.00    -0.681 OA 
HETATM    2  C   UNL     1     -12.250  12.646  63.781  1.00  0.00    -0.514 C  
HETATM    3  C   UNL     1     -12.088  12.933  65.237  1.00  0.00    -0.496 A  
HETATM    4  O   UNL     1     -11.991  11.556  63.296  1.00  0.00    -0.303 OA 
HETATM    5  C   UNL     1     -11.624  11.883  66.056  1.00  0.00    -0.296 A  
HETATM    6  C   UNL     1     -11.455  12.057  67.438  1.00  0.00    -0.336 A  
HETATM    7  C   UNL     1     -11.758  13.310  67.987  1.00  0.00    -0.394 A  
HETATM    8  C   UNL     1     -12.387  14.170  65.824  1.00  0.00    -0.461 A  
HETATM    9  H   UNL     1     -13.062  16.043  65.456  1.00  0.00     0.000 HD 
HETATM   10  C   UNL     1     -12.218  14.364  67.194  1.00  0.00    -0.257 A  
HETATM   11  O   UNL     1     -12.859  15.204  65.058  1.00  0.00     0.060 OA 
ENDROOT
BRANCH   6  12
HETATM   12  N   UNL     1     -11.081  11.034  68.335  1.00  0.00    -0.228 NA 
HETATM   13  H   UNL     1     -11.580  10.147  68.409  1.00  0.00     0.000 HD 
BRANCH  12  14
HETATM   14  N   UNL     1     -10.082  11.316  69.027  1.00  0.00    -0.359 NA 
HETATM   15  H   UNL     1     -10.123  11.540  70.021  1.00  0.00     0.000 HD 
BRANCH  14  16
HETATM   16  C   UNL     1      -8.886  11.289  68.273  1.00  0.00    -0.158 A  
HETATM   17  C   UNL     1      -6.959  12.525  67.430  1.00  0.00    -0.147 A  
HETATM   18  C   UNL     1      -8.118  12.459  68.209  1.00  0.00    -0.166 A  
HETATM   19  C   UNL     1      -6.557  11.412  66.692  1.00  0.00    -0.114 A  
HETATM   20  C   UNL     1      -7.296  10.224  66.736  1.00  0.00    -0.106 A  
HETATM   21  O   UNL     1      -5.431  11.495  65.912  1.00  0.00    -0.470 OA 
HETATM   22  C   UNL     1      -6.937   8.987  65.980  1.00  0.00    -0.085 C  
HETATM   23  C   UNL     1      -8.459  10.177  67.527  1.00  0.00    -0.118 A  
HETATM   24  H   UNL     1      -5.158  10.737  65.409  1.00  0.00     0.000 HD 
HETATM   25  O   UNL     1      -5.845   9.083  65.195  1.00  0.00    -0.057 OA 
HETATM   26  O   UNL     1      -7.589   7.958  66.063  1.00  0.00    -0.082 OA 
ENDBRANCH  14  16
ENDBRANCH  12  14
ENDBRANCH   6  12
TORSDOF 3
ENDMDL
MODEL      192
REMARK 921   NORMALIZED FREE ENERGY PREDICTED BY IDOCK:   -5.09 KCAL/MOL
REMARK 922        TOTAL FREE ENERGY PREDICTED BY IDOCK:   -6.35 KCAL/MOL
REMARK 923 INTER-LIGAND FREE ENERGY PREDICTED BY IDOCK:   -5.84 KCAL/MOL
REMARK 924 INTRA-LIGAND FREE ENERGY PREDICTED BY IDOCK:   -0.51 KCAL/MOL
REMARK 927      BINDING AFFINITY PREDICTED BY RF-SCORE:    0.00 PKD
ROOT
HETATM    1  O   UNL     1      -8.143   7.319  69.786  1.00  0.00    -0.123 OA 
HETATM    2  C   UNL     1      -8.580   8.473  70.333  1.00  0.00    -0.143 C  
HETATM    3  C   UNL     1      -9.539   9.257  69.499  1.00  0.00    -0.178 A  
HETATM    4  O   UNL     1      -8.212   8.847  71.435  1.00  0.00    -0.191 OA 
HETATM    5  C   UNL     1     -10.025  10.465  70.037  1.00  0.00    -0.015 A  
HETATM    6  C   UNL     1     -10.941  11.260  69.331  1.00  0.00    -0.228 A  
HETATM    7  C   UNL     1     -11.360  10.822  68.068  1.00  0.00    -0.378 A  
HETATM    8  C   UNL     1      -9.985   8.848  68.236  1.00  0.00    -0.175 A  
HETATM    9  H   UNL     1      -9.849   7.389  66.838  1.00  0.00     0.000 HD 
HETATM   10  C   UNL     1     -10.889   9.628  67.516  1.00  0.00    -0.265 A  
HETATM   11  O   UNL     1      -9.546   7.667  67.694  1.00  0.00    -0.140 OA 
ENDROOT
BRANCH   6  12
HETATM   12  N   UNL     1     -11.540  12.434  69.836  1.00  0.00    -0.499 NA 
HETATM   13  H   UNL     1     -11.517  12.691  70.824  1.00  0.00     0.000 HD 
BRANCH  12  14
HETATM   14  N   UNL     1     -12.098  13.128  68.963  1.00  0.00    -0.260 NA 
HETATM   15  H   UNL     1     -12.936  12.841  68.458  1.00  0.00     0.000 HD 
BRANCH  14  16
HETATM   16  C   UNL     1     -11.433  14.358  68.753  1.00  0.00    -0.289 A  
HETATM   17  C   UNL     1     -10.831  16.547  69.646  1.00  0.00    -0.322 A  
HETATM   18  C   UNL     1     -11.413  15.286  69.802  1.00  0.00    -0.332 A  
HETATM   19  C   UNL     1     -10.266  16.901  68.421  1.00  0.00    -0.322 A  
HETATM   20  C   UNL     1     -10.263  15.998  67.351  1.00  0.00    -0.273 A  
HETATM   21  O   UNL     1      -9.719  18.151  68.270  1.00  0.00    -0.303 OA 
HETATM   22  C   UNL     1      -9.679  16.293  66.009  1.00  0.00    -0.339 C  
HETATM   23  C   UNL     1     -10.852  14.732  67.530  1.00  0.00    -0.287 A  
HETATM   24  H   UNL     1      -9.335  18.392  67.436  1.00  0.00     0.000 HD 
HETATM   25  O   UNL     1      -9.167  17.532  65.858  1.00  0.00    -0.508 OA 
HETATM   26  O   UNL     1      -9.668  15.472  65.106  1.00  0.00    -0.267 OA 
ENDBRANCH  14  16
ENDBRANCH  12  14
ENDBRANCH   6  12
TORSDOF 3
ENDMDL
MODEL      193
REMARK 921   NORMALIZED FREE ENERGY PREDICTED BY IDOCK:   -5.07 KCAL/MOL
REMARK 922        TOTAL FREE ENERGY PREDICTED BY IDOCK:   -6.33 KCAL/MOL
REMARK 923 INTER-LIGAND FREE ENERGY PREDICTED BY IDOCK:   -6.03 KCAL/MOL
REMARK 924 INTRA-LIGAND FREE ENERGY PREDICTED BY IDOCK:   -0.29 KCAL/MOL
REMARK 927      BINDING AFFINITY PREDICTED BY RF-SCORE:    0.00 PKD
ROOT
HETATM    1  O   UNL     1     -10.497  15.739  64.710  1.00  0.00    -0.490 OA 
HETATM    2  C   UNL     1     -10.007  15.295  65.886  1.00  0.00    -0.340 C  
HETATM    3  C   UNL     1     -10.355  13.886  66.236  1.00  0.00    -0.293 A  
HETATM    4  O   UNL     1      -9.326  16.001  66.612  1.00  0.00    -0.213 OA 
HETATM    5  C   UNL     1      -9.856  13.379  67.453  1.00  0.00    -0.227 A  
HETATM    6  C   UNL     1     -10.120  12.061  67.857  1.00  0.00    -0.195 A  
HETATM    7  C   UNL     1     -10.900  11.257  67.016  1.00  0.00    -0.332 A  
HETATM    8  C   UNL     1     -11.126  13.049  65.419  1.00  0.00    -0.275 A  
HETATM    9  H   UNL     1     -12.132  12.938  63.665  1.00  0.00     0.000 HD 
HETATM   10  C   UNL     1     -11.406  11.740  65.807  1.00  0.00    -0.309 A  
HETATM   11  O   UNL     1     -11.609  13.506  64.219  1.00  0.00    -0.378 OA 
ENDROOT
BRANCH   6  12
HETATM   12  N   UNL     1      -9.585  11.456  69.014  1.00  0.00    -0.408 NA 
HETATM   13  H   UNL     1      -9.471  11.949  69.900  1.00  0.00     0.000 HD 
BRANCH  12  14
HETATM   14  N   UNL     1      -9.265  10.261  68.851  1.00  0.00    -0.165 NA 
HETATM   15  H   UNL     1      -8.665   9.930  68.096  1.00  0.00     0.000 HD 
BRANCH  14  16
HETATM   16  C   UNL     1      -9.831   9.418  69.836  1.00  0.00    -0.210 A  
HETATM   17  C   UNL     1     -11.760   8.903  71.238  1.00  0.00    -0.370 A  
HETATM   18  C   UNL     1     -11.156   9.654  70.225  1.00  0.00    -0.327 A  
HETATM   19  C   UNL     1     -11.032   7.906  71.887  1.00  0.00    -0.256 A  
HETATM   20  C   UNL     1      -9.707   7.639  71.522  1.00  0.00    -0.191 A  
HETATM   21  O   UNL     1     -11.626   7.191  72.897  1.00  0.00    -0.517 OA 
HETATM   22  C   UNL     1      -8.858   6.590  72.161  1.00  0.00    -0.135 C  
HETATM   23  C   UNL     1      -9.119   8.405  70.498  1.00  0.00    -0.163 A  
HETATM   24  H   UNL     1     -11.130   6.512  73.339  1.00  0.00     0.000 HD 
HETATM   25  O   UNL     1      -9.438   5.909  73.171  1.00  0.00    -0.143 OA 
HETATM   26  O   UNL     1      -7.714   6.364  71.799  1.00  0.00    -0.094 OA 
ENDBRANCH  14  16
ENDBRANCH  12  14
ENDBRANCH   6  12
TORSDOF 3
ENDMDL
MODEL      194
REMARK 921   NORMALIZED FREE ENERGY PREDICTED BY IDOCK:   -5.05 KCAL/MOL
REMARK 922        TOTAL FREE ENERGY PREDICTED BY IDOCK:   -6.30 KCAL/MOL
REMARK 923 INTER-LIGAND FREE ENERGY PREDICTED BY IDOCK:   -5.70 KCAL/MOL
REMARK 924 INTRA-LIGAND FREE ENERGY PREDICTED BY IDOCK:   -0.60 KCAL/MOL
REMARK 927      BINDING AFFINITY PREDICTED BY RF-SCORE:    0.00 PKD
ROOT
HETATM    1  O   UNL     1      -8.191   7.530  67.054  1.00  0.00    -0.120 OA 
HETATM    2  C   UNL     1      -9.020   8.561  66.784  1.00  0.00    -0.146 C  
HETATM    3  C   UNL     1      -8.621   9.876  67.366  1.00  0.00    -0.125 A  
HETATM    4  O   UNL     1     -10.028   8.422  66.110  1.00  0.00    -0.211 OA 
HETATM    5  C   UNL     1      -9.455  10.981  67.101  1.00  0.00    -0.181 A  
HETATM    6  C   UNL     1      -9.151  12.259  67.595  1.00  0.00    -0.184 A  
HETATM    7  C   UNL     1      -7.991  12.410  68.366  1.00  0.00    -0.149 A  
HETATM    8  C   UNL     1      -7.465  10.068  68.136  1.00  0.00    -0.083 A  
HETATM    9  H   UNL     1      -5.839   9.148  68.915  1.00  0.00     0.000 HD 
HETATM   10  C   UNL     1      -7.151  11.329  68.641  1.00  0.00    -0.093 A  
HETATM   11  O   UNL     1      -6.622   9.018  68.394  1.00  0.00    -0.058 OA 
ENDROOT
BRANCH   6  12
HETATM   12  N   UNL     1      -9.887  13.427  67.301  1.00  0.00    -0.229 NA 
HETATM   13  H   UNL     1      -9.448  14.319  67.072  1.00  0.00     0.000 HD 
BRANCH  12  14
HETATM   14  N   UNL     1     -11.123  13.265  67.348  1.00  0.00    -0.271 NA 
HETATM   15  H   UNL     1     -11.657  12.755  66.645  1.00  0.00     0.000 HD 
BRANCH  14  16
HETATM   16  C   UNL     1     -11.697  13.870  68.491  1.00  0.00    -0.355 A  
HETATM   17  C   UNL     1     -12.197  15.935  69.690  1.00  0.00    -0.133 A  
HETATM   18  C   UNL     1     -11.706  15.269  68.563  1.00  0.00    -0.352 A  
HETATM   19  C   UNL     1     -12.680  15.199  70.772  1.00  0.00    -0.405 A  
HETATM   20  C   UNL     1     -12.691  13.800  70.733  1.00  0.00    -0.361 A  
HETATM   21  O   UNL     1     -13.137  15.862  71.883  1.00  0.00    -0.459 OA 
HETATM   22  C   UNL     1     -13.191  12.936  71.844  1.00  0.00    -0.423 C  
HETATM   23  C   UNL     1     -12.194  13.149  69.588  1.00  0.00    -0.241 A  
HETATM   24  H   UNL     1     -13.466  15.361  72.620  1.00  0.00     0.000 HD 
HETATM   25  O   UNL     1     -13.614  13.592  72.944  1.00  0.00    -0.665 OA 
HETATM   26  O   UNL     1     -13.213  11.718  71.766  1.00  0.00    -0.457 OA 
ENDBRANCH  14  16
ENDBRANCH  12  14
ENDBRANCH   6  12
TORSDOF 3
ENDMDL
MODEL      195
REMARK 921   NORMALIZED FREE ENERGY PREDICTED BY IDOCK:   -5.05 KCAL/MOL
REMARK 922        TOTAL FREE ENERGY PREDICTED BY IDOCK:   -6.30 KCAL/MOL
REMARK 923 INTER-LIGAND FREE ENERGY PREDICTED BY IDOCK:   -5.81 KCAL/MOL
REMARK 924 INTRA-LIGAND FREE ENERGY PREDICTED BY IDOCK:   -0.49 KCAL/MOL
REMARK 927      BINDING AFFINITY PREDICTED BY RF-SCORE:    0.00 PKD
ROOT
HETATM    1  O   UNL     1      -9.680  12.254  65.943  1.00  0.00    -0.247 OA 
HETATM    2  C   UNL     1     -10.519  11.320  66.437  1.00  0.00    -0.257 C  
HETATM    3  C   UNL     1     -10.034   9.911  66.354  1.00  0.00    -0.309 A  
HETATM    4  O   UNL     1     -11.603  11.612  66.917  1.00  0.00    -0.507 OA 
HETATM    5  C   UNL     1     -10.877   8.905  66.866  1.00  0.00     0.010 A  
HETATM    6  C   UNL     1     -10.497   7.554  66.844  1.00  0.00    -0.315 A  
HETATM    7  C   UNL     1      -9.250   7.228  66.294  1.00  0.00    -0.175 A  
HETATM    8  C   UNL     1      -8.791   9.547  65.818  1.00  0.00    -0.162 A  
HETATM    9  H   UNL     1      -7.097  10.258  64.967  1.00  0.00     0.000 HD 
HETATM   10  C   UNL     1      -8.399   8.210  65.781  1.00  0.00    -0.140 A  
HETATM   11  O   UNL     1      -7.939  10.505  65.331  1.00  0.00    -0.152 OA 
ENDROOT
BRANCH   6  12
HETATM   12  N   UNL     1     -11.245   6.502  67.414  1.00  0.00    -0.702 NA 
HETATM   13  H   UNL     1     -12.247   6.384  67.264  1.00  0.00     0.000 HD 
BRANCH  12  14
HETATM   14  N   UNL     1     -10.564   5.729  68.119  1.00  0.00    -0.225 NA 
HETATM   15  H   UNL     1      -9.958   5.001  67.743  1.00  0.00     0.000 HD 
BRANCH  14  16
HETATM   16  C   UNL     1     -10.732   5.981  69.501  1.00  0.00    -0.335 A  
HETATM   17  C   UNL     1     -11.953   7.182  71.238  1.00  0.00    -0.374 A  
HETATM   18  C   UNL     1     -11.768   6.837  69.896  1.00  0.00    -0.279 A  
HETATM   19  C   UNL     1     -11.087   6.679  72.207  1.00  0.00    -0.258 A  
HETATM   20  C   UNL     1     -10.043   5.817  71.851  1.00  0.00    -0.228 A  
HETATM   21  O   UNL     1     -11.263   7.044  73.519  1.00  0.00    -0.537 OA 
HETATM   22  C   UNL     1      -9.073   5.230  72.823  1.00  0.00    -0.133 C  
HETATM   23  C   UNL     1      -9.876   5.479  70.495  1.00  0.00    -0.254 A  
HETATM   24  H   UNL     1     -10.672   6.701  74.179  1.00  0.00     0.000 HD 
HETATM   25  O   UNL     1      -9.234   5.614  74.106  1.00  0.00    -0.124 OA 
HETATM   26  O   UNL     1      -8.191   4.459  72.482  1.00  0.00    -0.101 OA 
ENDBRANCH  14  16
ENDBRANCH  12  14
ENDBRANCH   6  12
TORSDOF 3
ENDMDL
MODEL      196
REMARK 921   NORMALIZED FREE ENERGY PREDICTED BY IDOCK:   -5.05 KCAL/MOL
REMARK 922        TOTAL FREE ENERGY PREDICTED BY IDOCK:   -6.30 KCAL/MOL
REMARK 923 INTER-LIGAND FREE ENERGY PREDICTED BY IDOCK:   -5.88 KCAL/MOL
REMARK 924 INTRA-LIGAND FREE ENERGY PREDICTED BY IDOCK:   -0.42 KCAL/MOL
REMARK 927      BINDING AFFINITY PREDICTED BY RF-SCORE:    0.00 PKD
ROOT
HETATM    1  O   UNL     1     -13.373  15.783  71.302  1.00  0.00    -0.532 OA 
HETATM    2  C   UNL     1     -12.639  15.055  70.435  1.00  0.00    -0.350 C  
HETATM    3  C   UNL     1     -12.604  13.585  70.697  1.00  0.00    -0.345 A  
HETATM    4  O   UNL     1     -12.043  15.568  69.501  1.00  0.00    -0.344 OA 
HETATM    5  C   UNL     1     -11.854  12.788  69.810  1.00  0.00    -0.380 A  
HETATM    6  C   UNL     1     -11.776  11.395  69.970  1.00  0.00    -0.334 A  
HETATM    7  C   UNL     1     -12.465  10.815  71.042  1.00  0.00    -0.522 A  
HETATM    8  C   UNL     1     -13.285  12.968  71.755  1.00  0.00    -0.392 A  
HETATM    9  H   UNL     1     -14.502  13.295  73.339  1.00  0.00     0.000 HD 
HETATM   10  C   UNL     1     -13.213  11.587  71.934  1.00  0.00    -0.479 A  
HETATM   11  O   UNL     1     -14.040  13.714  72.622  1.00  0.00    -0.746 OA 
ENDROOT
BRANCH   6  12
HETATM   12  N   UNL     1     -11.120  10.522  69.076  1.00  0.00    -0.233 NA 
HETATM   13  H   UNL     1     -11.148  10.636  68.063  1.00  0.00     0.000 HD 
BRANCH  12  14
HETATM   14  N   UNL     1     -10.503   9.597  69.643  1.00  0.00    -0.214 NA 
HETATM   15  H   UNL     1     -10.867   9.074  70.439  1.00  0.00     0.000 HD 
BRANCH  14  16
HETATM   16  C   UNL     1      -9.241   9.358  69.052  1.00  0.00    -0.145 A  
HETATM   17  C   UNL     1      -6.852   9.853  69.036  1.00  0.00    -0.054 A  
HETATM   18  C   UNL     1      -8.121   9.991  69.607  1.00  0.00    -0.180 A  
HETATM   19  C   UNL     1      -6.691   9.081  67.886  1.00  0.00    -0.068 A  
HETATM   20  C   UNL     1      -7.787   8.430  67.306  1.00  0.00    -0.098 A  
HETATM   21  O   UNL     1      -5.445   8.972  67.320  1.00  0.00    -0.040 OA 
HETATM   22  C   UNL     1      -7.703   7.584  66.079  1.00  0.00    -0.094 C  
HETATM   23  C   UNL     1      -9.055   8.580  67.897  1.00  0.00    -0.145 A  
HETATM   24  H   UNL     1      -5.336   8.446  66.537  1.00  0.00     0.000 HD 
HETATM   25  O   UNL     1      -6.482   7.502  65.512  1.00  0.00    -0.041 OA 
HETATM   26  O   UNL     1      -8.674   7.007  65.615  1.00  0.00    -0.140 OA 
ENDBRANCH  14  16
ENDBRANCH  12  14
ENDBRANCH   6  12
TORSDOF 3
ENDMDL
MODEL      197
REMARK 921   NORMALIZED FREE ENERGY PREDICTED BY IDOCK:   -5.05 KCAL/MOL
REMARK 922        TOTAL FREE ENERGY PREDICTED BY IDOCK:   -6.30 KCAL/MOL
REMARK 923 INTER-LIGAND FREE ENERGY PREDICTED BY IDOCK:   -5.81 KCAL/MOL
REMARK 924 INTRA-LIGAND FREE ENERGY PREDICTED BY IDOCK:   -0.49 KCAL/MOL
REMARK 927      BINDING AFFINITY PREDICTED BY RF-SCORE:    0.00 PKD
ROOT
HETATM    1  O   UNL     1     -13.609  11.291  72.008  1.00  0.00    -0.287 OA 
HETATM    2  C   UNL     1     -12.575  10.966  71.204  1.00  0.00    -0.428 C  
HETATM    3  C   UNL     1     -12.280   9.507  71.093  1.00  0.00    -0.421 A  
HETATM    4  O   UNL     1     -11.926  11.812  70.609  1.00  0.00    -0.350 OA 
HETATM    5  C   UNL     1     -11.213   9.124  70.257  1.00  0.00    -0.249 A  
HETATM    6  C   UNL     1     -10.873   7.773  70.081  1.00  0.00    -0.244 A  
HETATM    7  C   UNL     1     -11.624   6.810  70.765  1.00  0.00    -0.418 A  
HETATM    8  C   UNL     1     -13.013   8.513  71.756  1.00  0.00    -0.352 A  
HETATM    9  H   UNL     1     -14.567   8.179  73.010  1.00  0.00     0.000 HD 
HETATM   10  C   UNL     1     -12.685   7.167  71.600  1.00  0.00    -0.415 A  
HETATM   11  O   UNL     1     -14.070   8.853  72.561  1.00  0.00    -0.472 OA 
ENDROOT
BRANCH   6  12
HETATM   12  N   UNL     1      -9.878   7.307  69.196  1.00  0.00    -0.164 NA 
HETATM   13  H   UNL     1      -9.781   6.326  68.932  1.00  0.00     0.000 HD 
BRANCH  12  14
HETATM   14  N   UNL     1      -9.129   8.207  68.765  1.00  0.00    -0.144 NA 
HETATM   15  H   UNL     1      -8.654   8.885  69.361  1.00  0.00     0.000 HD 
BRANCH  14  16
HETATM   16  C   UNL     1      -9.013   8.176  67.356  1.00  0.00    -0.137 A  
HETATM   17  C   UNL     1      -8.060   7.083  65.395  1.00  0.00    -0.133 A  
HETATM   18  C   UNL     1      -8.271   7.141  66.776  1.00  0.00    -0.114 A  
HETATM   19  C   UNL     1      -8.587   8.079  64.573  1.00  0.00     0.145 A  
HETATM   20  C   UNL     1      -9.339   9.127  65.117  1.00  0.00    -0.180 A  
HETATM   21  O   UNL     1      -8.354   8.026  63.221  1.00  0.00    -0.355 OA 
HETATM   22  C   UNL     1      -9.941  10.230  64.311  1.00  0.00    -0.223 C  
HETATM   23  C   UNL     1      -9.542   9.165  66.509  1.00  0.00    -0.289 A  
HETATM   24  H   UNL     1      -8.713   8.705  62.662  1.00  0.00     0.000 HD 
HETATM   25  O   UNL     1      -9.686  10.189  62.987  1.00  0.00    -0.258 OA 
HETATM   26  O   UNL     1     -10.616  11.115  64.815  1.00  0.00    -0.317 OA 
ENDBRANCH  14  16
ENDBRANCH  12  14
ENDBRANCH   6  12
TORSDOF 3
ENDMDL
MODEL      198
REMARK 921   NORMALIZED FREE ENERGY PREDICTED BY IDOCK:   -5.04 KCAL/MOL
REMARK 922        TOTAL FREE ENERGY PREDICTED BY IDOCK:   -6.28 KCAL/MOL
REMARK 923 INTER-LIGAND FREE ENERGY PREDICTED BY IDOCK:   -5.71 KCAL/MOL
REMARK 924 INTRA-LIGAND FREE ENERGY PREDICTED BY IDOCK:   -0.58 KCAL/MOL
REMARK 927      BINDING AFFINITY PREDICTED BY RF-SCORE:    0.00 PKD
ROOT
HETATM    1  O   UNL     1      -8.683   8.707  64.200  1.00  0.00    -0.083 OA 
HETATM    2  C   UNL     1      -8.843   8.603  65.536  1.00  0.00    -0.179 C  
HETATM    3  C   UNL     1      -9.726   9.633  66.160  1.00  0.00    -0.317 A  
HETATM    4  O   UNL     1      -8.299   7.725  66.188  1.00  0.00    -0.115 OA 
HETATM    5  C   UNL     1      -9.926   9.556  67.553  1.00  0.00    -0.235 A  
HETATM    6  C   UNL     1     -10.752  10.472  68.222  1.00  0.00    -0.229 A  
HETATM    7  C   UNL     1     -11.374  11.474  67.467  1.00  0.00    -0.366 A  
HETATM    8  C   UNL     1     -10.371  10.646  65.437  1.00  0.00    -0.233 A  
HETATM    9  H   UNL     1     -10.650  11.421  63.588  1.00  0.00     0.000 HD 
HETATM   10  C   UNL     1     -11.189  11.569  66.086  1.00  0.00    -0.265 A  
HETATM   11  O   UNL     1     -10.212  10.735  64.078  1.00  0.00    -0.332 OA 
ENDROOT
BRANCH   6  12
HETATM   12  N   UNL     1     -11.071  10.408  69.596  1.00  0.00    -0.257 NA 
HETATM   13  H   UNL     1     -10.570  10.936  70.310  1.00  0.00     0.000 HD 
BRANCH  12  14
HETATM   14  N   UNL     1     -12.024   9.645  69.853  1.00  0.00    -0.451 NA 
HETATM   15  H   UNL     1     -12.970   9.774  69.494  1.00  0.00     0.000 HD 
BRANCH  14  16
HETATM   16  C   UNL     1     -11.640   8.579  70.700  1.00  0.00    -0.194 A  
HETATM   17  C   UNL     1     -11.225   7.812  72.978  1.00  0.00    -0.380 A  
HETATM   18  C   UNL     1     -11.653   8.797  72.084  1.00  0.00    -0.434 A  
HETATM   19  C   UNL     1     -10.763   6.589  72.491  1.00  0.00    -0.226 A  
HETATM   20  C   UNL     1     -10.740   6.334  71.115  1.00  0.00    -0.301 A  
HETATM   21  O   UNL     1     -10.322   5.638  73.377  1.00  0.00    -0.192 OA 
HETATM   22  C   UNL     1     -10.265   5.055  70.509  1.00  0.00    -0.246 C  
HETATM   23  C   UNL     1     -11.178   7.338  70.231  1.00  0.00    -0.287 A  
HETATM   24  H   UNL     1     -10.007   4.805  73.045  1.00  0.00     0.000 HD 
HETATM   25  O   UNL     1      -9.807   4.134  71.382  1.00  0.00    -0.177 OA 
HETATM   26  O   UNL     1     -10.285   4.854  69.305  1.00  0.00    -0.207 OA 
ENDBRANCH  14  16
ENDBRANCH  12  14
ENDBRANCH   6  12
TORSDOF 3
ENDMDL
MODEL      199
REMARK 921   NORMALIZED FREE ENERGY PREDICTED BY IDOCK:   -5.03 KCAL/MOL
REMARK 922        TOTAL FREE ENERGY PREDICTED BY IDOCK:   -6.27 KCAL/MOL
REMARK 923 INTER-LIGAND FREE ENERGY PREDICTED BY IDOCK:   -5.78 KCAL/MOL
REMARK 924 INTRA-LIGAND FREE ENERGY PREDICTED BY IDOCK:   -0.49 KCAL/MOL
REMARK 927      BINDING AFFINITY PREDICTED BY RF-SCORE:    0.00 PKD
ROOT
HETATM    1  O   UNL     1      -9.752   5.974  73.058  1.00  0.00    -0.157 OA 
HETATM    2  C   UNL     1     -10.462   6.845  72.310  1.00  0.00    -0.207 C  
HETATM    3  C   UNL     1     -10.033   6.966  70.885  1.00  0.00    -0.200 A  
HETATM    4  O   UNL     1     -11.391   7.488  72.771  1.00  0.00    -0.337 OA 
HETATM    5  C   UNL     1     -10.753   7.860  70.066  1.00  0.00    -0.244 A  
HETATM    6  C   UNL     1     -10.430   8.028  68.711  1.00  0.00    -0.173 A  
HETATM    7  C   UNL     1      -9.364   7.284  68.189  1.00  0.00    -0.131 A  
HETATM    8  C   UNL     1      -8.977   6.235  70.325  1.00  0.00    -0.154 A  
HETATM    9  H   UNL     1      -7.555   4.846  70.711  1.00  0.00     0.000 HD 
HETATM   10  C   UNL     1      -8.636   6.394  68.983  1.00  0.00    -0.124 A  
HETATM   11  O   UNL     1      -8.270   5.342  71.091  1.00  0.00    -0.114 OA 
ENDROOT
BRANCH   6  12
HETATM   12  N   UNL     1     -11.156   8.834  67.809  1.00  0.00    -0.432 NA 
HETATM   13  H   UNL     1     -12.171   8.794  67.718  1.00  0.00     0.000 HD 
BRANCH  12  14
HETATM   14  N   UNL     1     -10.439   9.600  67.133  1.00  0.00    -0.255 NA 
HETATM   15  H   UNL     1      -9.660   9.287  66.554  1.00  0.00     0.000 HD 
BRANCH  14  16
HETATM   16  C   UNL     1     -10.833  10.952  67.263  1.00  0.00    -0.287 A  
HETATM   17  C   UNL     1     -11.022  13.147  66.217  1.00  0.00    -0.295 A  
HETATM   18  C   UNL     1     -10.713  11.786  66.144  1.00  0.00    -0.320 A  
HETATM   19  C   UNL     1     -11.447  13.696  67.426  1.00  0.00    -0.336 A  
HETATM   20  C   UNL     1     -11.583  12.893  68.564  1.00  0.00    -0.358 A  
HETATM   21  O   UNL     1     -11.724  15.039  67.492  1.00  0.00    -0.343 OA 
HETATM   22  C   UNL     1     -12.034  13.397  69.895  1.00  0.00    -0.338 C  
HETATM   23  C   UNL     1     -11.269  11.524  68.469  1.00  0.00    -0.315 A  
HETATM   24  H   UNL     1     -12.014  15.413  68.316  1.00  0.00     0.000 HD 
HETATM   25  O   UNL     1     -12.278  14.722  69.962  1.00  0.00    -0.310 OA 
HETATM   26  O   UNL     1     -12.168  12.663  70.861  1.00  0.00    -0.349 OA 
ENDBRANCH  14  16
ENDBRANCH  12  14
ENDBRANCH   6  12
TORSDOF 3
ENDMDL
MODEL      200
REMARK 921   NORMALIZED FREE ENERGY PREDICTED BY IDOCK:   -5.02 KCAL/MOL
REMARK 922        TOTAL FREE ENERGY PREDICTED BY IDOCK:   -6.26 KCAL/MOL
REMARK 923 INTER-LIGAND FREE ENERGY PREDICTED BY IDOCK:   -5.69 KCAL/MOL
REMARK 924 INTRA-LIGAND FREE ENERGY PREDICTED BY IDOCK:   -0.57 KCAL/MOL
REMARK 927      BINDING AFFINITY PREDICTED BY RF-SCORE:    0.00 PKD
ROOT
HETATM    1  O   UNL     1     -10.168   6.832  71.291  1.00  0.00    -0.201 OA 
HETATM    2  C   UNL     1     -10.290   7.584  70.177  1.00  0.00    -0.216 C  
HETATM    3  C   UNL     1     -11.036   8.866  70.347  1.00  0.00    -0.270 A  
HETATM    4  O   UNL     1      -9.822   7.236  69.105  1.00  0.00    -0.162 OA 
HETATM    5  C   UNL     1     -11.181   9.686  69.210  1.00  0.00    -0.083 A  
HETATM    6  C   UNL     1     -11.854  10.916  69.278  1.00  0.00    -0.324 A  
HETATM    7  C   UNL     1     -12.386  11.309  70.513  1.00  0.00    -0.446 A  
HETATM    8  C   UNL     1     -11.577   9.297  71.566  1.00  0.00    -0.382 A  
HETATM    9  H   UNL     1     -11.801   8.823  73.522  1.00  0.00     0.000 HD 
HETATM   10  C   UNL     1     -12.256  10.511  71.652  1.00  0.00    -0.292 A  
HETATM   11  O   UNL     1     -11.435   8.531  72.695  1.00  0.00    -0.351 OA 
ENDROOT
BRANCH   6  12
HETATM   12  N   UNL     1     -11.964  11.830  68.209  1.00  0.00    -0.528 NA 
HETATM   13  H   UNL     1     -12.843  12.025  67.729  1.00  0.00     0.000 HD 
BRANCH  12  14
HETATM   14  N   UNL     1     -10.884  12.377  67.906  1.00  0.00    -0.214 NA 
HETATM   15  H   UNL     1     -10.414  13.070  68.488  1.00  0.00     0.000 HD 
BRANCH  14  16
HETATM   16  C   UNL     1     -10.388  11.925  66.661  1.00  0.00    -0.211 A  
HETATM   17  C   UNL     1     -10.813  11.570  64.285  1.00  0.00    -0.421 A  
HETATM   18  C   UNL     1     -11.211  12.053  65.535  1.00  0.00    -0.372 A  
HETATM   19  C   UNL     1      -9.579  10.936  64.150  1.00  0.00    -0.277 A  
HETATM   20  C   UNL     1      -8.727  10.794  65.252  1.00  0.00    -0.183 A  
HETATM   21  O   UNL     1      -9.208  10.443  62.924  1.00  0.00    -0.242 OA 
HETATM   22  C   UNL     1      -7.390  10.133  65.196  1.00  0.00    -0.141 C  
HETATM   23  C   UNL     1      -9.145  11.290  66.501  1.00  0.00    -0.193 A  
HETATM   24  H   UNL     1      -8.367  10.011  62.832  1.00  0.00     0.000 HD 
HETATM   25  O   UNL     1      -7.042   9.626  63.994  1.00  0.00    -0.106 OA 
HETATM   26  O   UNL     1      -6.659  10.050  66.170  1.00  0.00    -0.079 OA 
ENDBRANCH  14  16
ENDBRANCH  12  14
ENDBRANCH   6  12
TORSDOF 3
ENDMDL
MODEL      201
REMARK 921   NORMALIZED FREE ENERGY PREDICTED BY IDOCK:   -5.01 KCAL/MOL
REMARK 922        TOTAL FREE ENERGY PREDICTED BY IDOCK:   -6.25 KCAL/MOL
REMARK 923 INTER-LIGAND FREE ENERGY PREDICTED BY IDOCK:   -5.86 KCAL/MOL
REMARK 924 INTRA-LIGAND FREE ENERGY PREDICTED BY IDOCK:   -0.39 KCAL/MOL
REMARK 927      BINDING AFFINITY PREDICTED BY RF-SCORE:    0.00 PKD
ROOT
HETATM    1  O   UNL     1     -10.892  16.230  67.309  1.00  0.00    -0.302 OA 
HETATM    2  C   UNL     1     -10.922  14.942  66.908  1.00  0.00    -0.327 C  
HETATM    3  C   UNL     1     -11.301  13.950  67.957  1.00  0.00    -0.317 A  
HETATM    4  O   UNL     1     -10.655  14.613  65.762  1.00  0.00    -0.292 OA 
HETATM    5  C   UNL     1     -11.352  12.594  67.578  1.00  0.00    -0.361 A  
HETATM    6  C   UNL     1     -11.714  11.594  68.494  1.00  0.00    -0.315 A  
HETATM    7  C   UNL     1     -12.021  11.980  69.805  1.00  0.00    -0.370 A  
HETATM    8  C   UNL     1     -11.622  14.298  69.276  1.00  0.00    -0.306 A  
HETATM    9  H   UNL     1     -11.820  15.847  70.565  1.00  0.00     0.000 HD 
HETATM   10  C   UNL     1     -11.976  13.318  70.202  1.00  0.00    -0.388 A  
HETATM   11  O   UNL     1     -11.602  15.611  69.670  1.00  0.00    -0.307 OA 
ENDROOT
BRANCH   6  12
HETATM   12  N   UNL     1     -11.872  10.230  68.169  1.00  0.00    -0.672 NA 
HETATM   13  H   UNL     1     -12.731   9.846  67.775  1.00  0.00     0.000 HD 
BRANCH  12  14
HETATM   14  N   UNL     1     -10.862   9.537  68.410  1.00  0.00    -0.409 NA 
HETATM   15  H   UNL     1     -10.799   8.870  69.178  1.00  0.00     0.000 HD 
BRANCH  14  16
HETATM   16  C   UNL     1      -9.815   9.787  67.492  1.00  0.00    -0.167 A  
HETATM   17  C   UNL     1      -8.980   9.553  65.212  1.00  0.00    -0.244 A  
HETATM   18  C   UNL     1      -9.997   9.397  66.159  1.00  0.00    -0.351 A  
HETATM   19  C   UNL     1      -7.754  10.096  65.596  1.00  0.00    -0.143 A  
HETATM   20  C   UNL     1      -7.538  10.501  66.918  1.00  0.00    -0.110 A  
HETATM   21  O   UNL     1      -6.755  10.221  64.663  1.00  0.00    -0.172 OA 
HETATM   22  C   UNL     1      -6.260  11.093  67.413  1.00  0.00    -0.066 C  
HETATM   23  C   UNL     1      -8.575  10.338  67.856  1.00  0.00    -0.118 A  
HETATM   24  H   UNL     1      -5.920  10.591  64.925  1.00  0.00     0.000 HD 
HETATM   25  O   UNL     1      -5.272  11.189  66.499  1.00  0.00    -0.082 OA 
HETATM   26  O   UNL     1      -6.114  11.462  68.568  1.00  0.00    -0.046 OA 
ENDBRANCH  14  16
ENDBRANCH  12  14
ENDBRANCH   6  12
TORSDOF 3
ENDMDL
MODEL      202
REMARK 921   NORMALIZED FREE ENERGY PREDICTED BY IDOCK:   -4.99 KCAL/MOL
REMARK 922        TOTAL FREE ENERGY PREDICTED BY IDOCK:   -6.23 KCAL/MOL
REMARK 923 INTER-LIGAND FREE ENERGY PREDICTED BY IDOCK:   -5.81 KCAL/MOL
REMARK 924 INTRA-LIGAND FREE ENERGY PREDICTED BY IDOCK:   -0.42 KCAL/MOL
REMARK 927      BINDING AFFINITY PREDICTED BY RF-SCORE:    0.00 PKD
ROOT
HETATM    1  O   UNL     1     -12.387  14.499  68.701  1.00  0.00    -0.176 OA 
HETATM    2  C   UNL     1     -12.224  13.539  69.635  1.00  0.00    -0.247 C  
HETATM    3  C   UNL     1     -11.767  12.214  69.122  1.00  0.00    -0.384 A  
HETATM    4  O   UNL     1     -12.439  13.744  70.819  1.00  0.00    -0.340 OA 
HETATM    5  C   UNL     1     -11.577  11.185  70.066  1.00  0.00    -0.421 A  
HETATM    6  C   UNL     1     -11.135   9.911  69.677  1.00  0.00    -0.241 A  
HETATM    7  C   UNL     1     -10.888   9.685  68.317  1.00  0.00    -0.230 A  
HETATM    8  C   UNL     1     -11.503  11.952  67.771  1.00  0.00    -0.319 A  
HETATM    9  H   UNL     1     -11.480  12.760  65.915  1.00  0.00     0.000 HD 
HETATM   10  C   UNL     1     -11.071  10.691  67.364  1.00  0.00    -0.341 A  
HETATM   11  O   UNL     1     -11.659  12.938  66.831  1.00  0.00    -0.329 OA 
ENDROOT
BRANCH   6  12
HETATM   12  N   UNL     1     -10.838   8.859  70.569  1.00  0.00    -0.228 NA 
HETATM   13  H   UNL     1      -9.961   8.797  71.087  1.00  0.00     0.000 HD 
BRANCH  12  14
HETATM   14  N   UNL     1     -11.749   8.012  70.666  1.00  0.00    -0.444 NA 
HETATM   15  H   UNL     1     -12.743   8.241  70.651  1.00  0.00     0.000 HD 
BRANCH  14  16
HETATM   16  C   UNL     1     -11.244   6.698  70.796  1.00  0.00    -0.315 A  
HETATM   17  C   UNL     1     -10.708   4.840  72.284  1.00  0.00    -0.185 A  
HETATM   18  C   UNL     1     -11.250   6.110  72.068  1.00  0.00    -0.335 A  
HETATM   19  C   UNL     1     -10.137   4.142  71.220  1.00  0.00    -0.085 A  
HETATM   20  C   UNL     1     -10.117   4.695  69.934  1.00  0.00    -0.257 A  
HETATM   21  O   UNL     1      -9.586   2.906  71.448  1.00  0.00    -0.137 OA 
HETATM   22  C   UNL     1      -9.530   4.017  68.741  1.00  0.00    -0.158 C  
HETATM   23  C   UNL     1     -10.671   5.974  69.738  1.00  0.00    -0.399 A  
HETATM   24  H   UNL     1      -9.197   2.431  70.723  1.00  0.00     0.000 HD 
HETATM   25  O   UNL     1      -8.965   2.814  68.976  1.00  0.00    -0.089 OA 
HETATM   26  O   UNL     1      -9.554   4.516  67.627  1.00  0.00    -0.150 OA 
ENDBRANCH  14  16
ENDBRANCH  12  14
ENDBRANCH   6  12
TORSDOF 3
ENDMDL
MODEL      203
REMARK 921   NORMALIZED FREE ENERGY PREDICTED BY IDOCK:   -4.94 KCAL/MOL
REMARK 922        TOTAL FREE ENERGY PREDICTED BY IDOCK:   -6.17 KCAL/MOL
REMARK 923 INTER-LIGAND FREE ENERGY PREDICTED BY IDOCK:   -6.10 KCAL/MOL
REMARK 924 INTRA-LIGAND FREE ENERGY PREDICTED BY IDOCK:   -0.07 KCAL/MOL
REMARK 927      BINDING AFFINITY PREDICTED BY RF-SCORE:    0.00 PKD
ROOT
HETATM    1  O   UNL     1     -10.847  18.621  67.152  1.00  0.00    -0.408 OA 
HETATM    2  C   UNL     1     -10.437  17.660  68.006  1.00  0.00    -0.394 C  
HETATM    3  C   UNL     1     -10.176  16.324  67.392  1.00  0.00    -0.275 A  
HETATM    4  O   UNL     1     -10.291  17.872  69.199  1.00  0.00    -0.340 OA 
HETATM    5  C   UNL     1      -9.738  15.293  68.248  1.00  0.00    -0.210 A  
HETATM    6  C   UNL     1      -9.454  14.009  67.757  1.00  0.00    -0.209 A  
HETATM    7  C   UNL     1      -9.621  13.776  66.386  1.00  0.00    -0.285 A  
HETATM    8  C   UNL     1     -10.325  16.053  66.025  1.00  0.00    -0.351 A  
HETATM    9  H   UNL     1     -10.830  16.857  64.237  1.00  0.00     0.000 HD 
HETATM   10  C   UNL     1     -10.055  14.783  65.520  1.00  0.00    -0.409 A  
HETATM   11  O   UNL     1     -10.729  17.041  65.164  1.00  0.00    -0.672 OA 
ENDROOT
BRANCH   6  12
HETATM   12  N   UNL     1      -8.930  12.953  68.532  1.00  0.00    -0.368 NA 
HETATM   13  H   UNL     1      -9.051  12.889  69.543  1.00  0.00     0.000 HD 
BRANCH  12  14
HETATM   14  N   UNL     1      -8.304  12.105  67.864  1.00  0.00    -0.151 NA 
HETATM   15  H   UNL     1      -7.372  12.259  67.479  1.00  0.00     0.000 HD 
BRANCH  14  16
HETATM   16  C   UNL     1      -9.037  10.907  67.702  1.00  0.00    -0.148 A  
HETATM   17  C   UNL     1     -11.025   9.619  68.285  1.00  0.00    -0.172 A  
HETATM   18  C   UNL     1     -10.275  10.797  68.347  1.00  0.00    -0.192 A  
HETATM   19  C   UNL     1     -10.532   8.522  67.578  1.00  0.00    -0.258 A  
HETATM   20  C   UNL     1      -9.301   8.597  66.916  1.00  0.00    -0.216 A  
HETATM   21  O   UNL     1     -11.265   7.362  67.543  1.00  0.00    -0.535 OA 
HETATM   22  C   UNL     1      -8.702   7.474  66.135  1.00  0.00    -0.156 C  
HETATM   23  C   UNL     1      -8.563   9.793  66.989  1.00  0.00    -0.127 A  
HETATM   24  H   UNL     1     -10.929   6.615  67.062  1.00  0.00     0.000 HD 
HETATM   25  O   UNL     1      -9.413   6.328  66.128  1.00  0.00    -0.144 OA 
HETATM   26  O   UNL     1      -7.638   7.582  65.547  1.00  0.00    -0.084 OA 
ENDBRANCH  14  16
ENDBRANCH  12  14
ENDBRANCH   6  12
TORSDOF 3
ENDMDL
MODEL      204
REMARK 921   NORMALIZED FREE ENERGY PREDICTED BY IDOCK:   -4.94 KCAL/MOL
REMARK 922        TOTAL FREE ENERGY PREDICTED BY IDOCK:   -6.17 KCAL/MOL
REMARK 923 INTER-LIGAND FREE ENERGY PREDICTED BY IDOCK:   -5.68 KCAL/MOL
REMARK 924 INTRA-LIGAND FREE ENERGY PREDICTED BY IDOCK:   -0.49 KCAL/MOL
REMARK 927      BINDING AFFINITY PREDICTED BY RF-SCORE:    0.00 PKD
ROOT
HETATM    1  O   UNL     1     -11.989  14.145  68.742  1.00  0.00    -0.334 OA 
HETATM    2  C   UNL     1     -11.847  12.833  69.025  1.00  0.00    -0.297 C  
HETATM    3  C   UNL     1     -11.382  11.978  67.893  1.00  0.00    -0.369 A  
HETATM    4  O   UNL     1     -12.086  12.379  70.133  1.00  0.00    -0.335 OA 
HETATM    5  C   UNL     1     -11.213  10.602  68.148  1.00  0.00    -0.366 A  
HETATM    6  C   UNL     1     -10.765   9.725  67.147  1.00  0.00    -0.202 A  
HETATM    7  C   UNL     1     -10.491  10.255  65.880  1.00  0.00    -0.167 A  
HETATM    8  C   UNL     1     -11.091  12.472  66.614  1.00  0.00    -0.283 A  
HETATM    9  H   UNL     1     -11.028  14.143  65.473  1.00  0.00     0.000 HD 
HETATM   10  C   UNL     1     -10.652  11.615  65.606  1.00  0.00    -0.324 A  
HETATM   11  O   UNL     1     -11.225  13.809  66.341  1.00  0.00    -0.308 OA 
ENDROOT
BRANCH   6  12
HETATM   12  N   UNL     1     -10.489   8.356  67.348  1.00  0.00    -0.328 NA 
HETATM   13  H   UNL     1     -11.108   7.610  67.030  1.00  0.00     0.000 HD 
BRANCH  12  14
HETATM   14  N   UNL     1      -9.417   8.145  67.950  1.00  0.00    -0.144 NA 
HETATM   15  H   UNL     1      -8.540   8.621  67.736  1.00  0.00     0.000 HD 
BRANCH  14  16
HETATM   16  C   UNL     1      -9.558   7.169  68.964  1.00  0.00    -0.146 A  
HETATM   17  C   UNL     1      -8.842   5.015  69.858  1.00  0.00    -0.130 A  
HETATM   18  C   UNL     1      -8.716   6.051  68.927  1.00  0.00    -0.122 A  
HETATM   19  C   UNL     1      -9.830   5.084  70.839  1.00  0.00    -0.205 A  
HETATM   20  C   UNL     1     -10.687   6.189  70.910  1.00  0.00    -0.316 A  
HETATM   21  O   UNL     1      -9.961   4.051  71.733  1.00  0.00    -0.179 OA 
HETATM   22  C   UNL     1     -11.768   6.345  71.928  1.00  0.00    -0.328 C  
HETATM   23  C   UNL     1     -10.542   7.222  69.965  1.00  0.00    -0.247 A  
HETATM   24  H   UNL     1     -10.634   4.098  72.401  1.00  0.00     0.000 HD 
HETATM   25  O   UNL     1     -11.910   5.314  72.787  1.00  0.00    -0.251 OA 
HETATM   26  O   UNL     1     -12.480   7.335  71.980  1.00  0.00    -0.297 OA 
ENDBRANCH  14  16
ENDBRANCH  12  14
ENDBRANCH   6  12
TORSDOF 3
ENDMDL
MODEL      205
REMARK 921   NORMALIZED FREE ENERGY PREDICTED BY IDOCK:   -4.94 KCAL/MOL
REMARK 922        TOTAL FREE ENERGY PREDICTED BY IDOCK:   -6.17 KCAL/MOL
REMARK 923 INTER-LIGAND FREE ENERGY PREDICTED BY IDOCK:   -5.78 KCAL/MOL
REMARK 924 INTRA-LIGAND FREE ENERGY PREDICTED BY IDOCK:   -0.38 KCAL/MOL
REMARK 927      BINDING AFFINITY PREDICTED BY RF-SCORE:    0.00 PKD
ROOT
HETATM    1  O   UNL     1     -11.725  14.892  66.451  1.00  0.00    -0.307 OA 
HETATM    2  C   UNL     1     -11.483  13.565  66.504  1.00  0.00    -0.339 C  
HETATM    3  C   UNL     1     -11.624  12.939  67.852  1.00  0.00    -0.391 A  
HETATM    4  O   UNL     1     -11.169  12.924  65.513  1.00  0.00    -0.281 OA 
HETATM    5  C   UNL     1     -11.387  11.553  67.949  1.00  0.00    -0.372 A  
HETATM    6  C   UNL     1     -11.510  10.877  69.173  1.00  0.00    -0.303 A  
HETATM    7  C   UNL     1     -11.873  11.620  70.304  1.00  0.00    -0.414 A  
HETATM    8  C   UNL     1     -11.991  13.647  69.004  1.00  0.00    -0.353 A  
HETATM    9  H   UNL     1     -12.498  15.473  69.718  1.00  0.00     0.000 HD 
HETATM   10  C   UNL     1     -12.111  12.995  70.229  1.00  0.00    -0.388 A  
HETATM   11  O   UNL     1     -12.249  14.993  68.937  1.00  0.00    -0.216 OA 
ENDROOT
BRANCH   6  12
HETATM   12  N   UNL     1     -11.375   9.482  69.335  1.00  0.00    -0.443 NA 
HETATM   13  H   UNL     1     -11.494   9.010  70.231  1.00  0.00     0.000 HD 
BRANCH  12  14
HETATM   14  N   UNL     1     -11.098   8.880  68.277  1.00  0.00    -0.446 NA 
HETATM   15  H   UNL     1     -11.424   9.170  67.355  1.00  0.00     0.000 HD 
BRANCH  14  16
HETATM   16  C   UNL     1     -10.279   7.750  68.506  1.00  0.00    -0.204 A  
HETATM   17  C   UNL     1      -8.432   6.359  67.729  1.00  0.00    -0.117 A  
HETATM   18  C   UNL     1      -9.240   7.493  67.602  1.00  0.00    -0.135 A  
HETATM   19  C   UNL     1      -8.664   5.456  68.766  1.00  0.00    -0.097 A  
HETATM   20  C   UNL     1      -9.690   5.683  69.691  1.00  0.00    -0.222 A  
HETATM   21  O   UNL     1      -7.880   4.334  68.866  1.00  0.00    -0.068 OA 
HETATM   22  C   UNL     1     -10.005   4.772  70.831  1.00  0.00    -0.213 C  
HETATM   23  C   UNL     1     -10.491   6.832  69.548  1.00  0.00    -0.248 A  
HETATM   24  H   UNL     1      -8.039   3.719  69.573  1.00  0.00     0.000 HD 
HETATM   25  O   UNL     1      -9.249   3.657  70.909  1.00  0.00    -0.104 OA 
HETATM   26  O   UNL     1     -10.890   5.014  71.637  1.00  0.00    -0.124 OA 
ENDBRANCH  14  16
ENDBRANCH  12  14
ENDBRANCH   6  12
TORSDOF 3
ENDMDL
MODEL      206
REMARK 921   NORMALIZED FREE ENERGY PREDICTED BY IDOCK:   -4.94 KCAL/MOL
REMARK 922        TOTAL FREE ENERGY PREDICTED BY IDOCK:   -6.17 KCAL/MOL
REMARK 923 INTER-LIGAND FREE ENERGY PREDICTED BY IDOCK:   -5.66 KCAL/MOL
REMARK 924 INTRA-LIGAND FREE ENERGY PREDICTED BY IDOCK:   -0.50 KCAL/MOL
REMARK 927      BINDING AFFINITY PREDICTED BY RF-SCORE:    0.00 PKD
ROOT
HETATM    1  O   UNL     1     -10.396  11.633  63.370  1.00  0.00    -0.382 OA 
HETATM    2  C   UNL     1     -10.116  11.173  64.607  1.00  0.00    -0.302 C  
HETATM    3  C   UNL     1     -10.765  11.912  65.730  1.00  0.00    -0.327 A  
HETATM    4  O   UNL     1      -9.379  10.217  64.792  1.00  0.00    -0.222 OA 
HETATM    5  C   UNL     1     -10.505  11.458  67.039  1.00  0.00    -0.271 A  
HETATM    6  C   UNL     1     -11.084  12.082  68.155  1.00  0.00    -0.245 A  
HETATM    7  C   UNL     1     -11.930  13.177  67.934  1.00  0.00    -0.347 A  
HETATM    8  C   UNL     1     -11.622  13.006  65.549  1.00  0.00    -0.347 A  
HETATM    9  H   UNL     1     -12.492  14.199  64.164  1.00  0.00     0.000 HD 
HETATM   10  C   UNL     1     -12.200  13.643  66.646  1.00  0.00    -0.437 A  
HETATM   11  O   UNL     1     -11.911  13.457  64.287  1.00  0.00    -0.392 OA 
ENDROOT
BRANCH   6  12
HETATM   12  N   UNL     1     -10.943  11.635  69.486  1.00  0.00    -0.444 NA 
HETATM   13  H   UNL     1     -10.591  12.226  70.239  1.00  0.00     0.000 HD 
BRANCH  12  14
HETATM   14  N   UNL     1     -11.290  10.448  69.654  1.00  0.00    -0.257 NA 
HETATM   15  H   UNL     1     -12.170  10.059  69.316  1.00  0.00     0.000 HD 
BRANCH  14  16
HETATM   16  C   UNL     1     -10.320   9.705  70.368  1.00  0.00    -0.291 A  
HETATM   17  C   UNL     1      -9.861   8.089  72.136  1.00  0.00    -0.286 A  
HETATM   18  C   UNL     1     -10.764   8.808  71.347  1.00  0.00    -0.356 A  
HETATM   19  C   UNL     1      -8.490   8.271  71.958  1.00  0.00    -0.170 A  
HETATM   20  C   UNL     1      -8.010   9.155  70.985  1.00  0.00    -0.166 A  
HETATM   21  O   UNL     1      -7.613   7.578  72.754  1.00  0.00    -0.081 OA 
HETATM   22  C   UNL     1      -6.561   9.407  70.726  1.00  0.00    -0.096 C  
HETATM   23  C   UNL     1      -8.935   9.868  70.200  1.00  0.00    -0.159 A  
HETATM   24  H   UNL     1      -6.679   7.702  72.632  1.00  0.00     0.000 HD 
HETATM   25  O   UNL     1      -5.704   8.744  71.529  1.00  0.00    -0.039 OA 
HETATM   26  O   UNL     1      -6.175  10.165  69.850  1.00  0.00    -0.047 OA 
ENDBRANCH  14  16
ENDBRANCH  12  14
ENDBRANCH   6  12
TORSDOF 3
ENDMDL
MODEL      207
REMARK 921   NORMALIZED FREE ENERGY PREDICTED BY IDOCK:   -4.91 KCAL/MOL
REMARK 922        TOTAL FREE ENERGY PREDICTED BY IDOCK:   -6.14 KCAL/MOL
REMARK 923 INTER-LIGAND FREE ENERGY PREDICTED BY IDOCK:   -5.70 KCAL/MOL
REMARK 924 INTRA-LIGAND FREE ENERGY PREDICTED BY IDOCK:   -0.43 KCAL/MOL
REMARK 927      BINDING AFFINITY PREDICTED BY RF-SCORE:    0.00 PKD
ROOT
HETATM    1  O   UNL     1     -13.548  15.554  72.303  1.00  0.00    -0.442 OA 
HETATM    2  C   UNL     1     -13.336  14.237  72.101  1.00  0.00    -0.416 C  
HETATM    3  C   UNL     1     -12.728  13.878  70.785  1.00  0.00    -0.383 A  
HETATM    4  O   UNL     1     -13.624  13.398  72.940  1.00  0.00    -0.608 OA 
HETATM    5  C   UNL     1     -12.483  12.513  70.537  1.00  0.00    -0.266 A  
HETATM    6  C   UNL     1     -11.901  12.084  69.333  1.00  0.00    -0.324 A  
HETATM    7  C   UNL     1     -11.571  13.053  68.378  1.00  0.00    -0.370 A  
HETATM    8  C   UNL     1     -12.378  14.819  69.808  1.00  0.00    -0.249 A  
HETATM    9  H   UNL     1     -12.347  16.795  69.365  1.00  0.00     0.000 HD 
HETATM   10  C   UNL     1     -11.806  14.412  68.604  1.00  0.00    -0.366 A  
HETATM   11  O   UNL     1     -12.585  16.157  70.028  1.00  0.00    -0.135 OA 
ENDROOT
BRANCH   6  12
HETATM   12  N   UNL     1     -11.545  10.749  69.047  1.00  0.00    -0.349 NA 
HETATM   13  H   UNL     1     -12.138  10.116  68.511  1.00  0.00     0.000 HD 
BRANCH  12  14
HETATM   14  N   UNL     1     -10.436  10.416  69.512  1.00  0.00    -0.236 NA 
HETATM   15  H   UNL     1     -10.305  10.018  70.442  1.00  0.00     0.000 HD 
BRANCH  14  16
HETATM   16  C   UNL     1      -9.382  10.656  68.600  1.00  0.00    -0.177 A  
HETATM   17  C   UNL     1      -7.241  11.744  68.172  1.00  0.00    -0.086 A  
HETATM   18  C   UNL     1      -8.288  11.413  69.037  1.00  0.00     0.036 A  
HETATM   19  C   UNL     1      -7.284  11.325  66.843  1.00  0.00    -0.142 A  
HETATM   20  C   UNL     1      -8.359  10.562  66.371  1.00  0.00    -0.145 A  
HETATM   21  O   UNL     1      -6.263  11.676  65.996  1.00  0.00    -0.447 OA 
HETATM   22  C   UNL     1      -8.482  10.070  64.967  1.00  0.00    -0.160 C  
HETATM   23  C   UNL     1      -9.401  10.237  67.259  1.00  0.00    -0.169 A  
HETATM   24  H   UNL     1      -6.292  11.391  65.090  1.00  0.00     0.000 HD 
HETATM   25  O   UNL     1      -7.490  10.441  64.132  1.00  0.00    -0.103 OA 
HETATM   26  O   UNL     1      -9.420   9.382  64.595  1.00  0.00    -0.168 OA 
ENDBRANCH  14  16
ENDBRANCH  12  14
ENDBRANCH   6  12
TORSDOF 3
ENDMDL
MODEL      208
REMARK 921   NORMALIZED FREE ENERGY PREDICTED BY IDOCK:   -4.91 KCAL/MOL
REMARK 922        TOTAL FREE ENERGY PREDICTED BY IDOCK:   -6.13 KCAL/MOL
REMARK 923 INTER-LIGAND FREE ENERGY PREDICTED BY IDOCK:   -5.70 KCAL/MOL
REMARK 924 INTRA-LIGAND FREE ENERGY PREDICTED BY IDOCK:   -0.43 KCAL/MOL
REMARK 927      BINDING AFFINITY PREDICTED BY RF-SCORE:    0.00 PKD
ROOT
HETATM    1  O   UNL     1      -8.380   5.560  73.276  1.00  0.00    -0.117 OA 
HETATM    2  C   UNL     1      -8.470   5.931  71.982  1.00  0.00    -0.125 C  
HETATM    3  C   UNL     1      -9.519   6.949  71.676  1.00  0.00    -0.157 A  
HETATM    4  O   UNL     1      -7.742   5.462  71.121  1.00  0.00    -0.097 OA 
HETATM    5  C   UNL     1      -9.641   7.369  70.336  1.00  0.00    -0.165 A  
HETATM    6  C   UNL     1     -10.589   8.333  69.959  1.00  0.00    -0.235 A  
HETATM    7  C   UNL     1     -11.418   8.868  70.952  1.00  0.00    -0.339 A  
HETATM    8  C   UNL     1     -10.362   7.511  72.643  1.00  0.00    -0.259 A  
HETATM    9  H   UNL     1     -10.826   7.520  74.614  1.00  0.00     0.000 HD 
HETATM   10  C   UNL     1     -11.315   8.464  72.286  1.00  0.00    -0.448 A  
HETATM   11  O   UNL     1     -10.254   7.138  73.958  1.00  0.00    -0.342 OA 
ENDROOT
BRANCH   6  12
HETATM   12  N   UNL     1     -10.712   8.868  68.659  1.00  0.00    -0.399 NA 
HETATM   13  H   UNL     1     -11.533   8.721  68.070  1.00  0.00     0.000 HD 
BRANCH  12  14
HETATM   14  N   UNL     1      -9.724   9.539  68.297  1.00  0.00    -0.145 NA 
HETATM   15  H   UNL     1      -8.764   9.196  68.323  1.00  0.00     0.000 HD 
BRANCH  14  16
HETATM   16  C   UNL     1     -10.091  10.829  67.847  1.00  0.00    -0.172 A  
HETATM   17  C   UNL     1     -11.026  13.011  68.405  1.00  0.00    -0.288 A  
HETATM   18  C   UNL     1     -10.584  11.741  68.788  1.00  0.00    -0.234 A  
HETATM   19  C   UNL     1     -10.989  13.380  67.061  1.00  0.00    -0.287 A  
HETATM   20  C   UNL     1     -10.498  12.496  66.093  1.00  0.00    -0.272 A  
HETATM   21  O   UNL     1     -11.448  14.620  66.693  1.00  0.00    -0.351 OA 
HETATM   22  C   UNL     1     -10.420  12.810  64.636  1.00  0.00    -0.350 C  
HETATM   23  C   UNL     1     -10.055  11.223  66.500  1.00  0.00    -0.256 A  
HETATM   24  H   UNL     1     -11.423  14.871  65.777  1.00  0.00     0.000 HD 
HETATM   25  O   UNL     1     -10.898  14.020  64.276  1.00  0.00    -0.313 OA 
HETATM   26  O   UNL     1      -9.960  12.026  63.821  1.00  0.00    -0.349 OA 
ENDBRANCH  14  16
ENDBRANCH  12  14
ENDBRANCH   6  12
TORSDOF 3
ENDMDL
MODEL      209
REMARK 921   NORMALIZED FREE ENERGY PREDICTED BY IDOCK:   -4.89 KCAL/MOL
REMARK 922        TOTAL FREE ENERGY PREDICTED BY IDOCK:   -6.11 KCAL/MOL
REMARK 923 INTER-LIGAND FREE ENERGY PREDICTED BY IDOCK:   -5.64 KCAL/MOL
REMARK 924 INTRA-LIGAND FREE ENERGY PREDICTED BY IDOCK:   -0.47 KCAL/MOL
REMARK 927      BINDING AFFINITY PREDICTED BY RF-SCORE:    0.00 PKD
ROOT
HETATM    1  O   UNL     1      -8.607   8.450  73.213  1.00  0.00    -0.303 OA 
HETATM    2  C   UNL     1      -9.674   8.604  72.401  1.00  0.00    -0.243 C  
HETATM    3  C   UNL     1      -9.363   9.024  71.003  1.00  0.00    -0.339 A  
HETATM    4  O   UNL     1     -10.816   8.413  72.788  1.00  0.00    -0.312 OA 
HETATM    5  C   UNL     1     -10.448   9.189  70.119  1.00  0.00    -0.249 A  
HETATM    6  C   UNL     1     -10.249   9.568  68.782  1.00  0.00    -0.198 A  
HETATM    7  C   UNL     1      -8.936   9.782  68.346  1.00  0.00    -0.123 A  
HETATM    8  C   UNL     1      -8.062   9.241  70.527  1.00  0.00    -0.174 A  
HETATM    9  H   UNL     1      -6.102   9.216  71.034  1.00  0.00     0.000 HD 
HETATM   10  C   UNL     1      -7.845   9.625  69.205  1.00  0.00    -0.098 A  
HETATM   11  O   UNL     1      -6.984   9.069  71.357  1.00  0.00    -0.124 OA 
ENDROOT
BRANCH   6  12
HETATM   12  N   UNL     1     -11.274   9.668  67.817  1.00  0.00    -0.471 NA 
HETATM   13  H   UNL     1     -11.379   9.010  67.045  1.00  0.00     0.000 HD 
BRANCH  12  14
HETATM   14  N   UNL     1     -12.039  10.636  67.998  1.00  0.00    -0.575 NA 
HETATM   15  H   UNL     1     -12.957  10.563  68.436  1.00  0.00     0.000 HD 
BRANCH  14  16
HETATM   16  C   UNL     1     -11.485  11.849  67.526  1.00  0.00    -0.326 A  
HETATM   17  C   UNL     1     -10.826  13.196  65.602  1.00  0.00    -0.294 A  
HETATM   18  C   UNL     1     -11.420  12.051  66.142  1.00  0.00    -0.401 A  
HETATM   19  C   UNL     1     -10.277  14.156  66.451  1.00  0.00    -0.290 A  
HETATM   20  C   UNL     1     -10.328  13.990  67.840  1.00  0.00    -0.239 A  
HETATM   21  O   UNL     1      -9.675  15.264  65.910  1.00  0.00    -0.310 OA 
HETATM   22  C   UNL     1      -9.768  14.968  68.820  1.00  0.00    -0.227 C  
HETATM   23  C   UNL     1     -10.932  12.832  68.363  1.00  0.00    -0.281 A  
HETATM   24  H   UNL     1      -9.300  15.918  66.488  1.00  0.00     0.000 HD 
HETATM   25  O   UNL     1      -9.154  16.042  68.282  1.00  0.00    -0.185 OA 
HETATM   26  O   UNL     1      -9.854  14.806  70.027  1.00  0.00     0.124 OA 
ENDBRANCH  14  16
ENDBRANCH  12  14
ENDBRANCH   6  12
TORSDOF 3
ENDMDL
MODEL      210
REMARK 921   NORMALIZED FREE ENERGY PREDICTED BY IDOCK:   -4.88 KCAL/MOL
REMARK 922        TOTAL FREE ENERGY PREDICTED BY IDOCK:   -6.10 KCAL/MOL
REMARK 923 INTER-LIGAND FREE ENERGY PREDICTED BY IDOCK:   -5.66 KCAL/MOL
REMARK 924 INTRA-LIGAND FREE ENERGY PREDICTED BY IDOCK:   -0.44 KCAL/MOL
REMARK 927      BINDING AFFINITY PREDICTED BY RF-SCORE:    0.00 PKD
ROOT
HETATM    1  O   UNL     1      -9.243   5.675  74.374  1.00  0.00    -0.121 OA 
HETATM    2  C   UNL     1      -9.275   6.917  73.848  1.00  0.00    -0.199 C  
HETATM    3  C   UNL     1      -9.919   7.030  72.505  1.00  0.00    -0.191 A  
HETATM    4  O   UNL     1      -8.806   7.881  74.432  1.00  0.00    -0.174 OA 
HETATM    5  C   UNL     1      -9.979   8.312  71.923  1.00  0.00    -0.299 A  
HETATM    6  C   UNL     1     -10.580   8.515  70.671  1.00  0.00    -0.209 A  
HETATM    7  C   UNL     1     -11.117   7.405  70.008  1.00  0.00    -0.238 A  
HETATM    8  C   UNL     1     -10.473   5.944  71.815  1.00  0.00    -0.227 A  
HETATM    9  H   UNL     1     -10.825   3.952  71.896  1.00  0.00     0.000 HD 
HETATM   10  C   UNL     1     -11.067   6.126  70.567  1.00  0.00    -0.405 A  
HETATM   11  O   UNL     1     -10.448   4.688  72.365  1.00  0.00    -0.197 OA 
ENDROOT
BRANCH   6  12
HETATM   12  N   UNL     1     -10.757   9.777  70.063  1.00  0.00    -0.261 NA 
HETATM   13  H   UNL     1     -10.253  10.614  70.357  1.00  0.00     0.000 HD 
BRANCH  12  14
HETATM   14  N   UNL     1     -11.589   9.772  69.133  1.00  0.00    -0.457 NA 
HETATM   15  H   UNL     1     -12.532   9.394  69.215  1.00  0.00     0.000 HD 
BRANCH  14  16
HETATM   16  C   UNL     1     -11.071  10.352  67.952  1.00  0.00    -0.299 A  
HETATM   17  C   UNL     1     -11.166  12.191  66.352  1.00  0.00    -0.380 A  
HETATM   18  C   UNL     1     -11.584  11.589  67.543  1.00  0.00    -0.322 A  
HETATM   19  C   UNL     1     -10.229  11.548  65.544  1.00  0.00    -0.258 A  
HETATM   20  C   UNL     1      -9.690  10.313  65.923  1.00  0.00    -0.283 A  
HETATM   21  O   UNL     1      -9.844  12.137  64.365  1.00  0.00    -0.424 OA 
HETATM   22  C   UNL     1      -8.682   9.559  65.121  1.00  0.00    -0.172 C  
HETATM   23  C   UNL     1     -10.122   9.725  67.127  1.00  0.00    -0.267 A  
HETATM   24  H   UNL     1      -9.205  11.698  63.815  1.00  0.00     0.000 HD 
HETATM   25  O   UNL     1      -8.328  10.128  63.950  1.00  0.00    -0.157 OA 
HETATM   26  O   UNL     1      -8.212   8.496  65.494  1.00  0.00    -0.121 OA 
ENDBRANCH  14  16
ENDBRANCH  12  14
ENDBRANCH   6  12
TORSDOF 3
ENDMDL
MODEL      211
REMARK 921   NORMALIZED FREE ENERGY PREDICTED BY IDOCK:   -4.85 KCAL/MOL
REMARK 922        TOTAL FREE ENERGY PREDICTED BY IDOCK:   -6.06 KCAL/MOL
REMARK 923 INTER-LIGAND FREE ENERGY PREDICTED BY IDOCK:   -5.60 KCAL/MOL
REMARK 924 INTRA-LIGAND FREE ENERGY PREDICTED BY IDOCK:   -0.46 KCAL/MOL
REMARK 927      BINDING AFFINITY PREDICTED BY RF-SCORE:    0.00 PKD
ROOT
HETATM    1  O   UNL     1     -10.153  18.105  67.129  1.00  0.00    -0.320 OA 
HETATM    2  C   UNL     1     -10.404  17.091  67.983  1.00  0.00    -0.341 C  
HETATM    3  C   UNL     1     -10.749  15.785  67.347  1.00  0.00    -0.317 A  
HETATM    4  O   UNL     1     -10.352  17.236  69.194  1.00  0.00    -0.330 OA 
HETATM    5  C   UNL     1     -11.011  14.697  68.204  1.00  0.00    -0.269 A  
HETATM    6  C   UNL     1     -11.329  13.429  67.695  1.00  0.00    -0.290 A  
HETATM    7  C   UNL     1     -11.384  13.271  66.304  1.00  0.00    -0.336 A  
HETATM    8  C   UNL     1     -10.807  15.586  65.961  1.00  0.00    -0.300 A  
HETATM    9  H   UNL     1     -10.577  16.485  64.162  1.00  0.00     0.000 HD 
HETATM   10  C   UNL     1     -11.129  14.336  65.437  1.00  0.00    -0.327 A  
HETATM   11  O   UNL     1     -10.538  16.620  65.101  1.00  0.00    -0.645 OA 
ENDROOT
BRANCH   6  12
HETATM   12  N   UNL     1     -11.517  12.273  68.483  1.00  0.00    -0.277 NA 
HETATM   13  H   UNL     1     -12.058  12.270  69.348  1.00  0.00     0.000 HD 
BRANCH  12  14
HETATM   14  N   UNL     1     -10.959  11.257  68.022  1.00  0.00    -0.228 NA 
HETATM   15  H   UNL     1     -10.955  11.009  67.033  1.00  0.00     0.000 HD 
BRANCH  14  16
HETATM   16  C   UNL     1     -10.333  10.489  69.031  1.00  0.00    -0.213 A  
HETATM   17  C   UNL     1     -10.592   8.902  70.865  1.00  0.00    -0.295 A  
HETATM   18  C   UNL     1     -11.132   9.641  69.809  1.00  0.00    -0.247 A  
HETATM   19  C   UNL     1      -9.235   9.012  71.164  1.00  0.00    -0.256 A  
HETATM   20  C   UNL     1      -8.404   9.845  70.406  1.00  0.00     0.016 A  
HETATM   21  O   UNL     1      -8.720   8.300  72.219  1.00  0.00    -0.163 OA 
HETATM   22  C   UNL     1      -6.942  10.020  70.655  1.00  0.00    -0.020 C  
HETATM   23  C   UNL     1      -8.966  10.580  69.345  1.00  0.00    -0.111 A  
HETATM   24  H   UNL     1      -7.796   8.376  72.423  1.00  0.00     0.000 HD 
HETATM   25  O   UNL     1      -6.448   9.340  71.710  1.00  0.00    -0.241 OA 
HETATM   26  O   UNL     1      -6.241  10.734  69.957  1.00  0.00    -0.087 OA 
ENDBRANCH  14  16
ENDBRANCH  12  14
ENDBRANCH   6  12
TORSDOF 3
ENDMDL
MODEL      212
REMARK 921   NORMALIZED FREE ENERGY PREDICTED BY IDOCK:   -4.84 KCAL/MOL
REMARK 922        TOTAL FREE ENERGY PREDICTED BY IDOCK:   -6.06 KCAL/MOL
REMARK 923 INTER-LIGAND FREE ENERGY PREDICTED BY IDOCK:   -5.64 KCAL/MOL
REMARK 924 INTRA-LIGAND FREE ENERGY PREDICTED BY IDOCK:   -0.42 KCAL/MOL
REMARK 927      BINDING AFFINITY PREDICTED BY RF-SCORE:    0.00 PKD
ROOT
HETATM    1  O   UNL     1      -9.967  12.111  63.104  1.00  0.00    -0.393 OA 
HETATM    2  C   UNL     1      -9.863  11.186  64.081  1.00  0.00    -0.291 C  
HETATM    3  C   UNL     1     -10.402  11.593  65.412  1.00  0.00    -0.313 A  
HETATM    4  O   UNL     1      -9.361  10.090  63.885  1.00  0.00    -0.265 OA 
HETATM    5  C   UNL     1     -10.320  10.653  66.459  1.00  0.00    -0.299 A  
HETATM    6  C   UNL     1     -10.814  10.944  67.740  1.00  0.00    -0.259 A  
HETATM    7  C   UNL     1     -11.391  12.202  67.955  1.00  0.00    -0.361 A  
HETATM    8  C   UNL     1     -10.991  12.839  65.664  1.00  0.00    -0.273 A  
HETATM    9  H   UNL     1     -11.504  14.613  64.833  1.00  0.00     0.000 HD 
HETATM   10  C   UNL     1     -11.480  13.149  66.932  1.00  0.00    -0.384 A  
HETATM   11  O   UNL     1     -11.104  13.768  64.661  1.00  0.00    -0.357 OA 
ENDROOT
BRANCH   6  12
HETATM   12  N   UNL     1     -10.848  10.027  68.812  1.00  0.00    -0.229 NA 
HETATM   13  H   UNL     1     -10.591  10.275  69.768  1.00  0.00     0.000 HD 
BRANCH  12  14
HETATM   14  N   UNL     1     -11.222   8.884  68.481  1.00  0.00    -0.306 NA 
HETATM   15  H   UNL     1     -11.958   8.701  67.799  1.00  0.00     0.000 HD 
BRANCH  14  16
HETATM   16  C   UNL     1     -10.507   7.870  69.161  1.00  0.00    -0.209 A  
HETATM   17  C   UNL     1      -9.921   5.506  69.298  1.00  0.00    -0.263 A  
HETATM   18  C   UNL     1     -10.550   6.570  68.644  1.00  0.00    -0.289 A  
HETATM   19  C   UNL     1      -9.245   5.735  70.496  1.00  0.00    -0.147 A  
HETATM   20  C   UNL     1      -9.177   7.023  71.041  1.00  0.00    -0.155 A  
HETATM   21  O   UNL     1      -8.652   4.679  71.143  1.00  0.00    -0.107 OA 
HETATM   22  C   UNL     1      -8.473   7.355  72.315  1.00  0.00    -0.112 C  
HETATM   23  C   UNL     1      -9.815   8.080  70.365  1.00  0.00    -0.183 A  
HETATM   24  H   UNL     1      -8.192   4.835  71.960  1.00  0.00     0.000 HD 
HETATM   25  O   UNL     1      -7.915   6.310  72.961  1.00  0.00    -0.107 OA 
HETATM   26  O   UNL     1      -8.409   8.495  72.748  1.00  0.00    -0.335 OA 
ENDBRANCH  14  16
ENDBRANCH  12  14
ENDBRANCH   6  12
TORSDOF 3
ENDMDL
MODEL      213
REMARK 921   NORMALIZED FREE ENERGY PREDICTED BY IDOCK:   -4.84 KCAL/MOL
REMARK 922        TOTAL FREE ENERGY PREDICTED BY IDOCK:   -6.06 KCAL/MOL
REMARK 923 INTER-LIGAND FREE ENERGY PREDICTED BY IDOCK:   -5.55 KCAL/MOL
REMARK 924 INTRA-LIGAND FREE ENERGY PREDICTED BY IDOCK:   -0.50 KCAL/MOL
REMARK 927      BINDING AFFINITY PREDICTED BY RF-SCORE:    0.00 PKD
ROOT
HETATM    1  O   UNL     1      -5.347  21.252  66.045  1.00  0.00    -0.208 OA 
HETATM    2  C   UNL     1      -6.369  20.451  65.675  1.00  0.00    -0.235 C  
HETATM    3  C   UNL     1      -7.116  19.805  66.794  1.00  0.00    -0.238 A  
HETATM    4  O   UNL     1      -6.658  20.270  64.503  1.00  0.00    -0.278 OA 
HETATM    5  C   UNL     1      -8.196  18.966  66.451  1.00  0.00    -0.306 A  
HETATM    6  C   UNL     1      -8.965  18.328  67.437  1.00  0.00    -0.257 A  
HETATM    7  C   UNL     1      -8.628  18.544  68.779  1.00  0.00    -0.266 A  
HETATM    8  C   UNL     1      -6.814  20.001  68.148  1.00  0.00    -0.294 A  
HETATM    9  H   UNL     1      -5.578  20.962  69.433  1.00  0.00     0.000 HD 
HETATM   10  C   UNL     1      -7.561  19.370  69.141  1.00  0.00    -0.316 A  
HETATM   11  O   UNL     1      -5.783  20.828  68.514  1.00  0.00    -0.291 OA 
ENDROOT
BRANCH   6  12
HETATM   12  N   UNL     1     -10.111  17.546  67.177  1.00  0.00    -0.310 NA 
HETATM   13  H   UNL     1     -11.000  17.683  67.658  1.00  0.00     0.000 HD 
BRANCH  12  14
HETATM   14  N   UNL     1      -9.933  16.672  66.305  1.00  0.00    -0.303 NA 
HETATM   15  H   UNL     1      -9.670  16.875  65.341  1.00  0.00     0.000 HD 
BRANCH  14  16
HETATM   16  C   UNL     1     -10.140  15.366  66.809  1.00  0.00    -0.262 A  
HETATM   17  C   UNL     1     -11.738  13.669  67.526  1.00  0.00    -0.406 A  
HETATM   18  C   UNL     1     -11.457  14.922  66.973  1.00  0.00    -0.333 A  
HETATM   19  C   UNL     1     -10.691  12.844  67.934  1.00  0.00    -0.220 A  
HETATM   20  C   UNL     1      -9.361  13.252  67.781  1.00  0.00    -0.209 A  
HETATM   21  O   UNL     1     -10.978  11.626  68.499  1.00  0.00    -0.193 OA 
HETATM   22  C   UNL     1      -8.182  12.432  68.188  1.00  0.00    -0.173 C  
HETATM   23  C   UNL     1      -9.100  14.516  67.220  1.00  0.00    -0.217 A  
HETATM   24  H   UNL     1     -10.265  11.064  68.777  1.00  0.00     0.000 HD 
HETATM   25  O   UNL     1      -8.470  11.248  68.767  1.00  0.00    -0.155 OA 
HETATM   26  O   UNL     1      -7.033  12.807  68.015  1.00  0.00    -0.083 OA 
ENDBRANCH  14  16
ENDBRANCH  12  14
ENDBRANCH   6  12
TORSDOF 3
ENDMDL
MODEL      214
REMARK 921   NORMALIZED FREE ENERGY PREDICTED BY IDOCK:   -4.84 KCAL/MOL
REMARK 922        TOTAL FREE ENERGY PREDICTED BY IDOCK:   -6.05 KCAL/MOL
REMARK 923 INTER-LIGAND FREE ENERGY PREDICTED BY IDOCK:   -5.69 KCAL/MOL
REMARK 924 INTRA-LIGAND FREE ENERGY PREDICTED BY IDOCK:   -0.36 KCAL/MOL
REMARK 927      BINDING AFFINITY PREDICTED BY RF-SCORE:    0.00 PKD
ROOT
HETATM    1  O   UNL     1      -6.582  10.728  66.139  1.00  0.00    -0.121 OA 
HETATM    2  C   UNL     1      -7.816  10.462  66.618  1.00  0.00    -0.120 C  
HETATM    3  C   UNL     1      -8.462  11.570  67.382  1.00  0.00    -0.147 A  
HETATM    4  O   UNL     1      -8.363   9.386  66.437  1.00  0.00    -0.113 OA 
HETATM    5  C   UNL     1      -9.754  11.337  67.893  1.00  0.00    -0.185 A  
HETATM    6  C   UNL     1     -10.444  12.326  68.611  1.00  0.00    -0.208 A  
HETATM    7  C   UNL     1      -9.810  13.558  68.811  1.00  0.00    -0.050 A  
HETATM    8  C   UNL     1      -7.862  12.819  67.597  1.00  0.00    -0.165 A  
HETATM    9  H   UNL     1      -6.208  13.930  67.241  1.00  0.00     0.000 HD 
HETATM   10  C   UNL     1      -8.529  13.811  68.314  1.00  0.00    -0.173 A  
HETATM   11  O   UNL     1      -6.614  13.084  67.095  1.00  0.00    -0.184 OA 
ENDROOT
BRANCH   6  12
HETATM   12  N   UNL     1     -11.770  12.200  69.077  1.00  0.00    -0.306 NA 
HETATM   13  H   UNL     1     -12.578  12.154  68.455  1.00  0.00     0.000 HD 
BRANCH  12  14
HETATM   14  N   UNL     1     -11.860  12.148  70.320  1.00  0.00    -0.515 NA 
HETATM   15  H   UNL     1     -11.840  12.968  70.927  1.00  0.00     0.000 HD 
BRANCH  14  16
HETATM   16  C   UNL     1     -11.994  10.821  70.790  1.00  0.00    -0.362 A  
HETATM   17  C   UNL     1     -13.409   9.159  71.880  1.00  0.00    -0.490 A  
HETATM   18  C   UNL     1     -13.224  10.434  71.337  1.00  0.00    -0.459 A  
HETATM   19  C   UNL     1     -12.350   8.253  71.891  1.00  0.00    -0.338 A  
HETATM   20  C   UNL     1     -11.107   8.602  71.350  1.00  0.00    -0.343 A  
HETATM   21  O   UNL     1     -12.535   7.012  72.449  1.00  0.00    -0.506 OA 
HETATM   22  C   UNL     1      -9.923   7.694  71.319  1.00  0.00    -0.179 C  
HETATM   23  C   UNL     1     -10.943   9.890  70.806  1.00  0.00    -0.407 A  
HETATM   24  H   UNL     1     -11.813   6.395  72.457  1.00  0.00     0.000 HD 
HETATM   25  O   UNL     1     -10.102   6.486  71.893  1.00  0.00    -0.183 OA 
HETATM   26  O   UNL     1      -8.861   8.021  70.813  1.00  0.00    -0.135 OA 
ENDBRANCH  14  16
ENDBRANCH  12  14
ENDBRANCH   6  12
TORSDOF 3
ENDMDL
MODEL      215
REMARK 921   NORMALIZED FREE ENERGY PREDICTED BY IDOCK:   -4.83 KCAL/MOL
REMARK 922        TOTAL FREE ENERGY PREDICTED BY IDOCK:   -6.04 KCAL/MOL
REMARK 923 INTER-LIGAND FREE ENERGY PREDICTED BY IDOCK:   -5.82 KCAL/MOL
REMARK 924 INTRA-LIGAND FREE ENERGY PREDICTED BY IDOCK:   -0.21 KCAL/MOL
REMARK 927      BINDING AFFINITY PREDICTED BY RF-SCORE:    0.00 PKD
ROOT
HETATM    1  O   UNL     1     -12.314  11.282  68.871  1.00  0.00    -0.485 OA 
HETATM    2  C   UNL     1     -11.320  10.380  69.003  1.00  0.00    -0.219 C  
HETATM    3  C   UNL     1     -11.369   9.544  70.239  1.00  0.00    -0.284 A  
HETATM    4  O   UNL     1     -10.440  10.258  68.165  1.00  0.00    -0.167 OA 
HETATM    5  C   UNL     1     -10.353   8.583  70.412  1.00  0.00    -0.222 A  
HETATM    6  C   UNL     1     -10.327   7.744  71.537  1.00  0.00    -0.193 A  
HETATM    7  C   UNL     1     -11.342   7.888  72.491  1.00  0.00    -0.449 A  
HETATM    8  C   UNL     1     -12.371   9.654  71.213  1.00  0.00    -0.360 A  
HETATM    9  H   UNL     1     -14.064  10.640  71.723  1.00  0.00     0.000 HD 
HETATM   10  C   UNL     1     -12.358   8.835  72.340  1.00  0.00    -0.414 A  
HETATM   11  O   UNL     1     -13.385  10.566  71.063  1.00  0.00    -0.306 OA 
ENDROOT
BRANCH   6  12
HETATM   12  N   UNL     1      -9.397   6.702  71.737  1.00  0.00    -0.149 NA 
HETATM   13  H   UNL     1      -8.390   6.856  71.794  1.00  0.00     0.000 HD 
BRANCH  12  14
HETATM   14  N   UNL     1      -9.922   5.575  71.838  1.00  0.00    -0.175 NA 
HETATM   15  H   UNL     1     -10.327   5.210  72.700  1.00  0.00     0.000 HD 
BRANCH  14  16
HETATM   16  C   UNL     1      -9.890   4.860  70.618  1.00  0.00    -0.219 A  
HETATM   17  C   UNL     1      -9.277   2.806  69.454  1.00  0.00    -0.208 A  
HETATM   18  C   UNL     1      -9.399   3.549  70.632  1.00  0.00    -0.230 A  
HETATM   19  C   UNL     1      -9.640   3.378  68.235  1.00  0.00    -0.083 A  
HETATM   20  C   UNL     1     -10.140   4.685  68.183  1.00  0.00    -0.072 A  
HETATM   21  O   UNL     1      -9.494   2.649  67.081  1.00  0.00    -0.371 OA 
HETATM   22  C   UNL     1     -10.554   5.372  66.924  1.00  0.00    -0.250 C  
HETATM   23  C   UNL     1     -10.256   5.415  69.380  1.00  0.00    -0.334 A  
HETATM   24  H   UNL     1      -9.741   3.039  66.251  1.00  0.00     0.000 HD 
HETATM   25  O   UNL     1     -10.383   4.661  65.790  1.00  0.00    -0.261 OA 
HETATM   26  O   UNL     1     -11.013   6.504  66.916  1.00  0.00    -0.373 OA 
ENDBRANCH  14  16
ENDBRANCH  12  14
ENDBRANCH   6  12
TORSDOF 3
ENDMDL
MODEL      216
REMARK 921   NORMALIZED FREE ENERGY PREDICTED BY IDOCK:   -4.79 KCAL/MOL
REMARK 922        TOTAL FREE ENERGY PREDICTED BY IDOCK:   -6.00 KCAL/MOL
REMARK 923 INTER-LIGAND FREE ENERGY PREDICTED BY IDOCK:   -5.55 KCAL/MOL
REMARK 924 INTRA-LIGAND FREE ENERGY PREDICTED BY IDOCK:   -0.44 KCAL/MOL
REMARK 927      BINDING AFFINITY PREDICTED BY RF-SCORE:    0.00 PKD
ROOT
HETATM    1  O   UNL     1     -11.727  14.824  66.464  1.00  0.00    -0.350 OA 
HETATM    2  C   UNL     1     -11.422  13.527  66.254  1.00  0.00    -0.326 C  
HETATM    3  C   UNL     1     -11.462  12.653  67.464  1.00  0.00    -0.397 A  
HETATM    4  O   UNL     1     -11.132  13.100  65.148  1.00  0.00    -0.280 OA 
HETATM    5  C   UNL     1     -11.158  11.288  67.288  1.00  0.00    -0.367 A  
HETATM    6  C   UNL     1     -11.185  10.390  68.366  1.00  0.00    -0.258 A  
HETATM    7  C   UNL     1     -11.521  10.888  69.631  1.00  0.00    -0.377 A  
HETATM    8  C   UNL     1     -11.800  13.112  68.745  1.00  0.00    -0.324 A  
HETATM    9  H   UNL     1     -12.350  14.742  69.813  1.00  0.00     0.000 HD 
HETATM   10  C   UNL     1     -11.825  12.237  69.829  1.00  0.00    -0.388 A  
HETATM   11  O   UNL     1     -12.121  14.431  68.945  1.00  0.00    -0.311 OA 
ENDROOT
BRANCH   6  12
HETATM   12  N   UNL     1     -10.979   8.998  68.254  1.00  0.00    -0.475 NA 
HETATM   13  H   UNL     1     -10.725   8.407  69.046  1.00  0.00     0.000 HD 
BRANCH  12  14
HETATM   14  N   UNL     1     -11.137   8.561  67.097  1.00  0.00    -0.236 NA 
HETATM   15  H   UNL     1     -11.988   8.692  66.550  1.00  0.00     0.000 HD 
BRANCH  14  16
HETATM   16  C   UNL     1     -10.000   7.860  66.632  1.00  0.00    -0.246 A  
HETATM   17  C   UNL     1      -7.861   7.959  65.464  1.00  0.00    -0.112 A  
HETATM   18  C   UNL     1      -8.983   8.592  66.006  1.00  0.00    -0.228 A  
HETATM   19  C   UNL     1      -7.749   6.571  65.534  1.00  0.00    -0.097 A  
HETATM   20  C   UNL     1      -8.743   5.807  66.156  1.00  0.00    -0.139 A  
HETATM   21  O   UNL     1      -6.654   5.957  64.977  1.00  0.00    -0.041 OA 
HETATM   22  C   UNL     1      -8.701   4.319  66.278  1.00  0.00    -0.114 C  
HETATM   23  C   UNL     1      -9.864   6.464  66.698  1.00  0.00    -0.203 A  
HETATM   24  H   UNL     1      -6.578   5.011  65.025  1.00  0.00     0.000 HD 
HETATM   25  O   UNL     1      -7.637   3.719  65.705  1.00  0.00    -0.079 OA 
HETATM   26  O   UNL     1      -9.573   3.685  66.852  1.00  0.00    -0.205 OA 
ENDBRANCH  14  16
ENDBRANCH  12  14
ENDBRANCH   6  12
TORSDOF 3
ENDMDL
MODEL      217
REMARK 921   NORMALIZED FREE ENERGY PREDICTED BY IDOCK:   -4.78 KCAL/MOL
REMARK 922        TOTAL FREE ENERGY PREDICTED BY IDOCK:   -5.98 KCAL/MOL
REMARK 923 INTER-LIGAND FREE ENERGY PREDICTED BY IDOCK:   -5.48 KCAL/MOL
REMARK 924 INTRA-LIGAND FREE ENERGY PREDICTED BY IDOCK:   -0.50 KCAL/MOL
REMARK 927      BINDING AFFINITY PREDICTED BY RF-SCORE:    0.00 PKD
ROOT
HETATM    1  O   UNL     1      -5.353  14.523  67.366  1.00  0.00    -0.334 OA 
HETATM    2  C   UNL     1      -6.626  14.311  67.761  1.00  0.00    -0.174 C  
HETATM    3  C   UNL     1      -7.165  12.946  67.487  1.00  0.00    -0.149 A  
HETATM    4  O   UNL     1      -7.289  15.179  68.306  1.00  0.00    -0.105 OA 
HETATM    5  C   UNL     1      -8.489  12.680  67.892  1.00  0.00    -0.173 A  
HETATM    6  C   UNL     1      -9.074  11.420  67.688  1.00  0.00    -0.155 A  
HETATM    7  C   UNL     1      -8.305  10.429  67.066  1.00  0.00    -0.127 A  
HETATM    8  C   UNL     1      -6.426  11.926  66.873  1.00  0.00    -0.095 A  
HETATM    9  H   UNL     1      -4.627  11.456  66.071  1.00  0.00     0.000 HD 
HETATM   10  C   UNL     1      -6.992  10.671  66.656  1.00  0.00    -0.119 A  
HETATM   11  O   UNL     1      -5.128  12.147  66.487  1.00  0.00    -0.337 OA 
ENDROOT
BRANCH   6  12
HETATM   12  N   UNL     1     -10.358  11.051  68.142  1.00  0.00    -0.176 NA 
HETATM   13  H   UNL     1     -11.052  11.726  68.464  1.00  0.00     0.000 HD 
BRANCH  12  14
HETATM   14  N   UNL     1     -10.565   9.821  68.113  1.00  0.00    -0.220 NA 
HETATM   15  H   UNL     1     -10.421   9.239  67.288  1.00  0.00     0.000 HD 
BRANCH  14  16
HETATM   16  C   UNL     1     -11.021   9.327  69.357  1.00  0.00    -0.120 A  
HETATM   17  C   UNL     1     -11.992   9.832  71.538  1.00  0.00    -0.488 A  
HETATM   18  C   UNL     1     -11.579  10.237  70.265  1.00  0.00    -0.396 A  
HETATM   19  C   UNL     1     -11.839   8.501  71.923  1.00  0.00    -0.341 A  
HETATM   20  C   UNL     1     -11.290   7.562  71.041  1.00  0.00    -0.292 A  
HETATM   21  O   UNL     1     -12.225   8.119  73.184  1.00  0.00    -0.645 OA 
HETATM   22  C   UNL     1     -11.094   6.120  71.371  1.00  0.00    -0.288 C  
HETATM   23  C   UNL     1     -10.883   7.990  69.764  1.00  0.00    -0.194 A  
HETATM   24  H   UNL     1     -12.121   7.212  73.447  1.00  0.00     0.000 HD 
HETATM   25  O   UNL     1     -11.450   5.756  72.621  1.00  0.00    -0.296 OA 
HETATM   26  O   UNL     1     -10.638   5.321  70.568  1.00  0.00    -0.262 OA 
ENDBRANCH  14  16
ENDBRANCH  12  14
ENDBRANCH   6  12
TORSDOF 3
ENDMDL
MODEL      218
REMARK 921   NORMALIZED FREE ENERGY PREDICTED BY IDOCK:   -4.78 KCAL/MOL
REMARK 922        TOTAL FREE ENERGY PREDICTED BY IDOCK:   -5.98 KCAL/MOL
REMARK 923 INTER-LIGAND FREE ENERGY PREDICTED BY IDOCK:   -5.64 KCAL/MOL
REMARK 924 INTRA-LIGAND FREE ENERGY PREDICTED BY IDOCK:   -0.34 KCAL/MOL
REMARK 927      BINDING AFFINITY PREDICTED BY RF-SCORE:    0.00 PKD
ROOT
HETATM    1  O   UNL     1      -6.850   3.446  65.044  1.00  0.00    -0.043 OA 
HETATM    2  C   UNL     1      -6.713   4.781  64.901  1.00  0.00    -0.045 C  
HETATM    3  C   UNL     1      -7.819   5.605  65.473  1.00  0.00    -0.100 A  
HETATM    4  O   UNL     1      -5.750   5.278  64.339  1.00  0.00    -0.016 OA 
HETATM    5  C   UNL     1      -7.712   7.005  65.352  1.00  0.00    -0.111 A  
HETATM    6  C   UNL     1      -8.696   7.859  65.873  1.00  0.00    -0.154 A  
HETATM    7  C   UNL     1      -9.797   7.281  66.518  1.00  0.00    -0.202 A  
HETATM    8  C   UNL     1      -8.932   5.064  66.131  1.00  0.00    -0.131 A  
HETATM    9  H   UNL     1      -9.809   3.340  66.729  1.00  0.00     0.000 HD 
HETATM   10  C   UNL     1      -9.923   5.896  66.648  1.00  0.00    -0.214 A  
HETATM   11  O   UNL     1      -9.054   3.707  66.283  1.00  0.00    -0.136 OA 
ENDROOT
BRANCH   6  12
HETATM   12  N   UNL     1      -8.618   9.268  65.869  1.00  0.00    -0.141 NA 
HETATM   13  H   UNL     1      -7.873   9.784  65.400  1.00  0.00     0.000 HD 
BRANCH  12  14
HETATM   14  N   UNL     1      -9.545   9.823  66.493  1.00  0.00    -0.182 NA 
HETATM   15  H   UNL     1      -9.759   9.642  67.474  1.00  0.00     0.000 HD 
BRANCH  14  16
HETATM   16  C   UNL     1     -10.266  10.730  65.682  1.00  0.00    -0.257 A  
HETATM   17  C   UNL     1     -10.776  11.516  63.430  1.00  0.00    -0.444 A  
HETATM   18  C   UNL     1     -10.145  10.614  64.292  1.00  0.00    -0.411 A  
HETATM   19  C   UNL     1     -11.533  12.562  63.957  1.00  0.00    -0.409 A  
HETATM   20  C   UNL     1     -11.680  12.707  65.341  1.00  0.00    -0.428 A  
HETATM   21  O   UNL     1     -12.128  13.456  63.102  1.00  0.00    -0.808 OA 
HETATM   22  C   UNL     1     -12.473  13.794  65.989  1.00  0.00    -0.445 C  
HETATM   23  C   UNL     1     -11.039  11.787  66.192  1.00  0.00    -0.358 A  
HETATM   24  H   UNL     1     -12.644  14.168  63.462  1.00  0.00     0.000 HD 
HETATM   25  O   UNL     1     -13.033  14.685  65.145  1.00  0.00    -0.437 OA 
HETATM   26  O   UNL     1     -12.604  13.875  67.200  1.00  0.00    -0.169 OA 
ENDBRANCH  14  16
ENDBRANCH  12  14
ENDBRANCH   6  12
TORSDOF 3
ENDMDL
MODEL      219
REMARK 921   NORMALIZED FREE ENERGY PREDICTED BY IDOCK:   -4.77 KCAL/MOL
REMARK 922        TOTAL FREE ENERGY PREDICTED BY IDOCK:   -5.96 KCAL/MOL
REMARK 923 INTER-LIGAND FREE ENERGY PREDICTED BY IDOCK:   -5.51 KCAL/MOL
REMARK 924 INTRA-LIGAND FREE ENERGY PREDICTED BY IDOCK:   -0.46 KCAL/MOL
REMARK 927      BINDING AFFINITY PREDICTED BY RF-SCORE:    0.00 PKD
ROOT
HETATM    1  O   UNL     1     -10.992  16.198  67.344  1.00  0.00    -0.302 OA 
HETATM    2  C   UNL     1     -10.967  14.911  66.940  1.00  0.00    -0.327 C  
HETATM    3  C   UNL     1     -11.395  13.908  67.961  1.00  0.00    -0.317 A  
HETATM    4  O   UNL     1     -10.617  14.591  65.815  1.00  0.00    -0.291 OA 
HETATM    5  C   UNL     1     -11.390  12.552  67.577  1.00  0.00    -0.368 A  
HETATM    6  C   UNL     1     -11.791  11.542  68.466  1.00  0.00    -0.297 A  
HETATM    7  C   UNL     1     -12.194  11.918  69.754  1.00  0.00    -0.241 A  
HETATM    8  C   UNL     1     -11.811  14.246  69.256  1.00  0.00    -0.330 A  
HETATM    9  H   UNL     1     -12.128  15.787  70.530  1.00  0.00     0.000 HD 
HETATM   10  C   UNL     1     -12.205  13.256  70.155  1.00  0.00    -0.376 A  
HETATM   11  O   UNL     1     -11.846  15.559  69.652  1.00  0.00    -0.325 OA 
ENDROOT
BRANCH   6  12
HETATM   12  N   UNL     1     -11.897  10.176  68.130  1.00  0.00    -0.511 NA 
HETATM   13  H   UNL     1     -12.791   9.698  68.013  1.00  0.00     0.000 HD 
BRANCH  12  14
HETATM   14  N   UNL     1     -10.795   9.608  67.990  1.00  0.00    -0.415 NA 
HETATM   15  H   UNL     1     -10.288   9.559  67.107  1.00  0.00     0.000 HD 
BRANCH  14  16
HETATM   16  C   UNL     1     -10.332   9.039  69.199  1.00  0.00    -0.219 A  
HETATM   17  C   UNL     1     -10.897   7.967  71.316  1.00  0.00    -0.263 A  
HETATM   18  C   UNL     1     -11.275   8.488  70.075  1.00  0.00    -0.086 A  
HETATM   19  C   UNL     1      -9.558   8.003  71.702  1.00  0.00    -0.167 A  
HETATM   20  C   UNL     1      -8.586   8.541  70.851  1.00  0.00    -0.184 A  
HETATM   21  O   UNL     1      -9.201   7.511  72.933  1.00  0.00    -0.143 OA 
HETATM   22  C   UNL     1      -7.132   8.616  71.183  1.00  0.00    -0.081 C  
HETATM   23  C   UNL     1      -8.987   9.058  69.605  1.00  0.00    -0.153 A  
HETATM   24  H   UNL     1      -8.288   7.535  73.195  1.00  0.00     0.000 HD 
HETATM   25  O   UNL     1      -6.791   8.156  72.404  1.00  0.00    -0.074 OA 
HETATM   26  O   UNL     1      -6.306   9.067  70.405  1.00  0.00    -0.038 OA 
ENDBRANCH  14  16
ENDBRANCH  12  14
ENDBRANCH   6  12
TORSDOF 3
ENDMDL
MODEL      220
REMARK 921   NORMALIZED FREE ENERGY PREDICTED BY IDOCK:   -4.76 KCAL/MOL
REMARK 922        TOTAL FREE ENERGY PREDICTED BY IDOCK:   -5.95 KCAL/MOL
REMARK 923 INTER-LIGAND FREE ENERGY PREDICTED BY IDOCK:   -6.10 KCAL/MOL
REMARK 924 INTRA-LIGAND FREE ENERGY PREDICTED BY IDOCK:    0.15 KCAL/MOL
REMARK 927      BINDING AFFINITY PREDICTED BY RF-SCORE:    0.00 PKD
ROOT
HETATM    1  O   UNL     1     -13.390  15.834  70.610  1.00  0.00    -0.486 OA 
HETATM    2  C   UNL     1     -13.070  14.528  70.723  1.00  0.00    -0.306 C  
HETATM    3  C   UNL     1     -12.040  14.033  69.762  1.00  0.00    -0.405 A  
HETATM    4  O   UNL     1     -13.590  13.803  71.557  1.00  0.00    -0.322 OA 
HETATM    5  C   UNL     1     -11.671  12.675  69.851  1.00  0.00    -0.320 A  
HETATM    6  C   UNL     1     -10.701  12.126  68.998  1.00  0.00    -0.121 A  
HETATM    7  C   UNL     1     -10.108  12.966  68.047  1.00  0.00    -0.235 A  
HETATM    8  C   UNL     1     -11.419  14.843  68.802  1.00  0.00    -0.307 A  
HETATM    9  H   UNL     1     -11.321  16.721  68.052  1.00  0.00     0.000 HD 
HETATM   10  C   UNL     1     -10.460  14.313  67.941  1.00  0.00    -0.240 A  
HETATM   11  O   UNL     1     -11.742  16.172  68.703  1.00  0.00    -0.362 OA 
ENDROOT
BRANCH   6  12
HETATM   12  N   UNL     1     -10.216  10.804  69.084  1.00  0.00    -0.228 NA 
HETATM   13  H   UNL     1      -9.398  10.544  69.634  1.00  0.00     0.000 HD 
BRANCH  12  14
HETATM   14  N   UNL     1     -10.883   9.983  68.422  1.00  0.00    -0.278 NA 
HETATM   15  H   UNL     1     -11.701   9.491  68.782  1.00  0.00     0.000 HD 
BRANCH  14  16
HETATM   16  C   UNL     1     -10.372   9.812  67.114  1.00  0.00    -0.248 A  
HETATM   17  C   UNL     1      -8.856   8.594  65.641  1.00  0.00    -0.227 A  
HETATM   18  C   UNL     1      -9.451   8.781  66.893  1.00  0.00    -0.231 A  
HETATM   19  C   UNL     1      -9.172   9.455  64.590  1.00  0.00    -0.122 A  
HETATM   20  C   UNL     1     -10.092  10.494  64.773  1.00  0.00    -0.406 A  
HETATM   21  O   UNL     1      -8.563   9.277  63.373  1.00  0.00    -0.200 OA 
HETATM   22  C   UNL     1     -10.489  11.457  63.703  1.00  0.00    -0.414 C  
HETATM   23  C   UNL     1     -10.681  10.663  66.039  1.00  0.00    -0.127 A  
HETATM   24  H   UNL     1      -8.779   9.864  62.657  1.00  0.00     0.000 HD 
HETATM   25  O   UNL     1      -9.868  11.295  62.516  1.00  0.00    -0.161 OA 
HETATM   26  O   UNL     1     -11.316  12.336  63.888  1.00  0.00    -0.357 OA 
ENDBRANCH  14  16
ENDBRANCH  12  14
ENDBRANCH   6  12
TORSDOF 3
ENDMDL
MODEL      221
REMARK 921   NORMALIZED FREE ENERGY PREDICTED BY IDOCK:   -4.72 KCAL/MOL
REMARK 922        TOTAL FREE ENERGY PREDICTED BY IDOCK:   -5.91 KCAL/MOL
REMARK 923 INTER-LIGAND FREE ENERGY PREDICTED BY IDOCK:   -5.42 KCAL/MOL
REMARK 924 INTRA-LIGAND FREE ENERGY PREDICTED BY IDOCK:   -0.48 KCAL/MOL
REMARK 927      BINDING AFFINITY PREDICTED BY RF-SCORE:    0.00 PKD
ROOT
HETATM    1  O   UNL     1      -9.113   4.235  64.804  1.00  0.00    -0.137 OA 
HETATM    2  C   UNL     1      -9.261   4.750  66.043  1.00  0.00    -0.148 C  
HETATM    3  C   UNL     1      -8.881   6.187  66.192  1.00  0.00    -0.158 A  
HETATM    4  O   UNL     1      -9.677   4.083  66.976  1.00  0.00    -0.209 OA 
HETATM    5  C   UNL     1      -9.027   6.766  67.468  1.00  0.00    -0.115 A  
HETATM    6  C   UNL     1      -8.709   8.113  67.698  1.00  0.00    -0.130 A  
HETATM    7  C   UNL     1      -8.234   8.872  66.621  1.00  0.00    -0.111 A  
HETATM    8  C   UNL     1      -8.409   6.980  65.137  1.00  0.00    -0.073 A  
HETATM    9  H   UNL     1      -7.955   6.988  63.164  1.00  0.00     0.000 HD 
HETATM   10  C   UNL     1      -8.080   8.317  65.348  1.00  0.00    -0.135 A  
HETATM   11  O   UNL     1      -8.275   6.450  63.879  1.00  0.00    -0.078 OA 
ENDROOT
BRANCH   6  12
HETATM   12  N   UNL     1      -8.911   8.786  68.922  1.00  0.00    -0.137 NA 
HETATM   13  H   UNL     1      -8.967   9.802  68.997  1.00  0.00     0.000 HD 
BRANCH  12  14
HETATM   14  N   UNL     1      -9.014   8.022  69.902  1.00  0.00    -0.144 NA 
HETATM   15  H   UNL     1      -8.362   7.265  70.105  1.00  0.00     0.000 HD 
BRANCH  14  16
HETATM   16  C   UNL     1     -10.141   8.328  70.700  1.00  0.00    -0.191 A  
HETATM   17  C   UNL     1     -11.810   7.532  72.291  1.00  0.00    -0.331 A  
HETATM   18  C   UNL     1     -10.660   7.321  71.524  1.00  0.00    -0.223 A  
HETATM   19  C   UNL     1     -12.466   8.761  72.231  1.00  0.00    -0.386 A  
HETATM   20  C   UNL     1     -11.973   9.792  71.422  1.00  0.00    -0.493 A  
HETATM   21  O   UNL     1     -13.608   8.949  72.969  1.00  0.00    -0.914 OA 
HETATM   22  C   UNL     1     -12.610  11.137  71.302  1.00  0.00    -0.398 C  
HETATM   23  C   UNL     1     -10.813   9.561  70.660  1.00  0.00    -0.371 A  
HETATM   24  H   UNL     1     -14.054   9.786  72.928  1.00  0.00     0.000 HD 
HETATM   25  O   UNL     1     -13.747  11.307  72.008  1.00  0.00    -0.165 OA 
HETATM   26  O   UNL     1     -12.138  12.024  70.608  1.00  0.00    -0.373 OA 
ENDBRANCH  14  16
ENDBRANCH  12  14
ENDBRANCH   6  12
TORSDOF 3
ENDMDL
MODEL      222
REMARK 921   NORMALIZED FREE ENERGY PREDICTED BY IDOCK:   -4.71 KCAL/MOL
REMARK 922        TOTAL FREE ENERGY PREDICTED BY IDOCK:   -5.90 KCAL/MOL
REMARK 923 INTER-LIGAND FREE ENERGY PREDICTED BY IDOCK:   -5.40 KCAL/MOL
REMARK 924 INTRA-LIGAND FREE ENERGY PREDICTED BY IDOCK:   -0.50 KCAL/MOL
REMARK 927      BINDING AFFINITY PREDICTED BY RF-SCORE:    0.00 PKD
ROOT
HETATM    1  O   UNL     1     -10.573   7.544  73.908  1.00  0.00    -0.279 OA 
HETATM    2  C   UNL     1     -11.199   8.296  72.979  1.00  0.00     0.053 C  
HETATM    3  C   UNL     1     -10.316   8.896  71.936  1.00  0.00    -0.407 A  
HETATM    4  O   UNL     1     -12.407   8.473  72.995  1.00  0.00    -0.218 OA 
HETATM    5  C   UNL     1     -10.931   9.683  70.942  1.00  0.00    -0.412 A  
HETATM    6  C   UNL     1     -10.182  10.275  69.913  1.00  0.00    -0.202 A  
HETATM    7  C   UNL     1      -8.797  10.065  69.901  1.00  0.00    -0.177 A  
HETATM    8  C   UNL     1      -8.929   8.704  71.886  1.00  0.00    -0.231 A  
HETATM    9  H   UNL     1      -7.363   7.795  72.793  1.00  0.00     0.000 HD 
HETATM   10  C   UNL     1      -8.167   9.289  70.877  1.00  0.00    -0.179 A  
HETATM   11  O   UNL     1      -8.303   7.926  72.827  1.00  0.00    -0.123 OA 
ENDROOT
BRANCH   6  12
HETATM   12  N   UNL     1     -10.733  11.001  68.836  1.00  0.00    -0.199 NA 
HETATM   13  H   UNL     1     -10.619  12.009  68.725  1.00  0.00     0.000 HD 
BRANCH  12  14
HETATM   14  N   UNL     1     -11.374  10.294  68.032  1.00  0.00    -0.566 NA 
HETATM   15  H   UNL     1     -12.300   9.911  68.222  1.00  0.00     0.000 HD 
BRANCH  14  16
HETATM   16  C   UNL     1     -10.667  10.085  66.825  1.00  0.00    -0.101 A  
HETATM   17  C   UNL     1      -9.256   8.601  65.499  1.00  0.00    -0.158 A  
HETATM   18  C   UNL     1     -10.026   8.854  66.638  1.00  0.00    -0.346 A  
HETATM   19  C   UNL     1      -9.108   9.593  64.530  1.00  0.00    -0.236 A  
HETATM   20  C   UNL     1      -9.737  10.834  64.680  1.00  0.00    -0.344 A  
HETATM   21  O   UNL     1      -8.329   9.343  63.428  1.00  0.00    -0.163 OA 
HETATM   22  C   UNL     1      -9.634  11.949  63.692  1.00  0.00    -0.151 C  
HETATM   23  C   UNL     1     -10.510  11.068  65.833  1.00  0.00    -0.300 A  
HETATM   24  H   UNL     1      -8.228  10.019  62.768  1.00  0.00     0.000 HD 
HETATM   25  O   UNL     1      -8.846  11.708  62.624  1.00  0.00    -0.276 OA 
HETATM   26  O   UNL     1     -10.220  13.010  63.841  1.00  0.00    -0.378 OA 
ENDBRANCH  14  16
ENDBRANCH  12  14
ENDBRANCH   6  12
TORSDOF 3
ENDMDL
MODEL      223
REMARK 921   NORMALIZED FREE ENERGY PREDICTED BY IDOCK:   -4.69 KCAL/MOL
REMARK 922        TOTAL FREE ENERGY PREDICTED BY IDOCK:   -5.87 KCAL/MOL
REMARK 923 INTER-LIGAND FREE ENERGY PREDICTED BY IDOCK:   -5.76 KCAL/MOL
REMARK 924 INTRA-LIGAND FREE ENERGY PREDICTED BY IDOCK:   -0.12 KCAL/MOL
REMARK 927      BINDING AFFINITY PREDICTED BY RF-SCORE:    0.00 PKD
ROOT
HETATM    1  O   UNL     1      -9.457  12.690  67.578  1.00  0.00    -0.178 OA 
HETATM    2  C   UNL     1     -10.333  11.679  67.757  1.00  0.00    -0.182 C  
HETATM    3  C   UNL     1      -9.871  10.339  67.288  1.00  0.00    -0.222 A  
HETATM    4  O   UNL     1     -11.428  11.853  68.267  1.00  0.00    -0.262 OA 
HETATM    5  C   UNL     1     -10.753   9.253  67.463  1.00  0.00    -0.272 A  
HETATM    6  C   UNL     1     -10.398   7.955  67.066  1.00  0.00    -0.341 A  
HETATM    7  C   UNL     1      -9.138   7.764  66.485  1.00  0.00    -0.208 A  
HETATM    8  C   UNL     1      -8.617  10.107  66.708  1.00  0.00    -0.126 A  
HETATM    9  H   UNL     1      -6.878  10.982  66.151  1.00  0.00     0.000 HD 
HETATM   10  C   UNL     1      -8.249   8.826  66.301  1.00  0.00    -0.115 A  
HETATM   11  O   UNL     1      -7.729  11.139  66.544  1.00  0.00    -0.150 OA 
ENDROOT
BRANCH   6  12
HETATM   12  N   UNL     1     -11.187   6.806  67.287  1.00  0.00    -0.701 NA 
HETATM   13  H   UNL     1     -12.138   6.705  66.932  1.00  0.00     0.000 HD 
BRANCH  12  14
HETATM   14  N   UNL     1     -10.611   5.924  67.957  1.00  0.00    -0.243 NA 
HETATM   15  H   UNL     1     -10.059   5.170  67.550  1.00  0.00     0.000 HD 
BRANCH  14  16
HETATM   16  C   UNL     1     -10.814   6.094  69.346  1.00  0.00    -0.353 A  
HETATM   17  C   UNL     1     -10.638   5.133  71.581  1.00  0.00    -0.226 A  
HETATM   18  C   UNL     1     -10.410   5.063  70.204  1.00  0.00    -0.306 A  
HETATM   19  C   UNL     1     -11.290   6.242  72.119  1.00  0.00    -0.297 A  
HETATM   20  C   UNL     1     -11.704   7.294  71.293  1.00  0.00    -0.328 A  
HETATM   21  O   UNL     1     -11.530   6.290  73.470  1.00  0.00    -0.363 OA 
HETATM   22  C   UNL     1     -12.404   8.518  71.785  1.00  0.00    -0.338 C  
HETATM   23  C   UNL     1     -11.463   7.205  69.909  1.00  0.00    -0.154 A  
HETATM   24  H   UNL     1     -11.974   7.046  73.836  1.00  0.00     0.000 HD 
HETATM   25  O   UNL     1     -12.662   8.547  73.109  1.00  0.00    -0.103 OA 
HETATM   26  O   UNL     1     -12.727   9.430  71.041  1.00  0.00    -0.287 OA 
ENDBRANCH  14  16
ENDBRANCH  12  14
ENDBRANCH   6  12
TORSDOF 3
ENDMDL
MODEL      224
REMARK 921   NORMALIZED FREE ENERGY PREDICTED BY IDOCK:   -4.68 KCAL/MOL
REMARK 922        TOTAL FREE ENERGY PREDICTED BY IDOCK:   -5.86 KCAL/MOL
REMARK 923 INTER-LIGAND FREE ENERGY PREDICTED BY IDOCK:   -5.48 KCAL/MOL
REMARK 924 INTRA-LIGAND FREE ENERGY PREDICTED BY IDOCK:   -0.38 KCAL/MOL
REMARK 927      BINDING AFFINITY PREDICTED BY RF-SCORE:    0.00 PKD
ROOT
HETATM    1  O   UNL     1     -10.120  13.115  65.720  1.00  0.00    -0.286 OA 
HETATM    2  C   UNL     1     -10.176  11.783  65.511  1.00  0.00    -0.252 C  
HETATM    3  C   UNL     1     -10.312  10.945  66.738  1.00  0.00    -0.289 A  
HETATM    4  O   UNL     1     -10.119  11.300  64.391  1.00  0.00    -0.257 OA 
HETATM    5  C   UNL     1     -10.383   9.548  66.564  1.00  0.00    -0.263 A  
HETATM    6  C   UNL     1     -10.525   8.683  67.660  1.00  0.00    -0.244 A  
HETATM    7  C   UNL     1     -10.593   9.246  68.940  1.00  0.00    -0.222 A  
HETATM    8  C   UNL     1     -10.390  11.471  68.035  1.00  0.00    -0.190 A  
HETATM    9  H   UNL     1     -10.398  13.184  69.115  1.00  0.00     0.000 HD 
HETATM   10  C   UNL     1     -10.524  10.627  69.136  1.00  0.00    -0.245 A  
HETATM   11  O   UNL     1     -10.345  12.827  68.236  1.00  0.00    -0.231 OA 
ENDROOT
BRANCH   6  12
HETATM   12  N   UNL     1     -10.691   7.285  67.560  1.00  0.00    -0.408 NA 
HETATM   13  H   UNL     1     -10.313   6.732  66.791  1.00  0.00     0.000 HD 
BRANCH  12  14
HETATM   14  N   UNL     1     -11.343   6.790  68.502  1.00  0.00    -0.560 NA 
HETATM   15  H   UNL     1     -12.296   7.064  68.740  1.00  0.00     0.000 HD 
BRANCH  14  16
HETATM   16  C   UNL     1     -10.606   5.805  69.200  1.00  0.00    -0.294 A  
HETATM   17  C   UNL     1      -9.050   3.931  69.078  1.00  0.00    -0.198 A  
HETATM   18  C   UNL     1      -9.759   4.968  68.464  1.00  0.00    -0.215 A  
HETATM   19  C   UNL     1      -9.193   3.712  70.447  1.00  0.00    -0.146 A  
HETATM   20  C   UNL     1     -10.028   4.531  71.216  1.00  0.00    -0.258 A  
HETATM   21  O   UNL     1      -8.512   2.675  71.036  1.00  0.00    -0.056 OA 
HETATM   22  C   UNL     1     -10.236   4.369  72.686  1.00  0.00    -0.180 C  
HETATM   23  C   UNL     1     -10.730   5.571  70.579  1.00  0.00    -0.310 A  
HETATM   24  H   UNL     1      -8.609   2.526  71.969  1.00  0.00     0.000 HD 
HETATM   25  O   UNL     1      -9.585   3.333  73.254  1.00  0.00    -0.102 OA 
HETATM   26  O   UNL     1     -10.950   5.120  73.332  1.00  0.00    -0.274 OA 
ENDBRANCH  14  16
ENDBRANCH  12  14
ENDBRANCH   6  12
TORSDOF 3
ENDMDL
MODEL      225
REMARK 921   NORMALIZED FREE ENERGY PREDICTED BY IDOCK:   -4.67 KCAL/MOL
REMARK 922        TOTAL FREE ENERGY PREDICTED BY IDOCK:   -5.85 KCAL/MOL
REMARK 923 INTER-LIGAND FREE ENERGY PREDICTED BY IDOCK:   -5.51 KCAL/MOL
REMARK 924 INTRA-LIGAND FREE ENERGY PREDICTED BY IDOCK:   -0.34 KCAL/MOL
REMARK 927      BINDING AFFINITY PREDICTED BY RF-SCORE:    0.00 PKD
ROOT
HETATM    1  O   UNL     1      -8.759   9.004  67.410  1.00  0.00    -0.119 OA 
HETATM    2  C   UNL     1      -8.872  10.316  67.706  1.00  0.00    -0.125 C  
HETATM    3  C   UNL     1      -9.281  11.197  66.572  1.00  0.00    -0.194 A  
HETATM    4  O   UNL     1      -8.654  10.749  68.826  1.00  0.00    -0.142 OA 
HETATM    5  C   UNL     1      -9.419  12.574  66.840  1.00  0.00    -0.219 A  
HETATM    6  C   UNL     1      -9.812  13.475  65.838  1.00  0.00    -0.241 A  
HETATM    7  C   UNL     1     -10.064  12.969  64.557  1.00  0.00    -0.254 A  
HETATM    8  C   UNL     1      -9.547  10.728  65.279  1.00  0.00    -0.229 A  
HETATM    9  H   UNL     1      -9.622   9.073  64.115  1.00  0.00     0.000 HD 
HETATM   10  C   UNL     1      -9.932  11.609  64.270  1.00  0.00    -0.303 A  
HETATM   11  O   UNL     1      -9.442   9.391  64.992  1.00  0.00    -0.247 OA 
ENDROOT
BRANCH   6  12
HETATM   12  N   UNL     1     -10.057  14.849  66.049  1.00  0.00    -0.293 NA 
HETATM   13  H   UNL     1     -10.646  15.412  65.434  1.00  0.00     0.000 HD 
BRANCH  12  14
HETATM   14  N   UNL     1      -9.485  15.311  67.057  1.00  0.00    -0.217 NA 
HETATM   15  H   UNL     1      -9.095  14.736  67.803  1.00  0.00     0.000 HD 
BRANCH  14  16
HETATM   16  C   UNL     1      -9.440  16.724  67.044  1.00  0.00    -0.232 A  
HETATM   17  C   UNL     1     -10.508  18.821  67.688  1.00  0.00    -0.495 A  
HETATM   18  C   UNL     1     -10.452  17.424  67.713  1.00  0.00    -0.376 A  
HETATM   19  C   UNL     1      -9.547  19.538  66.976  1.00  0.00    -0.337 A  
HETATM   20  C   UNL     1      -8.518  18.873  66.300  1.00  0.00    -0.268 A  
HETATM   21  O   UNL     1      -9.625  20.909  66.938  1.00  0.00    -0.681 OA 
HETATM   22  C   UNL     1      -7.449  19.563  65.518  1.00  0.00    -0.070 C  
HETATM   23  C   UNL     1      -8.478  17.467  66.339  1.00  0.00    -0.287 A  
HETATM   24  H   UNL     1      -8.971  21.397  66.453  1.00  0.00     0.000 HD 
HETATM   25  O   UNL     1      -7.546  20.907  65.461  1.00  0.00     0.287 OA 
HETATM   26  O   UNL     1      -6.549  18.953  64.962  1.00  0.00    -0.476 OA 
ENDBRANCH  14  16
ENDBRANCH  12  14
ENDBRANCH   6  12
TORSDOF 3
ENDMDL
MODEL      226
REMARK 921   NORMALIZED FREE ENERGY PREDICTED BY IDOCK:   -4.66 KCAL/MOL
REMARK 922        TOTAL FREE ENERGY PREDICTED BY IDOCK:   -5.84 KCAL/MOL
REMARK 923 INTER-LIGAND FREE ENERGY PREDICTED BY IDOCK:   -5.34 KCAL/MOL
REMARK 924 INTRA-LIGAND FREE ENERGY PREDICTED BY IDOCK:   -0.50 KCAL/MOL
REMARK 927      BINDING AFFINITY PREDICTED BY RF-SCORE:    0.00 PKD
ROOT
HETATM    1  O   UNL     1      -8.149   7.435  67.337  1.00  0.00    -0.110 OA 
HETATM    2  C   UNL     1      -9.298   8.107  67.111  1.00  0.00    -0.145 C  
HETATM    3  C   UNL     1      -9.145   9.566  66.832  1.00  0.00    -0.158 A  
HETATM    4  O   UNL     1     -10.387   7.556  67.136  1.00  0.00    -0.252 OA 
HETATM    5  C   UNL     1     -10.319  10.304  66.583  1.00  0.00    -0.283 A  
HETATM    6  C   UNL     1     -10.270  11.677  66.297  1.00  0.00    -0.227 A  
HETATM    7  C   UNL     1      -9.017  12.300  66.268  1.00  0.00    -0.068 A  
HETATM    8  C   UNL     1      -7.908  10.224  66.788  1.00  0.00    -0.114 A  
HETATM    9  H   UNL     1      -5.907   9.975  66.975  1.00  0.00     0.000 HD 
HETATM   10  C   UNL     1      -7.840  11.588  66.513  1.00  0.00    -0.071 A  
HETATM   11  O   UNL     1      -6.746   9.529  67.006  1.00  0.00    -0.070 OA 
ENDROOT
BRANCH   6  12
HETATM   12  N   UNL     1     -11.390  12.463  65.952  1.00  0.00    -0.339 NA 
HETATM   13  H   UNL     1     -11.465  12.970  65.069  1.00  0.00     0.000 HD 
BRANCH  12  14
HETATM   14  N   UNL     1     -12.279  12.480  66.828  1.00  0.00    -0.481 NA 
HETATM   15  H   UNL     1     -13.093  11.867  66.824  1.00  0.00     0.000 HD 
BRANCH  14  16
HETATM   16  C   UNL     1     -12.024  13.449  67.826  1.00  0.00    -0.324 A  
HETATM   17  C   UNL     1     -12.323  14.135  70.148  1.00  0.00    -0.413 A  
HETATM   18  C   UNL     1     -12.481  13.195  69.125  1.00  0.00     0.226 A  
HETATM   19  C   UNL     1     -11.709  15.357  69.875  1.00  0.00    -0.336 A  
HETATM   20  C   UNL     1     -11.236  15.645  68.589  1.00  0.00    -0.338 A  
HETATM   21  O   UNL     1     -11.581  16.283  70.880  1.00  0.00    -0.520 OA 
HETATM   22  C   UNL     1     -10.566  16.924  68.211  1.00  0.00    -0.363 C  
HETATM   23  C   UNL     1     -11.403  14.684  67.574  1.00  0.00    -0.361 A  
HETATM   24  H   UNL     1     -11.163  17.115  70.694  1.00  0.00     0.000 HD 
HETATM   25  O   UNL     1     -10.467  17.841  69.196  1.00  0.00    -0.312 OA 
HETATM   26  O   UNL     1     -10.140  17.132  67.086  1.00  0.00    -0.279 OA 
ENDBRANCH  14  16
ENDBRANCH  12  14
ENDBRANCH   6  12
TORSDOF 3
ENDMDL
MODEL      227
REMARK 921   NORMALIZED FREE ENERGY PREDICTED BY IDOCK:   -4.66 KCAL/MOL
REMARK 922        TOTAL FREE ENERGY PREDICTED BY IDOCK:   -5.84 KCAL/MOL
REMARK 923 INTER-LIGAND FREE ENERGY PREDICTED BY IDOCK:   -5.34 KCAL/MOL
REMARK 924 INTRA-LIGAND FREE ENERGY PREDICTED BY IDOCK:   -0.49 KCAL/MOL
REMARK 927      BINDING AFFINITY PREDICTED BY RF-SCORE:    0.00 PKD
ROOT
HETATM    1  O   UNL     1     -10.311  10.788  66.111  1.00  0.00    -0.243 OA 
HETATM    2  C   UNL     1      -9.851  12.054  66.191  1.00  0.00    -0.235 C  
HETATM    3  C   UNL     1      -8.771  12.283  67.197  1.00  0.00    -0.193 A  
HETATM    4  O   UNL     1     -10.290  12.950  65.488  1.00  0.00    -0.283 OA 
HETATM    5  C   UNL     1      -8.256  13.590  67.307  1.00  0.00    -0.164 A  
HETATM    6  C   UNL     1      -7.230  13.895  68.215  1.00  0.00    -0.112 A  
HETATM    7  C   UNL     1      -6.729  12.861  69.016  1.00  0.00    -0.095 A  
HETATM    8  C   UNL     1      -8.240  11.274  68.011  1.00  0.00    -0.134 A  
HETATM    9  H   UNL     1      -8.345   9.303  68.464  1.00  0.00     0.000 HD 
HETATM   10  C   UNL     1      -7.226  11.559  68.924  1.00  0.00    -0.117 A  
HETATM   11  O   UNL     1      -8.706   9.987  67.912  1.00  0.00    -0.124 OA 
ENDROOT
BRANCH   6  12
HETATM   12  N   UNL     1      -6.603  15.155  68.322  1.00  0.00    -0.102 NA 
HETATM   13  H   UNL     1      -6.428  15.617  69.215  1.00  0.00     0.000 HD 
BRANCH  12  14
HETATM   14  N   UNL     1      -6.284  15.650  67.222  1.00  0.00    -0.320 NA 
HETATM   15  H   UNL     1      -5.823  15.130  66.476  1.00  0.00     0.000 HD 
BRANCH  14  16
HETATM   16  C   UNL     1      -6.637  17.017  67.131  1.00  0.00    -0.182 A  
HETATM   17  C   UNL     1      -6.013  19.334  67.567  1.00  0.00    -0.200 A  
HETATM   18  C   UNL     1      -5.708  17.970  67.567  1.00  0.00    -0.147 A  
HETATM   19  C   UNL     1      -7.269  19.762  67.135  1.00  0.00    -0.222 A  
HETATM   20  C   UNL     1      -8.220  18.838  66.688  1.00  0.00    -0.298 A  
HETATM   21  O   UNL     1      -7.566  21.102  67.162  1.00  0.00    -0.645 OA 
HETATM   22  C   UNL     1      -9.584  19.210  66.207  1.00  0.00    -0.348 C  
HETATM   23  C   UNL     1      -7.893  17.470  66.694  1.00  0.00    -0.285 A  
HETATM   24  H   UNL     1      -8.421  21.393  66.868  1.00  0.00     0.000 HD 
HETATM   25  O   UNL     1      -9.881  20.525  66.261  1.00  0.00    -0.306 OA 
HETATM   26  O   UNL     1     -10.381  18.381  65.797  1.00  0.00    -0.588 OA 
ENDBRANCH  14  16
ENDBRANCH  12  14
ENDBRANCH   6  12
TORSDOF 3
ENDMDL
MODEL      228
REMARK 921   NORMALIZED FREE ENERGY PREDICTED BY IDOCK:   -4.62 KCAL/MOL
REMARK 922        TOTAL FREE ENERGY PREDICTED BY IDOCK:   -5.79 KCAL/MOL
REMARK 923 INTER-LIGAND FREE ENERGY PREDICTED BY IDOCK:   -5.21 KCAL/MOL
REMARK 924 INTRA-LIGAND FREE ENERGY PREDICTED BY IDOCK:   -0.58 KCAL/MOL
REMARK 927      BINDING AFFINITY PREDICTED BY RF-SCORE:    0.00 PKD
ROOT
HETATM    1  O   UNL     1      -5.873   9.895  64.189  1.00  0.00    -0.099 OA 
HETATM    2  C   UNL     1      -6.102  10.674  65.266  1.00  0.00    -0.068 C  
HETATM    3  C   UNL     1      -7.526  10.759  65.707  1.00  0.00    -0.067 A  
HETATM    4  O   UNL     1      -5.203  11.269  65.839  1.00  0.00    -0.211 OA 
HETATM    5  C   UNL     1      -7.808  11.557  66.834  1.00  0.00    -0.163 A  
HETATM    6  C   UNL     1      -9.116  11.683  67.328  1.00  0.00    -0.167 A  
HETATM    7  C   UNL     1     -10.141  10.995  66.667  1.00  0.00    -0.262 A  
HETATM    8  C   UNL     1      -8.577  10.080  65.076  1.00  0.00    -0.162 A  
HETATM    9  H   UNL     1      -9.045   8.819  63.562  1.00  0.00     0.000 HD 
HETATM   10  C   UNL     1      -9.883  10.200  65.547  1.00  0.00    -0.365 A  
HETATM   11  O   UNL     1      -8.332   9.280  63.989  1.00  0.00    -0.158 OA 
ENDROOT
BRANCH   6  12
HETATM   12  N   UNL     1      -9.465  12.390  68.499  1.00  0.00    -0.363 NA 
HETATM   13  H   UNL     1     -10.287  12.168  69.060  1.00  0.00     0.000 HD 
BRANCH  12  14
HETATM   14  N   UNL     1      -8.672  13.311  68.782  1.00  0.00    -0.374 NA 
HETATM   15  H   UNL     1      -7.714  13.160  69.097  1.00  0.00     0.000 HD 
BRANCH  14  16
HETATM   16  C   UNL     1      -9.257  14.588  68.616  1.00  0.00    -0.192 A  
HETATM   17  C   UNL     1     -11.080  16.104  69.189  1.00  0.00    -0.329 A  
HETATM   18  C   UNL     1     -10.411  14.887  69.351  1.00  0.00    -0.231 A  
HETATM   19  C   UNL     1     -10.601  17.039  68.273  1.00  0.00    -0.372 A  
HETATM   20  C   UNL     1      -9.448  16.777  67.525  1.00  0.00    -0.237 A  
HETATM   21  O   UNL     1     -11.279  18.221  68.105  1.00  0.00    -0.083 OA 
HETATM   22  C   UNL     1      -8.866  17.723  66.526  1.00  0.00    -0.262 C  
HETATM   23  C   UNL     1      -8.788  15.547  67.704  1.00  0.00    -0.185 A  
HETATM   24  H   UNL     1     -10.953  18.858  67.480  1.00  0.00     0.000 HD 
HETATM   25  O   UNL     1      -9.551  18.870  66.345  1.00  0.00    -0.336 OA 
HETATM   26  O   UNL     1      -7.842  17.474  65.910  1.00  0.00    -0.519 OA 
ENDBRANCH  14  16
ENDBRANCH  12  14
ENDBRANCH   6  12
TORSDOF 3
ENDMDL
MODEL      229
REMARK 921   NORMALIZED FREE ENERGY PREDICTED BY IDOCK:   -4.60 KCAL/MOL
REMARK 922        TOTAL FREE ENERGY PREDICTED BY IDOCK:   -5.76 KCAL/MOL
REMARK 923 INTER-LIGAND FREE ENERGY PREDICTED BY IDOCK:   -5.34 KCAL/MOL
REMARK 924 INTRA-LIGAND FREE ENERGY PREDICTED BY IDOCK:   -0.43 KCAL/MOL
REMARK 927      BINDING AFFINITY PREDICTED BY RF-SCORE:    0.00 PKD
ROOT
HETATM    1  O   UNL     1      -8.755   7.628  66.213  1.00  0.00    -0.138 OA 
HETATM    2  C   UNL     1      -8.556   8.860  65.700  1.00  0.00    -0.166 C  
HETATM    3  C   UNL     1      -9.038   9.993  66.544  1.00  0.00    -0.172 A  
HETATM    4  O   UNL     1      -8.018   9.032  64.618  1.00  0.00    -0.115 OA 
HETATM    5  C   UNL     1      -8.842  11.298  66.048  1.00  0.00    -0.189 A  
HETATM    6  C   UNL     1      -9.250  12.424  66.779  1.00  0.00    -0.212 A  
HETATM    7  C   UNL     1      -9.864  12.218  68.021  1.00  0.00    -0.204 A  
HETATM    8  C   UNL     1      -9.650   9.828  67.793  1.00  0.00    -0.135 A  
HETATM    9  H   UNL     1     -10.251   8.460  69.160  1.00  0.00     0.000 HD 
HETATM   10  C   UNL     1     -10.068  10.934  68.530  1.00  0.00    -0.193 A  
HETATM   11  O   UNL     1      -9.836   8.572  68.312  1.00  0.00    -0.159 OA 
ENDROOT
BRANCH   6  12
HETATM   12  N   UNL     1      -9.011  13.760  66.391  1.00  0.00    -0.471 NA 
HETATM   13  H   UNL     1      -9.568  14.246  65.688  1.00  0.00     0.000 HD 
BRANCH  12  14
HETATM   14  N   UNL     1      -8.053  14.291  66.990  1.00  0.00    -0.373 NA 
HETATM   15  H   UNL     1      -7.199  13.798  67.248  1.00  0.00     0.000 HD 
BRANCH  14  16
HETATM   16  C   UNL     1      -8.291  15.657  67.270  1.00  0.00    -0.184 A  
HETATM   17  C   UNL     1      -9.474  17.301  68.629  1.00  0.00    -0.278 A  
HETATM   18  C   UNL     1      -9.142  15.975  68.336  1.00  0.00    -0.192 A  
HETATM   19  C   UNL     1      -8.960  18.333  67.844  1.00  0.00    -0.276 A  
HETATM   20  C   UNL     1      -8.103  18.053  66.773  1.00  0.00    -0.264 A  
HETATM   21  O   UNL     1      -9.312  19.629  68.126  1.00  0.00    -0.334 OA 
HETATM   22  C   UNL     1      -7.507  19.095  65.885  1.00  0.00    -0.238 C  
HETATM   23  C   UNL     1      -7.779  16.711  66.496  1.00  0.00    -0.337 A  
HETATM   24  H   UNL     1      -8.962  20.332  67.590  1.00  0.00     0.000 HD 
HETATM   25  O   UNL     1      -7.877  20.364  66.149  1.00  0.00    -0.195 OA 
HETATM   26  O   UNL     1      -6.739  18.818  64.976  1.00  0.00    -0.514 OA 
ENDBRANCH  14  16
ENDBRANCH  12  14
ENDBRANCH   6  12
TORSDOF 3
ENDMDL
MODEL      230
REMARK 921   NORMALIZED FREE ENERGY PREDICTED BY IDOCK:   -4.59 KCAL/MOL
REMARK 922        TOTAL FREE ENERGY PREDICTED BY IDOCK:   -5.76 KCAL/MOL
REMARK 923 INTER-LIGAND FREE ENERGY PREDICTED BY IDOCK:   -5.28 KCAL/MOL
REMARK 924 INTRA-LIGAND FREE ENERGY PREDICTED BY IDOCK:   -0.48 KCAL/MOL
REMARK 927      BINDING AFFINITY PREDICTED BY RF-SCORE:    0.00 PKD
ROOT
HETATM    1  O   UNL     1      -8.923  18.719  66.745  1.00  0.00    -0.288 OA 
HETATM    2  C   UNL     1      -9.273  17.481  66.339  1.00  0.00    -0.245 C  
HETATM    3  C   UNL     1      -8.457  16.364  66.903  1.00  0.00    -0.254 A  
HETATM    4  O   UNL     1     -10.195  17.290  65.562  1.00  0.00    -0.602 OA 
HETATM    5  C   UNL     1      -8.795  15.054  66.510  1.00  0.00    -0.286 A  
HETATM    6  C   UNL     1      -8.092  13.942  67.000  1.00  0.00     0.008 A  
HETATM    7  C   UNL     1      -7.038  14.170  67.894  1.00  0.00    -0.168 A  
HETATM    8  C   UNL     1      -7.400  16.551  67.803  1.00  0.00    -0.138 A  
HETATM    9  H   UNL     1      -6.343  17.940  68.831  1.00  0.00     0.000 HD 
HETATM   10  C   UNL     1      -6.686  15.460  68.295  1.00  0.00    -0.123 A  
HETATM   11  O   UNL     1      -7.060  17.813  68.220  1.00  0.00    -0.213 OA 
ENDROOT
BRANCH   6  12
HETATM   12  N   UNL     1      -8.425  12.599  66.724  1.00  0.00    -0.384 NA 
HETATM   13  H   UNL     1      -7.728  11.861  66.622  1.00  0.00     0.000 HD 
BRANCH  12  14
HETATM   14  N   UNL     1      -9.652  12.399  66.617  1.00  0.00    -0.224 NA 
HETATM   15  H   UNL     1     -10.254  12.896  65.960  1.00  0.00     0.000 HD 
BRANCH  14  16
HETATM   16  C   UNL     1     -10.110  11.404  67.511  1.00  0.00    -0.183 A  
HETATM   17  C   UNL     1     -10.997  10.878  69.722  1.00  0.00    -0.290 A  
HETATM   18  C   UNL     1     -10.589  11.810  68.763  1.00  0.00    -0.234 A  
HETATM   19  C   UNL     1     -10.919   9.515  69.438  1.00  0.00    -0.170 A  
HETATM   20  C   UNL     1     -10.450   9.072  68.196  1.00  0.00    -0.257 A  
HETATM   21  O   UNL     1     -11.300   8.608  70.395  1.00  0.00    -0.326 OA 
HETATM   22  C   UNL     1     -10.337   7.634  67.809  1.00  0.00    -0.219 C  
HETATM   23  C   UNL     1     -10.047  10.027  67.243  1.00  0.00    -0.259 A  
HETATM   24  H   UNL     1     -11.246   7.679  70.202  1.00  0.00     0.000 HD 
HETATM   25  O   UNL     1     -10.687   6.747  68.763  1.00  0.00    -0.216 OA 
HETATM   26  O   UNL     1      -9.950   7.282  66.705  1.00  0.00    -0.209 OA 
ENDBRANCH  14  16
ENDBRANCH  12  14
ENDBRANCH   6  12
TORSDOF 3
ENDMDL
MODEL      231
REMARK 921   NORMALIZED FREE ENERGY PREDICTED BY IDOCK:   -4.58 KCAL/MOL
REMARK 922        TOTAL FREE ENERGY PREDICTED BY IDOCK:   -5.75 KCAL/MOL
REMARK 923 INTER-LIGAND FREE ENERGY PREDICTED BY IDOCK:   -5.30 KCAL/MOL
REMARK 924 INTRA-LIGAND FREE ENERGY PREDICTED BY IDOCK:   -0.45 KCAL/MOL
REMARK 927      BINDING AFFINITY PREDICTED BY RF-SCORE:    0.00 PKD
ROOT
HETATM    1  O   UNL     1     -10.509   5.882  69.106  1.00  0.00    -0.213 OA 
HETATM    2  C   UNL     1     -10.781   7.204  69.125  1.00  0.00    -0.198 C  
HETATM    3  C   UNL     1     -10.212   7.994  67.993  1.00  0.00    -0.260 A  
HETATM    4  O   UNL     1     -11.447   7.716  70.011  1.00  0.00    -0.149 OA 
HETATM    5  C   UNL     1     -10.478   9.377  67.971  1.00  0.00    -0.278 A  
HETATM    6  C   UNL     1      -9.996  10.196  66.937  1.00  0.00    -0.207 A  
HETATM    7  C   UNL     1      -9.236   9.599  65.924  1.00  0.00    -0.246 A  
HETATM    8  C   UNL     1      -9.452   7.432  66.958  1.00  0.00    -0.158 A  
HETATM    9  H   UNL     1      -8.678   5.705  66.238  1.00  0.00     0.000 HD 
HETATM   10  C   UNL     1      -8.959   8.230  65.927  1.00  0.00    -0.208 A  
HETATM   11  O   UNL     1      -9.193   6.086  66.941  1.00  0.00    -0.121 OA 
ENDROOT
BRANCH   6  12
HETATM   12  N   UNL     1     -10.293  11.568  66.798  1.00  0.00    -0.219 NA 
HETATM   13  H   UNL     1      -9.619  12.253  66.455  1.00  0.00     0.000 HD 
BRANCH  12  14
HETATM   14  N   UNL     1     -11.457  11.865  67.134  1.00  0.00    -0.432 NA 
HETATM   15  H   UNL     1     -12.286  11.354  66.829  1.00  0.00     0.000 HD 
BRANCH  14  16
HETATM   16  C   UNL     1     -11.495  12.992  67.987  1.00  0.00    -0.309 A  
HETATM   17  C   UNL     1     -12.518  14.076  69.918  1.00  0.00    -0.301 A  
HETATM   18  C   UNL     1     -12.381  12.972  69.072  1.00  0.00     0.093 A  
HETATM   19  C   UNL     1     -11.771  15.228  69.679  1.00  0.00    -0.334 A  
HETATM   20  C   UNL     1     -10.872  15.284  68.607  1.00  0.00    -0.253 A  
HETATM   21  O   UNL     1     -11.931  16.315  70.502  1.00  0.00    -0.448 OA 
HETATM   22  C   UNL     1     -10.032  16.474  68.281  1.00  0.00    -0.250 C  
HETATM   23  C   UNL     1     -10.746  14.161  67.768  1.00  0.00    -0.251 A  
HETATM   24  H   UNL     1     -11.422  17.100  70.338  1.00  0.00     0.000 HD 
HETATM   25  O   UNL     1     -10.213  17.549  69.077  1.00  0.00    -0.345 OA 
HETATM   26  O   UNL     1      -9.236  16.480  67.355  1.00  0.00    -0.213 OA 
ENDBRANCH  14  16
ENDBRANCH  12  14
ENDBRANCH   6  12
TORSDOF 3
ENDMDL
MODEL      232
REMARK 921   NORMALIZED FREE ENERGY PREDICTED BY IDOCK:   -4.57 KCAL/MOL
REMARK 922        TOTAL FREE ENERGY PREDICTED BY IDOCK:   -5.74 KCAL/MOL
REMARK 923 INTER-LIGAND FREE ENERGY PREDICTED BY IDOCK:   -5.23 KCAL/MOL
REMARK 924 INTRA-LIGAND FREE ENERGY PREDICTED BY IDOCK:   -0.51 KCAL/MOL
REMARK 927      BINDING AFFINITY PREDICTED BY RF-SCORE:    0.00 PKD
ROOT
HETATM    1  O   UNL     1     -11.988   7.656  71.541  1.00  0.00    -0.282 OA 
HETATM    2  C   UNL     1     -11.592   8.774  70.898  1.00  0.00    -0.277 C  
HETATM    3  C   UNL     1     -10.861   8.553  69.615  1.00  0.00    -0.157 A  
HETATM    4  O   UNL     1     -11.819   9.890  71.338  1.00  0.00    -0.369 OA 
HETATM    5  C   UNL     1     -10.437   9.696  68.907  1.00  0.00    -0.234 A  
HETATM    6  C   UNL     1      -9.755   9.584  67.685  1.00  0.00    -0.154 A  
HETATM    7  C   UNL     1      -9.502   8.301  67.185  1.00  0.00    -0.206 A  
HETATM    8  C   UNL     1     -10.594   7.286  69.080  1.00  0.00    -0.201 A  
HETATM    9  H   UNL     1     -10.832   5.296  69.372  1.00  0.00     0.000 HD 
HETATM   10  C   UNL     1      -9.912   7.155  67.872  1.00  0.00    -0.186 A  
HETATM   11  O   UNL     1     -11.012   6.156  69.735  1.00  0.00    -0.317 OA 
ENDROOT
BRANCH   6  12
HETATM   12  N   UNL     1      -9.377  10.677  66.876  1.00  0.00    -0.158 NA 
HETATM   13  H   UNL     1      -8.430  10.806  66.519  1.00  0.00     0.000 HD 
BRANCH  12  14
HETATM   14  N   UNL     1     -10.311  11.471  66.640  1.00  0.00    -0.219 NA 
HETATM   15  H   UNL     1     -11.146  11.225  66.108  1.00  0.00     0.000 HD 
BRANCH  14  16
HETATM   16  C   UNL     1     -10.076  12.751  67.194  1.00  0.00    -0.234 A  
HETATM   17  C   UNL     1      -8.670  14.744  67.241  1.00  0.00    -0.226 A  
HETATM   18  C   UNL     1      -9.001  13.499  66.697  1.00  0.00    -0.133 A  
HETATM   19  C   UNL     1      -9.412  15.252  68.306  1.00  0.00    -0.205 A  
HETATM   20  C   UNL     1     -10.496  14.535  68.826  1.00  0.00    -0.246 A  
HETATM   21  O   UNL     1      -9.063  16.464  68.849  1.00  0.00    -0.239 OA 
HETATM   22  C   UNL     1     -11.345  15.006  69.961  1.00  0.00    -0.273 C  
HETATM   23  C   UNL     1     -10.815  13.285  68.262  1.00  0.00    -0.276 A  
HETATM   24  H   UNL     1      -9.569  16.810  69.575  1.00  0.00     0.000 HD 
HETATM   25  O   UNL     1     -10.981  16.184  70.507  1.00  0.00    -0.331 OA 
HETATM   26  O   UNL     1     -12.301  14.367  70.371  1.00  0.00    -0.304 OA 
ENDBRANCH  14  16
ENDBRANCH  12  14
ENDBRANCH   6  12
TORSDOF 3
ENDMDL
MODEL      233
REMARK 921   NORMALIZED FREE ENERGY PREDICTED BY IDOCK:   -4.56 KCAL/MOL
REMARK 922        TOTAL FREE ENERGY PREDICTED BY IDOCK:   -5.72 KCAL/MOL
REMARK 923 INTER-LIGAND FREE ENERGY PREDICTED BY IDOCK:   -5.25 KCAL/MOL
REMARK 924 INTRA-LIGAND FREE ENERGY PREDICTED BY IDOCK:   -0.47 KCAL/MOL
REMARK 927      BINDING AFFINITY PREDICTED BY RF-SCORE:    0.00 PKD
ROOT
HETATM    1  O   UNL     1      -5.451  16.175  69.007  1.00  0.00    -0.108 OA 
HETATM    2  C   UNL     1      -5.816  15.291  68.055  1.00  0.00    -0.141 C  
HETATM    3  C   UNL     1      -6.134  13.916  68.542  1.00  0.00    -0.093 A  
HETATM    4  O   UNL     1      -5.880  15.599  66.875  1.00  0.00    -0.216 OA 
HETATM    5  C   UNL     1      -6.528  12.964  67.580  1.00  0.00    -0.157 A  
HETATM    6  C   UNL     1      -6.860  11.651  67.948  1.00  0.00    -0.074 A  
HETATM    7  C   UNL     1      -6.786  11.307  69.304  1.00  0.00    -0.116 A  
HETATM    8  C   UNL     1      -6.079  13.536  69.889  1.00  0.00    -0.127 A  
HETATM    9  H   UNL     1      -5.682  14.187  71.765  1.00  0.00     0.000 HD 
HETATM   10  C   UNL     1      -6.397  12.234  70.273  1.00  0.00     0.139 A  
HETATM   11  O   UNL     1      -5.719  14.445  70.851  1.00  0.00    -0.162 OA 
ENDROOT
BRANCH   6  12
HETATM   12  N   UNL     1      -7.346  10.668  67.059  1.00  0.00    -0.098 NA 
HETATM   13  H   UNL     1      -7.786   9.803  67.370  1.00  0.00     0.000 HD 
BRANCH  12  14
HETATM   14  N   UNL     1      -7.185  10.959  65.856  1.00  0.00    -0.321 NA 
HETATM   15  H   UNL     1      -6.274  11.111  65.424  1.00  0.00     0.000 HD 
BRANCH  14  16
HETATM   16  C   UNL     1      -8.414  11.053  65.162  1.00  0.00     0.038 A  
HETATM   17  C   UNL     1      -9.596  10.844  63.038  1.00  0.00    -0.382 A  
HETATM   18  C   UNL     1      -8.433  10.714  63.803  1.00  0.00    -0.068 A  
HETATM   19  C   UNL     1     -10.762  11.331  63.630  1.00  0.00    -0.367 A  
HETATM   20  C   UNL     1     -10.782  11.675  64.987  1.00  0.00    -0.351 A  
HETATM   21  O   UNL     1     -11.891  11.478  62.864  1.00  0.00    -0.859 OA 
HETATM   22  C   UNL     1     -11.984  12.199  65.699  1.00  0.00    -0.208 C  
HETATM   23  C   UNL     1      -9.601  11.534  65.739  1.00  0.00    -0.259 A  
HETATM   24  H   UNL     1     -12.685  11.809  63.267  1.00  0.00     0.000 HD 
HETATM   25  O   UNL     1     -13.084  12.367  64.936  1.00  0.00    -0.765 OA 
HETATM   26  O   UNL     1     -11.975  12.463  66.891  1.00  0.00    -0.550 OA 
ENDBRANCH  14  16
ENDBRANCH  12  14
ENDBRANCH   6  12
TORSDOF 3
ENDMDL
MODEL      234
REMARK 921   NORMALIZED FREE ENERGY PREDICTED BY IDOCK:   -4.56 KCAL/MOL
REMARK 922        TOTAL FREE ENERGY PREDICTED BY IDOCK:   -5.72 KCAL/MOL
REMARK 923 INTER-LIGAND FREE ENERGY PREDICTED BY IDOCK:   -5.26 KCAL/MOL
REMARK 924 INTRA-LIGAND FREE ENERGY PREDICTED BY IDOCK:   -0.46 KCAL/MOL
REMARK 927      BINDING AFFINITY PREDICTED BY RF-SCORE:    0.00 PKD
ROOT
HETATM    1  O   UNL     1     -11.312  11.850  64.076  1.00  0.00    -0.353 OA 
HETATM    2  C   UNL     1     -10.422  11.008  64.644  1.00  0.00    -0.329 C  
HETATM    3  C   UNL     1     -10.404  11.002  66.137  1.00  0.00    -0.306 A  
HETATM    4  O   UNL     1      -9.683  10.302  63.977  1.00  0.00    -0.306 OA 
HETATM    5  C   UNL     1      -9.494  10.132  66.769  1.00  0.00    -0.205 A  
HETATM    6  C   UNL     1      -9.418  10.049  68.168  1.00  0.00    -0.138 A  
HETATM    7  C   UNL     1     -10.272  10.860  68.925  1.00  0.00    -0.213 A  
HETATM    8  C   UNL     1     -11.247  11.794  66.928  1.00  0.00    -0.327 A  
HETATM    9  H   UNL     1     -12.729  13.173  66.878  1.00  0.00     0.000 HD 
HETATM   10  C   UNL     1     -11.181  11.731  68.318  1.00  0.00    -0.313 A  
HETATM   11  O   UNL     1     -12.158  12.636  66.342  1.00  0.00    -0.530 OA 
ENDROOT
BRANCH   6  12
HETATM   12  N   UNL     1      -8.598   9.142  68.873  1.00  0.00    -0.129 NA 
HETATM   13  H   UNL     1      -7.957   9.428  69.613  1.00  0.00     0.000 HD 
BRANCH  12  14
HETATM   14  N   UNL     1      -8.732   7.957  68.505  1.00  0.00    -0.131 NA 
HETATM   15  H   UNL     1      -8.744   7.662  67.529  1.00  0.00     0.000 HD 
BRANCH  14  16
HETATM   16  C   UNL     1      -8.865   7.071  69.600  1.00  0.00    -0.141 A  
HETATM   17  C   UNL     1      -7.877   5.274  70.922  1.00  0.00    -0.098 A  
HETATM   18  C   UNL     1      -7.792   6.221  69.896  1.00  0.00    -0.110 A  
HETATM   19  C   UNL     1      -9.054   5.161  71.662  1.00  0.00    -0.141 A  
HETATM   20  C   UNL     1     -10.145   5.997  71.397  1.00  0.00    -0.236 A  
HETATM   21  O   UNL     1      -9.135   4.212  72.651  1.00  0.00    -0.108 OA 
HETATM   22  C   UNL     1     -11.438   5.945  72.141  1.00  0.00    -0.276 C  
HETATM   23  C   UNL     1     -10.038   6.944  70.362  1.00  0.00    -0.201 A  
HETATM   24  H   UNL     1      -9.937   4.135  73.154  1.00  0.00     0.000 HD 
HETATM   25  O   UNL     1     -11.523   4.993  73.093  1.00  0.00    -0.327 OA 
HETATM   26  O   UNL     1     -12.361   6.708  71.903  1.00  0.00    -0.342 OA 
ENDBRANCH  14  16
ENDBRANCH  12  14
ENDBRANCH   6  12
TORSDOF 3
ENDMDL
MODEL      235
REMARK 921   NORMALIZED FREE ENERGY PREDICTED BY IDOCK:   -4.55 KCAL/MOL
REMARK 922        TOTAL FREE ENERGY PREDICTED BY IDOCK:   -5.72 KCAL/MOL
REMARK 923 INTER-LIGAND FREE ENERGY PREDICTED BY IDOCK:   -5.17 KCAL/MOL
REMARK 924 INTRA-LIGAND FREE ENERGY PREDICTED BY IDOCK:   -0.55 KCAL/MOL
REMARK 927      BINDING AFFINITY PREDICTED BY RF-SCORE:    0.00 PKD
ROOT
HETATM    1  O   UNL     1      -7.890   5.198  73.507  1.00  0.00    -0.104 OA 
HETATM    2  C   UNL     1      -8.305   5.281  72.225  1.00  0.00    -0.122 C  
HETATM    3  C   UNL     1      -9.593   6.005  72.013  1.00  0.00    -0.167 A  
HETATM    4  O   UNL     1      -7.667   4.795  71.304  1.00  0.00    -0.078 OA 
HETATM    5  C   UNL     1     -10.059   6.121  70.688  1.00  0.00    -0.240 A  
HETATM    6  C   UNL     1     -11.253   6.798  70.392  1.00  0.00    -0.328 A  
HETATM    7  C   UNL     1     -11.976   7.355  71.454  1.00  0.00    -0.340 A  
HETATM    8  C   UNL     1     -10.342   6.581  73.048  1.00  0.00    -0.218 A  
HETATM    9  H   UNL     1     -10.412   6.894  75.047  1.00  0.00     0.000 HD 
HETATM   10  C   UNL     1     -11.533   7.250  72.774  1.00  0.00    -0.273 A  
HETATM   11  O   UNL     1      -9.904   6.503  74.345  1.00  0.00    -0.271 OA 
ENDROOT
BRANCH   6  12
HETATM   12  N   UNL     1     -11.739   7.032  69.087  1.00  0.00    -0.328 NA 
HETATM   13  H   UNL     1     -12.676   7.387  68.896  1.00  0.00     0.000 HD 
BRANCH  12  14
HETATM   14  N   UNL     1     -10.913   6.764  68.191  1.00  0.00    -0.463 NA 
HETATM   15  H   UNL     1     -10.764   5.827  67.816  1.00  0.00     0.000 HD 
BRANCH  14  16
HETATM   16  C   UNL     1     -10.209   7.910  67.754  1.00  0.00    -0.216 A  
HETATM   17  C   UNL     1      -8.052   8.924  67.238  1.00  0.00    -0.104 A  
HETATM   18  C   UNL     1      -8.820   7.815  67.603  1.00  0.00    -0.128 A  
HETATM   19  C   UNL     1      -8.671  10.156  67.029  1.00  0.00    -0.132 A  
HETATM   20  C   UNL     1     -10.058  10.288  67.166  1.00  0.00    -0.259 A  
HETATM   21  O   UNL     1      -7.904  11.244  66.695  1.00  0.00    -0.150 OA 
HETATM   22  C   UNL     1     -10.801  11.566  66.959  1.00  0.00    -0.273 C  
HETATM   23  C   UNL     1     -10.814   9.158  67.532  1.00  0.00    -0.151 A  
HETATM   24  H   UNL     1      -8.326  12.083  66.553  1.00  0.00     0.000 HD 
HETATM   25  O   UNL     1     -10.040  12.638  66.658  1.00  0.00    -0.232 OA 
HETATM   26  O   UNL     1     -12.016  11.640  67.060  1.00  0.00    -0.593 OA 
ENDBRANCH  14  16
ENDBRANCH  12  14
ENDBRANCH   6  12
TORSDOF 3
ENDMDL
MODEL      236
REMARK 921   NORMALIZED FREE ENERGY PREDICTED BY IDOCK:   -4.54 KCAL/MOL
REMARK 922        TOTAL FREE ENERGY PREDICTED BY IDOCK:   -5.70 KCAL/MOL
REMARK 923 INTER-LIGAND FREE ENERGY PREDICTED BY IDOCK:   -5.18 KCAL/MOL
REMARK 924 INTRA-LIGAND FREE ENERGY PREDICTED BY IDOCK:   -0.51 KCAL/MOL
REMARK 927      BINDING AFFINITY PREDICTED BY RF-SCORE:    0.00 PKD
ROOT
HETATM    1  O   UNL     1      -8.396   8.393  66.000  1.00  0.00    -0.112 OA 
HETATM    2  C   UNL     1      -8.656   9.626  65.517  1.00  0.00    -0.147 C  
HETATM    3  C   UNL     1      -9.712  10.391  66.244  1.00  0.00    -0.256 A  
HETATM    4  O   UNL     1      -8.066  10.081  64.550  1.00  0.00    -0.144 OA 
HETATM    5  C   UNL     1     -10.010  11.687  65.776  1.00  0.00    -0.270 A  
HETATM    6  C   UNL     1     -10.978  12.485  66.406  1.00  0.00    -0.273 A  
HETATM    7  C   UNL     1     -11.648  11.955  67.516  1.00  0.00    -0.374 A  
HETATM    8  C   UNL     1     -10.400   9.899  67.361  1.00  0.00    -0.246 A  
HETATM    9  H   UNL     1     -10.584   8.316  68.610  1.00  0.00     0.000 HD 
HETATM   10  C   UNL     1     -11.370  10.673  67.995  1.00  0.00    -0.350 A  
HETATM   11  O   UNL     1     -10.118   8.650  67.852  1.00  0.00    -0.182 OA 
ENDROOT
BRANCH   6  12
HETATM   12  N   UNL     1     -11.269  13.820  66.053  1.00  0.00    -0.302 NA 
HETATM   13  H   UNL     1     -12.167  14.264  66.243  1.00  0.00     0.000 HD 
BRANCH  12  14
HETATM   14  N   UNL     1     -10.323  14.405  65.487  1.00  0.00    -0.341 NA 
HETATM   15  H   UNL     1     -10.064  14.256  64.512  1.00  0.00     0.000 HD 
BRANCH  14  16
HETATM   16  C   UNL     1      -9.653  15.298  66.355  1.00  0.00    -0.292 A  
HETATM   17  C   UNL     1      -9.144  17.614  66.928  1.00  0.00    -0.262 A  
HETATM   18  C   UNL     1      -9.826  16.673  66.151  1.00  0.00    -0.340 A  
HETATM   19  C   UNL     1      -8.265  17.184  67.921  1.00  0.00    -0.202 A  
HETATM   20  C   UNL     1      -8.071  15.818  68.158  1.00  0.00    -0.140 A  
HETATM   21  O   UNL     1      -7.582  18.116  68.663  1.00  0.00    -0.286 OA 
HETATM   22  C   UNL     1      -7.153  15.272  69.201  1.00  0.00    -0.155 C  
HETATM   23  C   UNL     1      -8.769  14.887  67.366  1.00  0.00    -0.208 A  
HETATM   24  H   UNL     1      -6.984  17.823  69.339  1.00  0.00     0.000 HD 
HETATM   25  O   UNL     1      -6.464  16.192  69.908  1.00  0.00    -0.188 OA 
HETATM   26  O   UNL     1      -7.028  14.074  69.400  1.00  0.00    -0.110 OA 
ENDBRANCH  14  16
ENDBRANCH  12  14
ENDBRANCH   6  12
TORSDOF 3
ENDMDL
MODEL      237
REMARK 921   NORMALIZED FREE ENERGY PREDICTED BY IDOCK:   -4.47 KCAL/MOL
REMARK 922        TOTAL FREE ENERGY PREDICTED BY IDOCK:   -5.62 KCAL/MOL
REMARK 923 INTER-LIGAND FREE ENERGY PREDICTED BY IDOCK:   -5.08 KCAL/MOL
REMARK 924 INTRA-LIGAND FREE ENERGY PREDICTED BY IDOCK:   -0.54 KCAL/MOL
REMARK 927      BINDING AFFINITY PREDICTED BY RF-SCORE:    0.00 PKD
ROOT
HETATM    1  O   UNL     1     -12.024  11.719  63.254  1.00  0.00    -0.422 OA 
HETATM    2  C   UNL     1     -11.214  11.465  64.303  1.00  0.00    -0.232 C  
HETATM    3  C   UNL     1     -11.309  12.432  65.437  1.00  0.00    -0.379 A  
HETATM    4  O   UNL     1     -10.455  10.509  64.320  1.00  0.00    -0.287 OA 
HETATM    5  C   UNL     1     -10.484  12.200  66.556  1.00  0.00    -0.254 A  
HETATM    6  C   UNL     1     -10.517  13.048  67.674  1.00  0.00    -0.225 A  
HETATM    7  C   UNL     1     -11.392  14.141  67.647  1.00  0.00    -0.342 A  
HETATM    8  C   UNL     1     -12.176  13.533  65.450  1.00  0.00    -0.447 A  
HETATM    9  H   UNL     1     -13.594  14.520  64.394  1.00  0.00     0.000 HD 
HETATM   10  C   UNL     1     -12.216  14.390  66.548  1.00  0.00    -0.358 A  
HETATM   11  O   UNL     1     -13.005  13.774  64.385  1.00  0.00    -0.528 OA 
ENDROOT
BRANCH   6  12
HETATM   12  N   UNL     1      -9.789  12.833  68.864  1.00  0.00    -0.417 NA 
HETATM   13  H   UNL     1     -10.202  12.431  69.705  1.00  0.00     0.000 HD 
BRANCH  12  14
HETATM   14  N   UNL     1      -8.593  13.180  68.789  1.00  0.00    -0.373 NA 
HETATM   15  H   UNL     1      -8.274  14.145  68.871  1.00  0.00     0.000 HD 
BRANCH  14  16
HETATM   16  C   UNL     1      -7.731  12.079  68.576  1.00  0.00    -0.127 A  
HETATM   17  C   UNL     1      -5.739  11.213  67.466  1.00  0.00    -0.047 A  
HETATM   18  C   UNL     1      -6.600  12.271  67.772  1.00  0.00    -0.108 A  
HETATM   19  C   UNL     1      -6.010   9.936  67.958  1.00  0.00    -0.039 A  
HETATM   20  C   UNL     1      -7.128   9.708  68.769  1.00  0.00    -0.067 A  
HETATM   21  O   UNL     1      -5.171   8.900  67.631  1.00  0.00    -0.034 OA 
HETATM   22  C   UNL     1      -7.489   8.376  69.339  1.00  0.00    -0.089 C  
HETATM   23  C   UNL     1      -7.981  10.787  69.067  1.00  0.00    -0.137 A  
HETATM   24  H   UNL     1      -5.356   8.030  67.967  1.00  0.00     0.000 HD 
HETATM   25  O   UNL     1      -6.677   7.356  68.993  1.00  0.00    -0.049 OA 
HETATM   26  O   UNL     1      -8.457   8.218  70.067  1.00  0.00    -0.119 OA 
ENDBRANCH  14  16
ENDBRANCH  12  14
ENDBRANCH   6  12
TORSDOF 3
ENDMDL
MODEL      238
REMARK 921   NORMALIZED FREE ENERGY PREDICTED BY IDOCK:   -4.44 KCAL/MOL
REMARK 922        TOTAL FREE ENERGY PREDICTED BY IDOCK:   -5.58 KCAL/MOL
REMARK 923 INTER-LIGAND FREE ENERGY PREDICTED BY IDOCK:   -5.75 KCAL/MOL
REMARK 924 INTRA-LIGAND FREE ENERGY PREDICTED BY IDOCK:    0.17 KCAL/MOL
REMARK 927      BINDING AFFINITY PREDICTED BY RF-SCORE:    0.00 PKD
ROOT
HETATM    1  O   UNL     1     -13.509  12.656  71.617  1.00  0.00    -0.305 OA 
HETATM    2  C   UNL     1     -12.575  12.445  70.667  1.00  0.00    -0.153 C  
HETATM    3  C   UNL     1     -11.808  13.653  70.240  1.00  0.00    -0.336 A  
HETATM    4  O   UNL     1     -12.373  11.340  70.190  1.00  0.00    -0.296 OA 
HETATM    5  C   UNL     1     -10.817  13.476  69.254  1.00  0.00    -0.107 A  
HETATM    6  C   UNL     1     -10.037  14.552  68.803  1.00  0.00    -0.239 A  
HETATM    7  C   UNL     1     -10.273  15.816  69.357  1.00  0.00    -0.262 A  
HETATM    8  C   UNL     1     -12.011  14.932  70.776  1.00  0.00    -0.314 A  
HETATM    9  H   UNL     1     -13.091  16.001  72.114  1.00  0.00     0.000 HD 
HETATM   10  C   UNL     1     -11.252  16.015  70.334  1.00  0.00    -0.401 A  
HETATM   11  O   UNL     1     -12.954  15.133  71.751  1.00  0.00    -0.319 OA 
ENDROOT
BRANCH   6  12
HETATM   12  N   UNL     1      -8.970  14.439  67.886  1.00  0.00    -0.179 NA 
HETATM   13  H   UNL     1      -8.133  13.886  68.070  1.00  0.00     0.000 HD 
BRANCH  12  14
HETATM   14  N   UNL     1      -9.147  15.079  66.830  1.00  0.00    -0.245 NA 
HETATM   15  H   UNL     1      -9.579  14.687  65.993  1.00  0.00     0.000 HD 
BRANCH  14  16
HETATM   16  C   UNL     1      -8.680  16.410  66.928  1.00  0.00    -0.204 A  
HETATM   17  C   UNL     1      -6.825  17.904  67.456  1.00  0.00    -0.192 A  
HETATM   18  C   UNL     1      -7.339  16.616  67.277  1.00  0.00    -0.203 A  
HETATM   19  C   UNL     1      -7.659  19.010  67.297  1.00  0.00    -0.229 A  
HETATM   20  C   UNL     1      -9.004  18.843  66.945  1.00  0.00    -0.306 A  
HETATM   21  O   UNL     1      -7.150  20.268  67.499  1.00  0.00    -0.259 OA 
HETATM   22  C   UNL     1      -9.964  19.970  66.753  1.00  0.00    -0.454 C  
HETATM   23  C   UNL     1      -9.501  17.538  66.767  1.00  0.00    -0.282 A  
HETATM   24  H   UNL     1      -7.719  21.022  67.392  1.00  0.00     0.000 HD 
HETATM   25  O   UNL     1      -9.466  21.203  66.979  1.00  0.00    -0.172 OA 
HETATM   26  O   UNL     1     -11.124  19.790  66.417  1.00  0.00    -0.297 OA 
ENDBRANCH  14  16
ENDBRANCH  12  14
ENDBRANCH   6  12
TORSDOF 3
ENDMDL
MODEL      239
REMARK 921   NORMALIZED FREE ENERGY PREDICTED BY IDOCK:   -4.41 KCAL/MOL
REMARK 922        TOTAL FREE ENERGY PREDICTED BY IDOCK:   -5.54 KCAL/MOL
REMARK 923 INTER-LIGAND FREE ENERGY PREDICTED BY IDOCK:   -5.54 KCAL/MOL
REMARK 924 INTRA-LIGAND FREE ENERGY PREDICTED BY IDOCK:    0.00 KCAL/MOL
REMARK 927      BINDING AFFINITY PREDICTED BY RF-SCORE:    0.00 PKD
ROOT
HETATM    1  O   UNL     1      -8.379   7.584  70.438  1.00  0.00    -0.125 OA 
HETATM    2  C   UNL     1      -9.118   8.240  71.357  1.00  0.00    -0.170 C  
HETATM    3  C   UNL     1     -10.198   9.114  70.811  1.00  0.00    -0.325 A  
HETATM    4  O   UNL     1      -8.913   8.124  72.555  1.00  0.00    -0.176 OA 
HETATM    5  C   UNL     1     -10.997   9.811  71.738  1.00  0.00     0.231 A  
HETATM    6  C   UNL     1     -12.045  10.644  71.315  1.00  0.00    -0.299 A  
HETATM    7  C   UNL     1     -12.275  10.768  69.940  1.00  0.00    -0.384 A  
HETATM    8  C   UNL     1     -10.462   9.259  69.442  1.00  0.00    -0.219 A  
HETATM    9  H   UNL     1      -9.895   8.676  67.588  1.00  0.00     0.000 HD 
HETATM   10  C   UNL     1     -11.494  10.088  69.003  1.00  0.00    -0.069 A  
HETATM   11  O   UNL     1      -9.715   8.578  68.516  1.00  0.00    -0.157 OA 
ENDROOT
BRANCH   6  12
HETATM   12  N   UNL     1     -12.943  11.304  72.182  1.00  0.00    -0.389 NA 
HETATM   13  H   UNL     1     -13.017  11.090  73.177  1.00  0.00     0.000 HD 
BRANCH  12  14
HETATM   14  N   UNL     1     -13.637  12.173  71.616  1.00  0.00     0.024 NA 
HETATM   15  H   UNL     1     -14.582  12.010  71.270  1.00  0.00     0.000 HD 
BRANCH  14  16
HETATM   16  C   UNL     1     -12.959  13.410  71.510  1.00  0.00    -0.341 A  
HETATM   17  C   UNL     1     -12.131  15.403  72.646  1.00  0.00    -0.535 A  
HETATM   18  C   UNL     1     -12.736  14.143  72.682  1.00  0.00    -0.363 A  
HETATM   19  C   UNL     1     -11.750  15.953  71.422  1.00  0.00    -0.467 A  
HETATM   20  C   UNL     1     -11.953  15.247  70.231  1.00  0.00    -0.367 A  
HETATM   21  O   UNL     1     -11.179  17.201  71.396  1.00  0.00    -0.108 OA 
HETATM   22  C   UNL     1     -11.574  15.758  68.880  1.00  0.00    -0.394 C  
HETATM   23  C   UNL     1     -12.561  13.979  70.289  1.00  0.00    -0.354 A  
HETATM   24  H   UNL     1     -10.920  17.575  70.562  1.00  0.00     0.000 HD 
HETATM   25  O   UNL     1     -11.038  16.996  68.858  1.00  0.00    -0.221 OA 
HETATM   26  O   UNL     1     -11.740  15.104  67.863  1.00  0.00    -0.338 OA 
ENDBRANCH  14  16
ENDBRANCH  12  14
ENDBRANCH   6  12
TORSDOF 3
ENDMDL
MODEL      240
REMARK 921   NORMALIZED FREE ENERGY PREDICTED BY IDOCK:   -4.40 KCAL/MOL
REMARK 922        TOTAL FREE ENERGY PREDICTED BY IDOCK:   -5.53 KCAL/MOL
REMARK 923 INTER-LIGAND FREE ENERGY PREDICTED BY IDOCK:   -5.18 KCAL/MOL
REMARK 924 INTRA-LIGAND FREE ENERGY PREDICTED BY IDOCK:   -0.35 KCAL/MOL
REMARK 927      BINDING AFFINITY PREDICTED BY RF-SCORE:    0.00 PKD
ROOT
HETATM    1  O   UNL     1      -6.880  16.949  67.556  1.00  0.00    -0.132 OA 
HETATM    2  C   UNL     1      -7.064  15.612  67.572  1.00  0.00    -0.186 C  
HETATM    3  C   UNL     1      -8.483  15.158  67.661  1.00  0.00    -0.171 A  
HETATM    4  O   UNL     1      -6.128  14.829  67.519  1.00  0.00    -0.317 OA 
HETATM    5  C   UNL     1      -8.719  13.769  67.673  1.00  0.00    -0.185 A  
HETATM    6  C   UNL     1     -10.022  13.252  67.739  1.00  0.00    -0.223 A  
HETATM    7  C   UNL     1     -11.089  14.157  67.796  1.00  0.00    -0.292 A  
HETATM    8  C   UNL     1      -9.577  16.033  67.713  1.00  0.00    -0.219 A  
HETATM    9  H   UNL     1     -10.123  17.983  67.717  1.00  0.00     0.000 HD 
HETATM   10  C   UNL     1     -10.878  15.538  67.787  1.00  0.00    -0.309 A  
HETATM   11  O   UNL     1      -9.381  17.390  67.682  1.00  0.00    -0.241 OA 
ENDROOT
BRANCH   6  12
HETATM   12  N   UNL     1     -10.344  11.880  67.667  1.00  0.00    -0.198 NA 
HETATM   13  H   UNL     1     -11.281  11.536  67.454  1.00  0.00     0.000 HD 
BRANCH  12  14
HETATM   14  N   UNL     1      -9.374  11.126  67.888  1.00  0.00    -0.157 NA 
HETATM   15  H   UNL     1      -8.399  11.414  67.806  1.00  0.00     0.000 HD 
BRANCH  14  16
HETATM   16  C   UNL     1      -9.784   9.827  68.267  1.00  0.00    -0.145 A  
HETATM   17  C   UNL     1     -10.459   7.594  67.552  1.00  0.00    -0.336 A  
HETATM   18  C   UNL     1      -9.991   8.878  67.257  1.00  0.00    -0.277 A  
HETATM   19  C   UNL     1     -10.737   7.246  68.873  1.00  0.00    -0.150 A  
HETATM   20  C   UNL     1     -10.538   8.166  69.909  1.00  0.00    -0.239 A  
HETATM   21  O   UNL     1     -11.219   5.990  69.148  1.00  0.00    -0.378 OA 
HETATM   22  C   UNL     1     -10.807   7.876  71.349  1.00  0.00    -0.226 C  
HETATM   23  C   UNL     1     -10.064   9.453  69.592  1.00  0.00    -0.218 A  
HETATM   24  H   UNL     1     -11.409   5.754  70.048  1.00  0.00     0.000 HD 
HETATM   25  O   UNL     1     -11.306   6.650  71.611  1.00  0.00    -0.251 OA 
HETATM   26  O   UNL     1     -10.595   8.692  72.231  1.00  0.00    -0.334 OA 
ENDBRANCH  14  16
ENDBRANCH  12  14
ENDBRANCH   6  12
TORSDOF 3
ENDMDL
MODEL      241
REMARK 921   NORMALIZED FREE ENERGY PREDICTED BY IDOCK:   -4.35 KCAL/MOL
REMARK 922        TOTAL FREE ENERGY PREDICTED BY IDOCK:   -5.48 KCAL/MOL
REMARK 923 INTER-LIGAND FREE ENERGY PREDICTED BY IDOCK:   -4.93 KCAL/MOL
REMARK 924 INTRA-LIGAND FREE ENERGY PREDICTED BY IDOCK:   -0.55 KCAL/MOL
REMARK 927      BINDING AFFINITY PREDICTED BY RF-SCORE:    0.00 PKD
ROOT
HETATM    1  O   UNL     1      -9.888   9.096  69.154  1.00  0.00    -0.164 OA 
HETATM    2  C   UNL     1      -9.974  10.437  69.032  1.00  0.00    -0.214 C  
HETATM    3  C   UNL     1     -11.033  11.091  69.856  1.00  0.00    -0.218 A  
HETATM    4  O   UNL     1      -9.234  11.069  68.296  1.00  0.00    -0.152 OA 
HETATM    5  C   UNL     1     -11.152  12.492  69.763  1.00  0.00     0.110 A  
HETATM    6  C   UNL     1     -12.110  13.194  70.512  1.00  0.00    -0.306 A  
HETATM    7  C   UNL     1     -12.953  12.461  71.357  1.00  0.00    -0.348 A  
HETATM    8  C   UNL     1     -11.891  10.393  70.717  1.00  0.00    -0.368 A  
HETATM    9  H   UNL     1     -12.368   8.558  71.428  1.00  0.00     0.000 HD 
HETATM   10  C   UNL     1     -12.853  11.071  71.462  1.00  0.00    -0.555 A  
HETATM   11  O   UNL     1     -11.787   9.032  70.844  1.00  0.00    -0.282 OA 
ENDROOT
BRANCH   6  12
HETATM   12  N   UNL     1     -12.232  14.599  70.541  1.00  0.00    -0.302 NA 
HETATM   13  H   UNL     1     -11.899  15.173  71.316  1.00  0.00     0.000 HD 
BRANCH  12  14
HETATM   14  N   UNL     1     -12.786  15.074  69.528  1.00  0.00    -0.564 NA 
HETATM   15  H   UNL     1     -13.789  15.024  69.352  1.00  0.00     0.000 HD 
BRANCH  14  16
HETATM   16  C   UNL     1     -11.860  15.689  68.654  1.00  0.00    -0.291 A  
HETATM   17  C   UNL     1     -10.127  17.380  68.353  1.00  0.00    -0.347 A  
HETATM   18  C   UNL     1     -11.021  16.684  69.172  1.00  0.00    -0.276 A  
HETATM   19  C   UNL     1     -10.071  17.092  66.990  1.00  0.00    -0.297 A  
HETATM   20  C   UNL     1     -10.891  16.102  66.437  1.00  0.00    -0.131 A  
HETATM   21  O   UNL     1      -9.207  17.799  66.190  1.00  0.00    -0.457 OA 
HETATM   22  C   UNL     1     -10.893  15.729  64.991  1.00  0.00    -0.443 C  
HETATM   23  C   UNL     1     -11.782  15.411  67.279  1.00  0.00     0.006 A  
HETATM   24  H   UNL     1      -9.170  17.603  65.261  1.00  0.00     0.000 HD 
HETATM   25  O   UNL     1     -10.062  16.444  64.205  1.00  0.00     1.067 OA 
HETATM   26  O   UNL     1     -11.602  14.839  64.546  1.00  0.00    -0.395 OA 
ENDBRANCH  14  16
ENDBRANCH  12  14
ENDBRANCH   6  12
TORSDOF 3
ENDMDL
MODEL      242
REMARK 921   NORMALIZED FREE ENERGY PREDICTED BY IDOCK:   -4.25 KCAL/MOL
REMARK 922        TOTAL FREE ENERGY PREDICTED BY IDOCK:   -5.36 KCAL/MOL
REMARK 923 INTER-LIGAND FREE ENERGY PREDICTED BY IDOCK:   -4.92 KCAL/MOL
REMARK 924 INTRA-LIGAND FREE ENERGY PREDICTED BY IDOCK:   -0.44 KCAL/MOL
REMARK 927      BINDING AFFINITY PREDICTED BY RF-SCORE:    0.00 PKD
ROOT
HETATM    1  O   UNL     1      -7.506   4.966  64.699  1.00  0.00    -0.069 OA 
HETATM    2  C   UNL     1      -7.874   6.217  65.045  1.00  0.00    -0.110 C  
HETATM    3  C   UNL     1      -8.971   6.309  66.054  1.00  0.00    -0.150 A  
HETATM    4  O   UNL     1      -7.344   7.205  64.563  1.00  0.00    -0.069 OA 
HETATM    5  C   UNL     1      -9.380   7.598  66.450  1.00  0.00    -0.228 A  
HETATM    6  C   UNL     1     -10.394   7.780  67.403  1.00  0.00    -0.284 A  
HETATM    7  C   UNL     1     -10.995   6.641  67.953  1.00  0.00    -0.342 A  
HETATM    8  C   UNL     1      -9.592   5.193  66.632  1.00  0.00    -0.154 A  
HETATM    9  H   UNL     1      -9.623   3.169  66.675  1.00  0.00     0.000 HD 
HETATM   10  C   UNL     1     -10.606   5.354  67.574  1.00  0.00    -0.204 A  
HETATM   11  O   UNL     1      -9.202   3.925  66.283  1.00  0.00    -0.143 OA 
ENDROOT
BRANCH   6  12
HETATM   12  N   UNL     1     -10.797   9.032  67.914  1.00  0.00    -0.480 NA 
HETATM   13  H   UNL     1     -11.768   9.260  68.131  1.00  0.00     0.000 HD 
BRANCH  12  14
HETATM   14  N   UNL     1      -9.855   9.834  68.075  1.00  0.00    -0.145 NA 
HETATM   15  H   UNL     1      -8.920   9.560  68.376  1.00  0.00     0.000 HD 
BRANCH  14  16
HETATM   16  C   UNL     1     -10.234  11.167  67.793  1.00  0.00    -0.180 A  
HETATM   17  C   UNL     1     -11.789  12.664  66.657  1.00  0.00    -0.449 A  
HETATM   18  C   UNL     1     -11.390  11.378  67.030  1.00  0.00    -0.309 A  
HETATM   19  C   UNL     1     -11.022  13.764  67.039  1.00  0.00    -0.290 A  
HETATM   20  C   UNL     1      -9.864  13.593  67.806  1.00  0.00    -0.232 A  
HETATM   21  O   UNL     1     -11.410  15.021  66.647  1.00  0.00    -0.344 OA 
HETATM   22  C   UNL     1      -8.987  14.713  68.259  1.00  0.00    -0.184 C  
HETATM   23  C   UNL     1      -9.480  12.289  68.173  1.00  0.00    -0.213 A  
HETATM   24  H   UNL     1     -10.887  15.771  66.907  1.00  0.00     0.000 HD 
HETATM   25  O   UNL     1      -9.358  15.944  67.849  1.00  0.00    -0.205 OA 
HETATM   26  O   UNL     1      -7.998  14.531  68.952  1.00  0.00    -0.140 OA 
ENDBRANCH  14  16
ENDBRANCH  12  14
ENDBRANCH   6  12
TORSDOF 3
ENDMDL
MODEL      243
REMARK 921   NORMALIZED FREE ENERGY PREDICTED BY IDOCK:   -4.24 KCAL/MOL
REMARK 922        TOTAL FREE ENERGY PREDICTED BY IDOCK:   -5.34 KCAL/MOL
REMARK 923 INTER-LIGAND FREE ENERGY PREDICTED BY IDOCK:   -4.94 KCAL/MOL
REMARK 924 INTRA-LIGAND FREE ENERGY PREDICTED BY IDOCK:   -0.40 KCAL/MOL
REMARK 927      BINDING AFFINITY PREDICTED BY RF-SCORE:    0.00 PKD
ROOT
HETATM    1  O   UNL     1     -11.959   8.217  72.284  1.00  0.00    -0.337 OA 
HETATM    2  C   UNL     1     -11.825   9.314  71.509  1.00  0.00    -0.374 C  
HETATM    3  C   UNL     1     -10.482   9.501  70.885  1.00  0.00    -0.382 A  
HETATM    4  O   UNL     1     -12.744  10.099  71.334  1.00  0.00    -0.353 OA 
HETATM    5  C   UNL     1     -10.303  10.630  70.062  1.00  0.00     0.016 A  
HETATM    6  C   UNL     1      -9.078  10.879  69.423  1.00  0.00     0.125 A  
HETATM    7  C   UNL     1      -8.031   9.972  69.627  1.00  0.00    -0.176 A  
HETATM    8  C   UNL     1      -9.412   8.613  71.061  1.00  0.00    -0.207 A  
HETATM    9  H   UNL     1      -8.837   6.891  71.958  1.00  0.00     0.000 HD 
HETATM   10  C   UNL     1      -8.187   8.847  70.440  1.00  0.00    -0.146 A  
HETATM   11  O   UNL     1      -9.562   7.494  71.840  1.00  0.00    -0.147 OA 
ENDROOT
BRANCH   6  12
HETATM   12  N   UNL     1      -8.848  11.936  68.517  1.00  0.00    -0.302 NA 
HETATM   13  H   UNL     1      -9.455  12.130  67.720  1.00  0.00     0.000 HD 
BRANCH  12  14
HETATM   14  N   UNL     1      -7.833  12.611  68.782  1.00  0.00    -0.309 NA 
HETATM   15  H   UNL     1      -7.005  12.236  69.246  1.00  0.00     0.000 HD 
BRANCH  14  16
HETATM   16  C   UNL     1      -7.963  13.957  68.366  1.00  0.00    -0.144 A  
HETATM   17  C   UNL     1      -6.928  15.884  67.287  1.00  0.00    -0.241 A  
HETATM   18  C   UNL     1      -6.896  14.540  67.672  1.00  0.00    -0.203 A  
HETATM   19  C   UNL     1      -8.036  16.668  67.606  1.00  0.00    -0.174 A  
HETATM   20  C   UNL     1      -9.123  16.118  68.295  1.00  0.00    -0.190 A  
HETATM   21  O   UNL     1      -8.046  17.993  67.245  1.00  0.00    -0.206 OA 
HETATM   22  C   UNL     1     -10.348  16.884  68.673  1.00  0.00    -0.332 C  
HETATM   23  C   UNL     1      -9.072  14.763  68.671  1.00  0.00    -0.186 A  
HETATM   24  H   UNL     1      -8.801  18.527  67.462  1.00  0.00     0.000 HD 
HETATM   25  O   UNL     1     -10.341  18.191  68.340  1.00  0.00    -0.374 OA 
HETATM   26  O   UNL     1     -11.291  16.366  69.250  1.00  0.00    -0.300 OA 
ENDBRANCH  14  16
ENDBRANCH  12  14
ENDBRANCH   6  12
TORSDOF 3
ENDMDL
MODEL      244
REMARK 921   NORMALIZED FREE ENERGY PREDICTED BY IDOCK:   -4.21 KCAL/MOL
REMARK 922        TOTAL FREE ENERGY PREDICTED BY IDOCK:   -5.31 KCAL/MOL
REMARK 923 INTER-LIGAND FREE ENERGY PREDICTED BY IDOCK:   -4.93 KCAL/MOL
REMARK 924 INTRA-LIGAND FREE ENERGY PREDICTED BY IDOCK:   -0.39 KCAL/MOL
REMARK 927      BINDING AFFINITY PREDICTED BY RF-SCORE:    0.00 PKD
ROOT
HETATM    1  O   UNL     1     -10.796  16.185  67.195  1.00  0.00    -0.302 OA 
HETATM    2  C   UNL     1     -10.511  15.012  66.590  1.00  0.00    -0.284 C  
HETATM    3  C   UNL     1     -10.805  13.788  67.393  1.00  0.00    -0.285 A  
HETATM    4  O   UNL     1     -10.045  14.960  65.463  1.00  0.00    -0.328 OA 
HETATM    5  C   UNL     1     -10.529  12.541  66.796  1.00  0.00    -0.243 A  
HETATM    6  C   UNL     1     -10.787  11.337  67.470  1.00  0.00    -0.245 A  
HETATM    7  C   UNL     1     -11.325  11.406  68.761  1.00  0.00    -0.334 A  
HETATM    8  C   UNL     1     -11.349  13.816  68.684  1.00  0.00    -0.287 A  
HETATM    9  H   UNL     1     -12.016  15.031  70.159  1.00  0.00     0.000 HD 
HETATM   10  C   UNL     1     -11.604  12.631  69.372  1.00  0.00    -0.369 A  
HETATM   11  O   UNL     1     -11.647  15.013  69.284  1.00  0.00    -0.281 OA 
ENDROOT
BRANCH   6  12
HETATM   12  N   UNL     1     -10.621  10.054  66.908  1.00  0.00    -0.220 NA 
HETATM   13  H   UNL     1     -11.342   9.589  66.354  1.00  0.00     0.000 HD 
BRANCH  12  14
HETATM   14  N   UNL     1      -9.510   9.540  67.151  1.00  0.00    -0.145 NA 
HETATM   15  H   UNL     1      -8.619  10.006  66.983  1.00  0.00     0.000 HD 
BRANCH  14  16
HETATM   16  C   UNL     1      -9.632   8.238  67.689  1.00  0.00    -0.152 A  
HETATM   17  C   UNL     1      -9.988   6.855  69.667  1.00  0.00    -0.179 A  
HETATM   18  C   UNL     1      -9.918   8.110  69.054  1.00  0.00    -0.191 A  
HETATM   19  C   UNL     1      -9.759   5.704  68.914  1.00  0.00    -0.138 A  
HETATM   20  C   UNL     1      -9.475   5.793  67.546  1.00  0.00    -0.112 A  
HETATM   21  O   UNL     1      -9.806   4.479  69.531  1.00  0.00    -0.204 OA 
HETATM   22  C   UNL     1      -9.220   4.613  66.666  1.00  0.00    -0.129 C  
HETATM   23  C   UNL     1      -9.411   7.065  66.948  1.00  0.00    -0.199 A  
HETATM   24  H   UNL     1      -9.650   3.695  69.018  1.00  0.00     0.000 HD 
HETATM   25  O   UNL     1      -9.241   3.414  67.283  1.00  0.00    -0.165 OA 
HETATM   26  O   UNL     1      -9.002   4.724  65.470  1.00  0.00    -0.135 OA 
ENDBRANCH  14  16
ENDBRANCH  12  14
ENDBRANCH   6  12
TORSDOF 3
ENDMDL
MODEL      245
REMARK 921   NORMALIZED FREE ENERGY PREDICTED BY IDOCK:   -4.20 KCAL/MOL
REMARK 922        TOTAL FREE ENERGY PREDICTED BY IDOCK:   -5.30 KCAL/MOL
REMARK 923 INTER-LIGAND FREE ENERGY PREDICTED BY IDOCK:   -4.76 KCAL/MOL
REMARK 924 INTRA-LIGAND FREE ENERGY PREDICTED BY IDOCK:   -0.55 KCAL/MOL
REMARK 927      BINDING AFFINITY PREDICTED BY RF-SCORE:    0.00 PKD
ROOT
HETATM    1  O   UNL     1      -6.125  10.856  65.553  1.00  0.00    -0.100 OA 
HETATM    2  C   UNL     1      -7.296  10.228  65.786  1.00  0.00    -0.140 C  
HETATM    3  C   UNL     1      -8.251  10.957  66.672  1.00  0.00    -0.145 A  
HETATM    4  O   UNL     1      -7.553   9.136  65.304  1.00  0.00    -0.095 OA 
HETATM    5  C   UNL     1      -9.490  10.339  66.936  1.00  0.00    -0.200 A  
HETATM    6  C   UNL     1     -10.455  10.957  67.746  1.00  0.00    -0.203 A  
HETATM    7  C   UNL     1     -10.153  12.211  68.292  1.00  0.00    -0.210 A  
HETATM    8  C   UNL     1      -7.988  12.214  67.232  1.00  0.00    -0.176 A  
HETATM    9  H   UNL     1      -6.621  13.703  67.357  1.00  0.00     0.000 HD 
HETATM   10  C   UNL     1      -8.931  12.840  68.045  1.00  0.00    -0.196 A  
HETATM   11  O   UNL     1      -6.800  12.851  66.978  1.00  0.00    -0.051 OA 
ENDROOT
BRANCH   6  12
HETATM   12  N   UNL     1     -11.748  10.445  67.984  1.00  0.00    -0.729 NA 
HETATM   13  H   UNL     1     -12.364  10.117  67.240  1.00  0.00     0.000 HD 
BRANCH  12  14
HETATM   14  N   UNL     1     -12.066  10.430  69.190  1.00  0.00    -0.651 NA 
HETATM   15  H   UNL     1     -12.723  11.085  69.614  1.00  0.00     0.000 HD 
BRANCH  14  16
HETATM   16  C   UNL     1     -11.410   9.399  69.902  1.00  0.00    -0.093 A  
HETATM   17  C   UNL     1     -10.169   8.748  71.899  1.00  0.00    -0.415 A  
HETATM   18  C   UNL     1     -10.886   9.698  71.166  1.00  0.00    -0.404 A  
HETATM   19  C   UNL     1      -9.957   7.478  71.363  1.00  0.00    -0.185 A  
HETATM   20  C   UNL     1     -10.470   7.141  70.105  1.00  0.00    -0.231 A  
HETATM   21  O   UNL     1      -9.231   6.560  72.080  1.00  0.00    -0.141 OA 
HETATM   22  C   UNL     1     -10.293   5.807  69.459  1.00  0.00    -0.263 C  
HETATM   23  C   UNL     1     -11.191   8.112  69.385  1.00  0.00     0.213 A  
HETATM   24  H   UNL     1      -9.086   5.695  71.715  1.00  0.00     0.000 HD 
HETATM   25  O   UNL     1      -9.555   4.918  70.156  1.00  0.00    -0.158 OA 
HETATM   26  O   UNL     1     -10.777   5.537  68.371  1.00  0.00    -0.182 OA 
ENDBRANCH  14  16
ENDBRANCH  12  14
ENDBRANCH   6  12
TORSDOF 3
ENDMDL
MODEL      246
REMARK 921   NORMALIZED FREE ENERGY PREDICTED BY IDOCK:   -4.18 KCAL/MOL
REMARK 922        TOTAL FREE ENERGY PREDICTED BY IDOCK:   -5.28 KCAL/MOL
REMARK 923 INTER-LIGAND FREE ENERGY PREDICTED BY IDOCK:   -4.72 KCAL/MOL
REMARK 924 INTRA-LIGAND FREE ENERGY PREDICTED BY IDOCK:   -0.56 KCAL/MOL
REMARK 927      BINDING AFFINITY PREDICTED BY RF-SCORE:    0.00 PKD
ROOT
HETATM    1  O   UNL     1     -10.003  10.093  64.980  1.00  0.00    -0.322 OA 
HETATM    2  C   UNL     1      -9.630   9.259  65.973  1.00  0.00    -0.270 C  
HETATM    3  C   UNL     1      -8.936   9.903  67.128  1.00  0.00    -0.150 A  
HETATM    4  O   UNL     1      -9.846   8.058  65.927  1.00  0.00     0.027 OA 
HETATM    5  C   UNL     1      -8.536   9.068  68.190  1.00  0.00    -0.130 A  
HETATM    6  C   UNL     1      -7.891   9.588  69.323  1.00  0.00    -0.088 A  
HETATM    7  C   UNL     1      -7.649  10.967  69.370  1.00  0.00    -0.097 A  
HETATM    8  C   UNL     1      -8.683  11.279  67.214  1.00  0.00    -0.145 A  
HETATM    9  H   UNL     1      -8.906  13.053  66.264  1.00  0.00     0.000 HD 
HETATM   10  C   UNL     1      -8.036  11.812  68.327  1.00  0.00    -0.154 A  
HETATM   11  O   UNL     1      -9.078  12.120  66.205  1.00  0.00    -0.206 OA 
ENDROOT
BRANCH   6  12
HETATM   12  N   UNL     1      -7.540   8.833  70.462  1.00  0.00    -0.075 NA 
HETATM   13  H   UNL     1      -6.879   8.057  70.435  1.00  0.00     0.000 HD 
BRANCH  12  14
HETATM   14  N   UNL     1      -8.115   9.205  71.506  1.00  0.00    -0.336 NA 
HETATM   15  H   UNL     1      -7.716   9.868  72.170  1.00  0.00     0.000 HD 
BRANCH  14  16
HETATM   16  C   UNL     1      -9.384   8.600  71.659  1.00  0.00    -0.263 A  
HETATM   17  C   UNL     1     -11.808   8.872  71.634  1.00  0.00    -0.415 A  
HETATM   18  C   UNL     1     -10.522   9.385  71.438  1.00  0.00    -0.358 A  
HETATM   19  C   UNL     1     -11.969   7.558  72.070  1.00  0.00    -0.294 A  
HETATM   20  C   UNL     1     -10.855   6.741  72.297  1.00  0.00    -0.263 A  
HETATM   21  O   UNL     1     -13.235   7.072  72.283  1.00  0.00    -0.521 OA 
HETATM   22  C   UNL     1     -10.936   5.324  72.760  1.00  0.00    -0.275 C  
HETATM   23  C   UNL     1      -9.569   7.276  72.091  1.00  0.00    -0.162 A  
HETATM   24  H   UNL     1     -13.344   6.176  72.580  1.00  0.00     0.000 HD 
HETATM   25  O   UNL     1     -12.182   4.861  72.994  1.00  0.00    -0.079 OA 
HETATM   26  O   UNL     1      -9.945   4.631  72.922  1.00  0.00    -0.142 OA 
ENDBRANCH  14  16
ENDBRANCH  12  14
ENDBRANCH   6  12
TORSDOF 3
ENDMDL
MODEL      247
REMARK 921   NORMALIZED FREE ENERGY PREDICTED BY IDOCK:   -4.18 KCAL/MOL
REMARK 922        TOTAL FREE ENERGY PREDICTED BY IDOCK:   -5.28 KCAL/MOL
REMARK 923 INTER-LIGAND FREE ENERGY PREDICTED BY IDOCK:   -4.95 KCAL/MOL
REMARK 924 INTRA-LIGAND FREE ENERGY PREDICTED BY IDOCK:   -0.33 KCAL/MOL
REMARK 927      BINDING AFFINITY PREDICTED BY RF-SCORE:    0.00 PKD
ROOT
HETATM    1  O   UNL     1      -9.305  20.128  66.329  1.00  0.00    -0.367 OA 
HETATM    2  C   UNL     1      -9.784  18.904  66.025  1.00  0.00    -0.162 C  
HETATM    3  C   UNL     1      -8.929  17.756  66.449  1.00  0.00    -0.252 A  
HETATM    4  O   UNL     1     -10.845  18.750  65.441  1.00  0.00    -0.563 OA 
HETATM    5  C   UNL     1      -9.397  16.459  66.157  1.00  0.00    -0.360 A  
HETATM    6  C   UNL     1      -8.666  15.320  66.531  1.00  0.00    -0.279 A  
HETATM    7  C   UNL     1      -7.452  15.506  67.203  1.00  0.00    -0.244 A  
HETATM    8  C   UNL     1      -7.712  17.901  67.128  1.00  0.00    -0.210 A  
HETATM    9  H   UNL     1      -6.415  19.249  67.905  1.00  0.00     0.000 HD 
HETATM   10  C   UNL     1      -6.969  16.782  67.501  1.00  0.00    -0.167 A  
HETATM   11  O   UNL     1      -7.241  19.150  67.445  1.00  0.00    -0.209 OA 
ENDROOT
BRANCH   6  12
HETATM   12  N   UNL     1      -9.108  13.991  66.354  1.00  0.00    -0.474 NA 
HETATM   13  H   UNL     1      -9.004  13.481  65.477  1.00  0.00     0.000 HD 
BRANCH  12  14
HETATM   14  N   UNL     1      -9.638  13.500  67.371  1.00  0.00    -0.220 NA 
HETATM   15  H   UNL     1     -10.407  13.937  67.880  1.00  0.00     0.000 HD 
BRANCH  14  16
HETATM   16  C   UNL     1      -9.049  12.267  67.737  1.00  0.00    -0.191 A  
HETATM   17  C   UNL     1      -7.169  11.118  68.782  1.00  0.00    -0.098 A  
HETATM   18  C   UNL     1      -7.841  12.296  68.444  1.00  0.00    -0.151 A  
HETATM   19  C   UNL     1      -7.699   9.886  68.402  1.00  0.00    -0.084 A  
HETATM   20  C   UNL     1      -8.907   9.818  67.698  1.00  0.00    -0.127 A  
HETATM   21  O   UNL     1      -7.019   8.736  68.717  1.00  0.00    -0.061 OA 
HETATM   22  C   UNL     1      -9.547   8.543  67.255  1.00  0.00    -0.171 C  
HETATM   23  C   UNL     1      -9.570  11.015  67.370  1.00  0.00    -0.180 A  
HETATM   24  H   UNL     1      -7.380   7.897  68.458  1.00  0.00     0.000 HD 
HETATM   25  O   UNL     1      -8.860   7.418  67.544  1.00  0.00    -0.127 OA 
HETATM   26  O   UNL     1     -10.616   8.518  66.667  1.00  0.00    -0.255 OA 
ENDBRANCH  14  16
ENDBRANCH  12  14
ENDBRANCH   6  12
TORSDOF 3
ENDMDL
MODEL      248
REMARK 921   NORMALIZED FREE ENERGY PREDICTED BY IDOCK:   -4.18 KCAL/MOL
REMARK 922        TOTAL FREE ENERGY PREDICTED BY IDOCK:   -5.28 KCAL/MOL
REMARK 923 INTER-LIGAND FREE ENERGY PREDICTED BY IDOCK:   -4.87 KCAL/MOL
REMARK 924 INTRA-LIGAND FREE ENERGY PREDICTED BY IDOCK:   -0.40 KCAL/MOL
REMARK 927      BINDING AFFINITY PREDICTED BY RF-SCORE:    0.00 PKD
ROOT
HETATM    1  O   UNL     1     -10.465  17.075  65.801  1.00  0.00    -0.448 OA 
HETATM    2  C   UNL     1      -9.910  16.091  66.539  1.00  0.00    -0.267 C  
HETATM    3  C   UNL     1     -10.434  14.717  66.278  1.00  0.00    -0.300 A  
HETATM    4  O   UNL     1      -9.038  16.313  67.364  1.00  0.00    -0.194 OA 
HETATM    5  C   UNL     1      -9.875  13.659  67.022  1.00  0.00    -0.251 A  
HETATM    6  C   UNL     1     -10.295  12.333  66.833  1.00  0.00    -0.216 A  
HETATM    7  C   UNL     1     -11.293  12.087  65.883  1.00  0.00    -0.391 A  
HETATM    8  C   UNL     1     -11.426  14.430  65.331  1.00  0.00    -0.344 A  
HETATM    9  H   UNL     1     -12.648  15.241  63.935  1.00  0.00     0.000 HD 
HETATM   10  C   UNL     1     -11.862  13.121  65.135  1.00  0.00    -0.392 A  
HETATM   11  O   UNL     1     -11.975  15.435  64.577  1.00  0.00    -0.358 OA 
ENDROOT
BRANCH   6  12
HETATM   12  N   UNL     1      -9.724  11.213  67.474  1.00  0.00    -0.175 NA 
HETATM   13  H   UNL     1      -8.802  10.846  67.240  1.00  0.00     0.000 HD 
BRANCH  12  14
HETATM   14  N   UNL     1     -10.454  10.715  68.355  1.00  0.00    -0.177 NA 
HETATM   15  H   UNL     1     -11.096  11.255  68.935  1.00  0.00     0.000 HD 
BRANCH  14  16
HETATM   16  C   UNL     1     -10.288   9.314  68.456  1.00  0.00    -0.209 A  
HETATM   17  C   UNL     1     -10.845   7.258  69.644  1.00  0.00    -0.238 A  
HETATM   18  C   UNL     1     -11.008   8.632  69.444  1.00  0.00    -0.034 A  
HETATM   19  C   UNL     1      -9.941   6.547  68.855  1.00  0.00    -0.151 A  
HETATM   20  C   UNL     1      -9.207   7.194  67.854  1.00  0.00    -0.129 A  
HETATM   21  O   UNL     1      -9.770   5.203  69.076  1.00  0.00    -0.136 OA 
HETATM   22  C   UNL     1      -8.222   6.510  66.964  1.00  0.00    -0.113 C  
HETATM   23  C   UNL     1      -9.388   8.577  67.668  1.00  0.00    -0.157 A  
HETATM   24  H   UNL     1      -9.154   4.719  68.539  1.00  0.00     0.000 HD 
HETATM   25  O   UNL     1      -8.038   5.195  67.204  1.00  0.00    -0.103 OA 
HETATM   26  O   UNL     1      -7.619   7.100  66.081  1.00  0.00    -0.087 OA 
ENDBRANCH  14  16
ENDBRANCH  12  14
ENDBRANCH   6  12
TORSDOF 3
ENDMDL
MODEL      249
REMARK 921   NORMALIZED FREE ENERGY PREDICTED BY IDOCK:   -4.18 KCAL/MOL
REMARK 922        TOTAL FREE ENERGY PREDICTED BY IDOCK:   -5.27 KCAL/MOL
REMARK 923 INTER-LIGAND FREE ENERGY PREDICTED BY IDOCK:   -4.93 KCAL/MOL
REMARK 924 INTRA-LIGAND FREE ENERGY PREDICTED BY IDOCK:   -0.34 KCAL/MOL
REMARK 927      BINDING AFFINITY PREDICTED BY RF-SCORE:    0.00 PKD
ROOT
HETATM    1  O   UNL     1      -9.278   6.753  70.809  1.00  0.00    -0.157 OA 
HETATM    2  C   UNL     1      -8.982   8.069  70.853  1.00  0.00    -0.140 C  
HETATM    3  C   UNL     1      -9.356   8.853  69.638  1.00  0.00    -0.163 A  
HETATM    4  O   UNL     1      -8.445   8.581  71.822  1.00  0.00    -0.153 OA 
HETATM    5  C   UNL     1      -9.072  10.233  69.645  1.00  0.00    -0.149 A  
HETATM    6  C   UNL     1      -9.401  11.050  68.552  1.00  0.00    -0.188 A  
HETATM    7  C   UNL     1     -10.019  10.455  67.446  1.00  0.00    -0.226 A  
HETATM    8  C   UNL     1      -9.981   8.295  68.515  1.00  0.00    -0.190 A  
HETATM    9  H   UNL     1     -10.714   6.580  67.724  1.00  0.00     0.000 HD 
HETATM   10  C   UNL     1     -10.309   9.089  67.417  1.00  0.00    -0.335 A  
HETATM   11  O   UNL     1     -10.290   6.958  68.486  1.00  0.00    -0.169 OA 
ENDROOT
BRANCH   6  12
HETATM   12  N   UNL     1      -9.229  12.451  68.520  1.00  0.00    -0.366 NA 
HETATM   13  H   UNL     1      -9.953  13.094  68.198  1.00  0.00     0.000 HD 
BRANCH  12  14
HETATM   14  N   UNL     1      -8.109  12.827  68.922  1.00  0.00    -0.337 NA 
HETATM   15  H   UNL     1      -7.391  12.197  69.278  1.00  0.00     0.000 HD 
BRANCH  14  16
HETATM   16  C   UNL     1      -7.952  14.230  68.825  1.00  0.00    -0.119 A  
HETATM   17  C   UNL     1      -6.446  16.143  68.962  1.00  0.00    -0.154 A  
HETATM   18  C   UNL     1      -6.667  14.763  68.980  1.00  0.00    -0.105 A  
HETATM   19  C   UNL     1      -7.523  17.014  68.798  1.00  0.00    -0.242 A  
HETATM   20  C   UNL     1      -8.822  16.517  68.636  1.00  0.00    -0.237 A  
HETATM   21  O   UNL     1      -7.299  18.368  68.806  1.00  0.00    -0.283 OA 
HETATM   22  C   UNL     1     -10.029  17.376  68.453  1.00  0.00    -0.329 C  
HETATM   23  C   UNL     1      -9.022  15.124  68.655  1.00  0.00    -0.191 A  
HETATM   24  H   UNL     1      -8.033  18.960  68.695  1.00  0.00     0.000 HD 
HETATM   25  O   UNL     1      -9.807  18.706  68.489  1.00  0.00    -0.349 OA 
HETATM   26  O   UNL     1     -11.145  16.909  68.286  1.00  0.00    -0.349 OA 
ENDBRANCH  14  16
ENDBRANCH  12  14
ENDBRANCH   6  12
TORSDOF 3
ENDMDL
MODEL      250
REMARK 921   NORMALIZED FREE ENERGY PREDICTED BY IDOCK:   -4.12 KCAL/MOL
REMARK 922        TOTAL FREE ENERGY PREDICTED BY IDOCK:   -5.20 KCAL/MOL
REMARK 923 INTER-LIGAND FREE ENERGY PREDICTED BY IDOCK:   -4.69 KCAL/MOL
REMARK 924 INTRA-LIGAND FREE ENERGY PREDICTED BY IDOCK:   -0.51 KCAL/MOL
REMARK 927      BINDING AFFINITY PREDICTED BY RF-SCORE:    0.00 PKD
ROOT
HETATM    1  O   UNL     1      -7.348  10.120  63.440  1.00  0.00    -0.140 OA 
HETATM    2  C   UNL     1      -8.287  10.286  64.395  1.00  0.00    -0.166 C  
HETATM    3  C   UNL     1      -7.790  10.236  65.802  1.00  0.00    -0.145 A  
HETATM    4  O   UNL     1      -9.464  10.464  64.122  1.00  0.00    -0.251 OA 
HETATM    5  C   UNL     1      -8.738  10.413  66.829  1.00  0.00    -0.132 A  
HETATM    6  C   UNL     1      -8.359  10.396  68.181  1.00  0.00    -0.117 A  
HETATM    7  C   UNL     1      -7.007  10.195  68.485  1.00  0.00    -0.069 A  
HETATM    8  C   UNL     1      -6.445  10.044  66.145  1.00  0.00    -0.086 A  
HETATM    9  H   UNL     1      -4.584   9.759  65.400  1.00  0.00     0.000 HD 
HETATM   10  C   UNL     1      -6.051  10.016  67.482  1.00  0.00    -0.058 A  
HETATM   11  O   UNL     1      -5.496   9.890  65.167  1.00  0.00    -0.050 OA 
ENDROOT
BRANCH   6  12
HETATM   12  N   UNL     1      -9.231  10.652  69.260  1.00  0.00    -0.354 NA 
HETATM   13  H   UNL     1     -10.095  11.187  69.165  1.00  0.00     0.000 HD 
BRANCH  12  14
HETATM   14  N   UNL     1      -8.847  10.162  70.341  1.00  0.00    -0.304 NA 
HETATM   15  H   UNL     1      -7.978  10.421  70.807  1.00  0.00     0.000 HD 
BRANCH  14  16
HETATM   16  C   UNL     1      -9.757   9.204  70.846  1.00  0.00    -0.284 A  
HETATM   17  C   UNL     1     -11.995   8.747  71.704  1.00  0.00    -0.399 A  
HETATM   18  C   UNL     1     -11.061   9.623  71.142  1.00  0.00    -0.444 A  
HETATM   19  C   UNL     1     -11.626   7.433  71.989  1.00  0.00    -0.284 A  
HETATM   20  C   UNL     1     -10.334   6.977  71.702  1.00  0.00    -0.216 A  
HETATM   21  O   UNL     1     -12.544   6.589  72.564  1.00  0.00    -0.516 OA 
HETATM   22  C   UNL     1      -9.858   5.588  71.972  1.00  0.00    -0.166 C  
HETATM   23  C   UNL     1      -9.409   7.874  71.134  1.00  0.00    -0.171 A  
HETATM   24  H   UNL     1     -12.292   5.693  72.758  1.00  0.00     0.000 HD 
HETATM   25  O   UNL     1     -10.755   4.771  72.561  1.00  0.00    -0.209 OA 
HETATM   26  O   UNL     1      -8.731   5.216  71.683  1.00  0.00    -0.130 OA 
ENDBRANCH  14  16
ENDBRANCH  12  14
ENDBRANCH   6  12
TORSDOF 3
ENDMDL
MODEL      251
REMARK 921   NORMALIZED FREE ENERGY PREDICTED BY IDOCK:   -4.11 KCAL/MOL
REMARK 922        TOTAL FREE ENERGY PREDICTED BY IDOCK:   -5.19 KCAL/MOL
REMARK 923 INTER-LIGAND FREE ENERGY PREDICTED BY IDOCK:   -4.60 KCAL/MOL
REMARK 924 INTRA-LIGAND FREE ENERGY PREDICTED BY IDOCK:   -0.59 KCAL/MOL
REMARK 927      BINDING AFFINITY PREDICTED BY RF-SCORE:    0.00 PKD
ROOT
HETATM    1  O   UNL     1     -10.831  11.013  64.840  1.00  0.00    -0.250 OA 
HETATM    2  C   UNL     1     -10.814  11.263  66.166  1.00  0.00    -0.222 C  
HETATM    3  C   UNL     1     -10.027  10.299  66.991  1.00  0.00    -0.249 A  
HETATM    4  O   UNL     1     -11.405  12.213  66.655  1.00  0.00    -0.311 OA 
HETATM    5  C   UNL     1      -9.977  10.528  68.381  1.00  0.00    -0.177 A  
HETATM    6  C   UNL     1      -9.249   9.682  69.233  1.00  0.00    -0.183 A  
HETATM    7  C   UNL     1      -8.571   8.597  68.664  1.00  0.00    -0.131 A  
HETATM    8  C   UNL     1      -9.331   9.206  66.458  1.00  0.00    -0.190 A  
HETATM    9  H   UNL     1      -8.871   8.228  64.746  1.00  0.00     0.000 HD 
HETATM   10  C   UNL     1      -8.609   8.351  67.289  1.00  0.00    -0.123 A  
HETATM   11  O   UNL     1      -9.343   8.969  65.107  1.00  0.00    -0.176 OA 
ENDROOT
BRANCH   6  12
HETATM   12  N   UNL     1      -9.079   9.894  70.618  1.00  0.00    -0.341 NA 
HETATM   13  H   UNL     1      -8.202   9.713  71.106  1.00  0.00     0.000 HD 
BRANCH  12  14
HETATM   14  N   UNL     1     -10.102  10.324  71.187  1.00  0.00     0.276 NA 
HETATM   15  H   UNL     1     -10.267  11.309  71.395  1.00  0.00     0.000 HD 
BRANCH  14  16
HETATM   16  C   UNL     1     -11.007   9.287  71.512  1.00  0.00    -0.375 A  
HETATM   17  C   UNL     1     -13.331   8.563  71.678  1.00  0.00    -0.372 A  
HETATM   18  C   UNL     1     -12.375   9.518  71.319  1.00  0.00    -0.430 A  
HETATM   19  C   UNL     1     -12.924   7.359  72.251  1.00  0.00     0.072 A  
HETATM   20  C   UNL     1     -11.565   7.091  72.455  1.00  0.00    -0.284 A  
HETATM   21  O   UNL     1     -13.872   6.439  72.623  1.00  0.00    -0.267 OA 
HETATM   22  C   UNL     1     -11.043   5.829  73.058  1.00  0.00    -0.265 C  
HETATM   23  C   UNL     1     -10.618   8.064  72.084  1.00  0.00    -0.335 A  
HETATM   24  H   UNL     1     -13.594   5.618  73.013  1.00  0.00     0.000 HD 
HETATM   25  O   UNL     1     -11.980   4.940  73.446  1.00  0.00    -0.107 OA 
HETATM   26  O   UNL     1      -9.849   5.615  73.197  1.00  0.00    -0.163 OA 
ENDBRANCH  14  16
ENDBRANCH  12  14
ENDBRANCH   6  12
TORSDOF 3
ENDMDL
MODEL      252
REMARK 921   NORMALIZED FREE ENERGY PREDICTED BY IDOCK:   -4.08 KCAL/MOL
REMARK 922        TOTAL FREE ENERGY PREDICTED BY IDOCK:   -5.16 KCAL/MOL
REMARK 923 INTER-LIGAND FREE ENERGY PREDICTED BY IDOCK:   -4.71 KCAL/MOL
REMARK 924 INTRA-LIGAND FREE ENERGY PREDICTED BY IDOCK:   -0.44 KCAL/MOL
REMARK 927      BINDING AFFINITY PREDICTED BY RF-SCORE:    0.00 PKD
ROOT
HETATM    1  O   UNL     1     -10.403   9.498  66.214  1.00  0.00    -0.244 OA 
HETATM    2  C   UNL     1     -10.034  10.785  66.043  1.00  0.00    -0.242 C  
HETATM    3  C   UNL     1      -9.086  11.323  67.062  1.00  0.00    -0.167 A  
HETATM    4  O   UNL     1     -10.452  11.461  65.115  1.00  0.00    -0.273 OA 
HETATM    5  C   UNL     1      -8.669  12.661  66.915  1.00  0.00    -0.175 A  
HETATM    6  C   UNL     1      -7.768  13.247  67.818  1.00  0.00    -0.159 A  
HETATM    7  C   UNL     1      -7.292  12.464  68.877  1.00  0.00    -0.031 A  
HETATM    8  C   UNL     1      -8.583  10.569  68.131  1.00  0.00    -0.123 A  
HETATM    9  H   UNL     1      -8.612   8.747  69.013  1.00  0.00     0.000 HD 
HETATM   10  C   UNL     1      -7.693  11.136  69.041  1.00  0.00    -0.114 A  
HETATM   11  O   UNL     1      -8.953   9.258  68.289  1.00  0.00    -0.129 OA 
ENDROOT
BRANCH   6  12
HETATM   12  N   UNL     1      -7.238  14.549  67.689  1.00  0.00    -0.175 NA 
HETATM   13  H   UNL     1      -6.685  15.001  68.418  1.00  0.00     0.000 HD 
BRANCH  12  14
HETATM   14  N   UNL     1      -7.509  15.094  66.600  1.00  0.00    -0.234 NA 
HETATM   15  H   UNL     1      -7.103  14.815  65.707  1.00  0.00     0.000 HD 
BRANCH  14  16
HETATM   16  C   UNL     1      -8.445  16.144  66.748  1.00  0.00    -0.254 A  
HETATM   17  C   UNL     1     -10.571  17.115  66.051  1.00  0.00    -0.205 A  
HETATM   18  C   UNL     1      -9.630  16.082  66.005  1.00  0.00    -0.385 A  
HETATM   19  C   UNL     1     -10.327  18.238  66.842  1.00  0.00    -0.385 A  
HETATM   20  C   UNL     1      -9.156  18.332  67.602  1.00  0.00    -0.267 A  
HETATM   21  O   UNL     1     -11.246  19.257  66.861  1.00  0.00    -0.233 OA 
HETATM   22  C   UNL     1      -8.817  19.494  68.477  1.00  0.00    -0.342 C  
HETATM   23  C   UNL     1      -8.222  17.280  67.543  1.00  0.00    -0.204 A  
HETATM   24  H   UNL     1     -11.080  20.022  67.400  1.00  0.00     0.000 HD 
HETATM   25  O   UNL     1      -9.711  20.505  68.471  1.00  0.00    -0.025 OA 
HETATM   26  O   UNL     1      -7.799  19.532  69.149  1.00  0.00    -0.348 OA 
ENDBRANCH  14  16
ENDBRANCH  12  14
ENDBRANCH   6  12
TORSDOF 3
ENDMDL
MODEL      253
REMARK 921   NORMALIZED FREE ENERGY PREDICTED BY IDOCK:   -4.06 KCAL/MOL
REMARK 922        TOTAL FREE ENERGY PREDICTED BY IDOCK:   -5.13 KCAL/MOL
REMARK 923 INTER-LIGAND FREE ENERGY PREDICTED BY IDOCK:   -4.53 KCAL/MOL
REMARK 924 INTRA-LIGAND FREE ENERGY PREDICTED BY IDOCK:   -0.60 KCAL/MOL
REMARK 927      BINDING AFFINITY PREDICTED BY RF-SCORE:    0.00 PKD
ROOT
HETATM    1  O   UNL     1      -8.060   5.213  73.790  1.00  0.00    -0.108 OA 
HETATM    2  C   UNL     1      -8.661   4.951  72.611  1.00  0.00    -0.119 C  
HETATM    3  C   UNL     1      -9.448   6.077  72.026  1.00  0.00    -0.161 A  
HETATM    4  O   UNL     1      -8.567   3.864  72.062  1.00  0.00    -0.096 OA 
HETATM    5  C   UNL     1     -10.085   5.848  70.790  1.00  0.00    -0.253 A  
HETATM    6  C   UNL     1     -10.834   6.853  70.159  1.00  0.00    -0.263 A  
HETATM    7  C   UNL     1     -10.935   8.098  70.793  1.00  0.00    -0.261 A  
HETATM    8  C   UNL     1      -9.566   7.337  72.627  1.00  0.00    -0.153 A  
HETATM    9  H   UNL     1      -9.021   8.453  74.227  1.00  0.00     0.000 HD 
HETATM   10  C   UNL     1     -10.312   8.346  72.019  1.00  0.00    -0.374 A  
HETATM   11  O   UNL     1      -8.941   7.598  73.819  1.00  0.00    -0.218 OA 
ENDROOT
BRANCH   6  12
HETATM   12  N   UNL     1     -11.426   6.729  68.884  1.00  0.00    -0.578 NA 
HETATM   13  H   UNL     1     -12.081   5.985  68.643  1.00  0.00     0.000 HD 
BRANCH  12  14
HETATM   14  N   UNL     1     -11.074   7.616  68.080  1.00  0.00    -0.448 NA 
HETATM   15  H   UNL     1     -11.460   8.560  68.067  1.00  0.00     0.000 HD 
BRANCH  14  16
HETATM   16  C   UNL     1     -10.075   7.160  67.187  1.00  0.00    -0.225 A  
HETATM   17  C   UNL     1      -8.414   7.732  65.496  1.00  0.00    -0.146 A  
HETATM   18  C   UNL     1      -9.368   8.113  66.443  1.00  0.00    -0.269 A  
HETATM   19  C   UNL     1      -8.163   6.378  65.273  1.00  0.00    -0.137 A  
HETATM   20  C   UNL     1      -8.846   5.398  66.001  1.00  0.00    -0.144 A  
HETATM   21  O   UNL     1      -7.241   6.015  64.323  1.00  0.00    -0.051 OA 
HETATM   22  C   UNL     1      -8.637   3.929  65.828  1.00  0.00    -0.111 C  
HETATM   23  C   UNL     1      -9.802   5.802  66.952  1.00  0.00    -0.179 A  
HETATM   24  H   UNL     1      -7.070   5.093  64.171  1.00  0.00     0.000 HD 
HETATM   25  O   UNL     1      -7.751   3.577  64.875  1.00  0.00    -0.076 OA 
HETATM   26  O   UNL     1      -9.231   3.101  66.500  1.00  0.00    -0.156 OA 
ENDBRANCH  14  16
ENDBRANCH  12  14
ENDBRANCH   6  12
TORSDOF 3
ENDMDL
MODEL      254
REMARK 921   NORMALIZED FREE ENERGY PREDICTED BY IDOCK:   -4.05 KCAL/MOL
REMARK 922        TOTAL FREE ENERGY PREDICTED BY IDOCK:   -5.13 KCAL/MOL
REMARK 923 INTER-LIGAND FREE ENERGY PREDICTED BY IDOCK:   -4.74 KCAL/MOL
REMARK 924 INTRA-LIGAND FREE ENERGY PREDICTED BY IDOCK:   -0.39 KCAL/MOL
REMARK 927      BINDING AFFINITY PREDICTED BY RF-SCORE:    0.00 PKD
ROOT
HETATM    1  O   UNL     1      -9.661  19.821  66.211  1.00  0.00    -0.383 OA 
HETATM    2  C   UNL     1      -8.931  18.799  66.706  1.00  0.00    -0.308 C  
HETATM    3  C   UNL     1      -9.378  17.434  66.299  1.00  0.00    -0.240 A  
HETATM    4  O   UNL     1      -7.971  18.983  67.437  1.00  0.00    -0.248 OA 
HETATM    5  C   UNL     1      -8.638  16.339  66.788  1.00  0.00    -0.273 A  
HETATM    6  C   UNL     1      -8.977  15.020  66.446  1.00  0.00    -0.251 A  
HETATM    7  C   UNL     1     -10.078  14.819  65.605  1.00  0.00    -0.393 A  
HETATM    8  C   UNL     1     -10.470  17.193  65.454  1.00  0.00    -0.080 A  
HETATM    9  H   UNL     1     -11.937  18.075  64.373  1.00  0.00     0.000 HD 
HETATM   10  C   UNL     1     -10.825  15.890  65.110  1.00  0.00    -0.438 A  
HETATM   11  O   UNL     1     -11.197  18.239  64.946  1.00  0.00    -0.487 OA 
ENDROOT
BRANCH   6  12
HETATM   12  N   UNL     1      -8.235  13.880  66.822  1.00  0.00    -0.384 NA 
HETATM   13  H   UNL     1      -8.483  12.933  66.534  1.00  0.00     0.000 HD 
BRANCH  12  14
HETATM   14  N   UNL     1      -7.249  14.139  67.541  1.00  0.00    -0.193 NA 
HETATM   15  H   UNL     1      -6.714  15.005  67.482  1.00  0.00     0.000 HD 
BRANCH  14  16
HETATM   16  C   UNL     1      -6.959  13.092  68.446  1.00  0.00    -0.100 A  
HETATM   17  C   UNL     1      -5.644  12.329  70.354  1.00  0.00    -0.162 A  
HETATM   18  C   UNL     1      -6.027  13.336  69.463  1.00  0.00    -0.107 A  
HETATM   19  C   UNL     1      -6.186  11.051  70.227  1.00  0.00    -0.139 A  
HETATM   20  C   UNL     1      -7.123  10.771  69.226  1.00  0.00    -0.116 A  
HETATM   21  O   UNL     1      -5.784  10.063  71.092  1.00  0.00    -0.078 OA 
HETATM   22  C   UNL     1      -7.754   9.433  69.022  1.00  0.00    -0.075 C  
HETATM   23  C   UNL     1      -7.498  11.799  68.341  1.00  0.00    -0.105 A  
HETATM   24  H   UNL     1      -6.153   9.192  71.005  1.00  0.00     0.000 HD 
HETATM   25  O   UNL     1      -7.336   8.460  69.856  1.00  0.00    -0.058 OA 
HETATM   26  O   UNL     1      -8.590   9.230  68.155  1.00  0.00    -0.124 OA 
ENDBRANCH  14  16
ENDBRANCH  12  14
ENDBRANCH   6  12
TORSDOF 3
ENDMDL
MODEL      255
REMARK 921   NORMALIZED FREE ENERGY PREDICTED BY IDOCK:   -4.04 KCAL/MOL
REMARK 922        TOTAL FREE ENERGY PREDICTED BY IDOCK:   -5.11 KCAL/MOL
REMARK 923 INTER-LIGAND FREE ENERGY PREDICTED BY IDOCK:   -4.77 KCAL/MOL
REMARK 924 INTRA-LIGAND FREE ENERGY PREDICTED BY IDOCK:   -0.34 KCAL/MOL
REMARK 927      BINDING AFFINITY PREDICTED BY RF-SCORE:    0.00 PKD
ROOT
HETATM    1  O   UNL     1     -11.346  11.786  65.696  1.00  0.00    -0.307 OA 
HETATM    2  C   UNL     1     -10.515  10.795  66.083  1.00  0.00    -0.214 C  
HETATM    3  C   UNL     1     -10.468  10.532  67.552  1.00  0.00    -0.284 A  
HETATM    4  O   UNL     1      -9.848  10.159  65.282  1.00  0.00    -0.280 OA 
HETATM    5  C   UNL     1      -9.619   9.500  67.997  1.00  0.00    -0.155 A  
HETATM    6  C   UNL     1      -9.522   9.173  69.359  1.00  0.00    -0.161 A  
HETATM    7  C   UNL     1     -10.293   9.905  70.270  1.00  0.00    -0.339 A  
HETATM    8  C   UNL     1     -11.230  11.238  68.493  1.00  0.00    -0.252 A  
HETATM    9  H   UNL     1     -12.597  12.713  68.726  1.00  0.00     0.000 HD 
HETATM   10  C   UNL     1     -11.141  10.932  69.850  1.00  0.00    -0.311 A  
HETATM   11  O   UNL     1     -12.081  12.234  68.088  1.00  0.00    -0.407 OA 
ENDROOT
BRANCH   6  12
HETATM   12  N   UNL     1      -8.763   8.099  69.872  1.00  0.00    -0.137 NA 
HETATM   13  H   UNL     1      -7.960   8.227  70.489  1.00  0.00     0.000 HD 
BRANCH  12  14
HETATM   14  N   UNL     1      -9.168   6.978  69.502  1.00  0.00    -0.149 NA 
HETATM   15  H   UNL     1      -9.176   6.668  68.530  1.00  0.00     0.000 HD 
BRANCH  14  16
HETATM   16  C   UNL     1      -9.615   6.187  70.586  1.00  0.00    -0.173 A  
HETATM   17  C   UNL     1     -11.256   5.875  72.364  1.00  0.00    -0.340 A  
HETATM   18  C   UNL     1     -10.790   6.571  71.244  1.00  0.00    -0.294 A  
HETATM   19  C   UNL     1     -10.536   4.783  72.847  1.00  0.00    -0.218 A  
HETATM   20  C   UNL     1      -9.360   4.367  72.213  1.00  0.00    -0.168 A  
HETATM   21  O   UNL     1     -10.989   4.122  73.962  1.00  0.00    -0.233 OA 
HETATM   22  C   UNL     1      -8.531   3.210  72.662  1.00  0.00    -0.080 C  
HETATM   23  C   UNL     1      -8.909   5.080  71.086  1.00  0.00    -0.149 A  
HETATM   24  H   UNL     1     -10.499   3.378  74.291  1.00  0.00     0.000 HD 
HETATM   25  O   UNL     1      -8.966   2.580  73.773  1.00  0.00    -0.073 OA 
HETATM   26  O   UNL     1      -7.524   2.856  72.068  1.00  0.00    -0.045 OA 
ENDBRANCH  14  16
ENDBRANCH  12  14
ENDBRANCH   6  12
TORSDOF 3
ENDMDL
MODEL      256
REMARK 921   NORMALIZED FREE ENERGY PREDICTED BY IDOCK:   -4.01 KCAL/MOL
REMARK 922        TOTAL FREE ENERGY PREDICTED BY IDOCK:   -5.08 KCAL/MOL
REMARK 923 INTER-LIGAND FREE ENERGY PREDICTED BY IDOCK:   -4.35 KCAL/MOL
REMARK 924 INTRA-LIGAND FREE ENERGY PREDICTED BY IDOCK:   -0.73 KCAL/MOL
REMARK 927      BINDING AFFINITY PREDICTED BY RF-SCORE:    0.00 PKD
ROOT
HETATM    1  O   UNL     1      -7.895   5.885  73.580  1.00  0.00    -0.103 OA 
HETATM    2  C   UNL     1      -8.526   5.396  72.492  1.00  0.00    -0.118 C  
HETATM    3  C   UNL     1      -9.440   6.350  71.796  1.00  0.00    -0.159 A  
HETATM    4  O   UNL     1      -8.360   4.250  72.107  1.00  0.00    -0.099 OA 
HETATM    5  C   UNL     1     -10.113   5.882  70.650  1.00  0.00    -0.252 A  
HETATM    6  C   UNL     1     -10.980   6.714  69.924  1.00  0.00    -0.319 A  
HETATM    7  C   UNL     1     -11.163   8.028  70.371  1.00  0.00    -0.230 A  
HETATM    8  C   UNL     1      -9.643   7.674  72.209  1.00  0.00    -0.165 A  
HETATM    9  H   UNL     1      -9.125   9.063  73.589  1.00  0.00     0.000 HD 
HETATM   10  C   UNL     1     -10.506   8.512  71.505  1.00  0.00    -0.318 A  
HETATM   11  O   UNL     1      -8.986   8.165  73.309  1.00  0.00    -0.251 OA 
ENDROOT
BRANCH   6  12
HETATM   12  N   UNL     1     -11.620   6.347  68.721  1.00  0.00    -0.463 NA 
HETATM   13  H   UNL     1     -12.235   5.537  68.640  1.00  0.00     0.000 HD 
BRANCH  12  14
HETATM   14  N   UNL     1     -11.363   7.107  67.765  1.00  0.00    -0.441 NA 
HETATM   15  H   UNL     1     -11.844   7.991  67.596  1.00  0.00     0.000 HD 
BRANCH  14  16
HETATM   16  C   UNL     1     -10.328   6.602  66.945  1.00  0.00    -0.254 A  
HETATM   17  C   UNL     1      -9.405   4.690  65.744  1.00  0.00    -0.158 A  
HETATM   18  C   UNL     1     -10.422   5.276  66.503  1.00  0.00    -0.354 A  
HETATM   19  C   UNL     1      -8.266   5.429  65.426  1.00  0.00    -0.130 A  
HETATM   20  C   UNL     1      -8.139   6.758  65.846  1.00  0.00    -0.123 A  
HETATM   21  O   UNL     1      -7.263   4.835  64.701  1.00  0.00    -0.060 OA 
HETATM   22  C   UNL     1      -6.957   7.620  65.548  1.00  0.00    -0.056 C  
HETATM   23  C   UNL     1      -9.175   7.330  66.607  1.00  0.00    -0.193 A  
HETATM   24  H   UNL     1      -6.487   5.339  64.484  1.00  0.00     0.000 HD 
HETATM   25  O   UNL     1      -5.963   7.024  64.858  1.00  0.00    -0.035 OA 
HETATM   26  O   UNL     1      -6.891   8.785  65.906  1.00  0.00    -0.067 OA 
ENDBRANCH  14  16
ENDBRANCH  12  14
ENDBRANCH   6  12
TORSDOF 3
ENDMDL
MODEL      257
REMARK 921   NORMALIZED FREE ENERGY PREDICTED BY IDOCK:   -4.01 KCAL/MOL
REMARK 922        TOTAL FREE ENERGY PREDICTED BY IDOCK:   -5.08 KCAL/MOL
REMARK 923 INTER-LIGAND FREE ENERGY PREDICTED BY IDOCK:   -4.53 KCAL/MOL
REMARK 924 INTRA-LIGAND FREE ENERGY PREDICTED BY IDOCK:   -0.55 KCAL/MOL
REMARK 927      BINDING AFFINITY PREDICTED BY RF-SCORE:    0.00 PKD
ROOT
HETATM    1  O   UNL     1     -10.101  12.940  65.016  1.00  0.00    -0.275 OA 
HETATM    2  C   UNL     1     -10.214  11.685  65.499  1.00  0.00    -0.260 C  
HETATM    3  C   UNL     1     -10.515  11.581  66.957  1.00  0.00    -0.263 A  
HETATM    4  O   UNL     1     -10.077  10.702  64.787  1.00  0.00    -0.304 OA 
HETATM    5  C   UNL     1     -10.649  10.287  67.500  1.00  0.00    -0.320 A  
HETATM    6  C   UNL     1     -10.946  10.094  68.858  1.00  0.00    -0.223 A  
HETATM    7  C   UNL     1     -11.104  11.226  69.667  1.00  0.00    -0.273 A  
HETATM    8  C   UNL     1     -10.686  12.690  67.797  1.00  0.00    -0.220 A  
HETATM    9  H   UNL     1     -10.699  14.713  67.864  1.00  0.00     0.000 HD 
HETATM   10  C   UNL     1     -10.974  12.517  69.150  1.00  0.00    -0.198 A  
HETATM   11  O   UNL     1     -10.583  13.962  67.294  1.00  0.00    -0.272 OA 
ENDROOT
BRANCH   6  12
HETATM   12  N   UNL     1     -11.181   8.837  69.455  1.00  0.00    -0.434 NA 
HETATM   13  H   UNL     1     -12.065   8.334  69.367  1.00  0.00     0.000 HD 
BRANCH  12  14
HETATM   14  N   UNL     1     -10.207   8.399  70.100  1.00  0.00    -0.192 NA 
HETATM   15  H   UNL     1      -9.790   8.880  70.897  1.00  0.00     0.000 HD 
BRANCH  14  16
HETATM   16  C   UNL     1      -9.750   7.158  69.598  1.00  0.00    -0.158 A  
HETATM   17  C   UNL     1      -9.772   4.727  69.795  1.00  0.00    -0.272 A  
HETATM   18  C   UNL     1     -10.229   5.986  70.196  1.00  0.00    -0.267 A  
HETATM   19  C   UNL     1      -8.811   4.629  68.789  1.00  0.00    -0.100 A  
HETATM   20  C   UNL     1      -8.312   5.778  68.166  1.00  0.00    -0.107 A  
HETATM   21  O   UNL     1      -8.351   3.389  68.421  1.00  0.00    -0.078 OA 
HETATM   22  C   UNL     1      -7.287   5.764  67.081  1.00  0.00    -0.077 C  
HETATM   23  C   UNL     1      -8.788   7.036  68.582  1.00  0.00    -0.128 A  
HETATM   24  H   UNL     1      -7.696   3.322  67.735  1.00  0.00     0.000 HD 
HETATM   25  O   UNL     1      -6.818   4.545  66.741  1.00  0.00    -0.050 OA 
HETATM   26  O   UNL     1      -6.894   6.784  66.538  1.00  0.00    -0.058 OA 
ENDBRANCH  14  16
ENDBRANCH  12  14
ENDBRANCH   6  12
TORSDOF 3
ENDMDL
MODEL      258
REMARK 921   NORMALIZED FREE ENERGY PREDICTED BY IDOCK:   -3.97 KCAL/MOL
REMARK 922        TOTAL FREE ENERGY PREDICTED BY IDOCK:   -5.03 KCAL/MOL
REMARK 923 INTER-LIGAND FREE ENERGY PREDICTED BY IDOCK:   -4.55 KCAL/MOL
REMARK 924 INTRA-LIGAND FREE ENERGY PREDICTED BY IDOCK:   -0.49 KCAL/MOL
REMARK 927      BINDING AFFINITY PREDICTED BY RF-SCORE:    0.00 PKD
ROOT
HETATM    1  O   UNL     1      -8.836   4.553  64.515  1.00  0.00    -0.142 OA 
HETATM    2  C   UNL     1      -9.008   5.308  65.621  1.00  0.00    -0.158 C  
HETATM    3  C   UNL     1      -8.502   6.710  65.527  1.00  0.00    -0.135 A  
HETATM    4  O   UNL     1      -9.541   4.870  66.628  1.00  0.00    -0.137 OA 
HETATM    5  C   UNL     1      -8.669   7.534  66.658  1.00  0.00    -0.146 A  
HETATM    6  C   UNL     1      -8.237   8.870  66.656  1.00  0.00    -0.111 A  
HETATM    7  C   UNL     1      -7.630   9.365  65.496  1.00  0.00    -0.099 A  
HETATM    8  C   UNL     1      -7.895   7.243  64.383  1.00  0.00    -0.126 A  
HETATM    9  H   UNL     1      -7.326   6.834  62.483  1.00  0.00     0.000 HD 
HETATM   10  C   UNL     1      -7.453   8.565  64.364  1.00  0.00    -0.110 A  
HETATM   11  O   UNL     1      -7.737   6.472  63.259  1.00  0.00    -0.085 OA 
ENDROOT
BRANCH   6  12
HETATM   12  N   UNL     1      -8.447   9.781  67.713  1.00  0.00    -0.121 NA 
HETATM   13  H   UNL     1      -8.518  10.789  67.575  1.00  0.00     0.000 HD 
BRANCH  12  14
HETATM   14  N   UNL     1      -8.536   9.236  68.832  1.00  0.00    -0.128 NA 
HETATM   15  H   UNL     1      -7.842   8.592  69.209  1.00  0.00     0.000 HD 
BRANCH  14  16
HETATM   16  C   UNL     1      -9.714   9.617  69.518  1.00  0.00    -0.203 A  
HETATM   17  C   UNL     1     -11.506  11.252  69.773  1.00  0.00    -0.386 A  
HETATM   18  C   UNL     1     -10.374  10.780  69.102  1.00  0.00    -0.238 A  
HETATM   19  C   UNL     1     -11.987  10.563  70.886  1.00  0.00    -0.377 A  
HETATM   20  C   UNL     1     -11.357   9.394  71.327  1.00  0.00    -0.436 A  
HETATM   21  O   UNL     1     -13.085  11.049  71.552  1.00  0.00    -0.418 OA 
HETATM   22  C   UNL     1     -11.807   8.594  72.505  1.00  0.00    -0.272 C  
HETATM   23  C   UNL     1     -10.220   8.934  70.636  1.00  0.00    -0.267 A  
HETATM   24  H   UNL     1     -13.412  10.579  72.310  1.00  0.00     0.000 HD 
HETATM   25  O   UNL     1     -12.869   9.091  73.172  1.00  0.00    -0.108 OA 
HETATM   26  O   UNL     1     -11.250   7.563  72.847  1.00  0.00    -0.344 OA 
ENDBRANCH  14  16
ENDBRANCH  12  14
ENDBRANCH   6  12
TORSDOF 3
ENDMDL
MODEL      259
REMARK 921   NORMALIZED FREE ENERGY PREDICTED BY IDOCK:   -3.96 KCAL/MOL
REMARK 922        TOTAL FREE ENERGY PREDICTED BY IDOCK:   -5.02 KCAL/MOL
REMARK 923 INTER-LIGAND FREE ENERGY PREDICTED BY IDOCK:   -4.42 KCAL/MOL
REMARK 924 INTRA-LIGAND FREE ENERGY PREDICTED BY IDOCK:   -0.59 KCAL/MOL
REMARK 927      BINDING AFFINITY PREDICTED BY RF-SCORE:    0.00 PKD
ROOT
HETATM    1  O   UNL     1      -7.371  16.512  69.492  1.00  0.00    -0.190 OA 
HETATM    2  C   UNL     1      -8.147  15.423  69.310  1.00  0.00    -0.246 C  
HETATM    3  C   UNL     1      -9.078  15.484  68.145  1.00  0.00    -0.184 A  
HETATM    4  O   UNL     1      -8.090  14.455  70.052  1.00  0.00     0.472 OA 
HETATM    5  C   UNL     1      -9.902  14.364  67.915  1.00  0.00    -0.224 A  
HETATM    6  C   UNL     1     -10.797  14.327  66.834  1.00  0.00    -0.298 A  
HETATM    7  C   UNL     1     -10.854  15.440  65.986  1.00  0.00    -0.315 A  
HETATM    8  C   UNL     1      -9.160  16.576  67.271  1.00  0.00    -0.204 A  
HETATM    9  H   UNL     1      -8.412  18.413  66.863  1.00  0.00     0.000 HD 
HETATM   10  C   UNL     1     -10.048  16.561  66.197  1.00  0.00    -0.365 A  
HETATM   11  O   UNL     1      -8.356  17.673  67.456  1.00  0.00    -0.214 OA 
ENDROOT
BRANCH   6  12
HETATM   12  N   UNL     1     -11.588  13.211  66.488  1.00  0.00    -0.339 NA 
HETATM   13  H   UNL     1     -12.469  12.985  66.951  1.00  0.00     0.000 HD 
BRANCH  12  14
HETATM   14  N   UNL     1     -11.109  12.526  65.561  1.00  0.00    -0.291 NA 
HETATM   15  H   UNL     1     -11.201  12.760  64.573  1.00  0.00     0.000 HD 
BRANCH  14  16
HETATM   16  C   UNL     1     -10.422  11.386  66.041  1.00  0.00    -0.255 A  
HETATM   17  C   UNL     1      -8.716   9.692  65.633  1.00  0.00    -0.163 A  
HETATM   18  C   UNL     1      -9.394  10.854  65.254  1.00  0.00    -0.246 A  
HETATM   19  C   UNL     1      -9.071   9.037  66.812  1.00  0.00    -0.145 A  
HETATM   20  C   UNL     1     -10.091   9.543  67.627  1.00  0.00    -0.254 A  
HETATM   21  O   UNL     1      -8.415   7.884  67.163  1.00  0.00    -0.115 OA 
HETATM   22  C   UNL     1     -10.533   8.909  68.905  1.00  0.00    -0.205 C  
HETATM   23  C   UNL     1     -10.760  10.715  67.228  1.00  0.00    -0.338 A  
HETATM   24  H   UNL     1      -8.658   7.438  67.966  1.00  0.00     0.000 HD 
HETATM   25  O   UNL     1      -9.904   7.761  69.231  1.00  0.00    -0.168 OA 
HETATM   26  O   UNL     1     -11.407   9.391  69.607  1.00  0.00    -0.139 OA 
ENDBRANCH  14  16
ENDBRANCH  12  14
ENDBRANCH   6  12
TORSDOF 3
ENDMDL
MODEL      260
REMARK 921   NORMALIZED FREE ENERGY PREDICTED BY IDOCK:   -3.88 KCAL/MOL
REMARK 922        TOTAL FREE ENERGY PREDICTED BY IDOCK:   -4.92 KCAL/MOL
REMARK 923 INTER-LIGAND FREE ENERGY PREDICTED BY IDOCK:   -4.85 KCAL/MOL
REMARK 924 INTRA-LIGAND FREE ENERGY PREDICTED BY IDOCK:   -0.07 KCAL/MOL
REMARK 927      BINDING AFFINITY PREDICTED BY RF-SCORE:    0.00 PKD
ROOT
HETATM    1  O   UNL     1     -10.877  10.809  68.319  1.00  0.00    -0.195 OA 
HETATM    2  C   UNL     1     -11.196  11.908  67.603  1.00  0.00    -0.276 C  
HETATM    3  C   UNL     1     -10.083  12.880  67.387  1.00  0.00    -0.223 A  
HETATM    4  O   UNL     1     -12.319  12.091  67.162  1.00  0.00    -0.317 OA 
HETATM    5  C   UNL     1     -10.372  14.037  66.637  1.00  0.00    -0.278 A  
HETATM    6  C   UNL     1      -9.384  14.999  66.372  1.00  0.00    -0.303 A  
HETATM    7  C   UNL     1      -8.097  14.779  66.878  1.00  0.00    -0.083 A  
HETATM    8  C   UNL     1      -8.782  12.692  67.872  1.00  0.00    -0.181 A  
HETATM    9  H   UNL     1      -7.582  11.439  68.916  1.00  0.00     0.000 HD 
HETATM   10  C   UNL     1      -7.790  13.640  67.625  1.00  0.00    -0.178 A  
HETATM   11  O   UNL     1      -8.465  11.566  68.588  1.00  0.00    -0.158 OA 
ENDROOT
BRANCH   6  12
HETATM   12  N   UNL     1      -9.571  16.136  65.557  1.00  0.00    -0.444 NA 
HETATM   13  H   UNL     1     -10.365  16.245  64.925  1.00  0.00     0.000 HD 
BRANCH  12  14
HETATM   14  N   UNL     1      -8.675  16.995  65.683  1.00  0.00    -0.341 NA 
HETATM   15  H   UNL     1      -7.916  17.127  65.016  1.00  0.00     0.000 HD 
BRANCH  14  16
HETATM   16  C   UNL     1      -8.836  17.764  66.859  1.00  0.00    -0.248 A  
HETATM   17  C   UNL     1     -10.365  18.924  68.364  1.00  0.00    -0.361 A  
HETATM   18  C   UNL     1     -10.135  18.112  67.250  1.00  0.00    -0.354 A  
HETATM   19  C   UNL     1      -9.286  19.411  69.100  1.00  0.00    -0.177 A  
HETATM   20  C   UNL     1      -7.973  19.080  68.743  1.00  0.00    -0.368 A  
HETATM   21  O   UNL     1      -9.522  20.227  70.178  1.00  0.00     0.534 OA 
HETATM   22  C   UNL     1      -6.762  19.553  69.476  1.00  0.00    -0.319 C  
HETATM   23  C   UNL     1      -7.763  18.259  67.619  1.00  0.00    -0.230 A  
HETATM   24  H   UNL     1      -8.787  20.558  70.680  1.00  0.00     0.000 HD 
HETATM   25  O   UNL     1      -6.999  20.377  70.518  1.00  0.00    -0.155 OA 
HETATM   26  O   UNL     1      -5.632  19.223  69.154  1.00  0.00    -0.198 OA 
ENDBRANCH  14  16
ENDBRANCH  12  14
ENDBRANCH   6  12
TORSDOF 3
ENDMDL
MODEL      261
REMARK 921   NORMALIZED FREE ENERGY PREDICTED BY IDOCK:   -3.85 KCAL/MOL
REMARK 922        TOTAL FREE ENERGY PREDICTED BY IDOCK:   -4.89 KCAL/MOL
REMARK 923 INTER-LIGAND FREE ENERGY PREDICTED BY IDOCK:   -4.53 KCAL/MOL
REMARK 924 INTRA-LIGAND FREE ENERGY PREDICTED BY IDOCK:   -0.35 KCAL/MOL
REMARK 927      BINDING AFFINITY PREDICTED BY RF-SCORE:    0.00 PKD
ROOT
HETATM    1  O   UNL     1      -7.192  17.678  67.748  1.00  0.00    -0.184 OA 
HETATM    2  C   UNL     1      -7.326  16.382  68.100  1.00  0.00    -0.148 C  
HETATM    3  C   UNL     1      -8.254  15.577  67.252  1.00  0.00    -0.224 A  
HETATM    4  O   UNL     1      -6.727  15.904  69.051  1.00  0.00    -0.133 OA 
HETATM    5  C   UNL     1      -8.416  14.217  67.582  1.00  0.00    -0.189 A  
HETATM    6  C   UNL     1      -9.257  13.381  66.831  1.00  0.00    -0.248 A  
HETATM    7  C   UNL     1      -9.938  13.937  65.741  1.00  0.00    -0.304 A  
HETATM    8  C   UNL     1      -8.948  16.096  66.150  1.00  0.00    -0.337 A  
HETATM    9  H   UNL     1      -9.265  17.762  65.045  1.00  0.00     0.000 HD 
HETATM   10  C   UNL     1      -9.793  15.283  65.398  1.00  0.00    -0.318 A  
HETATM   11  O   UNL     1      -8.795  17.411  65.792  1.00  0.00    -0.522 OA 
ENDROOT
BRANCH   6  12
HETATM   12  N   UNL     1      -9.404  11.993  67.044  1.00  0.00    -0.186 NA 
HETATM   13  H   UNL     1      -9.299  11.555  67.959  1.00  0.00     0.000 HD 
BRANCH  12  14
HETATM   14  N   UNL     1      -9.674  11.354  66.007  1.00  0.00    -0.215 NA 
HETATM   15  H   UNL     1      -9.988  11.785  65.138  1.00  0.00     0.000 HD 
BRANCH  14  16
HETATM   16  C   UNL     1      -9.493   9.961  66.177  1.00  0.00    -0.200 A  
HETATM   17  C   UNL     1     -10.398   7.859  67.019  1.00  0.00    -0.411 A  
HETATM   18  C   UNL     1     -10.532   9.226  66.761  1.00  0.00    -0.263 A  
HETATM   19  C   UNL     1      -9.206   7.209  66.702  1.00  0.00    -0.160 A  
HETATM   20  C   UNL     1      -8.147   7.910  66.113  1.00  0.00    -0.109 A  
HETATM   21  O   UNL     1      -9.077   5.871  66.982  1.00  0.00    -0.115 OA 
HETATM   22  C   UNL     1      -6.840   7.292  65.739  1.00  0.00    -0.056 C  
HETATM   23  C   UNL     1      -8.303   9.285  65.859  1.00  0.00    -0.122 A  
HETATM   24  H   UNL     1      -8.264   5.428  66.766  1.00  0.00     0.000 HD 
HETATM   25  O   UNL     1      -6.708   5.984  66.042  1.00  0.00    -0.052 OA 
HETATM   26  O   UNL     1      -5.947   7.927  65.201  1.00  0.00    -0.038 OA 
ENDBRANCH  14  16
ENDBRANCH  12  14
ENDBRANCH   6  12
TORSDOF 3
ENDMDL
MODEL      262
REMARK 921   NORMALIZED FREE ENERGY PREDICTED BY IDOCK:   -3.82 KCAL/MOL
REMARK 922        TOTAL FREE ENERGY PREDICTED BY IDOCK:   -4.85 KCAL/MOL
REMARK 923 INTER-LIGAND FREE ENERGY PREDICTED BY IDOCK:   -4.30 KCAL/MOL
REMARK 924 INTRA-LIGAND FREE ENERGY PREDICTED BY IDOCK:   -0.56 KCAL/MOL
REMARK 927      BINDING AFFINITY PREDICTED BY RF-SCORE:    0.00 PKD
ROOT
HETATM    1  O   UNL     1     -11.760  11.652  66.397  1.00  0.00    -0.472 OA 
HETATM    2  C   UNL     1     -10.587  11.043  66.666  1.00  0.00    -0.262 C  
HETATM    3  C   UNL     1     -10.429  10.539  68.063  1.00  0.00    -0.232 A  
HETATM    4  O   UNL     1      -9.714  10.915  65.822  1.00  0.00    -0.203 OA 
HETATM    5  C   UNL     1      -9.220   9.890  68.384  1.00  0.00    -0.130 A  
HETATM    6  C   UNL     1      -8.990   9.372  69.668  1.00  0.00    -0.173 A  
HETATM    7  C   UNL     1      -9.997   9.520  70.630  1.00  0.00    -0.342 A  
HETATM    8  C   UNL     1     -11.415  10.663  69.051  1.00  0.00    -0.274 A  
HETATM    9  H   UNL     1     -13.279  11.355  69.433  1.00  0.00     0.000 HD 
HETATM   10  C   UNL     1     -11.201  10.162  70.333  1.00  0.00    -0.402 A  
HETATM   11  O   UNL     1     -12.610  11.272  68.763  1.00  0.00    -0.312 OA 
ENDROOT
BRANCH   6  12
HETATM   12  N   UNL     1      -7.846   8.634  70.040  1.00  0.00    -0.098 NA 
HETATM   13  H   UNL     1      -7.382   8.740  70.943  1.00  0.00     0.000 HD 
BRANCH  12  14
HETATM   14  N   UNL     1      -7.455   7.839  69.161  1.00  0.00    -0.092 NA 
HETATM   15  H   UNL     1      -6.840   8.100  68.391  1.00  0.00     0.000 HD 
BRANCH  14  16
HETATM   16  C   UNL     1      -7.964   6.534  69.359  1.00  0.00    -0.114 A  
HETATM   17  C   UNL     1      -8.540   4.381  68.367  1.00  0.00    -0.106 A  
HETATM   18  C   UNL     1      -7.991   5.663  68.262  1.00  0.00    -0.100 A  
HETATM   19  C   UNL     1      -9.081   3.958  69.581  1.00  0.00    -0.122 A  
HETATM   20  C   UNL     1      -9.067   4.799  70.699  1.00  0.00    -0.177 A  
HETATM   21  O   UNL     1      -9.639   2.706  69.666  1.00  0.00    -0.107 OA 
HETATM   22  C   UNL     1      -9.621   4.426  72.034  1.00  0.00    -0.151 C  
HETATM   23  C   UNL     1      -8.508   6.085  70.573  1.00  0.00    -0.132 A  
HETATM   24  H   UNL     1     -10.008   2.418  70.492  1.00  0.00     0.000 HD 
HETATM   25  O   UNL     1     -10.192   3.206  72.105  1.00  0.00    -0.154 OA 
HETATM   26  O   UNL     1      -9.567   5.174  72.997  1.00  0.00    -0.141 OA 
ENDBRANCH  14  16
ENDBRANCH  12  14
ENDBRANCH   6  12
TORSDOF 3
ENDMDL
MODEL      263
REMARK 921   NORMALIZED FREE ENERGY PREDICTED BY IDOCK:   -3.82 KCAL/MOL
REMARK 922        TOTAL FREE ENERGY PREDICTED BY IDOCK:   -4.85 KCAL/MOL
REMARK 923 INTER-LIGAND FREE ENERGY PREDICTED BY IDOCK:   -4.49 KCAL/MOL
REMARK 924 INTRA-LIGAND FREE ENERGY PREDICTED BY IDOCK:   -0.36 KCAL/MOL
REMARK 927      BINDING AFFINITY PREDICTED BY RF-SCORE:    0.00 PKD
ROOT
HETATM    1  O   UNL     1      -9.623   4.236  73.414  1.00  0.00    -0.119 OA 
HETATM    2  C   UNL     1      -9.259   5.471  73.010  1.00  0.00    -0.137 C  
HETATM    3  C   UNL     1      -9.272   5.696  71.534  1.00  0.00    -0.158 A  
HETATM    4  O   UNL     1      -8.940   6.344  73.803  1.00  0.00    -0.123 OA 
HETATM    5  C   UNL     1      -8.905   6.975  71.071  1.00  0.00    -0.146 A  
HETATM    6  C   UNL     1      -8.902   7.281  69.701  1.00  0.00    -0.141 A  
HETATM    7  C   UNL     1      -9.271   6.275  68.800  1.00  0.00    -0.125 A  
HETATM    8  C   UNL     1      -9.641   4.717  70.602  1.00  0.00    -0.185 A  
HETATM    9  H   UNL     1     -10.274   2.805  70.390  1.00  0.00     0.000 HD 
HETATM   10  C   UNL     1      -9.637   5.000  69.237  1.00  0.00    -0.230 A  
HETATM   11  O   UNL     1     -10.023   3.469  71.023  1.00  0.00    -0.143 OA 
ENDROOT
BRANCH   6  12
HETATM   12  N   UNL     1      -8.633   8.559  69.167  1.00  0.00    -0.132 NA 
HETATM   13  H   UNL     1      -8.092   9.269  69.662  1.00  0.00     0.000 HD 
BRANCH  12  14
HETATM   14  N   UNL     1      -9.119   8.740  68.032  1.00  0.00    -0.140 NA 
HETATM   15  H   UNL     1      -9.535   8.000  67.467  1.00  0.00     0.000 HD 
BRANCH  14  16
HETATM   16  C   UNL     1      -9.026  10.090  67.621  1.00  0.00    -0.131 A  
HETATM   17  C   UNL     1      -7.678  12.120  67.522  1.00  0.00    -0.159 A  
HETATM   18  C   UNL     1      -7.821  10.767  67.844  1.00  0.00    -0.109 A  
HETATM   19  C   UNL     1      -8.756  12.819  66.979  1.00  0.00    -0.197 A  
HETATM   20  C   UNL     1      -9.974  12.174  66.738  1.00  0.00    -0.218 A  
HETATM   21  O   UNL     1      -8.613  14.154  66.690  1.00  0.00    -0.423 OA 
HETATM   22  C   UNL     1     -11.175  12.845  66.158  1.00  0.00    -0.292 C  
HETATM   23  C   UNL     1     -10.096  10.811  67.066  1.00  0.00    -0.249 A  
HETATM   24  H   UNL     1      -9.347  14.630  66.320  1.00  0.00     0.000 HD 
HETATM   25  O   UNL     1     -11.038  14.162  65.901  1.00  0.00    -0.299 OA 
HETATM   26  O   UNL     1     -12.215  12.245  65.934  1.00  0.00    -0.634 OA 
ENDBRANCH  14  16
ENDBRANCH  12  14
ENDBRANCH   6  12
TORSDOF 3
ENDMDL
MODEL      264
REMARK 921   NORMALIZED FREE ENERGY PREDICTED BY IDOCK:   -3.81 KCAL/MOL
REMARK 922        TOTAL FREE ENERGY PREDICTED BY IDOCK:   -4.84 KCAL/MOL
REMARK 923 INTER-LIGAND FREE ENERGY PREDICTED BY IDOCK:   -4.63 KCAL/MOL
REMARK 924 INTRA-LIGAND FREE ENERGY PREDICTED BY IDOCK:   -0.22 KCAL/MOL
REMARK 927      BINDING AFFINITY PREDICTED BY RF-SCORE:    0.00 PKD
ROOT
HETATM    1  O   UNL     1      -6.791  13.244  67.733  1.00  0.00    -0.120 OA 
HETATM    2  C   UNL     1      -7.946  12.614  67.430  1.00  0.00    -0.177 C  
HETATM    3  C   UNL     1      -8.273  11.429  68.277  1.00  0.00    -0.150 A  
HETATM    4  O   UNL     1      -8.670  12.991  66.522  1.00  0.00    -0.086 OA 
HETATM    5  C   UNL     1      -9.474  10.747  67.998  1.00  0.00    -0.166 A  
HETATM    6  C   UNL     1      -9.870   9.631  68.752  1.00  0.00    -0.165 A  
HETATM    7  C   UNL     1      -9.035   9.208  69.793  1.00  0.00    -0.168 A  
HETATM    8  C   UNL     1      -7.466  10.980  69.330  1.00  0.00    -0.072 A  
HETATM    9  H   UNL     1      -5.755  11.330  70.354  1.00  0.00     0.000 HD 
HETATM   10  C   UNL     1      -7.839   9.869  70.085  1.00  0.00    -0.186 A  
HETATM   11  O   UNL     1      -6.302  11.635  69.639  1.00  0.00    -0.109 OA 
ENDROOT
BRANCH   6  12
HETATM   12  N   UNL     1     -11.096   8.951  68.592  1.00  0.00    -0.433 NA 
HETATM   13  H   UNL     1     -11.820   9.250  67.938  1.00  0.00     0.000 HD 
BRANCH  12  14
HETATM   14  N   UNL     1     -11.212   7.948  69.326  1.00  0.00    -0.420 NA 
HETATM   15  H   UNL     1     -11.587   7.977  70.274  1.00  0.00     0.000 HD 
BRANCH  14  16
HETATM   16  C   UNL     1     -10.762   6.768  68.690  1.00  0.00    -0.234 A  
HETATM   17  C   UNL     1     -10.531   5.513  66.611  1.00  0.00    -0.355 A  
HETATM   18  C   UNL     1     -10.894   6.674  67.299  1.00  0.00    -0.456 A  
HETATM   19  C   UNL     1     -10.038   4.416  67.318  1.00  0.00    -0.049 A  
HETATM   20  C   UNL     1      -9.887   4.475  68.708  1.00  0.00    -0.180 A  
HETATM   21  O   UNL     1      -9.707   3.272  66.635  1.00  0.00    -0.406 OA 
HETATM   22  C   UNL     1      -9.365   3.351  69.541  1.00  0.00    -0.170 C  
HETATM   23  C   UNL     1     -10.256   5.655  69.381  1.00  0.00    -0.315 A  
HETATM   24  H   UNL     1      -9.371   2.525  67.117  1.00  0.00     0.000 HD 
HETATM   25  O   UNL     1      -9.068   2.220  68.869  1.00  0.00    -0.105 OA 
HETATM   26  O   UNL     1      -9.220   3.445  70.750  1.00  0.00    -0.105 OA 
ENDBRANCH  14  16
ENDBRANCH  12  14
ENDBRANCH   6  12
TORSDOF 3
ENDMDL
MODEL      265
REMARK 921   NORMALIZED FREE ENERGY PREDICTED BY IDOCK:   -3.79 KCAL/MOL
REMARK 922        TOTAL FREE ENERGY PREDICTED BY IDOCK:   -4.82 KCAL/MOL
REMARK 923 INTER-LIGAND FREE ENERGY PREDICTED BY IDOCK:   -4.20 KCAL/MOL
REMARK 924 INTRA-LIGAND FREE ENERGY PREDICTED BY IDOCK:   -0.62 KCAL/MOL
REMARK 927      BINDING AFFINITY PREDICTED BY RF-SCORE:    0.00 PKD
ROOT
HETATM    1  O   UNL     1     -11.760  11.652  66.397  1.00  0.00    -0.472 OA 
HETATM    2  C   UNL     1     -10.585  11.046  66.666  1.00  0.00    -0.262 C  
HETATM    3  C   UNL     1     -10.426  10.544  68.064  1.00  0.00    -0.232 A  
HETATM    4  O   UNL     1      -9.713  10.919  65.822  1.00  0.00    -0.203 OA 
HETATM    5  C   UNL     1      -9.215   9.898  68.385  1.00  0.00    -0.130 A  
HETATM    6  C   UNL     1      -8.984   9.382  69.669  1.00  0.00    -0.173 A  
HETATM    7  C   UNL     1      -9.991   9.529  70.631  1.00  0.00    -0.342 A  
HETATM    8  C   UNL     1     -11.412  10.667  69.051  1.00  0.00    -0.274 A  
HETATM    9  H   UNL     1     -13.277  11.356  69.433  1.00  0.00     0.000 HD 
HETATM   10  C   UNL     1     -11.197  10.168  70.334  1.00  0.00    -0.402 A  
HETATM   11  O   UNL     1     -12.609  11.273  68.764  1.00  0.00    -0.312 OA 
ENDROOT
BRANCH   6  12
HETATM   12  N   UNL     1      -7.838   8.647  70.042  1.00  0.00    -0.098 NA 
HETATM   13  H   UNL     1      -7.375   8.755  70.945  1.00  0.00     0.000 HD 
BRANCH  12  14
HETATM   14  N   UNL     1      -7.445   7.852  69.164  1.00  0.00    -0.091 NA 
HETATM   15  H   UNL     1      -6.831   8.113  68.393  1.00  0.00     0.000 HD 
BRANCH  14  16
HETATM   16  C   UNL     1      -7.952   6.546  69.362  1.00  0.00    -0.114 A  
HETATM   17  C   UNL     1      -8.537   4.787  70.947  1.00  0.00    -0.126 A  
HETATM   18  C   UNL     1      -8.104   6.089  70.677  1.00  0.00    -0.116 A  
HETATM   19  C   UNL     1      -8.814   3.918  69.893  1.00  0.00    -0.086 A  
HETATM   20  C   UNL     1      -8.678   4.341  68.566  1.00  0.00    -0.121 A  
HETATM   21  O   UNL     1      -9.215   2.634  70.170  1.00  0.00    -0.109 OA 
HETATM   22  C   UNL     1      -8.955   3.478  67.380  1.00  0.00    -0.146 C  
HETATM   23  C   UNL     1      -8.243   5.656  68.315  1.00  0.00    -0.103 A  
HETATM   24  H   UNL     1      -9.404   2.042  69.452  1.00  0.00     0.000 HD 
HETATM   25  O   UNL     1      -9.323   2.210  67.657  1.00  0.00    -0.171 OA 
HETATM   26  O   UNL     1      -8.853   3.888  66.234  1.00  0.00    -0.115 OA 
ENDBRANCH  14  16
ENDBRANCH  12  14
ENDBRANCH   6  12
TORSDOF 3
ENDMDL
MODEL      266
REMARK 921   NORMALIZED FREE ENERGY PREDICTED BY IDOCK:   -3.73 KCAL/MOL
REMARK 922        TOTAL FREE ENERGY PREDICTED BY IDOCK:   -4.75 KCAL/MOL
REMARK 923 INTER-LIGAND FREE ENERGY PREDICTED BY IDOCK:   -4.15 KCAL/MOL
REMARK 924 INTRA-LIGAND FREE ENERGY PREDICTED BY IDOCK:   -0.59 KCAL/MOL
REMARK 927      BINDING AFFINITY PREDICTED BY RF-SCORE:    0.00 PKD
ROOT
HETATM    1  O   UNL     1     -10.908  10.928  64.843  1.00  0.00    -0.227 OA 
HETATM    2  C   UNL     1     -10.701  11.121  66.163  1.00  0.00    -0.225 C  
HETATM    3  C   UNL     1      -9.722  10.194  66.803  1.00  0.00    -0.235 A  
HETATM    4  O   UNL     1     -11.280  11.996  66.788  1.00  0.00    -0.287 OA 
HETATM    5  C   UNL     1      -9.471  10.367  68.179  1.00  0.00    -0.152 A  
HETATM    6  C   UNL     1      -8.555   9.551  68.861  1.00  0.00    -0.128 A  
HETATM    7  C   UNL     1      -7.895   8.551  68.135  1.00  0.00    -0.103 A  
HETATM    8  C   UNL     1      -9.037   9.187  66.110  1.00  0.00    -0.187 A  
HETATM    9  H   UNL     1      -8.778   8.326  64.296  1.00  0.00     0.000 HD 
HETATM   10  C   UNL     1      -8.129   8.362  66.771  1.00  0.00    -0.098 A  
HETATM   11  O   UNL     1      -9.243   9.008  64.766  1.00  0.00    -0.123 OA 
ENDROOT
BRANCH   6  12
HETATM   12  N   UNL     1      -8.186   9.717  70.213  1.00  0.00    -0.235 NA 
HETATM   13  H   UNL     1      -7.227   9.893  70.512  1.00  0.00     0.000 HD 
BRANCH  12  14
HETATM   14  N   UNL     1      -9.144   9.630  71.008  1.00  0.00    -0.343 NA 
HETATM   15  H   UNL     1      -9.849  10.356  71.131  1.00  0.00     0.000 HD 
BRANCH  14  16
HETATM   16  C   UNL     1      -9.139   8.406  71.716  1.00  0.00    -0.218 A  
HETATM   17  C   UNL     1      -7.820   6.677  72.823  1.00  0.00    -0.100 A  
HETATM   18  C   UNL     1      -7.910   7.911  72.172  1.00  0.00    -0.129 A  
HETATM   19  C   UNL     1      -8.970   5.912  73.016  1.00  0.00    -0.121 A  
HETATM   20  C   UNL     1     -10.216   6.376  72.578  1.00  0.00    -0.201 A  
HETATM   21  O   UNL     1      -8.867   4.691  73.634  1.00  0.00    -0.106 OA 
HETATM   22  C   UNL     1     -11.495   5.624  72.747  1.00  0.00    -0.274 C  
HETATM   23  C   UNL     1     -10.285   7.622  71.928  1.00  0.00    -0.234 A  
HETATM   24  H   UNL     1      -9.650   4.170  73.766  1.00  0.00     0.000 HD 
HETATM   25  O   UNL     1     -11.384   4.413  73.330  1.00  0.00    -0.300 OA 
HETATM   26  O   UNL     1     -12.569   6.070  72.378  1.00  0.00    -0.126 OA 
ENDBRANCH  14  16
ENDBRANCH  12  14
ENDBRANCH   6  12
TORSDOF 3
ENDMDL
MODEL      267
REMARK 921   NORMALIZED FREE ENERGY PREDICTED BY IDOCK:   -3.71 KCAL/MOL
REMARK 922        TOTAL FREE ENERGY PREDICTED BY IDOCK:   -4.72 KCAL/MOL
REMARK 923 INTER-LIGAND FREE ENERGY PREDICTED BY IDOCK:   -4.07 KCAL/MOL
REMARK 924 INTRA-LIGAND FREE ENERGY PREDICTED BY IDOCK:   -0.65 KCAL/MOL
REMARK 927      BINDING AFFINITY PREDICTED BY RF-SCORE:    0.00 PKD
ROOT
HETATM    1  O   UNL     1      -9.005  12.450  66.397  1.00  0.00    -0.192 OA 
HETATM    2  C   UNL     1      -9.630  11.325  65.991  1.00  0.00    -0.218 C  
HETATM    3  C   UNL     1      -9.793  10.268  67.033  1.00  0.00    -0.238 A  
HETATM    4  O   UNL     1     -10.033  11.185  64.847  1.00  0.00    -0.241 OA 
HETATM    5  C   UNL     1     -10.447   9.080  66.652  1.00  0.00    -0.235 A  
HETATM    6  C   UNL     1     -10.658   8.038  67.569  1.00  0.00    -0.232 A  
HETATM    7  C   UNL     1     -10.195   8.209  68.880  1.00  0.00    -0.221 A  
HETATM    8  C   UNL     1      -9.349  10.405  68.355  1.00  0.00    -0.150 A  
HETATM    9  H   UNL     1      -8.427  11.650  69.658  1.00  0.00     0.000 HD 
HETATM   10  C   UNL     1      -9.543   9.378  69.278  1.00  0.00    -0.171 A  
HETATM   11  O   UNL     1      -8.727  11.558  68.762  1.00  0.00    -0.137 OA 
ENDROOT
BRANCH   6  12
HETATM   12  N   UNL     1     -11.380   6.858  67.289  1.00  0.00    -0.704 NA 
HETATM   13  H   UNL     1     -12.336   6.860  66.934  1.00  0.00     0.000 HD 
BRANCH  12  14
HETATM   14  N   UNL     1     -10.738   5.813  67.515  1.00  0.00    -0.255 NA 
HETATM   15  H   UNL     1     -10.671   5.373  68.433  1.00  0.00     0.000 HD 
BRANCH  14  16
HETATM   16  C   UNL     1     -10.113   5.308  66.351  1.00  0.00    -0.226 A  
HETATM   17  C   UNL     1     -10.322   3.975  64.319  1.00  0.00    -0.203 A  
HETATM   18  C   UNL     1     -10.887   4.559  65.457  1.00  0.00    -0.085 A  
HETATM   19  C   UNL     1      -8.959   4.127  64.069  1.00  0.00    -0.141 A  
HETATM   20  C   UNL     1      -8.154   4.873  64.937  1.00  0.00    -0.112 A  
HETATM   21  O   UNL     1      -8.410   3.529  62.962  1.00  0.00    -0.083 OA 
HETATM   22  C   UNL     1      -6.690   5.088  64.743  1.00  0.00    -0.048 C  
HETATM   23  C   UNL     1      -8.743   5.455  66.076  1.00  0.00    -0.137 A  
HETATM   24  H   UNL     1      -7.481   3.633  62.791  1.00  0.00     0.000 HD 
HETATM   25  O   UNL     1      -6.150   4.476  63.669  1.00  0.00    -0.017 OA 
HETATM   26  O   UNL     1      -6.022   5.768  65.506  1.00  0.00    -0.026 OA 
ENDBRANCH  14  16
ENDBRANCH  12  14
ENDBRANCH   6  12
TORSDOF 3
ENDMDL
MODEL      268
REMARK 921   NORMALIZED FREE ENERGY PREDICTED BY IDOCK:   -3.67 KCAL/MOL
REMARK 922        TOTAL FREE ENERGY PREDICTED BY IDOCK:   -4.68 KCAL/MOL
REMARK 923 INTER-LIGAND FREE ENERGY PREDICTED BY IDOCK:   -4.13 KCAL/MOL
REMARK 924 INTRA-LIGAND FREE ENERGY PREDICTED BY IDOCK:   -0.55 KCAL/MOL
REMARK 927      BINDING AFFINITY PREDICTED BY RF-SCORE:    0.00 PKD
ROOT
HETATM    1  O   UNL     1      -5.818   7.853  63.780  1.00  0.00    -0.055 OA 
HETATM    2  C   UNL     1      -6.359   8.235  64.955  1.00  0.00    -0.049 C  
HETATM    3  C   UNL     1      -7.662   8.958  64.859  1.00  0.00    -0.112 A  
HETATM    4  O   UNL     1      -5.817   8.003  66.024  1.00  0.00    -0.036 OA 
HETATM    5  C   UNL     1      -8.265   9.368  66.065  1.00  0.00    -0.111 A  
HETATM    6  C   UNL     1      -9.497  10.041  66.071  1.00  0.00    -0.197 A  
HETATM    7  C   UNL     1     -10.113  10.301  64.841  1.00  0.00    -0.346 A  
HETATM    8  C   UNL     1      -8.312   9.230  63.648  1.00  0.00    -0.185 A  
HETATM    9  H   UNL     1      -8.202   9.011  61.638  1.00  0.00     0.000 HD 
HETATM   10  C   UNL     1      -9.532   9.905  63.634  1.00  0.00    -0.154 A  
HETATM   11  O   UNL     1      -7.761   8.826  62.459  1.00  0.00    -0.111 OA 
ENDROOT
BRANCH   6  12
HETATM   12  N   UNL     1     -10.205  10.405  67.237  1.00  0.00    -0.200 NA 
HETATM   13  H   UNL     1     -10.000  11.247  67.774  1.00  0.00     0.000 HD 
BRANCH  12  14
HETATM   14  N   UNL     1     -11.104   9.598  67.548  1.00  0.00    -0.421 NA 
HETATM   15  H   UNL     1     -11.858   9.317  66.921  1.00  0.00     0.000 HD 
BRANCH  14  16
HETATM   16  C   UNL     1     -10.957   9.118  68.870  1.00  0.00     0.017 A  
HETATM   17  C   UNL     1     -11.126   9.588  71.258  1.00  0.00    -0.449 A  
HETATM   18  C   UNL     1     -11.306   9.971  69.925  1.00  0.00    -0.306 A  
HETATM   19  C   UNL     1     -10.578   8.340  71.551  1.00  0.00    -0.235 A  
HETATM   20  C   UNL     1     -10.221   7.460  70.523  1.00  0.00    -0.196 A  
HETATM   21  O   UNL     1     -10.382   7.985  72.862  1.00  0.00    -0.315 OA 
HETATM   22  C   UNL     1      -9.632   6.106  70.747  1.00  0.00    -0.169 C  
HETATM   23  C   UNL     1     -10.413   7.863  69.188  1.00  0.00    -0.218 A  
HETATM   24  H   UNL     1     -10.009   7.134  73.062  1.00  0.00     0.000 HD 
HETATM   25  O   UNL     1      -9.417   5.773  72.037  1.00  0.00    -0.151 OA 
HETATM   26  O   UNL     1      -9.358   5.352  69.827  1.00  0.00    -0.133 OA 
ENDBRANCH  14  16
ENDBRANCH  12  14
ENDBRANCH   6  12
TORSDOF 3
ENDMDL
MODEL      269
REMARK 921   NORMALIZED FREE ENERGY PREDICTED BY IDOCK:   -3.65 KCAL/MOL
REMARK 922        TOTAL FREE ENERGY PREDICTED BY IDOCK:   -4.66 KCAL/MOL
REMARK 923 INTER-LIGAND FREE ENERGY PREDICTED BY IDOCK:   -4.29 KCAL/MOL
REMARK 924 INTRA-LIGAND FREE ENERGY PREDICTED BY IDOCK:   -0.37 KCAL/MOL
REMARK 927      BINDING AFFINITY PREDICTED BY RF-SCORE:    0.00 PKD
ROOT
HETATM    1  O   UNL     1      -7.828  10.114  62.765  1.00  0.00    -0.136 OA 
HETATM    2  C   UNL     1      -8.866  10.833  63.243  1.00  0.00    -0.185 C  
HETATM    3  C   UNL     1      -8.973  10.895  64.730  1.00  0.00    -0.155 A  
HETATM    4  O   UNL     1      -9.661  11.392  62.505  1.00  0.00    -0.249 OA 
HETATM    5  C   UNL     1     -10.039  11.643  65.271  1.00  0.00    -0.305 A  
HETATM    6  C   UNL     1     -10.210  11.769  66.659  1.00  0.00    -0.210 A  
HETATM    7  C   UNL     1      -9.291  11.127  67.498  1.00  0.00    -0.174 A  
HETATM    8  C   UNL     1      -8.071  10.272  65.603  1.00  0.00    -0.155 A  
HETATM    9  H   UNL     1      -6.400   9.132  65.699  1.00  0.00     0.000 HD 
HETATM   10  C   UNL     1      -8.229  10.380  66.983  1.00  0.00    -0.123 A  
HETATM   11  O   UNL     1      -7.012   9.555  65.107  1.00  0.00    -0.092 OA 
ENDROOT
BRANCH   6  12
HETATM   12  N   UNL     1     -11.196  12.569  67.274  1.00  0.00    -0.278 NA 
HETATM   13  H   UNL     1     -11.532  12.408  68.224  1.00  0.00     0.000 HD 
BRANCH  12  14
HETATM   14  N   UNL     1     -11.617  13.492  66.547  1.00  0.00    -0.343 NA 
HETATM   15  H   UNL     1     -12.378  13.386  65.876  1.00  0.00     0.000 HD 
BRANCH  14  16
HETATM   16  C   UNL     1     -10.917  14.702  66.763  1.00  0.00    -0.323 A  
HETATM   17  C   UNL     1     -10.601  17.035  66.125  1.00  0.00    -0.194 A  
HETATM   18  C   UNL     1     -11.290  15.824  66.012  1.00  0.00     0.139 A  
HETATM   19  C   UNL     1      -9.513  17.133  66.991  1.00  0.00    -0.252 A  
HETATM   20  C   UNL     1      -9.114  16.034  67.761  1.00  0.00    -0.196 A  
HETATM   21  O   UNL     1      -8.828  18.320  67.076  1.00  0.00    -0.254 OA 
HETATM   22  C   UNL     1      -7.965  16.053  68.714  1.00  0.00    -0.196 C  
HETATM   23  C   UNL     1      -9.823  14.825  67.635  1.00  0.00    -0.218 A  
HETATM   24  H   UNL     1      -8.087  18.386  67.666  1.00  0.00     0.000 HD 
HETATM   25  O   UNL     1      -7.279  17.213  68.773  1.00  0.00    -0.211 OA 
HETATM   26  O   UNL     1      -7.661  15.084  69.391  1.00  0.00    -0.181 OA 
ENDBRANCH  14  16
ENDBRANCH  12  14
ENDBRANCH   6  12
TORSDOF 3
ENDMDL
MODEL      270
REMARK 921   NORMALIZED FREE ENERGY PREDICTED BY IDOCK:   -3.65 KCAL/MOL
REMARK 922        TOTAL FREE ENERGY PREDICTED BY IDOCK:   -4.65 KCAL/MOL
REMARK 923 INTER-LIGAND FREE ENERGY PREDICTED BY IDOCK:   -4.37 KCAL/MOL
REMARK 924 INTRA-LIGAND FREE ENERGY PREDICTED BY IDOCK:   -0.29 KCAL/MOL
REMARK 927      BINDING AFFINITY PREDICTED BY RF-SCORE:    0.00 PKD
ROOT
HETATM    1  O   UNL     1     -11.232   6.281  72.930  1.00  0.00    -0.251 OA 
HETATM    2  C   UNL     1     -11.631   6.566  71.673  1.00  0.00    -0.308 C  
HETATM    3  C   UNL     1     -10.878   5.873  70.586  1.00  0.00    -0.363 A  
HETATM    4  O   UNL     1     -12.547   7.341  71.444  1.00  0.00    -0.355 OA 
HETATM    5  C   UNL     1     -11.268   6.138  69.258  1.00  0.00    -0.438 A  
HETATM    6  C   UNL     1     -10.626   5.521  68.173  1.00  0.00    -0.134 A  
HETATM    7  C   UNL     1      -9.579   4.631  68.445  1.00  0.00    -0.212 A  
HETATM    8  C   UNL     1      -9.830   4.973  70.818  1.00  0.00    -0.208 A  
HETATM    9  H   UNL     1      -8.730   4.068  72.258  1.00  0.00     0.000 HD 
HETATM   10  C   UNL     1      -9.176   4.356  69.754  1.00  0.00    -0.199 A  
HETATM   11  O   UNL     1      -9.441   4.679  72.100  1.00  0.00    -0.133 OA 
ENDROOT
BRANCH   6  12
HETATM   12  N   UNL     1     -11.015   5.666  66.824  1.00  0.00    -0.524 NA 
HETATM   13  H   UNL     1     -11.979   5.558  66.506  1.00  0.00     0.000 HD 
BRANCH  12  14
HETATM   14  N   UNL     1     -10.070   5.940  66.058  1.00  0.00    -0.401 NA 
HETATM   15  H   UNL     1      -9.595   6.842  66.039  1.00  0.00     0.000 HD 
BRANCH  14  16
HETATM   16  C   UNL     1      -9.733   4.853  65.217  1.00  0.00    -0.031 A  
HETATM   17  C   UNL     1     -10.519   3.055  63.768  1.00  0.00    -0.198 A  
HETATM   18  C   UNL     1     -10.771   4.178  64.563  1.00  0.00    -0.161 A  
HETATM   19  C   UNL     1      -9.213   2.586  63.628  1.00  0.00    -0.096 A  
HETATM   20  C   UNL     1      -8.150   3.238  64.264  1.00  0.00    -0.086 A  
HETATM   21  O   UNL     1      -8.980   1.468  62.866  1.00  0.00    -0.077 OA 
HETATM   22  C   UNL     1      -6.725   2.805  64.165  1.00  0.00    -0.035 C  
HETATM   23  C   UNL     1      -8.425   4.368  65.057  1.00  0.00    -0.124 A  
HETATM   24  H   UNL     1      -8.091   1.149  62.771  1.00  0.00     0.000 HD 
HETATM   25  O   UNL     1      -6.505   1.691  63.437  1.00  0.00    -0.013 OA 
HETATM   26  O   UNL     1      -5.817   3.414  64.710  1.00  0.00    -0.020 OA 
ENDBRANCH  14  16
ENDBRANCH  12  14
ENDBRANCH   6  12
TORSDOF 3
ENDMDL
MODEL      271
REMARK 921   NORMALIZED FREE ENERGY PREDICTED BY IDOCK:   -3.63 KCAL/MOL
REMARK 922        TOTAL FREE ENERGY PREDICTED BY IDOCK:   -4.63 KCAL/MOL
REMARK 923 INTER-LIGAND FREE ENERGY PREDICTED BY IDOCK:   -4.09 KCAL/MOL
REMARK 924 INTRA-LIGAND FREE ENERGY PREDICTED BY IDOCK:   -0.54 KCAL/MOL
REMARK 927      BINDING AFFINITY PREDICTED BY RF-SCORE:    0.00 PKD
ROOT
HETATM    1  O   UNL     1     -11.994  12.679  68.871  1.00  0.00    -0.302 OA 
HETATM    2  C   UNL     1     -11.099  11.669  68.890  1.00  0.00    -0.232 C  
HETATM    3  C   UNL     1     -11.298  10.654  69.966  1.00  0.00    -0.400 A  
HETATM    4  O   UNL     1     -10.188  11.595  68.080  1.00  0.00    -0.184 OA 
HETATM    5  C   UNL     1     -10.389   9.578  70.017  1.00  0.00    -0.284 A  
HETATM    6  C   UNL     1     -10.508   8.569  70.985  1.00  0.00    -0.212 A  
HETATM    7  C   UNL     1     -11.557   8.660  71.908  1.00  0.00    -0.420 A  
HETATM    8  C   UNL     1     -12.338  10.708  70.903  1.00  0.00    -0.401 A  
HETATM    9  H   UNL     1     -13.956  11.767  71.503  1.00  0.00     0.000 HD 
HETATM   10  C   UNL     1     -12.468   9.719  71.877  1.00  0.00    -0.451 A  
HETATM   11  O   UNL     1     -13.251  11.731  70.867  1.00  0.00     0.008 OA 
ENDROOT
BRANCH   6  12
HETATM   12  N   UNL     1      -9.694   7.418  71.046  1.00  0.00    -0.165 NA 
HETATM   13  H   UNL     1      -8.791   7.397  71.522  1.00  0.00     0.000 HD 
BRANCH  12  14
HETATM   14  N   UNL     1     -10.182   6.428  70.463  1.00  0.00    -0.186 NA 
HETATM   15  H   UNL     1     -11.112   6.056  70.654  1.00  0.00     0.000 HD 
BRANCH  14  16
HETATM   16  C   UNL     1      -9.295   5.882  69.506  1.00  0.00    -0.134 A  
HETATM   17  C   UNL     1      -7.873   4.010  68.854  1.00  0.00    -0.057 A  
HETATM   18  C   UNL     1      -8.803   4.589  69.723  1.00  0.00    -0.129 A  
HETATM   19  C   UNL     1      -7.413   4.732  67.754  1.00  0.00    -0.078 A  
HETATM   20  C   UNL     1      -7.886   6.026  67.502  1.00  0.00    -0.098 A  
HETATM   21  O   UNL     1      -6.481   4.164  66.921  1.00  0.00    -0.039 OA 
HETATM   22  C   UNL     1      -7.449   6.866  66.348  1.00  0.00    -0.074 C  
HETATM   23  C   UNL     1      -8.824   6.589  68.388  1.00  0.00    -0.123 A  
HETATM   24  H   UNL     1      -6.168   4.656  66.171  1.00  0.00     0.000 HD 
HETATM   25  O   UNL     1      -6.514   6.313  65.548  1.00  0.00    -0.037 OA 
HETATM   26  O   UNL     1      -7.903   7.981  66.142  1.00  0.00    -0.088 OA 
ENDBRANCH  14  16
ENDBRANCH  12  14
ENDBRANCH   6  12
TORSDOF 3
ENDMDL
MODEL      272
REMARK 921   NORMALIZED FREE ENERGY PREDICTED BY IDOCK:   -3.61 KCAL/MOL
REMARK 922        TOTAL FREE ENERGY PREDICTED BY IDOCK:   -4.61 KCAL/MOL
REMARK 923 INTER-LIGAND FREE ENERGY PREDICTED BY IDOCK:   -4.24 KCAL/MOL
REMARK 924 INTRA-LIGAND FREE ENERGY PREDICTED BY IDOCK:   -0.37 KCAL/MOL
REMARK 927      BINDING AFFINITY PREDICTED BY RF-SCORE:    0.00 PKD
ROOT
HETATM    1  O   UNL     1     -10.203  16.748  66.533  1.00  0.00    -0.296 OA 
HETATM    2  C   UNL     1     -10.733  15.507  66.530  1.00  0.00    -0.304 C  
HETATM    3  C   UNL     1      -9.840  14.424  67.037  1.00  0.00    -0.252 A  
HETATM    4  O   UNL     1     -11.868  15.290  66.136  1.00  0.00    -0.016 OA 
HETATM    5  C   UNL     1     -10.359  13.114  67.057  1.00  0.00    -0.249 A  
HETATM    6  C   UNL     1      -9.596  12.036  67.531  1.00  0.00    -0.177 A  
HETATM    7  C   UNL     1      -8.296  12.295  67.983  1.00  0.00    -0.165 A  
HETATM    8  C   UNL     1      -8.537  14.645  67.503  1.00  0.00    -0.187 A  
HETATM    9  H   UNL     1      -7.128  16.062  67.832  1.00  0.00     0.000 HD 
HETATM   10  C   UNL     1      -7.762  13.586  67.971  1.00  0.00    -0.143 A  
HETATM   11  O   UNL     1      -8.012  15.912  67.515  1.00  0.00    -0.129 OA 
ENDROOT
BRANCH   6  12
HETATM   12  N   UNL     1     -10.073  10.714  67.665  1.00  0.00    -0.172 NA 
HETATM   13  H   UNL     1     -11.043  10.451  67.489  1.00  0.00     0.000 HD 
BRANCH  12  14
HETATM   14  N   UNL     1      -9.197   9.899  68.018  1.00  0.00    -0.124 NA 
HETATM   15  H   UNL     1      -8.304   9.781  67.542  1.00  0.00     0.000 HD 
BRANCH  14  16
HETATM   16  C   UNL     1      -9.588   9.158  69.158  1.00  0.00    -0.161 A  
HETATM   17  C   UNL     1     -10.697   9.161  71.331  1.00  0.00    -0.414 A  
HETATM   18  C   UNL     1     -10.332   9.812  70.149  1.00  0.00    -0.335 A  
HETATM   19  C   UNL     1     -10.308   7.838  71.540  1.00  0.00    -0.193 A  
HETATM   20  C   UNL     1      -9.568   7.151  70.570  1.00  0.00    -0.169 A  
HETATM   21  O   UNL     1     -10.651   7.216  72.715  1.00  0.00    -0.226 OA 
HETATM   22  C   UNL     1      -9.114   5.736  70.712  1.00  0.00    -0.148 C  
HETATM   23  C   UNL     1      -9.213   7.824  69.386  1.00  0.00    -0.149 A  
HETATM   24  H   UNL     1     -10.385   6.315  72.858  1.00  0.00     0.000 HD 
HETATM   25  O   UNL     1      -9.430   5.139  71.880  1.00  0.00    -0.143 OA 
HETATM   26  O   UNL     1      -8.493   5.157  69.834  1.00  0.00    -0.094 OA 
ENDBRANCH  14  16
ENDBRANCH  12  14
ENDBRANCH   6  12
TORSDOF 3
ENDMDL
MODEL      273
REMARK 921   NORMALIZED FREE ENERGY PREDICTED BY IDOCK:   -3.56 KCAL/MOL
REMARK 922        TOTAL FREE ENERGY PREDICTED BY IDOCK:   -4.54 KCAL/MOL
REMARK 923 INTER-LIGAND FREE ENERGY PREDICTED BY IDOCK:   -4.17 KCAL/MOL
REMARK 924 INTRA-LIGAND FREE ENERGY PREDICTED BY IDOCK:   -0.37 KCAL/MOL
REMARK 927      BINDING AFFINITY PREDICTED BY RF-SCORE:    0.00 PKD
ROOT
HETATM    1  O   UNL     1      -7.266   5.923  65.034  1.00  0.00    -0.062 OA 
HETATM    2  C   UNL     1      -8.114   6.807  65.601  1.00  0.00    -0.122 C  
HETATM    3  C   UNL     1      -7.615   8.211  65.690  1.00  0.00    -0.083 A  
HETATM    4  O   UNL     1      -9.215   6.475  66.013  1.00  0.00    -0.136 OA 
HETATM    5  C   UNL     1      -8.474   9.167  66.269  1.00  0.00    -0.131 A  
HETATM    6  C   UNL     1      -8.094  10.514  66.381  1.00  0.00    -0.135 A  
HETATM    7  C   UNL     1      -6.832  10.886  65.903  1.00  0.00    -0.032 A  
HETATM    8  C   UNL     1      -6.362   8.622  65.218  1.00  0.00    -0.056 A  
HETATM    9  H   UNL     1      -4.663   7.999  64.310  1.00  0.00     0.000 HD 
HETATM   10  C   UNL     1      -5.965   9.954  65.327  1.00  0.00    -0.084 A  
HETATM   11  O   UNL     1      -5.513   7.720  64.630  1.00  0.00    -0.033 OA 
ENDROOT
BRANCH   6  12
HETATM   12  N   UNL     1      -8.929  11.543  66.867  1.00  0.00    -0.173 NA 
HETATM   13  H   UNL     1      -9.901  11.392  67.138  1.00  0.00     0.000 HD 
BRANCH  12  14
HETATM   14  N   UNL     1      -8.366  12.654  66.933  1.00  0.00    -0.356 NA 
HETATM   15  H   UNL     1      -7.401  12.822  66.647  1.00  0.00     0.000 HD 
BRANCH  14  16
HETATM   16  C   UNL     1      -9.221  13.655  67.451  1.00  0.00    -0.222 A  
HETATM   17  C   UNL     1     -11.136  14.194  68.863  1.00  0.00    -0.288 A  
HETATM   18  C   UNL     1     -10.214  13.270  68.360  1.00  0.00    -0.249 A  
HETATM   19  C   UNL     1     -11.078  15.524  68.448  1.00  0.00    -0.315 A  
HETATM   20  C   UNL     1     -10.096  15.946  67.545  1.00  0.00    -0.247 A  
HETATM   21  O   UNL     1     -12.003  16.417  68.929  1.00  0.00    -0.131 OA 
HETATM   22  C   UNL     1      -9.961  17.349  67.051  1.00  0.00    -0.295 C  
HETATM   23  C   UNL     1      -9.176  15.001  67.052  1.00  0.00    -0.246 A  
HETATM   24  H   UNL     1     -11.963  17.323  68.646  1.00  0.00     0.000 HD 
HETATM   25  O   UNL     1     -10.888  18.216  67.506  1.00  0.00    -0.389 OA 
HETATM   26  O   UNL     1      -9.074  17.690  66.284  1.00  0.00    -0.383 OA 
ENDBRANCH  14  16
ENDBRANCH  12  14
ENDBRANCH   6  12
TORSDOF 3
ENDMDL
MODEL      274
REMARK 921   NORMALIZED FREE ENERGY PREDICTED BY IDOCK:   -3.45 KCAL/MOL
REMARK 922        TOTAL FREE ENERGY PREDICTED BY IDOCK:   -4.42 KCAL/MOL
REMARK 923 INTER-LIGAND FREE ENERGY PREDICTED BY IDOCK:   -3.91 KCAL/MOL
REMARK 924 INTRA-LIGAND FREE ENERGY PREDICTED BY IDOCK:   -0.51 KCAL/MOL
REMARK 927      BINDING AFFINITY PREDICTED BY RF-SCORE:    0.00 PKD
ROOT
HETATM    1  O   UNL     1      -9.798  12.118  65.626  1.00  0.00    -0.244 OA 
HETATM    2  C   UNL     1     -10.158  10.925  66.146  1.00  0.00    -0.239 C  
HETATM    3  C   UNL     1      -9.351   9.755  65.691  1.00  0.00    -0.285 A  
HETATM    4  O   UNL     1     -11.084  10.815  66.934  1.00  0.00    -0.244 OA 
HETATM    5  C   UNL     1      -9.690   8.492  66.216  1.00  0.00    -0.300 A  
HETATM    6  C   UNL     1      -8.976   7.338  65.856  1.00  0.00    -0.068 A  
HETATM    7  C   UNL     1      -7.914   7.474  64.954  1.00  0.00    -0.132 A  
HETATM    8  C   UNL     1      -8.277   9.852  64.795  1.00  0.00    -0.151 A  
HETATM    9  H   UNL     1      -7.182  11.135  63.676  1.00  0.00     0.000 HD 
HETATM   10  C   UNL     1      -7.562   8.716  64.421  1.00  0.00    -0.115 A  
HETATM   11  O   UNL     1      -7.910  11.070  64.283  1.00  0.00     0.297 OA 
ENDROOT
BRANCH   6  12
HETATM   12  N   UNL     1      -9.197   6.056  66.404  1.00  0.00    -0.149 NA 
HETATM   13  H   UNL     1      -9.832   5.374  65.989  1.00  0.00     0.000 HD 
BRANCH  12  14
HETATM   14  N   UNL     1      -8.543   5.836  67.443  1.00  0.00    -0.107 NA 
HETATM   15  H   UNL     1      -7.643   5.357  67.459  1.00  0.00     0.000 HD 
BRANCH  14  16
HETATM   16  C   UNL     1      -9.194   6.329  68.598  1.00  0.00    -0.124 A  
HETATM   17  C   UNL     1     -11.276   6.538  69.852  1.00  0.00    -0.456 A  
HETATM   18  C   UNL     1     -10.552   6.031  68.769  1.00  0.00    -0.345 A  
HETATM   19  C   UNL     1     -10.645   7.367  70.778  1.00  0.00    -0.223 A  
HETATM   20  C   UNL     1      -9.288   7.683  70.643  1.00  0.00    -0.163 A  
HETATM   21  O   UNL     1     -11.372   7.879  71.824  1.00  0.00    -0.248 OA 
HETATM   22  C   UNL     1      -8.534   8.558  71.589  1.00  0.00    -0.178 C  
HETATM   23  C   UNL     1      -8.576   7.160  69.547  1.00  0.00    -0.134 A  
HETATM   24  H   UNL     1     -10.941   8.444  72.455  1.00  0.00     0.000 HD 
HETATM   25  O   UNL     1      -9.260   9.081  72.599  1.00  0.00    -0.200 OA 
HETATM   26  O   UNL     1      -7.343   8.791  71.457  1.00  0.00    -0.101 OA 
ENDBRANCH  14  16
ENDBRANCH  12  14
ENDBRANCH   6  12
TORSDOF 3
ENDMDL
MODEL      275
REMARK 921   NORMALIZED FREE ENERGY PREDICTED BY IDOCK:   -3.45 KCAL/MOL
REMARK 922        TOTAL FREE ENERGY PREDICTED BY IDOCK:   -4.41 KCAL/MOL
REMARK 923 INTER-LIGAND FREE ENERGY PREDICTED BY IDOCK:   -4.09 KCAL/MOL
REMARK 924 INTRA-LIGAND FREE ENERGY PREDICTED BY IDOCK:   -0.33 KCAL/MOL
REMARK 927      BINDING AFFINITY PREDICTED BY RF-SCORE:    0.00 PKD
ROOT
HETATM    1  O   UNL     1      -7.408   5.599  64.764  1.00  0.00    -0.063 OA 
HETATM    2  C   UNL     1      -8.321   6.070  65.639  1.00  0.00    -0.145 C  
HETATM    3  C   UNL     1      -7.980   7.372  66.286  1.00  0.00    -0.109 A  
HETATM    4  O   UNL     1      -9.356   5.470  65.882  1.00  0.00    -0.161 OA 
HETATM    5  C   UNL     1      -8.911   7.903  67.200  1.00  0.00    -0.137 A  
HETATM    6  C   UNL     1      -8.681   9.128  67.846  1.00  0.00    -0.128 A  
HETATM    7  C   UNL     1      -7.493   9.812  67.558  1.00  0.00    -0.091 A  
HETATM    8  C   UNL     1      -6.805   8.088  66.020  1.00  0.00    -0.057 A  
HETATM    9  H   UNL     1      -5.093   8.094  64.939  1.00  0.00     0.000 HD 
HETATM   10  C   UNL     1      -6.556   9.303  66.656  1.00  0.00    -0.068 A  
HETATM   11  O   UNL     1      -5.889   7.607  65.119  1.00  0.00    -0.037 OA 
ENDROOT
BRANCH   6  12
HETATM   12  N   UNL     1      -9.601   9.767  68.704  1.00  0.00    -0.148 NA 
HETATM   13  H   UNL     1     -10.473   9.334  69.008  1.00  0.00     0.000 HD 
BRANCH  12  14
HETATM   14  N   UNL     1      -9.247  10.911  69.056  1.00  0.00    -0.324 NA 
HETATM   15  H   UNL     1      -8.464  11.097  69.682  1.00  0.00     0.000 HD 
BRANCH  14  16
HETATM   16  C   UNL     1     -10.058  11.919  68.484  1.00  0.00    -0.206 A  
HETATM   17  C   UNL     1     -11.878  12.474  66.959  1.00  0.00    -0.394 A  
HETATM   18  C   UNL     1     -11.080  11.529  67.610  1.00  0.00    -0.324 A  
HETATM   19  C   UNL     1     -11.652  13.833  67.169  1.00  0.00    -0.364 A  
HETATM   20  C   UNL     1     -10.642  14.261  68.039  1.00  0.00    -0.238 A  
HETATM   21  O   UNL     1     -12.425  14.753  66.505  1.00  0.00    -0.280 OA 
HETATM   22  C   UNL     1     -10.334  15.694  68.324  1.00  0.00    -0.244 C  
HETATM   23  C   UNL     1      -9.851  13.293  68.687  1.00  0.00    -0.096 A  
HETATM   24  H   UNL     1     -12.271  15.679  66.649  1.00  0.00     0.000 HD 
HETATM   25  O   UNL     1     -11.079  16.593  67.648  1.00  0.00    -0.244 OA 
HETATM   26  O   UNL     1      -9.464  16.032  69.110  1.00  0.00    -0.228 OA 
ENDBRANCH  14  16
ENDBRANCH  12  14
ENDBRANCH   6  12
TORSDOF 3
ENDMDL
MODEL      276
REMARK 921   NORMALIZED FREE ENERGY PREDICTED BY IDOCK:   -3.43 KCAL/MOL
REMARK 922        TOTAL FREE ENERGY PREDICTED BY IDOCK:   -4.39 KCAL/MOL
REMARK 923 INTER-LIGAND FREE ENERGY PREDICTED BY IDOCK:   -4.50 KCAL/MOL
REMARK 924 INTRA-LIGAND FREE ENERGY PREDICTED BY IDOCK:    0.11 KCAL/MOL
REMARK 927      BINDING AFFINITY PREDICTED BY RF-SCORE:    0.00 PKD
ROOT
HETATM    1  O   UNL     1      -8.289   4.851  65.611  1.00  0.00    -0.115 OA 
HETATM    2  C   UNL     1      -9.118   5.403  66.522  1.00  0.00    -0.135 C  
HETATM    3  C   UNL     1      -8.875   6.845  66.823  1.00  0.00    -0.129 A  
HETATM    4  O   UNL     1     -10.006   4.763  67.062  1.00  0.00    -0.188 OA 
HETATM    5  C   UNL     1      -9.724   7.462  67.763  1.00  0.00    -0.171 A  
HETATM    6  C   UNL     1      -9.578   8.817  68.098  1.00  0.00    -0.146 A  
HETATM    7  C   UNL     1      -8.559   9.546  67.472  1.00  0.00    -0.126 A  
HETATM    8  C   UNL     1      -7.870   7.608  66.213  1.00  0.00    -0.091 A  
HETATM    9  H   UNL     1      -6.360   7.559  64.865  1.00  0.00     0.000 HD 
HETATM   10  C   UNL     1      -7.705   8.953  66.538  1.00  0.00    -0.099 A  
HETATM   11  O   UNL     1      -7.041   7.042  65.279  1.00  0.00    -0.063 OA 
ENDROOT
BRANCH   6  12
HETATM   12  N   UNL     1     -10.441   9.527  68.961  1.00  0.00    -0.208 NA 
HETATM   13  H   UNL     1     -11.347   9.168  69.263  1.00  0.00     0.000 HD 
BRANCH  12  14
HETATM   14  N   UNL     1      -9.991  10.634  69.319  1.00  0.00    -0.307 NA 
HETATM   15  H   UNL     1      -9.254  10.751  70.015  1.00  0.00     0.000 HD 
BRANCH  14  16
HETATM   16  C   UNL     1     -10.620  11.708  68.649  1.00  0.00    -0.209 A  
HETATM   17  C   UNL     1     -11.448  14.000  68.762  1.00  0.00    -0.327 A  
HETATM   18  C   UNL     1     -10.777  12.917  69.338  1.00  0.00     0.144 A  
HETATM   19  C   UNL     1     -11.983  13.879  67.480  1.00  0.00    -0.386 A  
HETATM   20  C   UNL     1     -11.842  12.687  66.758  1.00  0.00    -0.440 A  
HETATM   21  O   UNL     1     -12.661  14.940  66.933  1.00  0.00    -0.204 OA 
HETATM   22  C   UNL     1     -12.380  12.474  65.382  1.00  0.00    -0.359 C  
HETATM   23  C   UNL     1     -11.161  11.610  67.356  1.00  0.00    -0.358 A  
HETATM   24  H   UNL     1     -13.025  14.857  66.060  1.00  0.00     0.000 HD 
HETATM   25  O   UNL     1     -13.068  13.510  64.861  1.00  0.00    -0.718 OA 
HETATM   26  O   UNL     1     -12.215  11.430  64.770  1.00  0.00     0.141 OA 
ENDBRANCH  14  16
ENDBRANCH  12  14
ENDBRANCH   6  12
TORSDOF 3
ENDMDL
MODEL      277
REMARK 921   NORMALIZED FREE ENERGY PREDICTED BY IDOCK:   -3.40 KCAL/MOL
REMARK 922        TOTAL FREE ENERGY PREDICTED BY IDOCK:   -4.36 KCAL/MOL
REMARK 923 INTER-LIGAND FREE ENERGY PREDICTED BY IDOCK:   -4.13 KCAL/MOL
REMARK 924 INTRA-LIGAND FREE ENERGY PREDICTED BY IDOCK:   -0.23 KCAL/MOL
REMARK 927      BINDING AFFINITY PREDICTED BY RF-SCORE:    0.00 PKD
ROOT
HETATM    1  O   UNL     1      -6.529  13.553  69.261  1.00  0.00    -0.103 OA 
HETATM    2  C   UNL     1      -7.406  12.666  68.747  1.00  0.00    -0.066 C  
HETATM    3  C   UNL     1      -7.130  11.233  69.062  1.00  0.00    -0.116 A  
HETATM    4  O   UNL     1      -8.360  13.016  68.070  1.00  0.00    -0.149 OA 
HETATM    5  C   UNL     1      -8.027  10.274  68.550  1.00  0.00    -0.107 A  
HETATM    6  C   UNL     1      -7.855   8.904  68.807  1.00  0.00    -0.101 A  
HETATM    7  C   UNL     1      -6.759   8.512  69.587  1.00  0.00    -0.040 A  
HETATM    8  C   UNL     1      -6.049  10.802  69.843  1.00  0.00    -0.094 A  
HETATM    9  H   UNL     1      -4.438  11.421  70.902  1.00  0.00     0.000 HD 
HETATM   10  C   UNL     1      -5.857   9.446  70.102  1.00  0.00    -0.033 A  
HETATM   11  O   UNL     1      -5.171  11.713  70.372  1.00  0.00    -0.082 OA 
ENDROOT
BRANCH   6  12
HETATM   12  N   UNL     1      -8.755   7.895  68.406  1.00  0.00    -0.131 NA 
HETATM   13  H   UNL     1      -9.199   7.876  67.488  1.00  0.00     0.000 HD 
BRANCH  12  14
HETATM   14  N   UNL     1      -8.956   7.027  69.280  1.00  0.00    -0.138 NA 
HETATM   15  H   UNL     1      -8.540   6.096  69.264  1.00  0.00     0.000 HD 
BRANCH  14  16
HETATM   16  C   UNL     1      -9.827   7.486  70.295  1.00  0.00    -0.183 A  
HETATM   17  C   UNL     1     -10.759   7.127  72.521  1.00  0.00    -0.285 A  
HETATM   18  C   UNL     1      -9.875   6.770  71.498  1.00  0.00    -0.179 A  
HETATM   19  C   UNL     1     -11.622   8.208  72.343  1.00  0.00    -0.399 A  
HETATM   20  C   UNL     1     -11.599   8.949  71.156  1.00  0.00    -0.360 A  
HETATM   21  O   UNL     1     -12.503   8.534  73.344  1.00  0.00    -0.233 OA 
HETATM   22  C   UNL     1     -12.484  10.121  70.885  1.00  0.00    -0.360 C  
HETATM   23  C   UNL     1     -10.700   8.575  70.140  1.00  0.00    -0.240 A  
HETATM   24  H   UNL     1     -13.091   9.270  73.223  1.00  0.00     0.000 HD 
HETATM   25  O   UNL     1     -13.367  10.420  71.861  1.00  0.00    -0.412 OA 
HETATM   26  O   UNL     1     -12.420  10.763  69.849  1.00  0.00    -0.322 OA 
ENDBRANCH  14  16
ENDBRANCH  12  14
ENDBRANCH   6  12
TORSDOF 3
ENDMDL
MODEL      278
REMARK 921   NORMALIZED FREE ENERGY PREDICTED BY IDOCK:   -3.25 KCAL/MOL
REMARK 922        TOTAL FREE ENERGY PREDICTED BY IDOCK:   -4.18 KCAL/MOL
REMARK 923 INTER-LIGAND FREE ENERGY PREDICTED BY IDOCK:   -3.71 KCAL/MOL
REMARK 924 INTRA-LIGAND FREE ENERGY PREDICTED BY IDOCK:   -0.46 KCAL/MOL
REMARK 927      BINDING AFFINITY PREDICTED BY RF-SCORE:    0.00 PKD
ROOT
HETATM    1  O   UNL     1      -8.836   4.553  64.515  1.00  0.00    -0.142 OA 
HETATM    2  C   UNL     1      -9.008   5.308  65.621  1.00  0.00    -0.158 C  
HETATM    3  C   UNL     1      -8.502   6.710  65.527  1.00  0.00    -0.135 A  
HETATM    4  O   UNL     1      -9.541   4.870  66.628  1.00  0.00    -0.137 OA 
HETATM    5  C   UNL     1      -8.669   7.534  66.658  1.00  0.00    -0.146 A  
HETATM    6  C   UNL     1      -8.237   8.870  66.656  1.00  0.00    -0.111 A  
HETATM    7  C   UNL     1      -7.630   9.365  65.496  1.00  0.00    -0.099 A  
HETATM    8  C   UNL     1      -7.895   7.243  64.383  1.00  0.00    -0.126 A  
HETATM    9  H   UNL     1      -7.326   6.834  62.483  1.00  0.00     0.000 HD 
HETATM   10  C   UNL     1      -7.453   8.565  64.364  1.00  0.00    -0.110 A  
HETATM   11  O   UNL     1      -7.737   6.472  63.259  1.00  0.00    -0.085 OA 
ENDROOT
BRANCH   6  12
HETATM   12  N   UNL     1      -8.447   9.781  67.713  1.00  0.00    -0.121 NA 
HETATM   13  H   UNL     1      -7.810   9.873  68.505  1.00  0.00     0.000 HD 
BRANCH  12  14
HETATM   14  N   UNL     1      -9.484  10.463  67.588  1.00  0.00    -0.148 NA 
HETATM   15  H   UNL     1     -10.410  10.067  67.429  1.00  0.00     0.000 HD 
BRANCH  14  16
HETATM   16  C   UNL     1      -9.225  11.850  67.691  1.00  0.00    -0.183 A  
HETATM   17  C   UNL     1      -7.737  13.609  68.490  1.00  0.00    -0.129 A  
HETATM   18  C   UNL     1      -8.029  12.256  68.295  1.00  0.00    -0.163 A  
HETATM   19  C   UNL     1      -8.653  14.580  68.086  1.00  0.00    -0.169 A  
HETATM   20  C   UNL     1      -9.857  14.211  67.474  1.00  0.00    -0.235 A  
HETATM   21  O   UNL     1      -8.367  15.905  68.304  1.00  0.00    -0.158 OA 
HETATM   22  C   UNL     1     -10.891  15.183  67.010  1.00  0.00    -0.314 C  
HETATM   23  C   UNL     1     -10.131  12.844  67.285  1.00  0.00    -0.231 A  
HETATM   24  H   UNL     1      -8.992  16.565  68.029  1.00  0.00     0.000 HD 
HETATM   25  O   UNL     1     -10.617  16.482  67.251  1.00  0.00    -0.315 OA 
HETATM   26  O   UNL     1     -11.919  14.829  66.453  1.00  0.00    -0.299 OA 
ENDBRANCH  14  16
ENDBRANCH  12  14
ENDBRANCH   6  12
TORSDOF 3
ENDMDL
MODEL      279
REMARK 921   NORMALIZED FREE ENERGY PREDICTED BY IDOCK:   -3.21 KCAL/MOL
REMARK 922        TOTAL FREE ENERGY PREDICTED BY IDOCK:   -4.14 KCAL/MOL
REMARK 923 INTER-LIGAND FREE ENERGY PREDICTED BY IDOCK:   -3.45 KCAL/MOL
REMARK 924 INTRA-LIGAND FREE ENERGY PREDICTED BY IDOCK:   -0.69 KCAL/MOL
REMARK 927      BINDING AFFINITY PREDICTED BY RF-SCORE:    0.00 PKD
ROOT
HETATM    1  O   UNL     1     -11.424  10.880  70.182  1.00  0.00    -0.292 OA 
HETATM    2  C   UNL     1     -10.476  10.714  69.235  1.00  0.00    -0.227 C  
HETATM    3  C   UNL     1      -9.357   9.796  69.600  1.00  0.00    -0.237 A  
HETATM    4  O   UNL     1     -10.533  11.279  68.155  1.00  0.00    -0.177 OA 
HETATM    5  C   UNL     1      -8.349   9.589  68.637  1.00  0.00    -0.117 A  
HETATM    6  C   UNL     1      -7.266   8.731  68.887  1.00  0.00    -0.074 A  
HETATM    7  C   UNL     1      -7.210   8.085  70.128  1.00  0.00    -0.056 A  
HETATM    8  C   UNL     1      -9.269   9.126  70.828  1.00  0.00    -0.262 A  
HETATM    9  H   UNL     1     -10.185   8.836  72.611  1.00  0.00     0.000 HD 
HETATM   10  C   UNL     1      -8.197   8.276  71.098  1.00  0.00    -0.137 A  
HETATM   11  O   UNL     1     -10.244   9.291  71.778  1.00  0.00    -0.311 OA 
ENDROOT
BRANCH   6  12
HETATM   12  N   UNL     1      -6.268   8.405  67.944  1.00  0.00    -0.051 NA 
HETATM   13  H   UNL     1      -5.757   9.107  67.408  1.00  0.00     0.000 HD 
BRANCH  12  14
HETATM   14  N   UNL     1      -6.071   7.179  67.829  1.00  0.00    -0.032 NA 
HETATM   15  H   UNL     1      -5.458   6.641  68.440  1.00  0.00     0.000 HD 
BRANCH  14  16
HETATM   16  C   UNL     1      -6.797   6.622  66.750  1.00  0.00    -0.065 A  
HETATM   17  C   UNL     1      -7.017   6.368  64.334  1.00  0.00    -0.047 A  
HETATM   18  C   UNL     1      -6.317   6.833  65.451  1.00  0.00    -0.042 A  
HETATM   19  C   UNL     1      -8.222   5.688  64.507  1.00  0.00    -0.125 A  
HETATM   20  C   UNL     1      -8.730   5.454  65.790  1.00  0.00    -0.149 A  
HETATM   21  O   UNL     1      -8.914   5.257  63.402  1.00  0.00    -0.338 OA 
HETATM   22  C   UNL     1     -10.009   4.734  66.065  1.00  0.00    -0.237 C  
HETATM   23  C   UNL     1      -8.009   5.929  66.902  1.00  0.00    -0.102 A  
HETATM   24  H   UNL     1      -9.735   4.794  63.520  1.00  0.00     0.000 HD 
HETATM   25  O   UNL     1     -10.698   4.337  64.975  1.00  0.00    -0.253 OA 
HETATM   26  O   UNL     1     -10.409   4.522  67.199  1.00  0.00    -0.115 OA 
ENDBRANCH  14  16
ENDBRANCH  12  14
ENDBRANCH   6  12
TORSDOF 3
ENDMDL
MODEL      280
REMARK 921   NORMALIZED FREE ENERGY PREDICTED BY IDOCK:   -3.07 KCAL/MOL
REMARK 922        TOTAL FREE ENERGY PREDICTED BY IDOCK:   -3.97 KCAL/MOL
REMARK 923 INTER-LIGAND FREE ENERGY PREDICTED BY IDOCK:   -3.33 KCAL/MOL
REMARK 924 INTRA-LIGAND FREE ENERGY PREDICTED BY IDOCK:   -0.64 KCAL/MOL
REMARK 927      BINDING AFFINITY PREDICTED BY RF-SCORE:    0.00 PKD
ROOT
HETATM    1  O   UNL     1     -10.277  10.814  66.247  1.00  0.00    -0.231 OA 
HETATM    2  C   UNL     1     -10.090   9.532  66.625  1.00  0.00    -0.252 C  
HETATM    3  C   UNL     1      -8.676   9.145  66.908  1.00  0.00    -0.133 A  
HETATM    4  O   UNL     1     -11.018   8.745  66.727  1.00  0.00    -0.009 OA 
HETATM    5  C   UNL     1      -8.438   7.816  67.314  1.00  0.00    -0.118 A  
HETATM    6  C   UNL     1      -7.143   7.367  67.615  1.00  0.00    -0.085 A  
HETATM    7  C   UNL     1      -6.085   8.277  67.498  1.00  0.00    -0.052 A  
HETATM    8  C   UNL     1      -7.593  10.028  66.809  1.00  0.00    -0.103 A  
HETATM    9  H   UNL     1      -7.060  11.931  66.369  1.00  0.00     0.000 HD 
HETATM   10  C   UNL     1      -6.299   9.598  67.096  1.00  0.00    -0.065 A  
HETATM   11  O   UNL     1      -7.795  11.333  66.436  1.00  0.00    -0.158 OA 
ENDROOT
BRANCH   6  12
HETATM   12  N   UNL     1      -6.836   6.082  68.110  1.00  0.00    -0.068 NA 
HETATM   13  H   UNL     1      -6.812   5.248  67.522  1.00  0.00     0.000 HD 
BRANCH  12  14
HETATM   14  N   UNL     1      -6.598   6.061  69.335  1.00  0.00    -0.042 NA 
HETATM   15  H   UNL     1      -5.664   6.157  69.735  1.00  0.00     0.000 HD 
BRANCH  14  16
HETATM   16  C   UNL     1      -7.772   5.891  70.104  1.00  0.00    -0.095 A  
HETATM   17  C   UNL     1      -9.642   4.446  70.707  1.00  0.00    -0.259 A  
HETATM   18  C   UNL     1      -8.441   4.663  70.026  1.00  0.00    -0.089 A  
HETATM   19  C   UNL     1     -10.198   5.471  71.473  1.00  0.00    -0.212 A  
HETATM   20  C   UNL     1      -9.556   6.710  71.578  1.00  0.00    -0.169 A  
HETATM   21  O   UNL     1     -11.391   5.255  72.118  1.00  0.00    -0.144 OA 
HETATM   22  C   UNL     1     -10.079   7.858  72.376  1.00  0.00    -0.248 C  
HETATM   23  C   UNL     1      -8.346   6.907  70.886  1.00  0.00    -0.130 A  
HETATM   24  H   UNL     1     -11.769   5.953  72.639  1.00  0.00     0.000 HD 
HETATM   25  O   UNL     1     -11.264   7.650  72.985  1.00  0.00    -0.384 OA 
HETATM   26  O   UNL     1      -9.478   8.917  72.469  1.00  0.00    -0.287 OA 
ENDBRANCH  14  16
ENDBRANCH  12  14
ENDBRANCH   6  12
TORSDOF 3
ENDMDL
MODEL      281
REMARK 921   NORMALIZED FREE ENERGY PREDICTED BY IDOCK:   -3.05 KCAL/MOL
REMARK 922        TOTAL FREE ENERGY PREDICTED BY IDOCK:   -3.95 KCAL/MOL
REMARK 923 INTER-LIGAND FREE ENERGY PREDICTED BY IDOCK:   -3.59 KCAL/MOL
REMARK 924 INTRA-LIGAND FREE ENERGY PREDICTED BY IDOCK:   -0.36 KCAL/MOL
REMARK 927      BINDING AFFINITY PREDICTED BY RF-SCORE:    0.00 PKD
ROOT
HETATM    1  O   UNL     1      -6.913  17.064  67.452  1.00  0.00    -0.140 OA 
HETATM    2  C   UNL     1      -7.091  15.914  68.135  1.00  0.00    -0.118 C  
HETATM    3  C   UNL     1      -8.460  15.325  68.055  1.00  0.00    -0.147 A  
HETATM    4  O   UNL     1      -6.191  15.394  68.775  1.00  0.00    -0.095 OA 
HETATM    5  C   UNL     1      -8.687  14.119  68.749  1.00  0.00    -0.065 A  
HETATM    6  C   UNL     1      -9.939  13.485  68.718  1.00  0.00    -0.070 A  
HETATM    7  C   UNL     1     -10.965  14.087  67.979  1.00  0.00    -0.266 A  
HETATM    8  C   UNL     1      -9.510  15.893  67.322  1.00  0.00    -0.212 A  
HETATM    9  H   UNL     1     -10.027  17.440  66.122  1.00  0.00     0.000 HD 
HETATM   10  C   UNL     1     -10.763  15.282  67.286  1.00  0.00    -0.311 A  
HETATM   11  O   UNL     1      -9.315  17.055  66.620  1.00  0.00    -0.235 OA 
ENDROOT
BRANCH   6  12
HETATM   12  N   UNL     1     -10.219  12.235  69.311  1.00  0.00    -0.361 NA 
HETATM   13  H   UNL     1     -10.042  12.033  70.295  1.00  0.00     0.000 HD 
BRANCH  12  14
HETATM   14  N   UNL     1     -10.704  11.402  68.519  1.00  0.00    -0.190 NA 
HETATM   15  H   UNL     1     -11.172  11.651  67.648  1.00  0.00     0.000 HD 
BRANCH  14  16
HETATM   16  C   UNL     1     -10.528  10.073  68.970  1.00  0.00    -0.214 A  
HETATM   17  C   UNL     1     -11.401   8.220  70.294  1.00  0.00    -0.129 A  
HETATM   18  C   UNL     1     -11.535   9.505  69.760  1.00  0.00    -0.048 A  
HETATM   19  C   UNL     1     -10.240   7.487  70.049  1.00  0.00    -0.215 A  
HETATM   20  C   UNL     1      -9.215   8.021  69.260  1.00  0.00    -0.152 A  
HETATM   21  O   UNL     1     -10.108   6.236  70.599  1.00  0.00    -0.183 OA 
HETATM   22  C   UNL     1      -7.942   7.305  68.945  1.00  0.00    -0.123 C  
HETATM   23  C   UNL     1      -9.371   9.315  68.729  1.00  0.00    -0.139 A  
HETATM   24  H   UNL     1      -9.317   5.737  70.432  1.00  0.00     0.000 HD 
HETATM   25  O   UNL     1      -7.806   6.088  69.510  1.00  0.00    -0.095 OA 
HETATM   26  O   UNL     1      -7.080   7.789  68.229  1.00  0.00    -0.079 OA 
ENDBRANCH  14  16
ENDBRANCH  12  14
ENDBRANCH   6  12
TORSDOF 3
ENDMDL
MODEL      282
REMARK 921   NORMALIZED FREE ENERGY PREDICTED BY IDOCK:   -2.98 KCAL/MOL
REMARK 922        TOTAL FREE ENERGY PREDICTED BY IDOCK:   -3.87 KCAL/MOL
REMARK 923 INTER-LIGAND FREE ENERGY PREDICTED BY IDOCK:   -3.40 KCAL/MOL
REMARK 924 INTRA-LIGAND FREE ENERGY PREDICTED BY IDOCK:   -0.47 KCAL/MOL
REMARK 927      BINDING AFFINITY PREDICTED BY RF-SCORE:    0.00 PKD
ROOT
HETATM    1  O   UNL     1     -10.954  12.211  63.687  1.00  0.00    -0.387 OA 
HETATM    2  C   UNL     1     -10.375  11.322  64.521  1.00  0.00    -0.322 C  
HETATM    3  C   UNL     1      -9.641  11.911  65.680  1.00  0.00    -0.221 A  
HETATM    4  O   UNL     1     -10.448  10.117  64.337  1.00  0.00     0.028 OA 
HETATM    5  C   UNL     1      -9.028  11.017  66.580  1.00  0.00    -0.176 A  
HETATM    6  C   UNL     1      -8.329  11.481  67.706  1.00  0.00    -0.136 A  
HETATM    7  C   UNL     1      -8.253  12.864  67.912  1.00  0.00    -0.165 A  
HETATM    8  C   UNL     1      -9.549  13.288  65.923  1.00  0.00    -0.106 A  
HETATM    9  H   UNL     1     -10.089  15.117  65.242  1.00  0.00     0.000 HD 
HETATM   10  C   UNL     1      -8.853  13.768  67.031  1.00  0.00    -0.230 A  
HETATM   11  O   UNL     1     -10.152  14.183  65.077  1.00  0.00    -0.383 OA 
ENDROOT
BRANCH   6  12
HETATM   12  N   UNL     1      -7.766  10.649  68.697  1.00  0.00    -0.102 NA 
HETATM   13  H   UNL     1      -7.722  10.907  69.683  1.00  0.00     0.000 HD 
BRANCH  12  14
HETATM   14  N   UNL     1      -7.326   9.569  68.253  1.00  0.00    -0.077 NA 
HETATM   15  H   UNL     1      -6.657   9.499  67.487  1.00  0.00     0.000 HD 
BRANCH  14  16
HETATM   16  C   UNL     1      -7.863   8.454  68.938  1.00  0.00    -0.113 A  
HETATM   17  C   UNL     1      -9.042   7.621  70.904  1.00  0.00    -0.149 A  
HETATM   18  C   UNL     1      -8.541   8.681  70.142  1.00  0.00    -0.138 A  
HETATM   19  C   UNL     1      -8.856   6.309  70.471  1.00  0.00    -0.144 A  
HETATM   20  C   UNL     1      -8.187   6.044  69.270  1.00  0.00    -0.115 A  
HETATM   21  O   UNL     1      -9.330   5.275  71.239  1.00  0.00    -0.143 OA 
HETATM   22  C   UNL     1      -7.947   4.672  68.731  1.00  0.00    -0.079 C  
HETATM   23  C   UNL     1      -7.693   7.125  68.516  1.00  0.00    -0.120 A  
HETATM   24  H   UNL     1      -9.203   4.381  70.944  1.00  0.00     0.000 HD 
HETATM   25  O   UNL     1      -8.391   3.659  69.504  1.00  0.00    -0.053 OA 
HETATM   26  O   UNL     1      -7.384   4.477  67.666  1.00  0.00    -0.068 OA 
ENDBRANCH  14  16
ENDBRANCH  12  14
ENDBRANCH   6  12
TORSDOF 3
ENDMDL
MODEL      283
REMARK 921   NORMALIZED FREE ENERGY PREDICTED BY IDOCK:   -2.96 KCAL/MOL
REMARK 922        TOTAL FREE ENERGY PREDICTED BY IDOCK:   -3.85 KCAL/MOL
REMARK 923 INTER-LIGAND FREE ENERGY PREDICTED BY IDOCK:   -3.35 KCAL/MOL
REMARK 924 INTRA-LIGAND FREE ENERGY PREDICTED BY IDOCK:   -0.49 KCAL/MOL
REMARK 927      BINDING AFFINITY PREDICTED BY RF-SCORE:    0.00 PKD
ROOT
HETATM    1  O   UNL     1      -9.758   2.002  64.342  1.00  0.00    -0.129 OA 
HETATM    2  C   UNL     1      -9.309   2.926  65.217  1.00  0.00    -0.110 C  
HETATM    3  C   UNL     1      -8.947   4.248  64.627  1.00  0.00    -0.146 A  
HETATM    4  O   UNL     1      -9.207   2.691  66.411  1.00  0.00    -0.133 OA 
HETATM    5  C   UNL     1      -8.481   5.244  65.509  1.00  0.00    -0.141 A  
HETATM    6  C   UNL     1      -8.131   6.522  65.046  1.00  0.00    -0.127 A  
HETATM    7  C   UNL     1      -8.254   6.784  63.675  1.00  0.00     0.095 A  
HETATM    8  C   UNL     1      -9.062   4.550  63.264  1.00  0.00    -0.117 A  
HETATM    9  H   UNL     1      -9.611   3.813  61.459  1.00  0.00     0.000 HD 
HETATM   10  C   UNL     1      -8.712   5.811  62.784  1.00  0.00     0.147 A  
HETATM   11  O   UNL     1      -9.532   3.609  62.384  1.00  0.00    -0.090 OA 
ENDROOT
BRANCH   6  12
HETATM   12  N   UNL     1      -7.741   7.596  65.875  1.00  0.00    -0.094 NA 
HETATM   13  H   UNL     1      -7.350   8.466  65.514  1.00  0.00     0.000 HD 
BRANCH  12  14
HETATM   14  N   UNL     1      -7.920   7.379  67.091  1.00  0.00    -0.112 NA 
HETATM   15  H   UNL     1      -7.618   6.530  67.568  1.00  0.00     0.000 HD 
BRANCH  14  16
HETATM   16  C   UNL     1      -8.589   8.449  67.730  1.00  0.00    -0.130 A  
HETATM   17  C   UNL     1      -9.119   9.585  69.822  1.00  0.00    -0.219 A  
HETATM   18  C   UNL     1      -8.436   8.591  69.114  1.00  0.00    -0.125 A  
HETATM   19  C   UNL     1      -9.979  10.449  69.145  1.00  0.00    -0.223 A  
HETATM   20  C   UNL     1     -10.153  10.340  67.760  1.00  0.00    -0.213 A  
HETATM   21  O   UNL     1     -10.663  11.406  69.853  1.00  0.00    -0.446 OA 
HETATM   22  C   UNL     1     -11.050  11.223  66.958  1.00  0.00    -0.293 C  
HETATM   23  C   UNL     1      -9.455   9.334  67.066  1.00  0.00    -0.205 A  
HETATM   24  H   UNL     1     -11.249  11.994  69.392  1.00  0.00     0.000 HD 
HETATM   25  O   UNL     1     -11.741  12.144  67.662  1.00  0.00    -0.386 OA 
HETATM   26  O   UNL     1     -11.158  11.119  65.746  1.00  0.00    -0.155 OA 
ENDBRANCH  14  16
ENDBRANCH  12  14
ENDBRANCH   6  12
TORSDOF 3
ENDMDL
MODEL      284
REMARK 921   NORMALIZED FREE ENERGY PREDICTED BY IDOCK:   -2.88 KCAL/MOL
REMARK 922        TOTAL FREE ENERGY PREDICTED BY IDOCK:   -3.75 KCAL/MOL
REMARK 923 INTER-LIGAND FREE ENERGY PREDICTED BY IDOCK:   -3.68 KCAL/MOL
REMARK 924 INTRA-LIGAND FREE ENERGY PREDICTED BY IDOCK:   -0.07 KCAL/MOL
REMARK 927      BINDING AFFINITY PREDICTED BY RF-SCORE:    0.00 PKD
ROOT
HETATM    1  O   UNL     1      -7.145  14.466  69.064  1.00  0.00    -0.110 OA 
HETATM    2  C   UNL     1      -8.118  13.676  68.563  1.00  0.00    -0.118 C  
HETATM    3  C   UNL     1      -7.663  12.363  68.018  1.00  0.00    -0.135 A  
HETATM    4  O   UNL     1      -9.290  14.017  68.556  1.00  0.00    -0.206 OA 
HETATM    5  C   UNL     1      -8.649  11.504  67.492  1.00  0.00    -0.143 A  
HETATM    6  C   UNL     1      -8.316  10.244  66.971  1.00  0.00    -0.126 A  
HETATM    7  C   UNL     1      -6.969   9.859  66.986  1.00  0.00    -0.088 A  
HETATM    8  C   UNL     1      -6.327  11.940  68.021  1.00  0.00    -0.055 A  
HETATM    9  H   UNL     1      -4.441  12.457  68.547  1.00  0.00     0.000 HD 
HETATM   10  C   UNL     1      -5.976  10.695  67.502  1.00  0.00    -0.048 A  
HETATM   11  O   UNL     1      -5.347  12.744  68.545  1.00  0.00    -0.056 OA 
ENDROOT
BRANCH   6  12
HETATM   12  N   UNL     1      -9.252   9.295  66.509  1.00  0.00    -0.152 NA 
HETATM   13  H   UNL     1     -10.021   9.530  65.880  1.00  0.00     0.000 HD 
BRANCH  12  14
HETATM   14  N   UNL     1      -9.052   8.142  66.942  1.00  0.00    -0.147 NA 
HETATM   15  H   UNL     1      -8.623   7.395  66.396  1.00  0.00     0.000 HD 
BRANCH  14  16
HETATM   16  C   UNL     1      -9.490   7.992  68.278  1.00  0.00    -0.141 A  
HETATM   17  C   UNL     1      -9.651   6.548  70.238  1.00  0.00    -0.172 A  
HETATM   18  C   UNL     1      -9.195   6.793  68.939  1.00  0.00    -0.131 A  
HETATM   19  C   UNL     1     -10.425   7.507  70.891  1.00  0.00    -0.213 A  
HETATM   20  C   UNL     1     -10.735   8.719  70.264  1.00  0.00    -0.249 A  
HETATM   21  O   UNL     1     -10.888   7.246  72.157  1.00  0.00    -0.217 OA 
HETATM   22  C   UNL     1     -11.554   9.799  70.891  1.00  0.00    -0.361 C  
HETATM   23  C   UNL     1     -10.264   8.947  68.957  1.00  0.00    -0.217 A  
HETATM   24  H   UNL     1     -11.415   7.899  72.602  1.00  0.00     0.000 HD 
HETATM   25  O   UNL     1     -12.029   9.527  72.124  1.00  0.00    -0.304 OA 
HETATM   26  O   UNL     1     -11.783  10.857  70.326  1.00  0.00    -0.294 OA 
ENDBRANCH  14  16
ENDBRANCH  12  14
ENDBRANCH   6  12
TORSDOF 3
ENDMDL
MODEL      285
REMARK 921   NORMALIZED FREE ENERGY PREDICTED BY IDOCK:   -2.86 KCAL/MOL
REMARK 922        TOTAL FREE ENERGY PREDICTED BY IDOCK:   -3.73 KCAL/MOL
REMARK 923 INTER-LIGAND FREE ENERGY PREDICTED BY IDOCK:   -3.24 KCAL/MOL
REMARK 924 INTRA-LIGAND FREE ENERGY PREDICTED BY IDOCK:   -0.48 KCAL/MOL
REMARK 927      BINDING AFFINITY PREDICTED BY RF-SCORE:    0.00 PKD
ROOT
HETATM    1  O   UNL     1      -6.608   9.737  64.166  1.00  0.00    -0.107 OA 
HETATM    2  C   UNL     1      -7.379   9.368  65.211  1.00  0.00    -0.096 C  
HETATM    3  C   UNL     1      -7.011   9.970  66.526  1.00  0.00    -0.095 A  
HETATM    4  O   UNL     1      -8.314   8.592  65.084  1.00  0.00    -0.150 OA 
HETATM    5  C   UNL     1      -7.796   9.616  67.642  1.00  0.00    -0.095 A  
HETATM    6  C   UNL     1      -7.533  10.144  68.915  1.00  0.00    -0.086 A  
HETATM    7  C   UNL     1      -6.461  11.035  69.051  1.00  0.00    -0.056 A  
HETATM    8  C   UNL     1      -5.951  10.869  66.701  1.00  0.00    -0.097 A  
HETATM    9  H   UNL     1      -4.463  11.859  65.749  1.00  0.00     0.000 HD 
HETATM   10  C   UNL     1      -5.670  11.398  67.959  1.00  0.00    -0.042 A  
HETATM   11  O   UNL     1      -5.182  11.249  65.630  1.00  0.00    -0.257 OA 
ENDROOT
BRANCH   6  12
HETATM   12  N   UNL     1      -8.324   9.908  70.060  1.00  0.00    -0.258 NA 
HETATM   13  H   UNL     1      -9.342   9.851  70.032  1.00  0.00     0.000 HD 
BRANCH  12  14
HETATM   14  N   UNL     1      -7.660   9.774  71.108  1.00  0.00    -0.286 NA 
HETATM   15  H   UNL     1      -6.956  10.441  71.425  1.00  0.00     0.000 HD 
BRANCH  14  16
HETATM   16  C   UNL     1      -7.998   8.592  71.806  1.00  0.00    -0.131 A  
HETATM   17  C   UNL     1      -7.330   6.906  73.438  1.00  0.00    -0.077 A  
HETATM   18  C   UNL     1      -7.093   8.104  72.757  1.00  0.00    -0.120 A  
HETATM   19  C   UNL     1      -8.483   6.171  73.163  1.00  0.00    -0.117 A  
HETATM   20  C   UNL     1      -9.412   6.629  72.222  1.00  0.00    -0.149 A  
HETATM   21  O   UNL     1      -8.694   4.984  73.820  1.00  0.00    -0.110 OA 
HETATM   22  C   UNL     1     -10.671   5.908  71.870  1.00  0.00    -0.239 C  
HETATM   23  C   UNL     1      -9.156   7.839  71.549  1.00  0.00    -0.158 A  
HETATM   24  H   UNL     1      -9.479   4.483  73.632  1.00  0.00     0.000 HD 
HETATM   25  O   UNL     1     -10.860   4.729  72.498  1.00  0.00    -0.201 OA 
HETATM   26  O   UNL     1     -11.475   6.350  71.064  1.00  0.00    -0.313 OA 
ENDBRANCH  14  16
ENDBRANCH  12  14
ENDBRANCH   6  12
TORSDOF 3
ENDMDL
MODEL      286
REMARK 921   NORMALIZED FREE ENERGY PREDICTED BY IDOCK:   -2.83 KCAL/MOL
REMARK 922        TOTAL FREE ENERGY PREDICTED BY IDOCK:   -3.69 KCAL/MOL
REMARK 923 INTER-LIGAND FREE ENERGY PREDICTED BY IDOCK:   -3.93 KCAL/MOL
REMARK 924 INTRA-LIGAND FREE ENERGY PREDICTED BY IDOCK:    0.24 KCAL/MOL
REMARK 927      BINDING AFFINITY PREDICTED BY RF-SCORE:    0.00 PKD
ROOT
HETATM    1  O   UNL     1      -6.364  13.097  68.281  1.00  0.00    -0.077 OA 
HETATM    2  C   UNL     1      -7.557  12.550  67.965  1.00  0.00    -0.127 C  
HETATM    3  C   UNL     1      -7.956  11.363  68.777  1.00  0.00    -0.122 A  
HETATM    4  O   UNL     1      -8.259  12.998  67.072  1.00  0.00    -0.154 OA 
HETATM    5  C   UNL     1      -9.198  10.766  68.484  1.00  0.00    -0.174 A  
HETATM    6  C   UNL     1      -9.661   9.655  69.207  1.00  0.00    -0.185 A  
HETATM    7  C   UNL     1      -8.851   9.149  70.230  1.00  0.00    -0.238 A  
HETATM    8  C   UNL     1      -7.175  10.832  69.813  1.00  0.00    -0.101 A  
HETATM    9  H   UNL     1      -5.442  11.043  70.839  1.00  0.00     0.000 HD 
HETATM   10  C   UNL     1      -7.615   9.725  70.536  1.00  0.00    -0.110 A  
HETATM   11  O   UNL     1      -5.971  11.403  70.136  1.00  0.00    -0.123 OA 
ENDROOT
BRANCH   6  12
HETATM   12  N   UNL     1     -10.928   9.058  69.032  1.00  0.00    -0.431 NA 
HETATM   13  H   UNL     1     -11.777   9.593  68.850  1.00  0.00     0.000 HD 
BRANCH  12  14
HETATM   14  N   UNL     1     -10.911   7.813  69.121  1.00  0.00    -0.427 NA 
HETATM   15  H   UNL     1     -11.171   7.299  69.963  1.00  0.00     0.000 HD 
BRANCH  14  16
HETATM   16  C   UNL     1     -10.490   7.198  67.919  1.00  0.00    -0.212 A  
HETATM   17  C   UNL     1     -10.458   5.186  66.542  1.00  0.00    -0.346 A  
HETATM   18  C   UNL     1     -10.890   5.878  67.677  1.00  0.00    -0.331 A  
HETATM   19  C   UNL     1      -9.603   5.811  65.634  1.00  0.00     0.163 A  
HETATM   20  C   UNL     1      -9.187   7.131  65.841  1.00  0.00     0.003 A  
HETATM   21  O   UNL     1      -9.166   5.113  64.535  1.00  0.00    -0.348 OA 
HETATM   22  C   UNL     1      -8.277   7.875  64.920  1.00  0.00    -0.124 C  
HETATM   23  C   UNL     1      -9.635   7.811  66.989  1.00  0.00    -0.238 A  
HETATM   24  H   UNL     1      -8.584   5.539  63.917  1.00  0.00     0.000 HD 
HETATM   25  O   UNL     1      -7.829   7.176  63.857  1.00  0.00    -0.122 OA 
HETATM   26  O   UNL     1      -7.955   9.036  65.116  1.00  0.00    -0.109 OA 
ENDBRANCH  14  16
ENDBRANCH  12  14
ENDBRANCH   6  12
TORSDOF 3
ENDMDL
MODEL      287
REMARK 921   NORMALIZED FREE ENERGY PREDICTED BY IDOCK:   -2.73 KCAL/MOL
REMARK 922        TOTAL FREE ENERGY PREDICTED BY IDOCK:   -3.57 KCAL/MOL
REMARK 923 INTER-LIGAND FREE ENERGY PREDICTED BY IDOCK:   -3.54 KCAL/MOL
REMARK 924 INTRA-LIGAND FREE ENERGY PREDICTED BY IDOCK:   -0.03 KCAL/MOL
REMARK 927      BINDING AFFINITY PREDICTED BY RF-SCORE:    0.00 PKD
ROOT
HETATM    1  O   UNL     1     -10.258  10.878  66.214  1.00  0.00    -0.232 OA 
HETATM    2  C   UNL     1      -9.982   9.817  67.001  1.00  0.00    -0.203 C  
HETATM    3  C   UNL     1      -8.584   9.747  67.519  1.00  0.00    -0.125 A  
HETATM    4  O   UNL     1     -10.823   8.973  67.269  1.00  0.00    -0.223 OA 
HETATM    5  C   UNL     1      -8.256   8.658  68.351  1.00  0.00    -0.122 A  
HETATM    6  C   UNL     1      -6.970   8.518  68.895  1.00  0.00    -0.062 A  
HETATM    7  C   UNL     1      -6.012   9.492  68.585  1.00  0.00    -0.043 A  
HETATM    8  C   UNL     1      -7.601  10.704  67.236  1.00  0.00    -0.100 A  
HETATM    9  H   UNL     1      -7.228  12.436  66.254  1.00  0.00     0.000 HD 
HETATM   10  C   UNL     1      -6.316  10.578  67.761  1.00  0.00    -0.059 A  
HETATM   11  O   UNL     1      -7.894  11.786  66.445  1.00  0.00    -0.051 OA 
ENDROOT
BRANCH   6  12
HETATM   12  N   UNL     1      -6.590   7.508  69.805  1.00  0.00    -0.038 NA 
HETATM   13  H   UNL     1      -6.516   6.524  69.547  1.00  0.00     0.000 HD 
BRANCH  12  14
HETATM   14  N   UNL     1      -6.354   7.932  70.954  1.00  0.00    -0.037 NA 
HETATM   15  H   UNL     1      -5.457   8.320  71.245  1.00  0.00     0.000 HD 
BRANCH  14  16
HETATM   16  C   UNL     1      -7.476   7.813  71.808  1.00  0.00    -0.072 A  
HETATM   17  C   UNL     1      -8.325   7.217  74.015  1.00  0.00    -0.176 A  
HETATM   18  C   UNL     1      -7.259   7.418  73.133  1.00  0.00    -0.083 A  
HETATM   19  C   UNL     1      -9.634   7.401  73.571  1.00  0.00    -0.267 A  
HETATM   20  C   UNL     1      -9.889   7.801  72.254  1.00  0.00    -0.248 A  
HETATM   21  O   UNL     1     -10.674   7.177  74.438  1.00  0.00    -0.463 OA 
HETATM   22  C   UNL     1     -11.257   8.023  71.697  1.00  0.00    -0.255 C  
HETATM   23  C   UNL     1      -8.801   8.000  71.383  1.00  0.00    -0.170 A  
HETATM   24  H   UNL     1     -11.566   7.302  74.135  1.00  0.00     0.000 HD 
HETATM   25  O   UNL     1     -12.276   7.776  72.545  1.00  0.00    -0.253 OA 
HETATM   26  O   UNL     1     -11.443   8.399  70.551  1.00  0.00    -0.259 OA 
ENDBRANCH  14  16
ENDBRANCH  12  14
ENDBRANCH   6  12
TORSDOF 3
ENDMDL
MODEL      288
REMARK 921   NORMALIZED FREE ENERGY PREDICTED BY IDOCK:   -2.46 KCAL/MOL
REMARK 922        TOTAL FREE ENERGY PREDICTED BY IDOCK:   -3.26 KCAL/MOL
REMARK 923 INTER-LIGAND FREE ENERGY PREDICTED BY IDOCK:   -4.40 KCAL/MOL
REMARK 924 INTRA-LIGAND FREE ENERGY PREDICTED BY IDOCK:    1.14 KCAL/MOL
REMARK 927      BINDING AFFINITY PREDICTED BY RF-SCORE:    0.00 PKD
ROOT
HETATM    1  O   UNL     1     -12.769  12.935  63.554  1.00  0.00    -0.709 OA 
HETATM    2  C   UNL     1     -12.526  12.864  64.880  1.00  0.00    -0.478 C  
HETATM    3  C   UNL     1     -12.032  14.123  65.511  1.00  0.00    -0.394 A  
HETATM    4  O   UNL     1     -12.700  11.837  65.516  1.00  0.00     0.439 OA 
HETATM    5  C   UNL     1     -11.773  14.094  66.896  1.00  0.00    -0.437 A  
HETATM    6  C   UNL     1     -11.319  15.235  67.577  1.00  0.00    -0.297 A  
HETATM    7  C   UNL     1     -11.125  16.409  66.839  1.00  0.00     0.108 A  
HETATM    8  C   UNL     1     -11.832  15.319  64.808  1.00  0.00    -0.232 A  
HETATM    9  H   UNL     1     -11.959  16.196  62.988  1.00  0.00     0.000 HD 
HETATM   10  C   UNL     1     -11.374  16.460  65.466  1.00  0.00     0.314 A  
HETATM   11  O   UNL     1     -12.094  15.385  63.464  1.00  0.00    -0.139 OA 
ENDROOT
BRANCH   6  12
HETATM   12  N   UNL     1     -11.122  15.309  68.972  1.00  0.00    -0.245 NA 
HETATM   13  H   UNL     1     -11.237  14.509  69.595  1.00  0.00     0.000 HD 
BRANCH  12  14
HETATM   14  N   UNL     1     -10.795  16.445  69.371  1.00  0.00    -0.314 NA 
HETATM   15  H   UNL     1     -11.400  17.050  69.925  1.00  0.00     0.000 HD 
BRANCH  14  16
HETATM   16  C   UNL     1      -9.486  16.796  68.966  1.00  0.00    -0.217 A  
HETATM   17  C   UNL     1      -7.887  18.578  68.499  1.00  0.00    -0.341 A  
HETATM   18  C   UNL     1      -9.140  18.153  68.949  1.00  0.00    -0.149 A  
HETATM   19  C   UNL     1      -6.961  17.639  68.045  1.00  0.00    -0.194 A  
HETATM   20  C   UNL     1      -7.269  16.274  68.051  1.00  0.00    -0.141 A  
HETATM   21  O   UNL     1      -5.742  18.069  67.581  1.00  0.00    -0.142 OA 
HETATM   22  C   UNL     1      -6.337  15.204  67.586  1.00  0.00    -0.139 C  
HETATM   23  C   UNL     1      -8.536  15.867  68.511  1.00  0.00    -0.184 A  
HETATM   24  H   UNL     1      -5.112  17.430  67.272  1.00  0.00     0.000 HD 
HETATM   25  O   UNL     1      -5.152  15.634  67.107  1.00  0.00    -0.331 OA 
HETATM   26  O   UNL     1      -6.628  14.019  67.631  1.00  0.00    -0.171 OA 
ENDBRANCH  14  16
ENDBRANCH  12  14
ENDBRANCH   6  12
TORSDOF 3
ENDMDL
MODEL      289
REMARK 921   NORMALIZED FREE ENERGY PREDICTED BY IDOCK:   -2.45 KCAL/MOL
REMARK 922        TOTAL FREE ENERGY PREDICTED BY IDOCK:   -3.24 KCAL/MOL
REMARK 923 INTER-LIGAND FREE ENERGY PREDICTED BY IDOCK:   -2.84 KCAL/MOL
REMARK 924 INTRA-LIGAND FREE ENERGY PREDICTED BY IDOCK:   -0.40 KCAL/MOL
REMARK 927      BINDING AFFINITY PREDICTED BY RF-SCORE:    0.00 PKD
ROOT
HETATM    1  O   UNL     1     -11.985  11.264  69.629  1.00  0.00    -0.306 OA 
HETATM    2  C   UNL     1     -11.079  10.995  68.666  1.00  0.00    -0.240 C  
HETATM    3  C   UNL     1     -10.015  10.017  69.040  1.00  0.00    -0.203 A  
HETATM    4  O   UNL     1     -11.129  11.518  67.564  1.00  0.00    -0.237 OA 
HETATM    5  C   UNL     1      -9.053   9.702  68.059  1.00  0.00    -0.128 A  
HETATM    6  C   UNL     1      -8.024   8.782  68.317  1.00  0.00    -0.106 A  
HETATM    7  C   UNL     1      -7.976   8.184  69.583  1.00  0.00    -0.115 A  
HETATM    8  C   UNL     1      -9.937   9.393  70.292  1.00  0.00    -0.237 A  
HETATM    9  H   UNL     1     -10.818   9.240  72.109  1.00  0.00     0.000 HD 
HETATM   10  C   UNL     1      -8.919   8.483  70.569  1.00  0.00    -0.171 A  
HETATM   11  O   UNL     1     -10.871   9.664  71.260  1.00  0.00    -0.350 OA 
ENDROOT
BRANCH   6  12
HETATM   12  N   UNL     1      -7.079   8.350  67.363  1.00  0.00    -0.078 NA 
HETATM   13  H   UNL     1      -6.794   8.916  66.563  1.00  0.00     0.000 HD 
BRANCH  12  14
HETATM   14  N   UNL     1      -6.624   7.210  67.590  1.00  0.00    -0.054 NA 
HETATM   15  H   UNL     1      -6.069   6.972  68.412  1.00  0.00     0.000 HD 
BRANCH  14  16
HETATM   16  C   UNL     1      -6.967   6.287  66.575  1.00  0.00    -0.067 A  
HETATM   17  C   UNL     1      -8.372   5.782  64.645  1.00  0.00    -0.102 A  
HETATM   18  C   UNL     1      -7.936   6.666  65.637  1.00  0.00    -0.115 A  
HETATM   19  C   UNL     1      -7.845   4.492  64.589  1.00  0.00    -0.086 A  
HETATM   20  C   UNL     1      -6.871   4.080  65.506  1.00  0.00    -0.057 A  
HETATM   21  O   UNL     1      -8.298   3.625  63.626  1.00  0.00    -0.089 OA 
HETATM   22  C   UNL     1      -6.253   2.721  65.515  1.00  0.00    -0.024 C  
HETATM   23  C   UNL     1      -6.444   4.986  66.495  1.00  0.00    -0.041 A  
HETATM   24  H   UNL     1      -7.939   2.746  63.588  1.00  0.00     0.000 HD 
HETATM   25  O   UNL     1      -6.721   1.864  64.585  1.00  0.00    -0.026 OA 
HETATM   26  O   UNL     1      -5.385   2.402  66.313  1.00  0.00    -0.011 OA 
ENDBRANCH  14  16
ENDBRANCH  12  14
ENDBRANCH   6  12
TORSDOF 3
ENDMDL
MODEL      290
REMARK 921   NORMALIZED FREE ENERGY PREDICTED BY IDOCK:   -2.44 KCAL/MOL
REMARK 922        TOTAL FREE ENERGY PREDICTED BY IDOCK:   -3.23 KCAL/MOL
REMARK 923 INTER-LIGAND FREE ENERGY PREDICTED BY IDOCK:   -3.91 KCAL/MOL
REMARK 924 INTRA-LIGAND FREE ENERGY PREDICTED BY IDOCK:    0.68 KCAL/MOL
REMARK 927      BINDING AFFINITY PREDICTED BY RF-SCORE:    0.00 PKD
ROOT
HETATM    1  O   UNL     1     -11.485  13.751  64.147  1.00  0.00    -0.364 OA 
HETATM    2  C   UNL     1     -12.117  13.887  65.332  1.00  0.00    -0.408 C  
HETATM    3  C   UNL     1     -11.278  13.637  66.541  1.00  0.00    -0.321 A  
HETATM    4  O   UNL     1     -13.297  14.193  65.405  1.00  0.00    -0.705 OA 
HETATM    5  C   UNL     1     -11.897  13.776  67.799  1.00  0.00    -0.404 A  
HETATM    6  C   UNL     1     -11.182  13.574  68.990  1.00  0.00    -0.269 A  
HETATM    7  C   UNL     1      -9.829  13.227  68.896  1.00  0.00     0.096 A  
HETATM    8  C   UNL     1      -9.920  13.294  66.488  1.00  0.00    -0.280 A  
HETATM    9  H   UNL     1      -8.362  12.939  65.243  1.00  0.00     0.000 HD 
HETATM   10  C   UNL     1      -9.195  13.083  67.659  1.00  0.00    -0.200 A  
HETATM   11  O   UNL     1      -9.283  13.172  65.279  1.00  0.00     0.371 OA 
ENDROOT
BRANCH   6  12
HETATM   12  N   UNL     1     -11.707  13.780  70.283  1.00  0.00    -0.476 NA 
HETATM   13  H   UNL     1     -11.245  14.354  70.988  1.00  0.00     0.000 HD 
BRANCH  12  14
HETATM   14  N   UNL     1     -12.790  13.192  70.483  1.00  0.00    -0.040 NA 
HETATM   15  H   UNL     1     -13.683  13.669  70.605  1.00  0.00     0.000 HD 
BRANCH  14  16
HETATM   16  C   UNL     1     -12.634  11.786  70.521  1.00  0.00    -0.150 A  
HETATM   17  C   UNL     1     -13.653   9.617  70.972  1.00  0.00    -0.161 A  
HETATM   18  C   UNL     1     -13.748  11.006  70.852  1.00  0.00     1.035 A  
HETATM   19  C   UNL     1     -12.424   8.988  70.770  1.00  0.00     0.030 A  
HETATM   20  C   UNL     1     -11.290   9.735  70.432  1.00  0.00    -0.362 A  
HETATM   21  O   UNL     1     -12.336   7.626  70.914  1.00  0.00    -0.476 OA 
HETATM   22  C   UNL     1      -9.939   9.143  70.196  1.00  0.00    -0.200 C  
HETATM   23  C   UNL     1     -11.408  11.132  70.314  1.00  0.00    -0.237 A  
HETATM   24  H   UNL     1     -11.500   7.198  70.776  1.00  0.00     0.000 HD 
HETATM   25  O   UNL     1      -9.852   7.808  70.365  1.00  0.00    -0.183 OA 
HETATM   26  O   UNL     1      -8.975   9.821  69.875  1.00  0.00    -0.206 OA 
ENDBRANCH  14  16
ENDBRANCH  12  14
ENDBRANCH   6  12
TORSDOF 3
ENDMDL
MODEL      291
REMARK 921   NORMALIZED FREE ENERGY PREDICTED BY IDOCK:   -2.34 KCAL/MOL
REMARK 922        TOTAL FREE ENERGY PREDICTED BY IDOCK:   -3.11 KCAL/MOL
REMARK 923 INTER-LIGAND FREE ENERGY PREDICTED BY IDOCK:   -2.65 KCAL/MOL
REMARK 924 INTRA-LIGAND FREE ENERGY PREDICTED BY IDOCK:   -0.45 KCAL/MOL
REMARK 927      BINDING AFFINITY PREDICTED BY RF-SCORE:    0.00 PKD
ROOT
HETATM    1  O   UNL     1      -7.359  16.526  69.501  1.00  0.00    -0.190 OA 
HETATM    2  C   UNL     1      -8.084  15.514  68.980  1.00  0.00    -0.220 C  
HETATM    3  C   UNL     1      -8.757  15.808  67.679  1.00  0.00    -0.178 A  
HETATM    4  O   UNL     1      -8.182  14.433  69.537  1.00  0.00     0.112 OA 
HETATM    5  C   UNL     1      -9.518  14.776  67.096  1.00  0.00    -0.233 A  
HETATM    6  C   UNL     1     -10.173  14.957  65.868  1.00  0.00    -0.314 A  
HETATM    7  C   UNL     1     -10.053  16.200  65.234  1.00  0.00    -0.105 A  
HETATM    8  C   UNL     1      -8.655  17.036  67.011  1.00  0.00    -0.210 A  
HETATM    9  H   UNL     1      -7.835  18.886  67.089  1.00  0.00     0.000 HD 
HETATM   10  C   UNL     1      -9.304  17.237  65.795  1.00  0.00     0.119 A  
HETATM   11  O   UNL     1      -7.904  18.054  67.543  1.00  0.00    -0.211 OA 
ENDROOT
BRANCH   6  12
HETATM   12  N   UNL     1     -10.879  13.947  65.180  1.00  0.00    -0.337 NA 
HETATM   13  H   UNL     1     -11.834  13.677  65.413  1.00  0.00     0.000 HD 
BRANCH  12  14
HETATM   14  N   UNL     1     -10.223  13.417  64.260  1.00  0.00    -0.706 NA 
HETATM   15  H   UNL     1     -10.090  13.837  63.341  1.00  0.00     0.000 HD 
BRANCH  14  16
HETATM   16  C   UNL     1      -9.686  12.165  64.642  1.00  0.00    -0.034 A  
HETATM   17  C   UNL     1     -10.020   9.756  64.830  1.00  0.00     0.014 A  
HETATM   18  C   UNL     1     -10.459  11.019  64.420  1.00  0.00    -0.422 A  
HETATM   19  C   UNL     1      -8.795   9.629  65.484  1.00  0.00    -0.172 A  
HETATM   20  C   UNL     1      -7.993  10.752  65.719  1.00  0.00    -0.122 A  
HETATM   21  O   UNL     1      -8.385   8.388  65.904  1.00  0.00    -0.118 OA 
HETATM   22  C   UNL     1      -6.670  10.705  66.408  1.00  0.00    -0.124 C  
HETATM   23  C   UNL     1      -8.452  12.013  65.296  1.00  0.00     1.001 A  
HETATM   24  H   UNL     1      -7.551   8.301  66.350  1.00  0.00     0.000 HD 
HETATM   25  O   UNL     1      -6.284   9.487  66.843  1.00  0.00    -0.063 OA 
HETATM   26  O   UNL     1      -5.982  11.701  66.573  1.00  0.00    -0.141 OA 
ENDBRANCH  14  16
ENDBRANCH  12  14
ENDBRANCH   6  12
TORSDOF 3
ENDMDL
MODEL      292
REMARK 921   NORMALIZED FREE ENERGY PREDICTED BY IDOCK:   -2.33 KCAL/MOL
REMARK 922        TOTAL FREE ENERGY PREDICTED BY IDOCK:   -3.10 KCAL/MOL
REMARK 923 INTER-LIGAND FREE ENERGY PREDICTED BY IDOCK:   -2.56 KCAL/MOL
REMARK 924 INTRA-LIGAND FREE ENERGY PREDICTED BY IDOCK:   -0.54 KCAL/MOL
REMARK 927      BINDING AFFINITY PREDICTED BY RF-SCORE:    0.00 PKD
ROOT
HETATM    1  O   UNL     1     -10.429  10.359  69.044  1.00  0.00    -0.193 OA 
HETATM    2  C   UNL     1      -9.795   9.729  68.033  1.00  0.00    -0.148 C  
HETATM    3  C   UNL     1      -8.651   8.858  68.434  1.00  0.00    -0.134 A  
HETATM    4  O   UNL     1     -10.136   9.867  66.868  1.00  0.00    -0.202 OA 
HETATM    5  C   UNL     1      -7.966   8.176  67.409  1.00  0.00    -0.117 A  
HETATM    6  C   UNL     1      -6.888   7.324  67.695  1.00  0.00    -0.074 A  
HETATM    7  C   UNL     1      -6.506   7.170  69.033  1.00  0.00    -0.036 A  
HETATM    8  C   UNL     1      -8.243   8.674  69.762  1.00  0.00    -0.121 A  
HETATM    9  H   UNL     1      -8.626   9.182  71.684  1.00  0.00     0.000 HD 
HETATM   10  C   UNL     1      -7.170   7.837  70.065  1.00  0.00    -0.067 A  
HETATM   11  O   UNL     1      -8.903   9.308  70.784  1.00  0.00    -0.222 OA 
ENDROOT
BRANCH   6  12
HETATM   12  N   UNL     1      -6.210   6.541  66.736  1.00  0.00    -0.038 NA 
HETATM   13  H   UNL     1      -5.761   6.936  65.910  1.00  0.00     0.000 HD 
BRANCH  12  14
HETATM   14  N   UNL     1      -6.213   5.320  66.995  1.00  0.00    -0.030 NA 
HETATM   15  H   UNL     1      -5.553   4.871  67.629  1.00  0.00     0.000 HD 
BRANCH  14  16
HETATM   16  C   UNL     1      -7.239   4.631  66.306  1.00  0.00    -0.076 A  
HETATM   17  C   UNL     1      -9.460   3.626  66.398  1.00  0.00    -0.184 A  
HETATM   18  C   UNL     1      -8.428   4.358  66.993  1.00  0.00    -0.104 A  
HETATM   19  C   UNL     1      -9.304   3.145  65.098  1.00  0.00    -0.143 A  
HETATM   20  C   UNL     1      -8.132   3.402  64.379  1.00  0.00    -0.086 A  
HETATM   21  O   UNL     1     -10.313   2.406  64.532  1.00  0.00    -0.354 OA 
HETATM   22  C   UNL     1      -7.884   2.928  62.985  1.00  0.00    -0.068 C  
HETATM   23  C   UNL     1      -7.107   4.143  64.996  1.00  0.00    -0.062 A  
HETATM   24  H   UNL     1     -10.207   2.078  63.646  1.00  0.00     0.000 HD 
HETATM   25  O   UNL     1      -8.867   2.179  62.443  1.00  0.00    -0.073 OA 
HETATM   26  O   UNL     1      -6.860   3.194  62.375  1.00  0.00    -0.028 OA 
ENDBRANCH  14  16
ENDBRANCH  12  14
ENDBRANCH   6  12
TORSDOF 3
ENDMDL
MODEL      293
REMARK 921   NORMALIZED FREE ENERGY PREDICTED BY IDOCK:   -2.24 KCAL/MOL
REMARK 922        TOTAL FREE ENERGY PREDICTED BY IDOCK:   -2.99 KCAL/MOL
REMARK 923 INTER-LIGAND FREE ENERGY PREDICTED BY IDOCK:   -2.64 KCAL/MOL
REMARK 924 INTRA-LIGAND FREE ENERGY PREDICTED BY IDOCK:   -0.35 KCAL/MOL
REMARK 927      BINDING AFFINITY PREDICTED BY RF-SCORE:    0.00 PKD
ROOT
HETATM    1  O   UNL     1      -6.570  13.516  69.130  1.00  0.00    -0.103 OA 
HETATM    2  C   UNL     1      -7.277  12.747  68.276  1.00  0.00    -0.114 C  
HETATM    3  C   UNL     1      -6.983  11.284  68.334  1.00  0.00    -0.070 A  
HETATM    4  O   UNL     1      -8.101  13.219  67.508  1.00  0.00    -0.162 OA 
HETATM    5  C   UNL     1      -7.706  10.444  67.464  1.00  0.00    -0.094 A  
HETATM    6  C   UNL     1      -7.506   9.055  67.459  1.00  0.00    -0.081 A  
HETATM    7  C   UNL     1      -6.562   8.521  68.345  1.00  0.00    -0.060 A  
HETATM    8  C   UNL     1      -6.051  10.713  69.211  1.00  0.00    -0.044 A  
HETATM    9  H   UNL     1      -4.715  11.114  70.678  1.00  0.00     0.000 HD 
HETATM   10  C   UNL     1      -5.834   9.336  69.215  1.00  0.00    -0.035 A  
HETATM   11  O   UNL     1      -5.347  11.502  70.084  1.00  0.00    -0.074 OA 
ENDROOT
BRANCH   6  12
HETATM   12  N   UNL     1      -8.251   8.141  66.683  1.00  0.00    -0.102 NA 
HETATM   13  H   UNL     1      -8.495   8.308  65.707  1.00  0.00     0.000 HD 
BRANCH  12  14
HETATM   14  N   UNL     1      -8.581   7.110  67.304  1.00  0.00    -0.121 NA 
HETATM   15  H   UNL     1      -8.522   7.012  68.317  1.00  0.00     0.000 HD 
BRANCH  14  16
HETATM   16  C   UNL     1      -9.049   6.094  66.438  1.00  0.00    -0.148 A  
HETATM   17  C   UNL     1     -10.906   4.666  65.758  1.00  0.00    -0.077 A  
HETATM   18  C   UNL     1     -10.391   5.708  66.536  1.00  0.00    -0.287 A  
HETATM   19  C   UNL     1     -10.070   3.986  64.874  1.00  0.00    -0.205 A  
HETATM   20  C   UNL     1      -8.724   4.347  64.745  1.00  0.00    -0.140 A  
HETATM   21  O   UNL     1     -10.580   2.949  64.133  1.00  0.00    -0.405 OA 
HETATM   22  C   UNL     1      -7.762   3.675  63.822  1.00  0.00    -0.079 C  
HETATM   23  C   UNL     1      -8.226   5.400  65.536  1.00  0.00    -0.127 A  
HETATM   24  H   UNL     1     -10.011   2.485  63.530  1.00  0.00     0.000 HD 
HETATM   25  O   UNL     1      -8.262   2.639  63.117  1.00  0.00    -0.075 OA 
HETATM   26  O   UNL     1      -6.600   4.033  63.714  1.00  0.00    -0.039 OA 
ENDBRANCH  14  16
ENDBRANCH  12  14
ENDBRANCH   6  12
TORSDOF 3
ENDMDL
MODEL      294
REMARK 921   NORMALIZED FREE ENERGY PREDICTED BY IDOCK:   -2.23 KCAL/MOL
REMARK 922        TOTAL FREE ENERGY PREDICTED BY IDOCK:   -2.99 KCAL/MOL
REMARK 923 INTER-LIGAND FREE ENERGY PREDICTED BY IDOCK:   -2.62 KCAL/MOL
REMARK 924 INTRA-LIGAND FREE ENERGY PREDICTED BY IDOCK:   -0.37 KCAL/MOL
REMARK 927      BINDING AFFINITY PREDICTED BY RF-SCORE:    0.00 PKD
ROOT
HETATM    1  O   UNL     1      -6.601  16.792  67.277  1.00  0.00    -0.138 OA 
HETATM    2  C   UNL     1      -6.652  15.445  67.208  1.00  0.00    -0.013 C  
HETATM    3  C   UNL     1      -7.933  14.826  67.662  1.00  0.00    -0.191 A  
HETATM    4  O   UNL     1      -5.712  14.781  66.801  1.00  0.00     0.688 OA 
HETATM    5  C   UNL     1      -8.031  13.421  67.598  1.00  0.00    -0.174 A  
HETATM    6  C   UNL     1      -9.202  12.754  67.990  1.00  0.00    -0.208 A  
HETATM    7  C   UNL     1     -10.277  13.524  68.452  1.00  0.00    -0.245 A  
HETATM    8  C   UNL     1      -9.032  15.562  68.124  1.00  0.00    -0.179 A  
HETATM    9  H   UNL     1      -9.720  17.431  68.491  1.00  0.00     0.000 HD 
HETATM   10  C   UNL     1     -10.200  14.917  68.525  1.00  0.00    -0.235 A  
HETATM   11  O   UNL     1      -8.975  16.932  68.178  1.00  0.00    -0.215 OA 
ENDROOT
BRANCH   6  12
HETATM   12  N   UNL     1      -9.408  11.363  67.873  1.00  0.00    -0.159 NA 
HETATM   13  H   UNL     1     -10.281  10.904  68.136  1.00  0.00     0.000 HD 
BRANCH  12  14
HETATM   14  N   UNL     1      -8.423  10.747  67.419  1.00  0.00    -0.119 NA 
HETATM   15  H   UNL     1      -7.742  11.156  66.778  1.00  0.00     0.000 HD 
BRANCH  14  16
HETATM   16  C   UNL     1      -8.359   9.417  67.895  1.00  0.00    -0.115 A  
HETATM   17  C   UNL     1      -7.147   7.764  69.218  1.00  0.00    -0.076 A  
HETATM   18  C   UNL     1      -7.311   9.074  68.759  1.00  0.00    -0.076 A  
HETATM   19  C   UNL     1      -8.034   6.770  68.803  1.00  0.00    -0.119 A  
HETATM   20  C   UNL     1      -9.096   7.077  67.945  1.00  0.00    -0.127 A  
HETATM   21  O   UNL     1      -7.850   5.482  69.240  1.00  0.00    -0.088 OA 
HETATM   22  C   UNL     1     -10.091   6.077  67.455  1.00  0.00    -0.163 C  
HETATM   23  C   UNL     1      -9.244   8.403  67.496  1.00  0.00    -0.158 A  
HETATM   24  H   UNL     1      -8.454   4.806  68.958  1.00  0.00     0.000 HD 
HETATM   25  O   UNL     1      -9.889   4.808  67.866  1.00  0.00    -0.158 OA 
HETATM   26  O   UNL     1     -11.023   6.384  66.728  1.00  0.00    -0.353 OA 
ENDBRANCH  14  16
ENDBRANCH  12  14
ENDBRANCH   6  12
TORSDOF 3
ENDMDL
MODEL      295
REMARK 921   NORMALIZED FREE ENERGY PREDICTED BY IDOCK:   -2.16 KCAL/MOL
REMARK 922        TOTAL FREE ENERGY PREDICTED BY IDOCK:   -2.90 KCAL/MOL
REMARK 923 INTER-LIGAND FREE ENERGY PREDICTED BY IDOCK:   -2.52 KCAL/MOL
REMARK 924 INTRA-LIGAND FREE ENERGY PREDICTED BY IDOCK:   -0.39 KCAL/MOL
REMARK 927      BINDING AFFINITY PREDICTED BY RF-SCORE:    0.00 PKD
ROOT
HETATM    1  O   UNL     1      -8.364  15.002  68.975  1.00  0.00    -0.175 OA 
HETATM    2  C   UNL     1      -8.921  13.998  68.266  1.00  0.00    -0.190 C  
HETATM    3  C   UNL     1      -8.017  12.850  67.958  1.00  0.00    -0.158 A  
HETATM    4  O   UNL     1     -10.086  14.031  67.903  1.00  0.00    -0.228 OA 
HETATM    5  C   UNL     1      -8.562  11.777  67.225  1.00  0.00    -0.162 A  
HETATM    6  C   UNL     1      -7.791  10.649  66.902  1.00  0.00    -0.121 A  
HETATM    7  C   UNL     1      -6.457  10.619  67.326  1.00  0.00    -0.072 A  
HETATM    8  C   UNL     1      -6.680  12.781  68.369  1.00  0.00    -0.087 A  
HETATM    9  H   UNL     1      -5.219  13.753  69.380  1.00  0.00     0.000 HD 
HETATM   10  C   UNL     1      -5.896  11.673  68.051  1.00  0.00    -0.044 A  
HETATM   11  O   UNL     1      -6.127  13.801  69.101  1.00  0.00    -0.085 OA 
ENDROOT
BRANCH   6  12
HETATM   12  N   UNL     1      -8.287   9.500  66.251  1.00  0.00    -0.115 NA 
HETATM   13  H   UNL     1      -9.283   9.297  66.158  1.00  0.00     0.000 HD 
BRANCH  12  14
HETATM   14  N   UNL     1      -7.393   8.756  65.799  1.00  0.00    -0.084 NA 
HETATM   15  H   UNL     1      -6.711   9.046  65.098  1.00  0.00     0.000 HD 
BRANCH  14  16
HETATM   16  C   UNL     1      -7.436   7.463  66.371  1.00  0.00    -0.084 A  
HETATM   17  C   UNL     1      -6.255   5.378  66.829  1.00  0.00    -0.035 A  
HETATM   18  C   UNL     1      -6.269   6.688  66.341  1.00  0.00    -0.041 A  
HETATM   19  C   UNL     1      -7.423   4.821  67.348  1.00  0.00    -0.082 A  
HETATM   20  C   UNL     1      -8.606   5.567  67.400  1.00  0.00    -0.108 A  
HETATM   21  O   UNL     1      -7.404   3.526  67.802  1.00  0.00    -0.058 OA 
HETATM   22  C   UNL     1      -9.898   5.050  67.941  1.00  0.00    -0.151 C  
HETATM   23  C   UNL     1      -8.599   6.885  66.905  1.00  0.00    -0.116 A  
HETATM   24  H   UNL     1      -8.200   3.147  68.156  1.00  0.00     0.000 HD 
HETATM   25  O   UNL     1      -9.881   3.769  68.361  1.00  0.00    -0.081 OA 
HETATM   26  O   UNL     1     -10.906   5.738  67.996  1.00  0.00    -0.242 OA 
ENDBRANCH  14  16
ENDBRANCH  12  14
ENDBRANCH   6  12
TORSDOF 3
ENDMDL
MODEL      296
REMARK 921   NORMALIZED FREE ENERGY PREDICTED BY IDOCK:   -2.13 KCAL/MOL
REMARK 922        TOTAL FREE ENERGY PREDICTED BY IDOCK:   -2.86 KCAL/MOL
REMARK 923 INTER-LIGAND FREE ENERGY PREDICTED BY IDOCK:   -3.04 KCAL/MOL
REMARK 924 INTRA-LIGAND FREE ENERGY PREDICTED BY IDOCK:    0.17 KCAL/MOL
REMARK 927      BINDING AFFINITY PREDICTED BY RF-SCORE:    0.00 PKD
ROOT
HETATM    1  O   UNL     1      -9.850   9.505  69.551  1.00  0.00    -0.173 OA 
HETATM    2  C   UNL     1     -10.623  10.377  68.870  1.00  0.00    -0.216 C  
HETATM    3  C   UNL     1      -9.895  11.504  68.215  1.00  0.00    -0.203 A  
HETATM    4  O   UNL     1     -11.835  10.250  68.798  1.00  0.00    -0.128 OA 
HETATM    5  C   UNL     1     -10.664  12.434  67.487  1.00  0.00    -0.256 A  
HETATM    6  C   UNL     1     -10.064  13.517  66.826  1.00  0.00    -0.268 A  
HETATM    7  C   UNL     1      -8.673  13.654  66.912  1.00  0.00    -0.162 A  
HETATM    8  C   UNL     1      -8.505  11.671  68.272  1.00  0.00    -0.160 A  
HETATM    9  H   UNL     1      -6.785  10.884  68.995  1.00  0.00     0.000 HD 
HETATM   10  C   UNL     1      -7.892  12.744  67.629  1.00  0.00    -0.165 A  
HETATM   11  O   UNL     1      -7.728  10.771  68.956  1.00  0.00    -0.114 OA 
ENDROOT
BRANCH   6  12
HETATM   12  N   UNL     1     -10.753  14.437  66.007  1.00  0.00    -0.295 NA 
HETATM   13  H   UNL     1     -11.708  14.288  65.681  1.00  0.00     0.000 HD 
BRANCH  12  14
HETATM   14  N   UNL     1     -10.084  15.451  65.720  1.00  0.00    -0.334 NA 
HETATM   15  H   UNL     1      -9.475  15.519  64.904  1.00  0.00     0.000 HD 
BRANCH  14  16
HETATM   16  C   UNL     1     -10.267  16.494  66.657  1.00  0.00    -0.300 A  
HETATM   17  C   UNL     1     -10.248  18.894  67.092  1.00  0.00    -0.445 A  
HETATM   18  C   UNL     1     -10.144  17.815  66.209  1.00  0.00    -0.345 A  
HETATM   19  C   UNL     1     -10.468  18.659  68.448  1.00  0.00    -0.213 A  
HETATM   20  C   UNL     1     -10.602  17.352  68.932  1.00  0.00    -0.243 A  
HETATM   21  O   UNL     1     -10.544  19.725  69.310  1.00  0.00    -0.504 OA 
HETATM   22  C   UNL     1     -10.842  17.012  70.366  1.00  0.00     0.493 C  
HETATM   23  C   UNL     1     -10.496  16.280  68.027  1.00  0.00    -0.293 A  
HETATM   24  H   UNL     1     -10.694  19.564  70.234  1.00  0.00     0.000 HD 
HETATM   25  O   UNL     1     -10.889  18.061  71.212  1.00  0.00     1.609 OA 
HETATM   26  O   UNL     1     -10.982  15.861  70.750  1.00  0.00    -0.320 OA 
ENDBRANCH  14  16
ENDBRANCH  12  14
ENDBRANCH   6  12
TORSDOF 3
ENDMDL
MODEL      297
REMARK 921   NORMALIZED FREE ENERGY PREDICTED BY IDOCK:   -2.09 KCAL/MOL
REMARK 922        TOTAL FREE ENERGY PREDICTED BY IDOCK:   -2.82 KCAL/MOL
REMARK 923 INTER-LIGAND FREE ENERGY PREDICTED BY IDOCK:   -2.36 KCAL/MOL
REMARK 924 INTRA-LIGAND FREE ENERGY PREDICTED BY IDOCK:   -0.46 KCAL/MOL
REMARK 927      BINDING AFFINITY PREDICTED BY RF-SCORE:    0.00 PKD
ROOT
HETATM    1  O   UNL     1      -8.741   8.575  73.106  1.00  0.00    -0.345 OA 
HETATM    2  C   UNL     1      -9.390   8.509  71.924  1.00  0.00    -0.267 C  
HETATM    3  C   UNL     1      -8.657   9.078  70.755  1.00  0.00    -0.259 A  
HETATM    4  O   UNL     1     -10.503   8.017  71.823  1.00  0.00    -0.211 OA 
HETATM    5  C   UNL     1      -9.296   9.023  69.501  1.00  0.00    -0.160 A  
HETATM    6  C   UNL     1      -8.676   9.520  68.344  1.00  0.00    -0.124 A  
HETATM    7  C   UNL     1      -7.399  10.081  68.469  1.00  0.00    -0.077 A  
HETATM    8  C   UNL     1      -7.376   9.641  70.840  1.00  0.00     0.044 A  
HETATM    9  H   UNL     1      -5.851  10.072  72.100  1.00  0.00     0.000 HD 
HETATM   10  C   UNL     1      -6.748  10.147  69.703  1.00  0.00    -0.076 A  
HETATM   11  O   UNL     1      -6.719   9.691  72.043  1.00  0.00    -0.203 OA 
ENDROOT
BRANCH   6  12
HETATM   12  N   UNL     1      -9.212   9.422  67.042  1.00  0.00    -0.140 NA 
HETATM   13  H   UNL     1      -8.654   9.170  66.226  1.00  0.00     0.000 HD 
BRANCH  12  14
HETATM   14  N   UNL     1     -10.433   9.672  66.984  1.00  0.00    -0.246 NA 
HETATM   15  H   UNL     1     -11.150   8.970  66.803  1.00  0.00     0.000 HD 
BRANCH  14  16
HETATM   16  C   UNL     1     -10.707  11.043  67.198  1.00  0.00    -0.265 A  
HETATM   17  C   UNL     1     -10.162  13.357  66.653  1.00  0.00    -0.274 A  
HETATM   18  C   UNL     1      -9.991  11.985  66.449  1.00  0.00    -0.240 A  
HETATM   19  C   UNL     1     -11.054  13.805  67.627  1.00  0.00    -0.273 A  
HETATM   20  C   UNL     1     -11.791  12.893  68.392  1.00  0.00    -0.357 A  
HETATM   21  O   UNL     1     -11.197  15.155  67.836  1.00  0.00    -0.306 OA 
HETATM   22  C   UNL     1     -12.767  13.286  69.451  1.00  0.00     0.597 C  
HETATM   23  C   UNL     1     -11.606  11.516  68.169  1.00  0.00    -0.378 A  
HETATM   24  H   UNL     1     -11.804  15.460  68.500  1.00  0.00     0.000 HD 
HETATM   25  O   UNL     1     -12.884  14.612  69.671  1.00  0.00    -0.057 OA 
HETATM   26  O   UNL     1     -13.415  12.465  70.080  1.00  0.00     1.257 OA 
ENDBRANCH  14  16
ENDBRANCH  12  14
ENDBRANCH   6  12
TORSDOF 3
ENDMDL
MODEL      298
REMARK 921   NORMALIZED FREE ENERGY PREDICTED BY IDOCK:   -1.27 KCAL/MOL
REMARK 922        TOTAL FREE ENERGY PREDICTED BY IDOCK:   -1.86 KCAL/MOL
REMARK 923 INTER-LIGAND FREE ENERGY PREDICTED BY IDOCK:   -3.16 KCAL/MOL
REMARK 924 INTRA-LIGAND FREE ENERGY PREDICTED BY IDOCK:    1.29 KCAL/MOL
REMARK 927      BINDING AFFINITY PREDICTED BY RF-SCORE:    0.00 PKD
ROOT
HETATM    1  O   UNL     1     -10.584  10.601  69.237  1.00  0.00    -0.208 OA 
HETATM    2  C   UNL     1     -10.383   9.724  68.231  1.00  0.00    -0.198 C  
HETATM    3  C   UNL     1      -9.296   8.725  68.456  1.00  0.00    -0.142 A  
HETATM    4  O   UNL     1     -11.048   9.749  67.207  1.00  0.00    -0.177 OA 
HETATM    5  C   UNL     1      -9.059   7.786  67.433  1.00  0.00    -0.138 A  
HETATM    6  C   UNL     1      -8.067   6.801  67.564  1.00  0.00    -0.115 A  
HETATM    7  C   UNL     1      -7.312   6.778  68.743  1.00  0.00    -0.094 A  
HETATM    8  C   UNL     1      -8.524   8.666  69.624  1.00  0.00    -0.129 A  
HETATM    9  H   UNL     1      -8.222   9.513  71.438  1.00  0.00     0.000 HD 
HETATM   10  C   UNL     1      -7.530   7.700  69.769  1.00  0.00    -0.090 A  
HETATM   11  O   UNL     1      -8.745   9.554  70.646  1.00  0.00    -0.218 OA 
ENDROOT
BRANCH   6  12
HETATM   12  N   UNL     1      -7.829   5.774  66.625  1.00  0.00    -0.100 NA 
HETATM   13  H   UNL     1      -7.053   5.792  65.963  1.00  0.00     0.000 HD 
BRANCH  12  14
HETATM   14  N   UNL     1      -8.657   4.843  66.682  1.00  0.00    -0.110 NA 
HETATM   15  H   UNL     1      -9.238   4.549  65.897  1.00  0.00     0.000 HD 
BRANCH  14  16
HETATM   16  C   UNL     1      -8.698   4.243  67.962  1.00  0.00    -0.105 A  
HETATM   17  C   UNL     1      -8.190   2.291  69.334  1.00  0.00    -0.065 A  
HETATM   18  C   UNL     1      -8.129   2.972  68.114  1.00  0.00    -0.077 A  
HETATM   19  C   UNL     1      -8.837   2.876  70.421  1.00  0.00    -0.083 A  
HETATM   20  C   UNL     1      -9.413   4.147  70.308  1.00  0.00    -0.251 A  
HETATM   21  O   UNL     1      -8.912   2.188  71.607  1.00  0.00    -0.070 OA 
HETATM   22  C   UNL     1     -10.121   4.847  71.420  1.00  0.00    -0.198 C  
HETATM   23  C   UNL     1      -9.339   4.817  69.072  1.00  0.00    -0.193 A  
HETATM   24  H   UNL     1      -9.353   2.587  72.348  1.00  0.00     0.000 HD 
HETATM   25  O   UNL     1     -10.215   4.155  72.575  1.00  0.00    -0.167 OA 
HETATM   26  O   UNL     1     -10.588   5.968  71.295  1.00  0.00    -0.227 OA 
ENDBRANCH  14  16
ENDBRANCH  12  14
ENDBRANCH   6  12
TORSDOF 3
ENDMDL
MODEL      299
REMARK 921   NORMALIZED FREE ENERGY PREDICTED BY IDOCK:    1.36 KCAL/MOL
REMARK 922        TOTAL FREE ENERGY PREDICTED BY IDOCK:    1.23 KCAL/MOL
REMARK 923 INTER-LIGAND FREE ENERGY PREDICTED BY IDOCK:    0.07 KCAL/MOL
REMARK 924 INTRA-LIGAND FREE ENERGY PREDICTED BY IDOCK:    1.16 KCAL/MOL
REMARK 927      BINDING AFFINITY PREDICTED BY RF-SCORE:    0.00 PKD
ROOT
HETATM    1  O   UNL     1      -5.199  16.997  70.270  1.00  0.00    -0.181 OA 
HETATM    2  C   UNL     1      -5.763  17.003  69.044  1.00  0.00    -0.154 C  
HETATM    3  C   UNL     1      -6.809  15.962  68.813  1.00  0.00    -0.128 A  
HETATM    4  O   UNL     1      -5.437  17.806  68.184  1.00  0.00    -0.146 OA 
HETATM    5  C   UNL     1      -7.429  15.939  67.547  1.00  0.00    -0.194 A  
HETATM    6  C   UNL     1      -8.433  15.005  67.245  1.00  0.00    -0.198 A  
HETATM    7  C   UNL     1      -8.803  14.090  68.238  1.00  0.00    -0.184 A  
HETATM    8  C   UNL     1      -7.210  15.034  69.782  1.00  0.00    -0.149 A  
HETATM    9  H   UNL     1      -6.913  14.415  71.687  1.00  0.00     0.000 HD 
HETATM   10  C   UNL     1      -8.200  14.095  69.498  1.00  0.00     0.510 A  
HETATM   11  O   UNL     1      -6.640  15.045  71.030  1.00  0.00     0.252 OA 
ENDROOT
BRANCH   6  12
HETATM   12  N   UNL     1      -9.160  14.975  66.036  1.00  0.00    -0.486 NA 
HETATM   13  H   UNL     1      -9.978  15.559  65.862  1.00  0.00     0.000 HD 
BRANCH  12  14
HETATM   14  N   UNL     1      -8.709  14.166  65.201  1.00  0.00     1.867 NA 
HETATM   15  H   UNL     1      -8.085  14.425  64.437  1.00  0.00     0.000 HD 
BRANCH  14  16
HETATM   16  C   UNL     1      -9.163  12.847  65.437  1.00  0.00     0.519 A  
HETATM   17  C   UNL     1     -10.693  11.056  64.803  1.00  0.00    -0.304 A  
HETATM   18  C   UNL     1     -10.150  12.327  64.591  1.00  0.00    -0.275 A  
HETATM   19  C   UNL     1     -10.255  10.289  65.883  1.00  0.00    -0.223 A  
HETATM   20  C   UNL     1      -9.266  10.774  66.746  1.00  0.00    -0.174 A  
HETATM   21  O   UNL     1     -10.812   9.052  66.096  1.00  0.00     0.219 OA 
HETATM   22  C   UNL     1      -8.739  10.019  67.922  1.00  0.00    -0.125 C  
HETATM   23  C   UNL     1      -8.731  12.055  66.513  1.00  0.00    -0.138 A  
HETATM   24  H   UNL     1     -10.514   8.530  66.831  1.00  0.00     0.000 HD 
HETATM   25  O   UNL     1      -9.308   8.817  68.143  1.00  0.00    -0.139 OA 
HETATM   26  O   UNL     1      -7.854  10.461  68.639  1.00  0.00    -0.096 OA 
ENDBRANCH  14  16
ENDBRANCH  12  14
ENDBRANCH   6  12
TORSDOF 3
ENDMDL
MODEL      300
REMARK 921   NORMALIZED FREE ENERGY PREDICTED BY IDOCK:    2.50 KCAL/MOL
REMARK 922        TOTAL FREE ENERGY PREDICTED BY IDOCK:    2.57 KCAL/MOL
REMARK 923 INTER-LIGAND FREE ENERGY PREDICTED BY IDOCK:   -1.63 KCAL/MOL
REMARK 924 INTRA-LIGAND FREE ENERGY PREDICTED BY IDOCK:    4.21 KCAL/MOL
REMARK 927      BINDING AFFINITY PREDICTED BY RF-SCORE:    0.00 PKD
ROOT
HETATM    1  O   UNL     1      -9.848  12.608  68.442  1.00  0.00    -0.226 OA 
HETATM    2  C   UNL     1     -10.196  11.360  68.066  1.00  0.00    -0.185 C  
HETATM    3  C   UNL     1      -9.189  10.297  68.356  1.00  0.00    -0.136 A  
HETATM    4  O   UNL     1     -11.264  11.120  67.525  1.00  0.00    -0.280 OA 
HETATM    5  C   UNL     1      -9.517   8.977  67.986  1.00  0.00    -0.157 A  
HETATM    6  C   UNL     1      -8.638   7.911  68.233  1.00  0.00    -0.124 A  
HETATM    7  C   UNL     1      -7.417   8.194  68.857  1.00  0.00    -0.089 A  
HETATM    8  C   UNL     1      -7.961  10.540  68.984  1.00  0.00    -0.136 A  
HETATM    9  H   UNL     1      -6.788  11.974  69.801  1.00  0.00     0.000 HD 
HETATM   10  C   UNL     1      -7.071   9.495  69.231  1.00  0.00    -0.058 A  
HETATM   11  O   UNL     1      -7.622  11.810  69.375  1.00  0.00     0.079 OA 
ENDROOT
BRANCH   6  12
HETATM   12  N   UNL     1      -8.930   6.555  67.973  1.00  0.00    -0.117 NA 
HETATM   13  H   UNL     1      -8.909   6.149  67.037  1.00  0.00     0.000 HD 
BRANCH  12  14
HETATM   14  N   UNL     1      -9.217   5.900  68.996  1.00  0.00    -0.123 NA 
HETATM   15  H   UNL     1      -9.282   4.883  69.021  1.00  0.00     0.000 HD 
BRANCH  14  16
HETATM   16  C   UNL     1      -9.442   6.733  70.116  1.00  0.00    -0.158 A  
HETATM   17  C   UNL     1      -8.472   8.050  71.926  1.00  0.00    -0.176 A  
HETATM   18  C   UNL     1      -8.329   7.271  70.774  1.00  0.00    -0.124 A  
HETATM   19  C   UNL     1      -9.744   8.291  72.444  1.00  0.00    -0.303 A  
HETATM   20  C   UNL     1     -10.881   7.773  71.811  1.00  0.00    -0.277 A  
HETATM   21  O   UNL     1      -9.872   9.036  73.590  1.00  0.00     1.474 OA 
HETATM   22  C   UNL     1     -12.277   7.984  72.295  1.00  0.00    -0.318 C  
HETATM   23  C   UNL     1     -10.715   6.994  70.651  1.00  0.00    -0.255 A  
HETATM   24  H   UNL     1     -10.739   9.200  73.942  1.00  0.00     0.000 HD 
HETATM   25  O   UNL     1     -12.395   8.694  73.436  1.00  0.00     0.403 OA 
HETATM   26  O   UNL     1     -13.249   7.542  71.703  1.00  0.00    -0.348 OA 
ENDBRANCH  14  16
ENDBRANCH  12  14
ENDBRANCH   6  12
TORSDOF 3
ENDMDL
MODEL      301
REMARK 921   NORMALIZED FREE ENERGY PREDICTED BY IDOCK:    3.35 KCAL/MOL
REMARK 922        TOTAL FREE ENERGY PREDICTED BY IDOCK:    3.57 KCAL/MOL
REMARK 923 INTER-LIGAND FREE ENERGY PREDICTED BY IDOCK:    3.14 KCAL/MOL
REMARK 924 INTRA-LIGAND FREE ENERGY PREDICTED BY IDOCK:    0.44 KCAL/MOL
REMARK 927      BINDING AFFINITY PREDICTED BY RF-SCORE:    0.00 PKD
ROOT
HETATM    1  O   UNL     1     -13.237   7.766  69.507  1.00  0.00     3.253 OA 
HETATM    2  C   UNL     1     -12.473   8.847  69.242  1.00  0.00     2.808 C  
HETATM    3  C   UNL     1     -12.698  10.026  70.129  1.00  0.00     0.078 A  
HETATM    4  O   UNL     1     -11.655   8.855  68.335  1.00  0.00     0.756 OA 
HETATM    5  C   UNL     1     -11.915  11.174  69.890  1.00  0.00    -0.439 A  
HETATM    6  C   UNL     1     -12.047  12.324  70.683  1.00  0.00    -0.237 A  
HETATM    7  C   UNL     1     -12.986  12.305  71.723  1.00  0.00    -0.431 A  
HETATM    8  C   UNL     1     -13.622  10.043  71.182  1.00  0.00    -0.131 A  
HETATM    9  H   UNL     1     -15.010   8.946  72.166  1.00  0.00     0.000 HD 
HETATM   10  C   UNL     1     -13.773  11.179  71.975  1.00  0.00     0.051 A  
HETATM   11  O   UNL     1     -14.384   8.935  71.452  1.00  0.00    -0.311 OA 
ENDROOT
BRANCH   6  12
HETATM   12  N   UNL     1     -11.241  13.477  70.564  1.00  0.00    -0.134 NA 
HETATM   13  H   UNL     1     -10.677  13.845  71.330  1.00  0.00     0.000 HD 
BRANCH  12  14
HETATM   14  N   UNL     1     -11.284  14.002  69.433  1.00  0.00    -0.312 NA 
HETATM   15  H   UNL     1     -12.052  14.589  69.107  1.00  0.00     0.000 HD 
BRANCH  14  16
HETATM   16  C   UNL     1     -10.145  13.689  68.656  1.00  0.00    -0.180 A  
HETATM   17  C   UNL     1      -8.999  12.055  67.254  1.00  0.00    -0.180 A  
HETATM   18  C   UNL     1     -10.119  12.459  67.987  1.00  0.00    -0.214 A  
HETATM   19  C   UNL     1      -7.878  12.882  67.191  1.00  0.00    -0.077 A  
HETATM   20  C   UNL     1      -7.870  14.121  67.843  1.00  0.00    -0.157 A  
HETATM   21  O   UNL     1      -6.775  12.464  66.489  1.00  0.00    -0.386 OA 
HETATM   22  C   UNL     1      -6.715  15.067  67.826  1.00  0.00    -0.168 C  
HETATM   23  C   UNL     1      -9.008  14.510  68.574  1.00  0.00    -0.188 A  
HETATM   24  H   UNL     1      -6.012  13.028  66.446  1.00  0.00     0.000 HD 
HETATM   25  O   UNL     1      -5.624  14.640  67.157  1.00  0.00    -0.143 OA 
HETATM   26  O   UNL     1      -6.752  16.153  68.383  1.00  0.00    -0.122 OA 
ENDBRANCH  14  16
ENDBRANCH  12  14
ENDBRANCH   6  12
TORSDOF 3
ENDMDL
MODEL      302
REMARK 921   NORMALIZED FREE ENERGY PREDICTED BY IDOCK:    5.23 KCAL/MOL
REMARK 922        TOTAL FREE ENERGY PREDICTED BY IDOCK:    5.79 KCAL/MOL
REMARK 923 INTER-LIGAND FREE ENERGY PREDICTED BY IDOCK:    5.88 KCAL/MOL
REMARK 924 INTRA-LIGAND FREE ENERGY PREDICTED BY IDOCK:   -0.09 KCAL/MOL
REMARK 927      BINDING AFFINITY PREDICTED BY RF-SCORE:    0.00 PKD
ROOT
HETATM    1  O   UNL     1      -8.024  14.480  71.472  1.00  0.00     2.844 OA 
HETATM    2  C   UNL     1      -8.641  15.038  70.409  1.00  0.00     1.166 C  
HETATM    3  C   UNL     1      -7.824  15.125  69.163  1.00  0.00    -0.199 A  
HETATM    4  O   UNL     1      -9.791  15.444  70.468  1.00  0.00     0.069 OA 
HETATM    5  C   UNL     1      -8.434  15.694  68.028  1.00  0.00    -0.146 A  
HETATM    6  C   UNL     1      -7.746  15.803  66.809  1.00  0.00    -0.181 A  
HETATM    7  C   UNL     1      -6.429  15.332  66.750  1.00  0.00     1.103 A  
HETATM    8  C   UNL     1      -6.506  14.659  69.064  1.00  0.00    -0.097 A  
HETATM    9  H   UNL     1      -4.998  13.766  70.078  1.00  0.00     0.000 HD 
HETATM   10  C   UNL     1      -5.805  14.766  67.864  1.00  0.00    -0.146 A  
HETATM   11  O   UNL     1      -5.892  14.082  70.146  1.00  0.00    -0.120 OA 
ENDROOT
BRANCH   6  12
HETATM   12  N   UNL     1      -8.315  16.279  65.608  1.00  0.00     0.078 NA 
HETATM   13  H   UNL     1      -8.320  17.264  65.345  1.00  0.00     0.000 HD 
BRANCH  12  14
HETATM   14  N   UNL     1      -8.812  15.380  64.899  1.00  0.00     1.579 NA 
HETATM   15  H   UNL     1      -8.441  15.101  63.991  1.00  0.00     0.000 HD 
BRANCH  14  16
HETATM   16  C   UNL     1      -9.949  14.793  65.502  1.00  0.00    -0.356 A  
HETATM   17  C   UNL     1     -12.147  15.128  66.505  1.00  0.00     0.280 A  
HETATM   18  C   UNL     1     -11.019  15.628  65.848  1.00  0.00    -0.231 A  
HETATM   19  C   UNL     1     -12.212  13.775  66.835  1.00  0.00    -0.366 A  
HETATM   20  C   UNL     1     -11.164  12.909  66.501  1.00  0.00    -0.340 A  
HETATM   21  O   UNL     1     -13.314  13.300  67.502  1.00  0.00     1.822 OA 
HETATM   22  C   UNL     1     -11.153  11.450  66.814  1.00  0.00    -0.281 C  
HETATM   23  C   UNL     1     -10.038  13.432  65.838  1.00  0.00    -0.300 A  
HETATM   24  H   UNL     1     -13.358  12.378  67.727  1.00  0.00     0.000 HD 
HETATM   25  O   UNL     1     -12.225  10.993  67.493  1.00  0.00    -0.080 OA 
HETATM   26  O   UNL     1     -10.234  10.717  66.483  1.00  0.00    -0.219 OA 
ENDBRANCH  14  16
ENDBRANCH  12  14
ENDBRANCH   6  12
TORSDOF 3
ENDMDL
MODEL      303
REMARK 921   NORMALIZED FREE ENERGY PREDICTED BY IDOCK:    6.66 KCAL/MOL
REMARK 922        TOTAL FREE ENERGY PREDICTED BY IDOCK:    7.46 KCAL/MOL
REMARK 923 INTER-LIGAND FREE ENERGY PREDICTED BY IDOCK:    6.60 KCAL/MOL
REMARK 924 INTRA-LIGAND FREE ENERGY PREDICTED BY IDOCK:    0.87 KCAL/MOL
REMARK 927      BINDING AFFINITY PREDICTED BY RF-SCORE:    0.00 PKD
ROOT
HETATM    1  O   UNL     1      -7.685  15.522  71.426  1.00  0.00     2.752 OA 
HETATM    2  C   UNL     1      -7.457  16.573  70.611  1.00  0.00     2.846 C  
HETATM    3  C   UNL     1      -6.638  16.280  69.398  1.00  0.00    -0.202 A  
HETATM    4  O   UNL     1      -7.893  17.687  70.854  1.00  0.00     4.449 OA 
HETATM    5  C   UNL     1      -6.383  17.350  68.516  1.00  0.00    -0.176 A  
HETATM    6  C   UNL     1      -5.634  17.165  67.343  1.00  0.00    -0.140 A  
HETATM    7  C   UNL     1      -5.140  15.882  67.071  1.00  0.00     0.343 A  
HETATM    8  C   UNL     1      -6.132  15.011  69.088  1.00  0.00    -0.103 A  
HETATM    9  H   UNL     1      -6.038  13.084  69.706  1.00  0.00     0.000 HD 
HETATM   10  C   UNL     1      -5.380  14.809  67.932  1.00  0.00    -0.092 A  
HETATM   11  O   UNL     1      -6.381  13.946  69.916  1.00  0.00    -0.134 OA 
ENDROOT
BRANCH   6  12
HETATM   12  N   UNL     1      -5.411  18.162  66.370  1.00  0.00    -0.146 NA 
HETATM   13  H   UNL     1      -4.595  18.774  66.375  1.00  0.00     0.000 HD 
BRANCH  12  14
HETATM   14  N   UNL     1      -6.305  18.223  65.502  1.00  0.00    -0.263 NA 
HETATM   15  H   UNL     1      -6.128  18.195  64.498  1.00  0.00     0.000 HD 
BRANCH  14  16
HETATM   16  C   UNL     1      -7.594  18.336  66.073  1.00  0.00    -0.194 A  
HETATM   17  C   UNL     1      -9.260  19.780  67.119  1.00  0.00    -0.439 A  
HETATM   18  C   UNL     1      -8.025  19.603  66.488  1.00  0.00    -0.321 A  
HETATM   19  C   UNL     1     -10.080  18.677  67.354  1.00  0.00    -0.362 A  
HETATM   20  C   UNL     1      -9.685  17.396  66.950  1.00  0.00    -0.286 A  
HETATM   21  O   UNL     1     -11.280  18.858  67.997  1.00  0.00    -0.171 OA 
HETATM   22  C   UNL     1     -10.502  16.164  67.159  1.00  0.00    -0.305 C  
HETATM   23  C   UNL     1      -8.439  17.240  66.314  1.00  0.00    -0.278 A  
HETATM   24  H   UNL     1     -11.838  18.107  68.157  1.00  0.00     0.000 HD 
HETATM   25  O   UNL     1     -11.667  16.344  67.815  1.00  0.00     0.065 OA 
HETATM   26  O   UNL     1     -10.140  15.065  66.768  1.00  0.00    -0.247 OA 
ENDBRANCH  14  16
ENDBRANCH  12  14
ENDBRANCH   6  12
TORSDOF 3
ENDMDL
MODEL      304
REMARK 921   NORMALIZED FREE ENERGY PREDICTED BY IDOCK:    7.77 KCAL/MOL
REMARK 922        TOTAL FREE ENERGY PREDICTED BY IDOCK:    8.77 KCAL/MOL
REMARK 923 INTER-LIGAND FREE ENERGY PREDICTED BY IDOCK:    9.05 KCAL/MOL
REMARK 924 INTRA-LIGAND FREE ENERGY PREDICTED BY IDOCK:   -0.29 KCAL/MOL
REMARK 927      BINDING AFFINITY PREDICTED BY RF-SCORE:    0.00 PKD
ROOT
HETATM    1  O   UNL     1     -12.481   4.441  73.337  1.00  0.00     0.245 OA 
HETATM    2  C   UNL     1     -12.580   5.583  72.624  1.00  0.00     0.508 C  
HETATM    3  C   UNL     1     -11.878   5.582  71.307  1.00  0.00     0.761 A  
HETATM    4  O   UNL     1     -13.202   6.550  73.034  1.00  0.00     1.280 OA 
HETATM    5  C   UNL     1     -11.963   6.753  70.527  1.00  0.00    -0.385 A  
HETATM    6  C   UNL     1     -11.347   6.837  69.269  1.00  0.00    -0.163 A  
HETATM    7  C   UNL     1     -10.638   5.721  68.806  1.00  0.00    -0.321 A  
HETATM    8  C   UNL     1     -11.165   4.484  70.807  1.00  0.00     2.094 A  
HETATM    9  H   UNL     1     -10.598   2.579  71.193  1.00  0.00     0.000 HD 
HETATM   10  C   UNL     1     -10.540   4.551  69.563  1.00  0.00     0.745 A  
HETATM   11  O   UNL     1     -11.082   3.323  71.532  1.00  0.00     1.435 OA 
ENDROOT
BRANCH   6  12
HETATM   12  N   UNL     1     -11.459   7.938  68.394  1.00  0.00     0.286 NA 
HETATM   13  H   UNL     1     -12.326   8.460  68.263  1.00  0.00     0.000 HD 
BRANCH  12  14
HETATM   14  N   UNL     1     -10.399   8.213  67.797  1.00  0.00    -0.227 NA 
HETATM   15  H   UNL     1     -10.162   7.865  66.868  1.00  0.00     0.000 HD 
BRANCH  14  16
HETATM   16  C   UNL     1      -9.564   9.065  68.557  1.00  0.00    -0.153 A  
HETATM   17  C   UNL     1      -9.389  10.690  70.367  1.00  0.00     1.329 A  
HETATM   18  C   UNL     1     -10.138   9.782  69.615  1.00  0.00    -0.250 A  
HETATM   19  C   UNL     1      -8.045  10.901  70.059  1.00  0.00     0.851 A  
HETATM   20  C   UNL     1      -7.436  10.199  69.013  1.00  0.00    -0.091 A  
HETATM   21  O   UNL     1      -7.325  11.814  70.789  1.00  0.00     1.346 OA 
HETATM   22  C   UNL     1      -6.005  10.362  68.618  1.00  0.00    -0.040 C  
HETATM   23  C   UNL     1      -8.207   9.287  68.268  1.00  0.00    -0.115 A  
HETATM   24  H   UNL     1      -6.410  11.957  70.579  1.00  0.00     0.000 HD 
HETATM   25  O   UNL     1      -5.309  11.279  69.321  1.00  0.00    -0.044 OA 
HETATM   26  O   UNL     1      -5.497   9.713  67.717  1.00  0.00    -0.037 OA 
ENDBRANCH  14  16
ENDBRANCH  12  14
ENDBRANCH   6  12
TORSDOF 3
ENDMDL
MODEL      305
REMARK 921   NORMALIZED FREE ENERGY PREDICTED BY IDOCK:   32.16 KCAL/MOL
REMARK 922        TOTAL FREE ENERGY PREDICTED BY IDOCK:   37.44 KCAL/MOL
REMARK 923 INTER-LIGAND FREE ENERGY PREDICTED BY IDOCK:   36.48 KCAL/MOL
REMARK 924 INTRA-LIGAND FREE ENERGY PREDICTED BY IDOCK:    0.96 KCAL/MOL
REMARK 927      BINDING AFFINITY PREDICTED BY RF-SCORE:    0.00 PKD
ROOT
HETATM    1  O   UNL     1     -11.478  13.764  71.643  1.00  0.00     0.900 OA 
HETATM    2  C   UNL     1     -10.315  14.372  71.331  1.00  0.00     2.737 C  
HETATM    3  C   UNL     1     -10.004  14.456  69.873  1.00  0.00     0.548 A  
HETATM    4  O   UNL     1      -9.568  14.822  72.186  1.00  0.00     3.390 OA 
HETATM    5  C   UNL     1      -8.801  15.090  69.503  1.00  0.00    -0.060 A  
HETATM    6  C   UNL     1      -8.434  15.228  68.155  1.00  0.00    -0.151 A  
HETATM    7  C   UNL     1      -9.297  14.712  67.181  1.00  0.00    -0.231 A  
HETATM    8  C   UNL     1     -10.845  13.958  68.869  1.00  0.00    -0.255 A  
HETATM    9  H   UNL     1     -12.602  13.016  68.514  1.00  0.00     0.000 HD 
HETATM   10  C   UNL     1     -10.493  14.078  67.525  1.00  0.00    -0.252 A  
HETATM   11  O   UNL     1     -12.032  13.354  69.196  1.00  0.00    -0.317 OA 
ENDROOT
BRANCH   6  12
HETATM   12  N   UNL     1      -7.294  15.925  67.703  1.00  0.00    -0.143 NA 
HETATM   13  H   UNL     1      -6.622  15.530  67.044  1.00  0.00     0.000 HD 
BRANCH  12  14
HETATM   14  N   UNL     1      -7.184  17.071  68.184  1.00  0.00    -0.180 NA 
HETATM   15  H   UNL     1      -7.330  17.929  67.652  1.00  0.00     0.000 HD 
BRANCH  14  16
HETATM   16  C   UNL     1      -6.835  17.042  69.555  1.00  0.00    -0.111 A  
HETATM   17  C   UNL     1      -5.649  15.893  71.350  1.00  0.00     0.341 A  
HETATM   18  C   UNL     1      -5.985  16.022  69.999  1.00  0.00    -0.161 A  
HETATM   19  C   UNL     1      -6.176  16.787  72.282  1.00  0.00     3.428 A  
HETATM   20  C   UNL     1      -7.025  17.823  71.874  1.00  0.00     6.257 A  
HETATM   21  O   UNL     1      -5.859  16.637  73.609  1.00  0.00     2.202 OA 
HETATM   22  C   UNL     1      -7.629  18.823  72.802  1.00  0.00     7.257 C  
HETATM   23  C   UNL     1      -7.349  17.936  70.509  1.00  0.00     2.768 A  
HETATM   24  H   UNL     1      -6.218  17.246  74.243  1.00  0.00     0.000 HD 
HETATM   25  O   UNL     1      -7.337  18.654  74.109  1.00  0.00     5.814 OA 
HETATM   26  O   UNL     1      -8.344  19.732  72.410  1.00  0.00     2.700 OA 
ENDBRANCH  14  16
ENDBRANCH  12  14
ENDBRANCH   6  12
TORSDOF 3
ENDMDL
MODEL      306
REMARK 921   NORMALIZED FREE ENERGY PREDICTED BY IDOCK:   45.69 KCAL/MOL
REMARK 922        TOTAL FREE ENERGY PREDICTED BY IDOCK:   53.34 KCAL/MOL
REMARK 923 INTER-LIGAND FREE ENERGY PREDICTED BY IDOCK:   42.85 KCAL/MOL
REMARK 924 INTRA-LIGAND FREE ENERGY PREDICTED BY IDOCK:   10.49 KCAL/MOL
REMARK 927      BINDING AFFINITY PREDICTED BY RF-SCORE:    0.00 PKD
ROOT
HETATM    1  O   UNL     1     -10.358  12.886  71.064  1.00  0.00     4.720 OA 
HETATM    2  C   UNL     1      -9.126  12.849  70.516  1.00  0.00     6.605 C  
HETATM    3  C   UNL     1      -9.002  12.042  69.266  1.00  0.00     0.755 A  
HETATM    4  O   UNL     1      -8.178  13.436  71.012  1.00  0.00     5.167 OA 
HETATM    5  C   UNL     1      -7.733  11.983  68.656  1.00  0.00    -0.099 A  
HETATM    6  C   UNL     1      -7.527  11.260  67.471  1.00  0.00    -0.106 A  
HETATM    7  C   UNL     1      -8.621  10.592  66.907  1.00  0.00    -0.125 A  
HETATM    8  C   UNL     1     -10.074  11.365  68.668  1.00  0.00    -0.210 A  
HETATM    9  H   UNL     1     -12.052  10.961  68.820  1.00  0.00     0.000 HD 
HETATM   10  C   UNL     1      -9.887  10.636  67.495  1.00  0.00    -0.194 A  
HETATM   11  O   UNL     1     -11.326  11.420  69.226  1.00  0.00    -0.242 OA 
ENDROOT
BRANCH   6  12
HETATM   12  N   UNL     1      -6.311  11.226  66.755  1.00  0.00    -0.126 NA 
HETATM   13  H   UNL     1      -5.861  10.358  66.462  1.00  0.00     0.000 HD 
BRANCH  12  14
HETATM   14  N   UNL     1      -5.839  12.355  66.516  1.00  0.00    -0.362 NA 
HETATM   15  H   UNL     1      -4.842  12.568  66.519  1.00  0.00     0.000 HD 
BRANCH  14  16
HETATM   16  C   UNL     1      -6.848  13.307  66.241  1.00  0.00     3.231 A  
HETATM   17  C   UNL     1      -7.597  15.164  64.847  1.00  0.00    10.403 A  
HETATM   18  C   UNL     1      -6.673  14.157  65.141  1.00  0.00    13.921 A  
HETATM   19  C   UNL     1      -8.712  15.340  65.666  1.00  0.00     0.977 A  
HETATM   20  C   UNL     1      -8.923  14.506  66.771  1.00  0.00    -0.270 A  
HETATM   21  O   UNL     1      -9.601  16.347  65.383  1.00  0.00    -0.455 OA 
HETATM   22  C   UNL     1     -10.089  14.623  67.696  1.00  0.00    -0.228 C  
HETATM   23  C   UNL     1      -7.982  13.497  67.048  1.00  0.00     0.031 A  
HETATM   24  H   UNL     1     -10.360  16.467  65.941  1.00  0.00     0.000 HD 
HETATM   25  O   UNL     1     -10.944  15.631  67.429  1.00  0.00    -0.314 OA 
HETATM   26  O   UNL     1     -10.257  13.860  68.635  1.00  0.00    -0.231 OA 
ENDBRANCH  14  16
ENDBRANCH  12  14
ENDBRANCH   6  12
TORSDOF 3
ENDMDL
