MODEL        1
REMARK 921   NORMALIZED FREE ENERGY PREDICTED BY IDOCK:   -7.33 KCAL/MOL
REMARK 922        TOTAL FREE ENERGY PREDICTED BY IDOCK:  -12.19 KCAL/MOL
REMARK 923 INTER-LIGAND FREE ENERGY PREDICTED BY IDOCK:  -10.33 KCAL/MOL
REMARK 924 INTRA-LIGAND FREE ENERGY PREDICTED BY IDOCK:   -1.87 KCAL/MOL
REMARK 927      BINDING AFFINITY PREDICTED BY RF-SCORE:    0.00 PKD
ROOT
HETATM    1  C   UNL     1      -8.727  10.491  68.512  1.00  0.00    -0.140 C  
HETATM    2  O   UNL     1     -14.027   7.789  71.579  1.00  0.00    -0.380 OA 
HETATM    3  C   UNL     1      -7.706   9.651  67.777  1.00  0.00    -0.094 C  
HETATM    4  C   UNL     1      -8.817   9.839  69.966  1.00  0.00    -0.245 C  
HETATM    5  C   UNL     1     -14.218   8.808  72.574  1.00  0.00    -0.314 C  
HETATM    6  C   UNL     1      -6.903   8.996  68.615  1.00  0.00    -0.063 C  
HETATM    7  C   UNL     1      -7.272   9.152  70.066  1.00  0.00    -0.066 C  
HETATM    8  C   UNL     1     -10.248   9.149  70.389  1.00  0.00    -0.268 A  
HETATM    9  C   UNL     1     -11.139   9.909  71.187  1.00  0.00    -0.359 A  
HETATM   10  O   UNL     1     -13.235   9.870  72.493  1.00  0.00    -0.303 OA 
HETATM   11  C   UNL     1     -12.366   9.361  71.572  1.00  0.00    -0.370 A  
HETATM   12  C   UNL     1      -6.244  10.058  70.751  1.00  0.00    -0.084 C  
HETATM   13  C   UNL     1     -12.813   8.157  71.087  1.00  0.00    -0.088 A  
HETATM   14  C   UNL     1     -12.001   7.341  70.344  1.00  0.00    -0.124 A  
HETATM   15  C   UNL     1      -5.642   9.228  71.879  1.00  0.00    -0.072 C  
HETATM   16  C   UNL     1     -10.660   7.745  70.218  1.00  0.00    -0.231 A  
HETATM   17  C   UNL     1      -9.687   6.561  70.658  1.00  0.00    -0.194 C  
HETATM   18  C   UNL     1      -8.387   7.267  70.622  1.00  0.00    -0.128 C  
HETATM   19  N   UNL     1      -7.063   7.782  70.661  1.00  0.00    -0.049 NA 
HETATM   20  C   UNL     1      -6.474   7.960  71.984  1.00  0.00    -0.050 C  
ENDROOT
BRANCH   1  21
HETATM   21  O   UNL     1      -9.946  10.642  67.794  1.00  0.00    -0.163 OA 
BRANCH  21  22
HETATM   22  C   UNL     1     -10.055  11.878  67.217  1.00  0.00    -0.196 C  
HETATM   23  C   UNL     1     -11.735  13.649  66.666  1.00  0.00    -0.420 C  
HETATM   24  C   UNL     1     -11.331  12.587  67.699  1.00  0.00    -0.306 C  
HETATM   25  O   UNL     1      -9.270  12.338  66.386  1.00  0.00    -0.227 OA 
HETATM   26  H   UNL     1     -13.182  12.076  68.137  1.00  0.00     0.000 HD 
HETATM   27  C   UNL     1     -11.054  13.221  69.083  1.00  0.00    -0.259 C  
HETATM   28  O   UNL     1     -12.393  11.638  67.839  1.00  0.00    -0.404 OA 
BRANCH  23  29
HETATM   29  C   UNL     1     -12.011  13.049  65.294  1.00  0.00    -0.407 C  
HETATM   30  O   UNL     1     -12.805  12.152  65.036  1.00  0.00    -0.456 OA 
BRANCH  29  31
HETATM   31  O   UNL     1     -11.226  13.699  64.380  1.00  0.00    -0.370 OA 
HETATM   32  C   UNL     1     -11.277  15.119  64.503  1.00  0.00    -0.272 C  
ENDBRANCH  29  31
ENDBRANCH  23  29
BRANCH  27  33
HETATM   33  C   UNL     1     -12.211  14.010  69.732  1.00  0.00    -0.396 C  
BRANCH  33  34
HETATM   34  C   UNL     1     -11.901  14.572  71.129  1.00  0.00    -0.353 C  
HETATM   35  C   UNL     1     -14.322  15.101  71.744  1.00  0.00    -0.696 C  
HETATM   36  O   UNL     1     -13.309  13.021  72.335  1.00  0.00    -0.535 OA 
HETATM   37  C   UNL     1     -13.028  14.413  72.168  1.00  0.00    -0.355 C  
HETATM   38  C   UNL     1     -12.563  14.968  73.520  1.00  0.00    -0.664 C  
HETATM   39  H   UNL     1     -14.004  12.923  72.976  1.00  0.00     0.000 HD 
ENDBRANCH  33  34
ENDBRANCH  27  33
ENDBRANCH  21  22
ENDBRANCH   1  21
BRANCH   3  40
HETATM   40  O   UNL     1      -7.554   9.483  66.425  1.00  0.00    -0.096 OA 
HETATM   41  C   UNL     1      -8.268   8.465  65.747  1.00  0.00    -0.131 C  
ENDBRANCH   3  40
TORSDOF 7
ENDMDL
MODEL        2
REMARK 921   NORMALIZED FREE ENERGY PREDICTED BY IDOCK:   -7.32 KCAL/MOL
REMARK 922        TOTAL FREE ENERGY PREDICTED BY IDOCK:  -12.18 KCAL/MOL
REMARK 923 INTER-LIGAND FREE ENERGY PREDICTED BY IDOCK:  -10.75 KCAL/MOL
REMARK 924 INTRA-LIGAND FREE ENERGY PREDICTED BY IDOCK:   -1.42 KCAL/MOL
REMARK 927      BINDING AFFINITY PREDICTED BY RF-SCORE:    0.00 PKD
ROOT
HETATM    1  C   UNL     1      -8.989  11.926  66.414  1.00  0.00    -0.180 C  
HETATM    2  O   UNL     1     -10.601   8.346  71.834  1.00  0.00    -0.251 OA 
HETATM    3  C   UNL     1      -9.654  11.703  65.073  1.00  0.00    -0.164 C  
HETATM    4  C   UNL     1      -8.466  10.483  66.852  1.00  0.00    -0.125 C  
HETATM    5  C   UNL     1      -9.344   8.456  72.522  1.00  0.00    -0.275 C  
HETATM    6  C   UNL     1      -9.221  10.590  64.482  1.00  0.00    -0.278 C  
HETATM    7  C   UNL     1      -8.280   9.772  65.326  1.00  0.00    -0.137 C  
HETATM    8  C   UNL     1      -9.147   9.815  68.191  1.00  0.00    -0.125 A  
HETATM    9  C   UNL     1      -8.445   9.926  69.417  1.00  0.00    -0.169 A  
HETATM   10  O   UNL     1      -8.356   9.212  71.779  1.00  0.00    -0.340 OA 
HETATM   11  C   UNL     1      -8.986   9.371  70.579  1.00  0.00    -0.253 A  
HETATM   12  C   UNL     1      -6.861   9.898  64.761  1.00  0.00    -0.129 C  
HETATM   13  C   UNL     1     -10.252   8.840  70.615  1.00  0.00    -0.202 A  
HETATM   14  C   UNL     1     -10.982   8.658  69.470  1.00  0.00    -0.067 A  
HETATM   15  C   UNL     1      -6.420   8.480  64.420  1.00  0.00    -0.067 C  
HETATM   16  C   UNL     1     -10.319   8.924  68.260  1.00  0.00    -0.250 A  
HETATM   17  C   UNL     1     -10.433   7.668  67.284  1.00  0.00    -0.396 C  
HETATM   18  C   UNL     1      -9.528   8.102  66.196  1.00  0.00    -0.147 C  
HETATM   19  N   UNL     1      -8.688   8.342  65.075  1.00  0.00    -0.079 NA 
HETATM   20  C   UNL     1      -7.470   7.543  64.993  1.00  0.00    -0.084 C  
ENDROOT
BRANCH   1  21
HETATM   21  O   UNL     1      -9.818  12.622  67.338  1.00  0.00    -0.201 OA 
BRANCH  21  22
HETATM   22  C   UNL     1      -9.460  13.937  67.461  1.00  0.00    -0.216 C  
HETATM   23  C   UNL     1     -10.427  16.245  67.460  1.00  0.00    -0.302 C  
HETATM   24  C   UNL     1     -10.671  14.787  67.876  1.00  0.00    -0.259 C  
HETATM   25  O   UNL     1      -8.338  14.387  67.223  1.00  0.00    -0.191 OA 
HETATM   26  H   UNL     1     -12.601  14.829  67.484  1.00  0.00     0.000 HD 
HETATM   27  C   UNL     1     -10.866  14.661  69.406  1.00  0.00    -0.261 C  
HETATM   28  O   UNL     1     -11.852  14.304  67.228  1.00  0.00    -0.381 OA 
BRANCH  23  29
HETATM   29  C   UNL     1     -10.230  16.395  65.958  1.00  0.00    -0.356 C  
HETATM   30  O   UNL     1     -10.878  15.840  65.078  1.00  0.00    -0.419 OA 
BRANCH  29  31
HETATM   31  O   UNL     1      -9.206  17.279  65.749  1.00  0.00    -0.517 OA 
HETATM   32  C   UNL     1      -8.722  17.873  66.951  1.00  0.00    -0.246 C  
ENDBRANCH  29  31
ENDBRANCH  23  29
BRANCH  27  33
HETATM   33  C   UNL     1     -12.024  15.470  70.030  1.00  0.00    -0.385 C  
BRANCH  33  34
HETATM   34  C   UNL     1     -11.888  15.724  71.540  1.00  0.00    -0.514 C  
HETATM   35  C   UNL     1     -14.371  15.461  72.076  1.00  0.00    -0.653 C  
HETATM   36  O   UNL     1     -12.858  13.620  72.232  1.00  0.00    -0.295 OA 
HETATM   37  C   UNL     1     -12.948  15.034  72.422  1.00  0.00    -0.357 C  
HETATM   38  C   UNL     1     -12.660  15.332  73.899  1.00  0.00    -0.731 C  
HETATM   39  H   UNL     1     -13.511  13.195  72.775  1.00  0.00     0.000 HD 
ENDBRANCH  33  34
ENDBRANCH  27  33
ENDBRANCH  21  22
ENDBRANCH   1  21
BRANCH   3  40
HETATM   40  O   UNL     1     -10.615  12.463  64.460  1.00  0.00    -0.289 OA 
HETATM   41  C   UNL     1     -11.622  11.848  63.677  1.00  0.00    -0.464 C  
ENDBRANCH   3  40
TORSDOF 7
ENDMDL
MODEL        3
REMARK 921   NORMALIZED FREE ENERGY PREDICTED BY IDOCK:   -6.86 KCAL/MOL
REMARK 922        TOTAL FREE ENERGY PREDICTED BY IDOCK:  -11.53 KCAL/MOL
REMARK 923 INTER-LIGAND FREE ENERGY PREDICTED BY IDOCK:  -10.59 KCAL/MOL
REMARK 924 INTRA-LIGAND FREE ENERGY PREDICTED BY IDOCK:   -0.93 KCAL/MOL
REMARK 927      BINDING AFFINITY PREDICTED BY RF-SCORE:    0.00 PKD
ROOT
HETATM    1  C   UNL     1      -8.744   9.719  66.947  1.00  0.00    -0.135 C  
HETATM    2  O   UNL     1     -11.644   7.089  72.377  1.00  0.00    -0.273 OA 
HETATM    3  C   UNL     1      -9.028   9.204  65.552  1.00  0.00    -0.205 C  
HETATM    4  C   UNL     1      -8.322   8.423  67.779  1.00  0.00    -0.130 C  
HETATM    5  C   UNL     1     -10.615   7.416  73.325  1.00  0.00    -0.392 C  
HETATM    6  C   UNL     1      -8.429   8.036  65.321  1.00  0.00    -0.133 C  
HETATM    7  C   UNL     1      -7.726   7.459  66.521  1.00  0.00    -0.093 C  
HETATM    8  C   UNL     1      -9.317   7.965  69.005  1.00  0.00    -0.151 A  
HETATM    9  C   UNL     1      -8.965   8.351  70.322  1.00  0.00    -0.147 A  
HETATM   10  O   UNL     1      -9.483   8.092  72.723  1.00  0.00    -0.234 OA 
HETATM   11  C   UNL     1      -9.780   7.981  71.396  1.00  0.00    -0.164 A  
HETATM   12  C   UNL     1      -6.212   7.583  66.321  1.00  0.00    -0.041 C  
HETATM   13  C   UNL     1     -10.998   7.375  71.213  1.00  0.00    -0.242 A  
HETATM   14  C   UNL     1     -11.397   6.932  69.979  1.00  0.00    -0.343 A  
HETATM   15  C   UNL     1      -5.664   6.162  66.388  1.00  0.00    -0.017 C  
HETATM   16  C   UNL     1     -10.444   7.018  68.949  1.00  0.00    -0.217 A  
HETATM   17  C   UNL     1     -10.269   5.599  68.243  1.00  0.00    -0.239 C  
HETATM   18  C   UNL     1      -9.120   5.891  67.356  1.00  0.00    -0.110 C  
HETATM   19  N   UNL     1      -8.021   5.981  66.461  1.00  0.00    -0.104 NA 
HETATM   20  C   UNL     1      -6.806   5.272  66.850  1.00  0.00    -0.063 C  
ENDROOT
BRANCH   1  21
HETATM   21  O   UNL     1      -9.802  10.510  67.475  1.00  0.00    -0.163 OA 
BRANCH  21  22
HETATM   22  C   UNL     1      -9.683  11.828  67.127  1.00  0.00    -0.183 C  
HETATM   23  C   UNL     1     -11.054  13.842  66.556  1.00  0.00    -0.310 C  
HETATM   24  C   UNL     1     -10.983  12.587  67.437  1.00  0.00    -0.259 C  
HETATM   25  O   UNL     1      -8.692  12.328  66.592  1.00  0.00    -0.192 OA 
HETATM   26  H   UNL     1     -12.917  12.221  67.352  1.00  0.00     0.000 HD 
HETATM   27  C   UNL     1     -11.000  12.950  68.942  1.00  0.00    -0.271 C  
HETATM   28  O   UNL     1     -12.113  11.753  67.160  1.00  0.00    -0.592 OA 
BRANCH  23  29
HETATM   29  C   UNL     1     -11.037  13.511  65.071  1.00  0.00    -0.328 C  
HETATM   30  O   UNL     1     -10.048  13.432  64.351  1.00  0.00    -0.341 OA 
BRANCH  29  31
HETATM   31  O   UNL     1     -12.328  13.293  64.668  1.00  0.00    -0.432 OA 
HETATM   32  C   UNL     1     -12.442  12.285  63.667  1.00  0.00    -0.541 C  
ENDBRANCH  29  31
ENDBRANCH  23  29
BRANCH  27  33
HETATM   33  C   UNL     1     -12.219  13.747  69.453  1.00  0.00    -0.325 C  
BRANCH  33  34
HETATM   34  C   UNL     1     -12.418  13.708  70.977  1.00  0.00    -0.456 C  
HETATM   35  C   UNL     1     -11.784  16.148  71.386  1.00  0.00    -0.506 C  
HETATM   36  O   UNL     1     -14.054  15.486  71.056  1.00  0.00    -0.810 OA 
HETATM   37  C   UNL     1     -12.816  15.050  71.623  1.00  0.00    -0.345 C  
HETATM   38  C   UNL     1     -13.029  14.852  73.129  1.00  0.00    -0.627 C  
HETATM   39  H   UNL     1     -14.300  16.313  71.454  1.00  0.00     0.000 HD 
ENDBRANCH  33  34
ENDBRANCH  27  33
ENDBRANCH  21  22
ENDBRANCH   1  21
BRANCH   3  40
HETATM   40  O   UNL     1      -9.811   9.766  64.579  1.00  0.00    -0.189 OA 
HETATM   41  C   UNL     1      -9.234  10.206  63.362  1.00  0.00    -0.291 C  
ENDBRANCH   3  40
TORSDOF 7
ENDMDL
MODEL        4
REMARK 921   NORMALIZED FREE ENERGY PREDICTED BY IDOCK:   -6.71 KCAL/MOL
REMARK 922        TOTAL FREE ENERGY PREDICTED BY IDOCK:  -11.32 KCAL/MOL
REMARK 923 INTER-LIGAND FREE ENERGY PREDICTED BY IDOCK:  -10.46 KCAL/MOL
REMARK 924 INTRA-LIGAND FREE ENERGY PREDICTED BY IDOCK:   -0.86 KCAL/MOL
REMARK 927      BINDING AFFINITY PREDICTED BY RF-SCORE:    0.00 PKD
ROOT
HETATM    1  C   UNL     1     -11.780  11.795  69.340  1.00  0.00    -0.341 C  
HETATM    2  O   UNL     1      -6.151   8.233  68.683  1.00  0.00    -0.042 OA 
HETATM    3  C   UNL     1     -12.234  12.346  70.675  1.00  0.00    -0.278 C  
HETATM    4  C   UNL     1     -11.544  10.239  69.604  1.00  0.00    -0.267 C  
HETATM    5  C   UNL     1      -6.539   7.466  67.531  1.00  0.00    -0.061 C  
HETATM    6  C   UNL     1     -12.730  11.394  71.464  1.00  0.00    -0.462 C  
HETATM    7  C   UNL     1     -12.612  10.005  70.898  1.00  0.00    -0.332 C  
HETATM    8  C   UNL     1     -10.003   9.682  69.465  1.00  0.00    -0.223 A  
HETATM    9  C   UNL     1      -9.634   9.054  68.249  1.00  0.00    -0.158 A  
HETATM   10  O   UNL     1      -7.884   7.763  67.079  1.00  0.00    -0.108 OA 
HETATM   11  C   UNL     1      -8.335   8.563  68.088  1.00  0.00    -0.127 A  
HETATM   12  C   UNL     1     -13.999   9.520  70.465  1.00  0.00     0.625 C  
HETATM   13  C   UNL     1      -7.347   8.793  69.013  1.00  0.00    -0.073 A  
HETATM   14  C   UNL     1      -7.626   9.355  70.231  1.00  0.00    -0.143 A  
HETATM   15  C   UNL     1     -14.265   8.248  71.261  1.00  0.00    -0.323 C  
HETATM   16  C   UNL     1      -8.986   9.564  70.524  1.00  0.00    -0.265 A  
HETATM   17  C   UNL     1      -9.354   8.893  71.923  1.00  0.00    -0.275 C  
HETATM   18  C   UNL     1     -10.824   9.075  71.918  1.00  0.00    -0.343 C  
HETATM   19  N   UNL     1     -12.233   9.143  72.077  1.00  0.00    -0.377 NA 
HETATM   20  C   UNL     1     -12.963   7.885  71.958  1.00  0.00    -0.246 C  
ENDROOT
BRANCH   1  21
HETATM   21  O   UNL     1     -10.699  12.527  68.774  1.00  0.00    -0.228 OA 
BRANCH  21  22
HETATM   22  C   UNL     1     -10.699  12.473  67.407  1.00  0.00    -0.229 C  
HETATM   23  C   UNL     1     -11.219  13.853  65.386  1.00  0.00    -0.306 C  
HETATM   24  C   UNL     1     -10.652  13.889  66.812  1.00  0.00    -0.277 C  
HETATM   25  O   UNL     1     -10.780  11.438  66.744  1.00  0.00    -0.247 OA 
HETATM   26  H   UNL     1     -11.409  15.656  67.242  1.00  0.00     0.000 HD 
HETATM   27  C   UNL     1      -9.185  14.384  66.826  1.00  0.00    -0.287 C  
HETATM   28  O   UNL     1     -11.438  14.780  67.609  1.00  0.00    -0.323 OA 
BRANCH  23  29
HETATM   29  C   UNL     1     -12.660  13.367  65.346  1.00  0.00    -0.475 C  
HETATM   30  O   UNL     1     -13.652  13.994  65.699  1.00  0.00    -0.499 OA 
BRANCH  29  31
HETATM   31  O   UNL     1     -12.668  12.100  64.827  1.00  0.00    -0.502 OA 
HETATM   32  C   UNL     1     -12.258  12.049  63.462  1.00  0.00    -0.547 C  
ENDBRANCH  29  31
ENDBRANCH  23  29
BRANCH  27  33
HETATM   33  C   UNL     1      -8.918  15.787  66.238  1.00  0.00    -0.381 C  
BRANCH  33  34
HETATM   34  C   UNL     1      -8.492  16.844  67.270  1.00  0.00    -0.213 C  
HETATM   35  C   UNL     1      -9.884  18.747  66.287  1.00  0.00    -0.382 C  
HETATM   36  O   UNL     1     -10.727  17.355  68.035  1.00  0.00    -0.387 OA 
HETATM   37  C   UNL     1      -9.527  17.954  67.541  1.00  0.00    -0.258 C  
HETATM   38  C   UNL     1      -8.992  18.903  68.621  1.00  0.00    -0.386 C  
HETATM   39  H   UNL     1     -11.365  18.039  68.202  1.00  0.00     0.000 HD 
ENDBRANCH  33  34
ENDBRANCH  27  33
ENDBRANCH  21  22
ENDBRANCH   1  21
BRANCH   3  40
HETATM   40  O   UNL     1     -12.163  13.636  71.134  1.00  0.00    -0.344 OA 
HETATM   41  C   UNL     1     -12.915  14.034  72.266  1.00  0.00    -0.373 C  
ENDBRANCH   3  40
TORSDOF 7
ENDMDL
MODEL        5
REMARK 921   NORMALIZED FREE ENERGY PREDICTED BY IDOCK:   -6.65 KCAL/MOL
REMARK 922        TOTAL FREE ENERGY PREDICTED BY IDOCK:  -11.23 KCAL/MOL
REMARK 923 INTER-LIGAND FREE ENERGY PREDICTED BY IDOCK:   -9.20 KCAL/MOL
REMARK 924 INTRA-LIGAND FREE ENERGY PREDICTED BY IDOCK:   -2.04 KCAL/MOL
REMARK 927      BINDING AFFINITY PREDICTED BY RF-SCORE:    0.00 PKD
ROOT
HETATM    1  C   UNL     1     -11.189  12.374  69.682  1.00  0.00    -0.036 C  
HETATM    2  O   UNL     1     -10.955  10.853  63.168  1.00  0.00     0.058 OA 
HETATM    3  C   UNL     1     -12.236  13.304  70.256  1.00  0.00    -0.321 C  
HETATM    4  C   UNL     1     -10.527  13.197  68.486  1.00  0.00    -0.262 C  
HETATM    5  C   UNL     1      -9.548  10.571  63.084  1.00  0.00    -0.336 C  
HETATM    6  C   UNL     1     -11.988  14.578  69.955  1.00  0.00    -0.388 C  
HETATM    7  C   UNL     1     -10.815  14.774  69.033  1.00  0.00    -0.245 C  
HETATM    8  C   UNL     1     -10.743  12.610  66.965  1.00  0.00    -0.268 A  
HETATM    9  C   UNL     1      -9.695  11.845  66.396  1.00  0.00    -0.238 A  
HETATM   10  O   UNL     1      -8.857  10.756  64.344  1.00  0.00    -0.180 OA 
HETATM   11  C   UNL     1      -9.834  11.328  65.105  1.00  0.00    -0.252 A  
HETATM   12  C   UNL     1      -9.647  15.368  69.826  1.00  0.00    -0.190 C  
HETATM   13  C   UNL     1     -11.015  11.410  64.409  1.00  0.00    -0.302 A  
HETATM   14  C   UNL     1     -12.063  12.165  64.867  1.00  0.00    -0.342 A  
HETATM   15  C   UNL     1      -9.307  16.688  69.144  1.00  0.00    -0.177 C  
HETATM   16  C   UNL     1     -11.817  12.942  66.012  1.00  0.00    -0.485 A  
HETATM   17  C   UNL     1     -12.206  14.463  65.736  1.00  0.00    -0.353 C  
HETATM   18  C   UNL     1     -11.696  15.090  66.977  1.00  0.00    -0.188 C  
HETATM   19  N   UNL     1     -11.254  15.862  68.084  1.00  0.00    -0.347 NA 
HETATM   20  C   UNL     1     -10.107  16.735  67.852  1.00  0.00    -0.284 C  
ENDROOT
BRANCH   1  21
HETATM   21  O   UNL     1     -11.700  11.082  69.374  1.00  0.00    -0.269 OA 
BRANCH  21  22
HETATM   22  C   UNL     1     -11.261  10.130  70.254  1.00  0.00    -0.318 C  
HETATM   23  C   UNL     1     -10.157   7.886  70.333  1.00  0.00    -0.194 C  
HETATM   24  C   UNL     1     -10.207   9.230  69.592  1.00  0.00    -0.208 C  
HETATM   25  O   UNL     1     -11.689   9.981  71.400  1.00  0.00    -0.367 OA 
HETATM   26  H   UNL     1      -9.900   8.444  67.812  1.00  0.00     0.000 HD 
HETATM   27  C   UNL     1      -8.838   9.952  69.638  1.00  0.00    -0.224 C  
HETATM   28  O   UNL     1     -10.551   9.000  68.222  1.00  0.00    -0.214 OA 
BRANCH  23  29
HETATM   29  C   UNL     1     -11.493   7.158  70.304  1.00  0.00    -0.247 C  
HETATM   30  O   UNL     1     -12.426   7.312  71.084  1.00  0.00    -0.348 OA 
BRANCH  29  31
HETATM   31  O   UNL     1     -11.488   6.302  69.235  1.00  0.00    -0.411 OA 
HETATM   32  C   UNL     1     -10.319   5.487  69.172  1.00  0.00    -0.248 C  
ENDBRANCH  29  31
ENDBRANCH  23  29
BRANCH  27  33
HETATM   33  C   UNL     1      -7.631   9.195  69.043  1.00  0.00    -0.074 C  
BRANCH  33  34
HETATM   34  C   UNL     1      -6.829   9.987  67.997  1.00  0.00    -0.068 C  
HETATM   35  C   UNL     1      -5.601   7.969  67.025  1.00  0.00    -0.037 C  
HETATM   36  O   UNL     1      -7.647   8.759  66.082  1.00  0.00    -0.091 OA 
HETATM   37  C   UNL     1      -6.450   9.202  66.726  1.00  0.00    -0.067 C  
HETATM   38  C   UNL     1      -5.703  10.124  65.755  1.00  0.00    -0.072 C  
HETATM   39  H   UNL     1      -7.413   8.275  65.298  1.00  0.00     0.000 HD 
ENDBRANCH  33  34
ENDBRANCH  27  33
ENDBRANCH  21  22
ENDBRANCH   1  21
BRANCH   3  40
HETATM   40  O   UNL     1     -13.355  12.986  70.980  1.00  0.00    -0.010 OA 
HETATM   41  C   UNL     1     -13.543  13.520  72.278  1.00  0.00    -0.592 C  
ENDBRANCH   3  40
TORSDOF 7
ENDMDL
MODEL        6
REMARK 921   NORMALIZED FREE ENERGY PREDICTED BY IDOCK:   -6.63 KCAL/MOL
REMARK 922        TOTAL FREE ENERGY PREDICTED BY IDOCK:  -11.21 KCAL/MOL
REMARK 923 INTER-LIGAND FREE ENERGY PREDICTED BY IDOCK:   -9.05 KCAL/MOL
REMARK 924 INTRA-LIGAND FREE ENERGY PREDICTED BY IDOCK:   -2.15 KCAL/MOL
REMARK 927      BINDING AFFINITY PREDICTED BY RF-SCORE:    0.00 PKD
ROOT
HETATM    1  C   UNL     1     -11.817  11.222  68.959  1.00  0.00    -0.352 C  
HETATM    2  O   UNL     1      -6.417   7.294  68.497  1.00  0.00    -0.038 OA 
HETATM    3  C   UNL     1     -12.112  12.045  70.195  1.00  0.00    -0.298 C  
HETATM    4  C   UNL     1     -11.611   9.736  69.502  1.00  0.00     0.017 C  
HETATM    5  C   UNL     1      -6.948   6.341  67.561  1.00  0.00    -0.068 C  
HETATM    6  C   UNL     1     -12.558  11.292  71.200  1.00  0.00    -0.501 C  
HETATM    7  C   UNL     1     -12.549   9.815  70.911  1.00  0.00    -0.263 C  
HETATM    8  C   UNL     1     -10.114   9.078  69.333  1.00  0.00    -0.198 A  
HETATM    9  C   UNL     1      -9.894   8.207  68.236  1.00  0.00    -0.191 A  
HETATM   10  O   UNL     1      -8.320   6.620  67.186  1.00  0.00    -0.112 OA 
HETATM   11  C   UNL     1      -8.637   7.623  68.055  1.00  0.00    -0.123 A  
HETATM   12  C   UNL     1     -13.990   9.333  70.714  1.00  0.00     0.280 C  
HETATM   13  C   UNL     1      -7.552   7.972  68.820  1.00  0.00    -0.103 A  
HETATM   14  C   UNL     1      -7.685   8.774  69.924  1.00  0.00    -0.081 A  
HETATM   15  C   UNL     1     -14.218   8.256  71.767  1.00  0.00    -0.544 C  
HETATM   16  C   UNL     1      -8.998   9.110  70.295  1.00  0.00    -0.245 A  
HETATM   17  C   UNL     1      -9.246   8.744  71.827  1.00  0.00    -0.332 C  
HETATM   18  C   UNL     1     -10.700   9.002  71.923  1.00  0.00    -0.331 C  
HETATM   19  N   UNL     1     -12.083   9.178  72.197  1.00  0.00    -0.348 NA 
HETATM   20  C   UNL     1     -12.866   7.963  72.397  1.00  0.00    -0.041 C  
ENDROOT
BRANCH   1  21
HETATM   21  O   UNL     1     -10.774  11.770  68.161  1.00  0.00    -0.197 OA 
BRANCH  21  22
HETATM   22  C   UNL     1     -11.209  12.117  66.911  1.00  0.00    -0.320 C  
HETATM   23  C   UNL     1     -10.369  12.851  64.671  1.00  0.00    -0.366 C  
HETATM   24  C   UNL     1     -10.079  11.954  65.883  1.00  0.00    -0.234 C  
HETATM   25  O   UNL     1     -12.333  12.550  66.653  1.00  0.00    -0.483 OA 
HETATM   26  H   UNL     1      -8.130  12.240  65.830  1.00  0.00     0.000 HD 
HETATM   27  C   UNL     1      -9.989  10.464  65.475  1.00  0.00    -0.348 C  
HETATM   28  O   UNL     1      -8.829  12.340  66.466  1.00  0.00    -0.197 OA 
BRANCH  23  29
HETATM   29  C   UNL     1     -10.464  14.323  65.048  1.00  0.00    -0.435 C  
HETATM   30  O   UNL     1      -9.706  14.937  65.791  1.00  0.00    -0.323 OA 
BRANCH  29  31
HETATM   31  O   UNL     1     -11.542  14.860  64.397  1.00  0.00    -0.362 OA 
HETATM   32  C   UNL     1     -12.248  13.912  63.600  1.00  0.00    -0.181 C  
ENDBRANCH  29  31
ENDBRANCH  23  29
BRANCH  27  33
HETATM   33  C   UNL     1      -8.925  10.093  64.420  1.00  0.00    -0.264 C  
BRANCH  33  34
HETATM   34  C   UNL     1      -7.731   9.292  64.966  1.00  0.00    -0.109 C  
HETATM   35  C   UNL     1      -6.012  10.231  63.327  1.00  0.00    -0.148 C  
HETATM   36  O   UNL     1      -6.358  11.216  65.474  1.00  0.00    -0.370 OA 
HETATM   37  C   UNL     1      -6.354   9.961  64.790  1.00  0.00    -0.115 C  
HETATM   38  C   UNL     1      -5.269   9.080  65.422  1.00  0.00    -0.037 C  
HETATM   39  H   UNL     1      -5.509  11.628  65.366  1.00  0.00     0.000 HD 
ENDBRANCH  33  34
ENDBRANCH  27  33
ENDBRANCH  21  22
ENDBRANCH   1  21
BRANCH   3  40
HETATM   40  O   UNL     1     -11.948  13.393  70.381  1.00  0.00    -0.331 OA 
HETATM   41  C   UNL     1     -12.813  14.105  71.248  1.00  0.00    -0.359 C  
ENDBRANCH   3  40
TORSDOF 7
ENDMDL
MODEL        7
REMARK 921   NORMALIZED FREE ENERGY PREDICTED BY IDOCK:   -6.62 KCAL/MOL
REMARK 922        TOTAL FREE ENERGY PREDICTED BY IDOCK:  -11.19 KCAL/MOL
REMARK 923 INTER-LIGAND FREE ENERGY PREDICTED BY IDOCK:   -9.80 KCAL/MOL
REMARK 924 INTRA-LIGAND FREE ENERGY PREDICTED BY IDOCK:   -1.39 KCAL/MOL
REMARK 927      BINDING AFFINITY PREDICTED BY RF-SCORE:    0.00 PKD
ROOT
HETATM    1  C   UNL     1      -8.813   9.724  66.658  1.00  0.00    -0.138 C  
HETATM    2  O   UNL     1     -11.903   6.466  71.622  1.00  0.00    -0.310 OA 
HETATM    3  C   UNL     1      -9.012   9.354  65.204  1.00  0.00    -0.212 C  
HETATM    4  C   UNL     1      -8.397   8.358  67.370  1.00  0.00    -0.124 C  
HETATM    5  C   UNL     1     -10.933   6.713  72.652  1.00  0.00    -0.255 C  
HETATM    6  C   UNL     1      -8.370   8.231  64.883  1.00  0.00    -0.145 C  
HETATM    7  C   UNL     1      -7.711   7.547  66.051  1.00  0.00    -0.094 C  
HETATM    8  C   UNL     1      -9.437   7.749  68.488  1.00  0.00    -0.148 A  
HETATM    9  C   UNL     1      -9.162   8.001  69.855  1.00  0.00    -0.152 A  
HETATM   10  O   UNL     1      -9.792   7.476  72.184  1.00  0.00    -0.163 OA 
HETATM   11  C   UNL     1     -10.019   7.500  70.839  1.00  0.00    -0.180 A  
HETATM   12  C   UNL     1      -6.193   7.726  65.945  1.00  0.00    -0.042 C  
HETATM   13  C   UNL     1     -11.209   6.889  70.530  1.00  0.00    -0.307 A  
HETATM   14  C   UNL     1     -11.533   6.570  69.237  1.00  0.00    -0.307 A  
HETATM   15  C   UNL     1      -5.609   6.319  65.891  1.00  0.00    -0.014 C  
HETATM   16  C   UNL     1     -10.534   6.788  68.273  1.00  0.00    -0.243 A  
HETATM   17  C   UNL     1     -10.283   5.456  67.432  1.00  0.00    -0.247 C  
HETATM   18  C   UNL     1      -9.100   5.867  66.643  1.00  0.00    -0.134 C  
HETATM   19  N   UNL     1      -7.961   6.077  65.821  1.00  0.00    -0.108 NA 
HETATM   20  C   UNL     1      -6.747   5.358  66.196  1.00  0.00    -0.057 C  
ENDROOT
BRANCH   1  21
HETATM   21  O   UNL     1      -9.918  10.430  67.210  1.00  0.00    -0.175 OA 
BRANCH  21  22
HETATM   22  C   UNL     1      -9.753  11.787  67.134  1.00  0.00    -0.183 C  
HETATM   23  C   UNL     1     -11.047  13.913  66.883  1.00  0.00    -0.309 C  
HETATM   24  C   UNL     1     -11.057  12.509  67.505  1.00  0.00    -0.267 C  
HETATM   25  O   UNL     1      -8.720  12.350  66.768  1.00  0.00    -0.200 OA 
HETATM   26  H   UNL     1     -12.987  12.226  67.230  1.00  0.00     0.000 HD 
HETATM   27  C   UNL     1     -11.168  12.575  69.047  1.00  0.00    -0.321 C  
HETATM   28  O   UNL     1     -12.181  11.779  67.001  1.00  0.00    -0.425 OA 
BRANCH  23  29
HETATM   29  C   UNL     1     -10.937  13.875  65.365  1.00  0.00    -0.316 C  
HETATM   30  O   UNL     1     -11.549  13.131  64.608  1.00  0.00    -0.320 OA 
BRANCH  29  31
HETATM   31  O   UNL     1     -10.042  14.836  64.979  1.00  0.00    -0.371 OA 
HETATM   32  C   UNL     1      -9.621  15.676  66.051  1.00  0.00    -0.351 C  
ENDBRANCH  29  31
ENDBRANCH  23  29
BRANCH  27  33
HETATM   33  C   UNL     1     -12.404  13.294  69.628  1.00  0.00    -0.154 C  
BRANCH  33  34
HETATM   34  C   UNL     1     -12.180  13.949  71.000  1.00  0.00    -0.421 C  
HETATM   35  C   UNL     1     -11.223  16.137  70.094  1.00  0.00    -0.374 C  
HETATM   36  O   UNL     1     -13.550  15.894  70.570  1.00  0.00    -0.667 OA 
HETATM   37  C   UNL     1     -12.253  15.489  71.015  1.00  0.00    -0.396 C  
HETATM   38  C   UNL     1     -12.063  15.999  72.449  1.00  0.00    -0.629 C  
HETATM   39  H   UNL     1     -13.595  16.843  70.579  1.00  0.00     0.000 HD 
ENDBRANCH  33  34
ENDBRANCH  27  33
ENDBRANCH  21  22
ENDBRANCH   1  21
BRANCH   3  40
HETATM   40  O   UNL     1      -9.762   9.999  64.255  1.00  0.00    -0.296 OA 
HETATM   41  C   UNL     1      -9.142  10.869  63.325  1.00  0.00    -0.247 C  
ENDBRANCH   3  40
TORSDOF 7
ENDMDL
MODEL        8
REMARK 921   NORMALIZED FREE ENERGY PREDICTED BY IDOCK:   -6.58 KCAL/MOL
REMARK 922        TOTAL FREE ENERGY PREDICTED BY IDOCK:  -11.13 KCAL/MOL
REMARK 923 INTER-LIGAND FREE ENERGY PREDICTED BY IDOCK:   -9.36 KCAL/MOL
REMARK 924 INTRA-LIGAND FREE ENERGY PREDICTED BY IDOCK:   -1.77 KCAL/MOL
REMARK 927      BINDING AFFINITY PREDICTED BY RF-SCORE:    0.00 PKD
ROOT
HETATM    1  C   UNL     1     -10.805  12.201  67.957  1.00  0.00    -0.222 C  
HETATM    2  O   UNL     1      -5.148  15.760  68.317  1.00  0.00    -0.090 OA 
HETATM    3  C   UNL     1     -10.827  10.700  68.145  1.00  0.00    -0.245 C  
HETATM    4  C   UNL     1      -9.707  12.453  66.826  1.00  0.00    -0.226 C  
HETATM    5  C   UNL     1      -5.546  16.846  67.464  1.00  0.00    -0.147 C  
HETATM    6  C   UNL     1     -10.341  10.058  67.083  1.00  0.00    -0.300 C  
HETATM    7  C   UNL     1      -9.786  10.966  66.018  1.00  0.00    -0.233 C  
HETATM    8  C   UNL     1      -8.358  13.282  67.265  1.00  0.00    -0.182 A  
HETATM    9  C   UNL     1      -8.305  14.666  66.965  1.00  0.00    -0.214 A  
HETATM   10  O   UNL     1      -6.882  16.684  66.926  1.00  0.00    -0.185 OA 
HETATM   11  C   UNL     1      -7.176  15.411  67.318  1.00  0.00    -0.194 A  
HETATM   12  C   UNL     1     -10.738  10.972  64.818  1.00  0.00    -0.304 C  
HETATM   13  C   UNL     1      -6.162  14.884  68.080  1.00  0.00    -0.153 A  
HETATM   14  C   UNL     1      -6.114  13.547  68.378  1.00  0.00    -0.094 A  
HETATM   15  C   UNL     1      -9.916  10.490  63.629  1.00  0.00    -0.299 C  
HETATM   16  C   UNL     1      -7.082  12.736  67.760  1.00  0.00    -0.132 A  
HETATM   17  C   UNL     1      -6.378  11.522  67.003  1.00  0.00    -0.133 C  
HETATM   18  C   UNL     1      -7.545  10.944  66.299  1.00  0.00    -0.136 C  
HETATM   19  N   UNL     1      -8.536  10.270  65.538  1.00  0.00    -0.157 NA 
HETATM   20  C   UNL     1      -8.468  10.435  64.089  1.00  0.00    -0.163 C  
ENDROOT
BRANCH   1  21
HETATM   21  O   UNL     1     -10.650  12.914  69.178  1.00  0.00    -0.107 OA 
BRANCH  21  22
HETATM   22  C   UNL     1     -11.783  13.603  69.521  1.00  0.00    -0.322 C  
HETATM   23  C   UNL     1     -12.538  15.701  70.654  1.00  0.00    -0.461 C  
HETATM   24  C   UNL     1     -11.460  15.088  69.750  1.00  0.00    -0.295 C  
HETATM   25  O   UNL     1     -12.895  13.096  69.676  1.00  0.00     0.296 OA 
HETATM   26  H   UNL     1      -9.984  16.136  70.526  1.00  0.00     0.000 HD 
HETATM   27  C   UNL     1     -11.400  15.801  68.377  1.00  0.00    -0.372 C  
HETATM   28  O   UNL     1     -10.184  15.218  70.384  1.00  0.00    -0.192 OA 
BRANCH  23  29
HETATM   29  C   UNL     1     -12.618  15.015  72.010  1.00  0.00    -0.333 C  
HETATM   30  O   UNL     1     -13.305  14.042  72.297  1.00  0.00    -0.395 OA 
BRANCH  29  31
HETATM   31  O   UNL     1     -11.768  15.664  72.866  1.00  0.00    -0.449 OA 
HETATM   32  C   UNL     1     -12.306  15.827  74.177  1.00  0.00    -0.638 C  
ENDBRANCH  29  31
ENDBRANCH  23  29
BRANCH  27  33
HETATM   33  C   UNL     1     -11.115  17.318  68.392  1.00  0.00    -0.038 C  
BRANCH  33  34
HETATM   34  C   UNL     1     -10.285  17.826  67.201  1.00  0.00    -0.353 C  
HETATM   35  C   UNL     1     -10.248  20.273  67.932  1.00  0.00    -0.444 C  
HETATM   36  O   UNL     1      -8.498  18.764  68.531  1.00  0.00    -0.329 OA 
HETATM   37  C   UNL     1      -9.422  19.071  67.484  1.00  0.00    -0.303 C  
HETATM   38  C   UNL     1      -8.615  19.433  66.231  1.00  0.00    -0.360 C  
HETATM   39  H   UNL     1      -7.965  19.531  68.705  1.00  0.00     0.000 HD 
ENDBRANCH  33  34
ENDBRANCH  27  33
ENDBRANCH  21  22
ENDBRANCH   1  21
BRANCH   3  40
HETATM   40  O   UNL     1     -11.240   9.983  69.237  1.00  0.00    -0.222 OA 
HETATM   41  C   UNL     1     -10.291   9.369  70.091  1.00  0.00    -0.233 C  
ENDBRANCH   3  40
TORSDOF 7
ENDMDL
MODEL        9
REMARK 921   NORMALIZED FREE ENERGY PREDICTED BY IDOCK:   -6.56 KCAL/MOL
REMARK 922        TOTAL FREE ENERGY PREDICTED BY IDOCK:  -11.10 KCAL/MOL
REMARK 923 INTER-LIGAND FREE ENERGY PREDICTED BY IDOCK:   -9.69 KCAL/MOL
REMARK 924 INTRA-LIGAND FREE ENERGY PREDICTED BY IDOCK:   -1.41 KCAL/MOL
REMARK 927      BINDING AFFINITY PREDICTED BY RF-SCORE:    0.00 PKD
ROOT
HETATM    1  C   UNL     1      -7.990  13.685  67.721  1.00  0.00    -0.172 C  
HETATM    2  O   UNL     1     -12.143  11.943  62.770  1.00  0.00     0.110 OA 
HETATM    3  C   UNL     1      -6.522  13.316  67.710  1.00  0.00    -0.159 C  
HETATM    4  C   UNL     1      -8.757  12.303  67.498  1.00  0.00    -0.177 C  
HETATM    5  C   UNL     1     -13.359  11.915  63.535  1.00  0.00     0.473 C  
HETATM    6  C   UNL     1      -6.331  12.027  67.987  1.00  0.00    -0.058 C  
HETATM    7  C   UNL     1      -7.603  11.233  68.123  1.00  0.00    -0.105 C  
HETATM    8  C   UNL     1      -9.620  12.143  66.108  1.00  0.00    -0.250 A  
HETATM    9  C   UNL     1     -11.018  12.371  66.167  1.00  0.00    -0.321 A  
HETATM   10  O   UNL     1     -13.154  12.226  64.936  1.00  0.00    -0.654 OA 
HETATM   11  C   UNL     1     -11.792  12.243  65.010  1.00  0.00    -0.357 A  
HETATM   12  C   UNL     1      -7.824  10.891  69.600  1.00  0.00     0.107 C  
HETATM   13  C   UNL     1     -11.229  12.045  63.773  1.00  0.00    -0.440 A  
HETATM   14  C   UNL     1      -9.893  11.775  63.631  1.00  0.00    -0.357 A  
HETATM   15  C   UNL     1      -7.878   9.370  69.673  1.00  0.00    -0.105 C  
HETATM   16  C   UNL     1      -9.166  11.590  64.820  1.00  0.00     0.020 A  
HETATM   17  C   UNL     1      -8.381  10.203  64.772  1.00  0.00    -0.167 C  
HETATM   18  C   UNL     1      -7.865  10.149  66.159  1.00  0.00    -0.116 C  
HETATM   19  N   UNL     1      -7.307   9.919  67.444  1.00  0.00    -0.090 NA 
HETATM   20  C   UNL     1      -7.922   8.862  68.241  1.00  0.00    -0.105 C  
ENDROOT
BRANCH   1  21
HETATM   21  O   UNL     1      -8.304  14.750  66.831  1.00  0.00    -0.208 OA 
BRANCH  21  22
HETATM   22  C   UNL     1      -8.709  15.875  67.497  1.00  0.00    -0.178 C  
HETATM   23  C   UNL     1     -10.682  17.388  67.779  1.00  0.00    -0.332 C  
HETATM   24  C   UNL     1     -10.243  15.931  67.576  1.00  0.00    -0.269 C  
HETATM   25  O   UNL     1      -7.954  16.749  67.926  1.00  0.00    -0.171 OA 
HETATM   26  H   UNL     1     -11.761  15.466  66.410  1.00  0.00     0.000 HD 
HETATM   27  C   UNL     1     -10.713  15.030  68.743  1.00  0.00    -0.241 C  
HETATM   28  O   UNL     1     -10.813  15.432  66.361  1.00  0.00    -0.314 OA 
BRANCH  23  29
HETATM   29  C   UNL     1     -10.230  18.294  66.643  1.00  0.00    -0.384 C  
HETATM   30  O   UNL     1     -10.452  18.135  65.449  1.00  0.00    -0.598 OA 
BRANCH  29  31
HETATM   31  O   UNL     1      -9.538  19.344  67.187  1.00  0.00    -0.309 OA 
HETATM   32  C   UNL     1      -9.824  19.551  68.568  1.00  0.00    -0.429 C  
ENDBRANCH  29  31
ENDBRANCH  23  29
BRANCH  27  33
HETATM   33  C   UNL     1     -12.232  14.971  69.010  1.00  0.00    -0.160 C  
BRANCH  33  34
HETATM   34  C   UNL     1     -12.647  14.031  70.153  1.00  0.00    -0.310 C  
HETATM   35  C   UNL     1     -12.191  15.693  72.038  1.00  0.00    -0.521 C  
HETATM   36  O   UNL     1     -14.357  15.482  71.056  1.00  0.00    -0.821 OA 
HETATM   37  C   UNL     1     -13.195  14.729  71.413  1.00  0.00    -0.371 C  
HETATM   38  C   UNL     1     -13.615  13.674  72.445  1.00  0.00    -0.703 C  
HETATM   39  H   UNL     1     -14.695  15.913  71.832  1.00  0.00     0.000 HD 
ENDBRANCH  33  34
ENDBRANCH  27  33
ENDBRANCH  21  22
ENDBRANCH   1  21
BRANCH   3  40
HETATM   40  O   UNL     1      -5.444  14.115  67.432  1.00  0.00    -0.339 OA 
HETATM   41  C   UNL     1      -5.129  15.208  68.275  1.00  0.00    -0.109 C  
ENDBRANCH   3  40
TORSDOF 7
ENDMDL
MODEL       10
REMARK 921   NORMALIZED FREE ENERGY PREDICTED BY IDOCK:   -6.53 KCAL/MOL
REMARK 922        TOTAL FREE ENERGY PREDICTED BY IDOCK:  -11.07 KCAL/MOL
REMARK 923 INTER-LIGAND FREE ENERGY PREDICTED BY IDOCK:   -9.76 KCAL/MOL
REMARK 924 INTRA-LIGAND FREE ENERGY PREDICTED BY IDOCK:   -1.31 KCAL/MOL
REMARK 927      BINDING AFFINITY PREDICTED BY RF-SCORE:    0.00 PKD
ROOT
HETATM    1  C   UNL     1     -12.153  11.490  69.845  1.00  0.00    -0.316 C  
HETATM    2  O   UNL     1      -6.279   8.423  68.896  1.00  0.00    -0.043 OA 
HETATM    3  C   UNL     1     -12.650  11.871  71.223  1.00  0.00    -0.277 C  
HETATM    4  C   UNL     1     -11.806   9.936  69.955  1.00  0.00    -0.131 C  
HETATM    5  C   UNL     1      -6.607   7.749  67.670  1.00  0.00    -0.063 C  
HETATM    6  C   UNL     1     -13.078  10.812  71.908  1.00  0.00    -0.557 C  
HETATM    7  C   UNL     1     -12.858   9.498  71.208  1.00  0.00    -0.333 C  
HETATM    8  C   UNL     1     -10.229   9.507  69.778  1.00  0.00    -0.249 A  
HETATM    9  C   UNL     1      -9.811   9.032  68.510  1.00  0.00    -0.184 A  
HETATM   10  O   UNL     1      -7.968   7.993  67.235  1.00  0.00    -0.117 OA 
HETATM   11  C   UNL     1      -8.480   8.653  68.314  1.00  0.00    -0.131 A  
HETATM   12  C   UNL     1     -14.206   8.961  70.714  1.00  0.00     0.343 C  
HETATM   13  C   UNL     1      -7.514   8.860  69.268  1.00  0.00    -0.075 A  
HETATM   14  C   UNL     1      -7.837   9.276  70.533  1.00  0.00    -0.169 A  
HETATM   15  C   UNL     1     -14.382   7.600  71.377  1.00  0.00    -0.537 C  
HETATM   16  C   UNL     1      -9.209   9.357  70.830  1.00  0.00    -0.242 A  
HETATM   17  C   UNL     1      -9.533   8.525  72.152  1.00  0.00    -0.375 C  
HETATM   18  C   UNL     1     -11.011   8.601  72.150  1.00  0.00    -0.364 C  
HETATM   19  N   UNL     1     -12.423   8.552  72.300  1.00  0.00    -0.379 NA 
HETATM   20  C   UNL     1     -13.060   7.263  72.048  1.00  0.00    -0.139 C  
ENDROOT
BRANCH   1  21
HETATM   21  O   UNL     1     -11.125  12.350  69.366  1.00  0.00    -0.188 OA 
BRANCH  21  22
HETATM   22  C   UNL     1     -11.561  13.159  68.352  1.00  0.00    -0.337 C  
HETATM   23  C   UNL     1     -10.765  14.316  66.281  1.00  0.00    -0.297 C  
HETATM   24  C   UNL     1     -10.628  13.048  67.136  1.00  0.00    -0.246 C  
HETATM   25  O   UNL     1     -12.534  13.911  68.421  1.00  0.00    -0.114 OA 
HETATM   26  H   UNL     1      -8.693  12.851  66.822  1.00  0.00     0.000 HD 
HETATM   27  C   UNL     1     -11.006  11.780  66.333  1.00  0.00    -0.341 C  
HETATM   28  O   UNL     1      -9.270  12.920  67.573  1.00  0.00    -0.177 OA 
BRANCH  23  29
HETATM   29  C   UNL     1     -10.400  15.577  67.050  1.00  0.00    -0.279 C  
HETATM   30  O   UNL     1     -10.078  15.645  68.231  1.00  0.00    -0.215 OA 
BRANCH  29  31
HETATM   31  O   UNL     1     -10.476  16.638  66.188  1.00  0.00    -0.319 OA 
HETATM   32  C   UNL     1     -10.175  17.888  66.806  1.00  0.00    -0.360 C  
ENDBRANCH  29  31
ENDBRANCH  23  29
BRANCH  27  33
HETATM   33  C   UNL     1     -10.197  11.502  65.048  1.00  0.00    -0.328 C  
BRANCH  33  34
HETATM   34  C   UNL     1      -9.705  10.054  64.900  1.00  0.00    -0.377 C  
HETATM   35  C   UNL     1      -9.246  10.187  62.391  1.00  0.00    -0.320 C  
HETATM   36  O   UNL     1      -7.535  10.623  63.998  1.00  0.00    -0.346 OA 
HETATM   37  C   UNL     1      -8.692   9.815  63.763  1.00  0.00    -0.224 C  
HETATM   38  C   UNL     1      -8.251   8.346  63.766  1.00  0.00    -0.106 C  
HETATM   39  H   UNL     1      -6.910  10.476  63.297  1.00  0.00     0.000 HD 
ENDBRANCH  33  34
ENDBRANCH  27  33
ENDBRANCH  21  22
ENDBRANCH   1  21
BRANCH   3  40
HETATM   40  O   UNL     1     -12.674  13.110  71.809  1.00  0.00    -0.262 OA 
HETATM   41  C   UNL     1     -13.902  13.680  72.225  1.00  0.00    -0.590 C  
ENDBRANCH   3  40
TORSDOF 7
ENDMDL
MODEL       11
REMARK 921   NORMALIZED FREE ENERGY PREDICTED BY IDOCK:   -6.43 KCAL/MOL
REMARK 922        TOTAL FREE ENERGY PREDICTED BY IDOCK:  -10.92 KCAL/MOL
REMARK 923 INTER-LIGAND FREE ENERGY PREDICTED BY IDOCK:   -9.48 KCAL/MOL
REMARK 924 INTRA-LIGAND FREE ENERGY PREDICTED BY IDOCK:   -1.44 KCAL/MOL
REMARK 927      BINDING AFFINITY PREDICTED BY RF-SCORE:    0.00 PKD
ROOT
HETATM    1  C   UNL     1     -12.388  11.261  70.086  1.00  0.00    -0.276 C  
HETATM    2  O   UNL     1      -6.448   8.429  68.863  1.00  0.00    -0.047 OA 
HETATM    3  C   UNL     1     -12.838  11.618  71.486  1.00  0.00    -0.364 C  
HETATM    4  C   UNL     1     -11.976   9.721  70.173  1.00  0.00    -0.085 C  
HETATM    5  C   UNL     1      -6.802   7.746  67.649  1.00  0.00    -0.069 C  
HETATM    6  C   UNL     1     -13.194  10.540  72.185  1.00  0.00    -0.398 C  
HETATM    7  C   UNL     1     -12.954   9.238  71.469  1.00  0.00    -0.359 C  
HETATM    8  C   UNL     1     -10.393   9.355  69.923  1.00  0.00    -0.252 A  
HETATM    9  C   UNL     1     -10.014   8.900  68.636  1.00  0.00    -0.192 A  
HETATM   10  O   UNL     1      -8.190   7.938  67.276  1.00  0.00    -0.119 OA 
HETATM   11  C   UNL     1      -8.679   8.575  68.380  1.00  0.00    -0.143 A  
HETATM   12  C   UNL     1     -14.300   8.650  71.033  1.00  0.00    -0.026 C  
HETATM   13  C   UNL     1      -7.680   8.816  69.291  1.00  0.00    -0.095 A  
HETATM   14  C   UNL     1      -7.963   9.216  70.571  1.00  0.00    -0.170 A  
HETATM   15  C   UNL     1     -14.393   7.281  71.696  1.00  0.00    -0.583 C  
HETATM   16  C   UNL     1      -9.322   9.241  70.929  1.00  0.00    -0.313 A  
HETATM   17  C   UNL     1      -9.554   8.394  72.260  1.00  0.00    -0.374 C  
HETATM   18  C   UNL     1     -11.034   8.411  72.323  1.00  0.00    -0.361 C  
HETATM   19  N   UNL     1     -12.434   8.307  72.536  1.00  0.00    -0.301 NA 
HETATM   20  C   UNL     1     -13.031   6.995  72.306  1.00  0.00     0.112 C  
ENDROOT
BRANCH   1  21
HETATM   21  O   UNL     1     -11.417  12.162  69.566  1.00  0.00    -0.279 OA 
BRANCH  21  22
HETATM   22  C   UNL     1     -11.343  12.108  68.200  1.00  0.00    -0.293 C  
HETATM   23  C   UNL     1     -10.397  13.332  66.234  1.00  0.00    -0.290 C  
HETATM   24  C   UNL     1     -10.146  12.928  67.694  1.00  0.00    -0.221 C  
HETATM   25  O   UNL     1     -12.152  11.529  67.474  1.00  0.00    -0.614 OA 
HETATM   26  H   UNL     1      -9.250  14.614  68.176  1.00  0.00     0.000 HD 
HETATM   27  C   UNL     1      -8.864  12.072  67.831  1.00  0.00    -0.174 C  
HETATM   28  O   UNL     1      -9.990  14.107  68.489  1.00  0.00    -0.229 OA 
BRANCH  23  29
HETATM   29  C   UNL     1     -11.654  14.174  66.073  1.00  0.00    -0.361 C  
HETATM   30  O   UNL     1     -12.773  13.768  65.779  1.00  0.00    -0.490 OA 
BRANCH  29  31
HETATM   31  O   UNL     1     -11.329  15.479  66.333  1.00  0.00    -0.177 OA 
HETATM   32  C   UNL     1     -10.945  16.205  65.167  1.00  0.00    -0.316 C  
ENDBRANCH  29  31
ENDBRANCH  23  29
BRANCH  27  33
HETATM   33  C   UNL     1      -7.544  12.709  67.345  1.00  0.00    -0.150 C  
BRANCH  33  34
HETATM   34  C   UNL     1      -6.452  12.823  68.421  1.00  0.00    -0.080 C  
HETATM   35  C   UNL     1      -6.106  15.342  68.180  1.00  0.00    -0.139 C  
HETATM   36  O   UNL     1      -7.621  14.437  69.788  1.00  0.00    -0.378 OA 
HETATM   37  C   UNL     1      -6.373  14.184  69.138  1.00  0.00    -0.106 C  
HETATM   38  C   UNL     1      -5.281  14.137  70.214  1.00  0.00    -0.098 C  
HETATM   39  H   UNL     1      -7.573  15.277  70.231  1.00  0.00     0.000 HD 
ENDBRANCH  33  34
ENDBRANCH  27  33
ENDBRANCH  21  22
ENDBRANCH   1  21
BRANCH   3  40
HETATM   40  O   UNL     1     -12.884  12.853  72.078  1.00  0.00    -0.261 OA 
HETATM   41  C   UNL     1     -14.097  13.584  72.114  1.00  0.00    -0.413 C  
ENDBRANCH   3  40
TORSDOF 7
ENDMDL
MODEL       12
REMARK 921   NORMALIZED FREE ENERGY PREDICTED BY IDOCK:   -6.31 KCAL/MOL
REMARK 922        TOTAL FREE ENERGY PREDICTED BY IDOCK:  -10.76 KCAL/MOL
REMARK 923 INTER-LIGAND FREE ENERGY PREDICTED BY IDOCK:   -8.87 KCAL/MOL
REMARK 924 INTRA-LIGAND FREE ENERGY PREDICTED BY IDOCK:   -1.89 KCAL/MOL
REMARK 927      BINDING AFFINITY PREDICTED BY RF-SCORE:    0.00 PKD
ROOT
HETATM    1  C   UNL     1     -11.103  14.155  69.078  1.00  0.00    -0.263 C  
HETATM    2  O   UNL     1     -11.106  11.306  63.021  1.00  0.00    -0.071 OA 
HETATM    3  C   UNL     1     -11.831  15.451  69.360  1.00  0.00    -0.351 C  
HETATM    4  C   UNL     1     -10.174  14.476  67.820  1.00  0.00    -0.226 C  
HETATM    5  C   UNL     1      -9.853  10.611  63.131  1.00  0.00    -0.302 C  
HETATM    6  C   UNL     1     -11.190  16.503  68.851  1.00  0.00    -0.257 C  
HETATM    7  C   UNL     1      -9.980  16.146  68.030  1.00  0.00    -0.238 C  
HETATM    8  C   UNL     1     -10.504  13.676  66.423  1.00  0.00    -0.288 A  
HETATM    9  C   UNL     1      -9.723  12.533  66.115  1.00  0.00    -0.259 A  
HETATM   10  O   UNL     1      -9.187  10.842  64.398  1.00  0.00    -0.205 OA 
HETATM   11  C   UNL     1      -9.967  11.823  64.936  1.00  0.00    -0.247 A  
HETATM   12  C   UNL     1      -8.716  16.521  68.810  1.00  0.00    -0.259 C  
HETATM   13  C   UNL     1     -11.037  12.103  64.123  1.00  0.00    -0.364 A  
HETATM   14  C   UNL     1     -11.817  13.212  64.324  1.00  0.00    -0.462 A  
HETATM   15  C   UNL     1      -7.959  17.509  67.931  1.00  0.00    -0.227 C  
HETATM   16  C   UNL     1     -11.385  14.103  65.322  1.00  0.00    -0.328 A  
HETATM   17  C   UNL     1     -11.274  15.579  64.728  1.00  0.00    -0.399 C  
HETATM   18  C   UNL     1     -10.642  16.272  65.874  1.00  0.00    -0.297 C  
HETATM   19  N   UNL     1     -10.024  17.092  66.855  1.00  0.00    -0.278 NA 
HETATM   20  C   UNL     1      -8.656  17.518  66.580  1.00  0.00    -0.263 C  
ENDROOT
BRANCH   1  21
HETATM   21  O   UNL     1     -11.977  13.037  68.968  1.00  0.00    -0.303 OA 
BRANCH  21  22
HETATM   22  C   UNL     1     -11.836  12.167  70.015  1.00  0.00    -0.306 C  
HETATM   23  C   UNL     1     -11.840   9.724  70.553  1.00  0.00    -0.316 C  
HETATM   24  C   UNL     1     -11.440  10.772  69.505  1.00  0.00    -0.294 C  
HETATM   25  O   UNL     1     -12.047  12.447  71.196  1.00  0.00    -0.133 OA 
HETATM   26  H   UNL     1     -11.872   9.629  67.961  1.00  0.00     0.000 HD 
HETATM   27  C   UNL     1      -9.915  10.754  69.240  1.00  0.00    -0.182 C  
HETATM   28  O   UNL     1     -12.117  10.491  68.276  1.00  0.00    -0.319 OA 
BRANCH  23  29
HETATM   29  C   UNL     1     -13.336   9.724  70.833  1.00  0.00    -0.166 C  
HETATM   30  O   UNL     1     -14.224  10.045  70.052  1.00  0.00     0.988 OA 
BRANCH  29  31
HETATM   31  O   UNL     1     -13.530   9.281  72.114  1.00  0.00    -0.411 OA 
HETATM   32  C   UNL     1     -12.536   8.354  72.545  1.00  0.00    -0.277 C  
ENDBRANCH  29  31
ENDBRANCH  23  29
BRANCH  27  33
HETATM   33  C   UNL     1      -9.309   9.423  68.746  1.00  0.00    -0.146 C  
BRANCH  33  34
HETATM   34  C   UNL     1      -8.268   9.569  67.625  1.00  0.00    -0.121 C  
HETATM   35  C   UNL     1      -7.907   7.065  67.274  1.00  0.00    -0.110 C  
HETATM   36  O   UNL     1      -9.496   8.291  65.981  1.00  0.00    -0.343 OA 
HETATM   37  C   UNL     1      -8.220   8.406  66.615  1.00  0.00    -0.105 C  
HETATM   38  C   UNL     1      -7.178   8.708  65.531  1.00  0.00    -0.084 C  
HETATM   39  H   UNL     1      -9.467   7.575  65.358  1.00  0.00     0.000 HD 
ENDBRANCH  33  34
ENDBRANCH  27  33
ENDBRANCH  21  22
ENDBRANCH   1  21
BRANCH   3  40
HETATM   40  O   UNL     1     -13.020  15.637  70.015  1.00  0.00    -0.167 OA 
HETATM   41  C   UNL     1     -13.066  15.620  71.431  1.00  0.00    -0.487 C  
ENDBRANCH   3  40
TORSDOF 7
ENDMDL
MODEL       13
REMARK 921   NORMALIZED FREE ENERGY PREDICTED BY IDOCK:   -6.28 KCAL/MOL
REMARK 922        TOTAL FREE ENERGY PREDICTED BY IDOCK:  -10.71 KCAL/MOL
REMARK 923 INTER-LIGAND FREE ENERGY PREDICTED BY IDOCK:   -8.61 KCAL/MOL
REMARK 924 INTRA-LIGAND FREE ENERGY PREDICTED BY IDOCK:   -2.10 KCAL/MOL
REMARK 927      BINDING AFFINITY PREDICTED BY RF-SCORE:    0.00 PKD
ROOT
HETATM    1  C   UNL     1     -11.099  12.263  69.643  1.00  0.00     0.047 C  
HETATM    2  O   UNL     1     -10.213  10.381  63.281  1.00  0.00    -0.088 OA 
HETATM    3  C   UNL     1     -12.262  13.131  70.073  1.00  0.00    -0.253 C  
HETATM    4  C   UNL     1     -10.413  13.068  68.447  1.00  0.00    -0.261 C  
HETATM    5  C   UNL     1      -8.786  10.219  63.322  1.00  0.00    -0.207 C  
HETATM    6  C   UNL     1     -12.097  14.402  69.707  1.00  0.00    -0.386 C  
HETATM    7  C   UNL     1     -10.873  14.644  68.864  1.00  0.00    -0.250 C  
HETATM    8  C   UNL     1     -10.455  12.375  66.958  1.00  0.00    -0.238 A  
HETATM    9  C   UNL     1      -9.305  11.671  66.522  1.00  0.00    -0.216 A  
HETATM   10  O   UNL     1      -8.216  10.539  64.616  1.00  0.00    -0.158 OA 
HETATM   11  C   UNL     1      -9.296  11.068  65.261  1.00  0.00    -0.216 A  
HETATM   12  C   UNL     1      -9.826  15.385  69.702  1.00  0.00    -0.263 C  
HETATM   13  C   UNL     1     -10.419  11.004  64.473  1.00  0.00    -0.342 A  
HETATM   14  C   UNL     1     -11.560  11.690  64.800  1.00  0.00    -0.170 A  
HETATM   15  C   UNL     1      -9.543  16.687  68.962  1.00  0.00    -0.246 C  
HETATM   16  C   UNL     1     -11.472  12.553  65.906  1.00  0.00    -0.417 A  
HETATM   17  C   UNL     1     -11.963  14.016  65.501  1.00  0.00    -0.393 C  
HETATM   18  C   UNL     1     -11.608  14.758  66.731  1.00  0.00    -0.324 C  
HETATM   19  N   UNL     1     -11.322  15.631  67.815  1.00  0.00    -0.303 NA 
HETATM   20  C   UNL     1     -10.237  16.585  67.613  1.00  0.00    -0.279 C  
ENDROOT
BRANCH   1  21
HETATM   21  O   UNL     1     -11.475  10.916  69.384  1.00  0.00    -0.251 OA 
BRANCH  21  22
HETATM   22  C   UNL     1     -11.084  10.070  70.386  1.00  0.00    -0.327 C  
HETATM   23  C   UNL     1     -10.118   7.794  70.771  1.00  0.00    -0.195 C  
HETATM   24  C   UNL     1     -10.094   9.023  69.851  1.00  0.00    -0.201 C  
HETATM   25  O   UNL     1     -11.505  10.107  71.543  1.00  0.00    -0.283 OA 
HETATM   26  H   UNL     1      -9.859   7.980  68.197  1.00  0.00     0.000 HD 
HETATM   27  C   UNL     1      -8.684   9.657  69.790  1.00  0.00    -0.221 C  
HETATM   28  O   UNL     1     -10.470   8.627  68.528  1.00  0.00    -0.209 OA 
BRANCH  23  29
HETATM   29  C   UNL     1     -11.496   7.153  70.849  1.00  0.00    -0.297 C  
HETATM   30  O   UNL     1     -12.114   6.637  69.925  1.00  0.00    -0.227 OA 
BRANCH  29  31
HETATM   31  O   UNL     1     -11.931   7.233  72.145  1.00  0.00    -0.291 OA 
HETATM   32  C   UNL     1     -10.876   7.126  73.099  1.00  0.00    -0.335 C  
ENDBRANCH  29  31
ENDBRANCH  23  29
BRANCH  27  33
HETATM   33  C   UNL     1      -7.533   8.752  69.302  1.00  0.00    -0.078 C  
BRANCH  33  34
HETATM   34  C   UNL     1      -7.360   8.701  67.775  1.00  0.00    -0.092 C  
HETATM   35  C   UNL     1      -6.404   6.334  67.698  1.00  0.00    -0.033 C  
HETATM   36  O   UNL     1      -8.741   6.746  67.437  1.00  0.00    -0.119 OA 
HETATM   37  C   UNL     1      -7.453   7.296  67.149  1.00  0.00    -0.105 C  
HETATM   38  C   UNL     1      -7.314   7.402  65.625  1.00  0.00    -0.074 C  
HETATM   39  H   UNL     1      -8.799   5.880  67.050  1.00  0.00     0.000 HD 
ENDBRANCH  33  34
ENDBRANCH  27  33
ENDBRANCH  21  22
ENDBRANCH   1  21
BRANCH   3  40
HETATM   40  O   UNL     1     -13.406  12.760  70.730  1.00  0.00     0.236 OA 
HETATM   41  C   UNL     1     -13.587  13.094  72.094  1.00  0.00    -0.544 C  
ENDBRANCH   3  40
TORSDOF 7
ENDMDL
MODEL       14
REMARK 921   NORMALIZED FREE ENERGY PREDICTED BY IDOCK:   -6.20 KCAL/MOL
REMARK 922        TOTAL FREE ENERGY PREDICTED BY IDOCK:  -10.61 KCAL/MOL
REMARK 923 INTER-LIGAND FREE ENERGY PREDICTED BY IDOCK:   -9.82 KCAL/MOL
REMARK 924 INTRA-LIGAND FREE ENERGY PREDICTED BY IDOCK:   -0.79 KCAL/MOL
REMARK 927      BINDING AFFINITY PREDICTED BY RF-SCORE:    0.00 PKD
ROOT
HETATM    1  C   UNL     1     -10.280  12.210  67.745  1.00  0.00    -0.201 C  
HETATM    2  O   UNL     1     -12.749  15.770  72.847  1.00  0.00    -0.387 OA 
HETATM    3  C   UNL     1      -8.923  12.500  67.141  1.00  0.00    -0.200 C  
HETATM    4  C   UNL     1     -11.047  13.610  67.710  1.00  0.00    -0.293 C  
HETATM    5  C   UNL     1     -14.145  15.571  72.567  1.00  0.00    -0.506 C  
HETATM    6  C   UNL     1      -8.939  13.597  66.384  1.00  0.00     0.009 C  
HETATM    7  C   UNL     1     -10.248  14.339  66.406  1.00  0.00    -0.291 C  
HETATM    8  C   UNL     1     -11.427  14.290  69.157  1.00  0.00    -0.330 A  
HETATM    9  C   UNL     1     -12.745  14.112  69.646  1.00  0.00     0.090 A  
HETATM   10  O   UNL     1     -14.376  14.772  71.380  1.00  0.00    -0.451 OA 
HETATM   11  C   UNL     1     -13.114  14.676  70.871  1.00  0.00    -0.358 A  
HETATM   12  C   UNL     1     -10.960  14.140  65.065  1.00  0.00    -0.391 C  
HETATM   13  C   UNL     1     -12.202  15.281  71.701  1.00  0.00    -0.365 A  
HETATM   14  C   UNL     1     -10.918  15.530  71.290  1.00  0.00    -0.229 A  
HETATM   15  C   UNL     1     -11.161  15.535  64.486  1.00  0.00    -0.290 C  
HETATM   16  C   UNL     1     -10.630  15.249  69.943  1.00  0.00    -0.291 A  
HETATM   17  C   UNL     1      -9.989  16.529  69.241  1.00  0.00    -0.244 C  
HETATM   18  C   UNL     1      -9.954  16.063  67.836  1.00  0.00    -0.233 C  
HETATM   19  N   UNL     1      -9.860  15.797  66.444  1.00  0.00    -0.258 NA 
HETATM   20  C   UNL     1     -10.784  16.523  65.579  1.00  0.00    -0.256 C  
ENDROOT
BRANCH   1  21
HETATM   21  O   UNL     1     -10.201  11.547  69.001  1.00  0.00    -0.181 OA 
BRANCH  21  22
HETATM   22  C   UNL     1     -10.936  10.392  69.021  1.00  0.00    -0.238 C  
HETATM   23  C   UNL     1     -10.700   7.917  69.303  1.00  0.00    -0.145 C  
HETATM   24  C   UNL     1     -10.176   9.284  69.767  1.00  0.00    -0.211 C  
HETATM   25  O   UNL     1     -12.029  10.244  68.473  1.00  0.00    -0.163 OA 
HETATM   26  H   UNL     1      -8.307   8.689  69.943  1.00  0.00     0.000 HD 
HETATM   27  C   UNL     1     -10.379   9.480  71.289  1.00  0.00    -0.287 C  
HETATM   28  O   UNL     1      -8.777   9.374  69.482  1.00  0.00    -0.139 OA 
BRANCH  23  29
HETATM   29  C   UNL     1     -10.513   7.702  67.808  1.00  0.00    -0.216 C  
HETATM   30  O   UNL     1      -9.791   8.353  67.061  1.00  0.00    -0.186 OA 
BRANCH  29  31
HETATM   31  O   UNL     1     -11.281   6.632  67.433  1.00  0.00    -0.344 OA 
HETATM   32  C   UNL     1     -10.540   5.613  66.766  1.00  0.00    -0.304 C  
ENDBRANCH  29  31
ENDBRANCH  23  29
BRANCH  27  33
HETATM   33  C   UNL     1      -9.714   8.444  72.220  1.00  0.00    -0.386 C  
BRANCH  33  34
HETATM   34  C   UNL     1     -10.685   7.432  72.850  1.00  0.00    -0.387 C  
HETATM   35  C   UNL     1      -9.920   5.432  71.458  1.00  0.00    -0.237 C  
HETATM   36  O   UNL     1      -8.980   5.893  73.603  1.00  0.00    -0.128 OA 
HETATM   37  C   UNL     1     -10.198   5.970  72.858  1.00  0.00    -0.188 C  
HETATM   38  C   UNL     1     -11.237   5.085  73.558  1.00  0.00    -0.341 C  
HETATM   39  H   UNL     1      -8.679   4.991  73.609  1.00  0.00     0.000 HD 
ENDBRANCH  33  34
ENDBRANCH  27  33
ENDBRANCH  21  22
ENDBRANCH   1  21
BRANCH   3  40
HETATM   40  O   UNL     1      -7.750  11.811  67.308  1.00  0.00    -0.141 OA 
HETATM   41  C   UNL     1      -7.549  10.572  66.652  1.00  0.00    -0.120 C  
ENDBRANCH   3  40
TORSDOF 7
ENDMDL
MODEL       15
REMARK 921   NORMALIZED FREE ENERGY PREDICTED BY IDOCK:   -6.18 KCAL/MOL
REMARK 922        TOTAL FREE ENERGY PREDICTED BY IDOCK:  -10.57 KCAL/MOL
REMARK 923 INTER-LIGAND FREE ENERGY PREDICTED BY IDOCK:   -9.30 KCAL/MOL
REMARK 924 INTRA-LIGAND FREE ENERGY PREDICTED BY IDOCK:   -1.27 KCAL/MOL
REMARK 927      BINDING AFFINITY PREDICTED BY RF-SCORE:    0.00 PKD
ROOT
HETATM    1  C   UNL     1      -8.561  11.975  68.946  1.00  0.00     0.198 C  
HETATM    2  O   UNL     1     -11.550  11.818  62.959  1.00  0.00    -0.182 OA 
HETATM    3  C   UNL     1      -7.379  11.091  69.280  1.00  0.00    -0.113 C  
HETATM    4  C   UNL     1      -9.680  10.970  68.412  1.00  0.00    -0.181 C  
HETATM    5  C   UNL     1     -12.854  12.250  63.380  1.00  0.00    -0.222 C  
HETATM    6  C   UNL     1      -7.744   9.826  69.482  1.00  0.00    -0.120 C  
HETATM    7  C   UNL     1      -9.201   9.558  69.217  1.00  0.00    -0.169 C  
HETATM    8  C   UNL     1     -10.131  11.120  66.839  1.00  0.00    -0.250 A  
HETATM    9  C   UNL     1     -11.314  11.847  66.556  1.00  0.00    -0.403 A  
HETATM   10  O   UNL     1     -12.941  12.482  64.809  1.00  0.00    -0.827 OA 
HETATM   11  C   UNL     1     -11.737  11.997  65.232  1.00  0.00    -0.252 A  
HETATM   12  C   UNL     1      -9.922   9.341  70.551  1.00  0.00    -0.307 C  
HETATM   13  C   UNL     1     -10.970  11.589  64.169  1.00  0.00    -0.366 A  
HETATM   14  C   UNL     1      -9.834  10.845  64.353  1.00  0.00    -0.365 A  
HETATM   15  C   UNL     1     -10.535   7.947  70.474  1.00  0.00    -0.214 C  
HETATM   16  C   UNL     1      -9.573  10.421  65.667  1.00  0.00    -0.281 A  
HETATM   17  C   UNL     1      -9.355   8.842  65.701  1.00  0.00    -0.219 C  
HETATM   18  C   UNL     1      -9.290   8.620  67.164  1.00  0.00    -0.151 C  
HETATM   19  N   UNL     1      -9.223   8.218  68.524  1.00  0.00    -0.136 NA 
HETATM   20  C   UNL     1     -10.366   7.472  69.039  1.00  0.00    -0.212 C  
ENDROOT
BRANCH   1  21
HETATM   21  O   UNL     1      -8.218  13.069  68.103  1.00  0.00    -0.142 OA 
BRANCH  21  22
HETATM   22  C   UNL     1      -8.195  14.256  68.783  1.00  0.00    -0.102 C  
HETATM   23  C   UNL     1      -9.269  16.516  68.829  1.00  0.00    -0.252 C  
HETATM   24  C   UNL     1      -9.512  15.021  68.575  1.00  0.00    -0.203 C  
HETATM   25  O   UNL     1      -7.234  14.679  69.428  1.00  0.00    -0.148 OA 
HETATM   26  H   UNL     1     -10.789  15.313  67.105  1.00  0.00     0.000 HD 
HETATM   27  C   UNL     1     -10.576  14.449  69.542  1.00  0.00    -0.083 C  
HETATM   28  O   UNL     1      -9.976  14.840  67.233  1.00  0.00    -0.229 OA 
BRANCH  23  29
HETATM   29  C   UNL     1      -8.224  17.101  67.890  1.00  0.00    -0.202 C  
HETATM   30  O   UNL     1      -7.949  16.703  66.763  1.00  0.00    -0.194 OA 
BRANCH  29  31
HETATM   31  O   UNL     1      -7.644  18.173  68.514  1.00  0.00    -0.273 OA 
HETATM   32  C   UNL     1      -7.928  19.416  67.877  1.00  0.00    -0.300 C  
ENDBRANCH  29  31
ENDBRANCH  23  29
BRANCH  27  33
HETATM   33  C   UNL     1     -11.973  15.107  69.510  1.00  0.00    -0.351 C  
BRANCH  33  34
HETATM   34  C   UNL     1     -12.342  15.891  70.780  1.00  0.00    -0.342 C  
HETATM   35  C   UNL     1     -14.384  14.478  71.376  1.00  0.00    -0.409 C  
HETATM   36  O   UNL     1     -12.227  13.997  72.279  1.00  0.00    -0.066 OA 
HETATM   37  C   UNL     1     -13.070  15.077  71.868  1.00  0.00    -0.349 C  
HETATM   38  C   UNL     1     -13.329  15.967  73.090  1.00  0.00    -0.681 C  
HETATM   39  H   UNL     1     -12.675  13.495  72.949  1.00  0.00     0.000 HD 
ENDBRANCH  33  34
ENDBRANCH  27  33
ENDBRANCH  21  22
ENDBRANCH   1  21
BRANCH   3  40
HETATM   40  O   UNL     1      -6.054  11.433  69.361  1.00  0.00    -0.061 OA 
HETATM   41  C   UNL     1      -5.430  11.584  70.623  1.00  0.00    -0.142 C  
ENDBRANCH   3  40
TORSDOF 7
ENDMDL
MODEL       16
REMARK 921   NORMALIZED FREE ENERGY PREDICTED BY IDOCK:   -6.17 KCAL/MOL
REMARK 922        TOTAL FREE ENERGY PREDICTED BY IDOCK:  -10.57 KCAL/MOL
REMARK 923 INTER-LIGAND FREE ENERGY PREDICTED BY IDOCK:   -8.76 KCAL/MOL
REMARK 924 INTRA-LIGAND FREE ENERGY PREDICTED BY IDOCK:   -1.81 KCAL/MOL
REMARK 927      BINDING AFFINITY PREDICTED BY RF-SCORE:    0.00 PKD
ROOT
HETATM    1  C   UNL     1      -9.054   7.303  68.235  1.00  0.00    -0.134 C  
HETATM    2  O   UNL     1     -10.168  13.579  66.193  1.00  0.00    -0.288 OA 
HETATM    3  C   UNL     1      -7.658   6.729  68.351  1.00  0.00    -0.104 C  
HETATM    4  C   UNL     1      -9.136   7.872  66.746  1.00  0.00    -0.189 C  
HETATM    5  C   UNL     1     -11.484  13.378  65.651  1.00  0.00    -0.316 C  
HETATM    6  C   UNL     1      -7.135   6.447  67.158  1.00  0.00    -0.073 C  
HETATM    7  C   UNL     1      -7.993   6.870  65.996  1.00  0.00    -0.109 C  
HETATM    8  C   UNL     1      -9.306   9.497  66.574  1.00  0.00    -0.220 A  
HETATM    9  C   UNL     1     -10.609  10.005  66.339  1.00  0.00    -0.138 A  
HETATM   10  O   UNL     1     -11.936  12.004  65.756  1.00  0.00    -0.514 OA 
HETATM   11  C   UNL     1     -10.800  11.381  66.184  1.00  0.00    -0.255 A  
HETATM   12  C   UNL     1      -8.605   5.626  65.345  1.00  0.00    -0.150 C  
HETATM   13  C   UNL     1      -9.791  12.287  66.395  1.00  0.00    -0.230 A  
HETATM   14  C   UNL     1      -8.496  11.882  66.586  1.00  0.00    -0.143 A  
HETATM   15  C   UNL     1      -8.135   5.638  63.896  1.00  0.00    -0.122 C  
HETATM   16  C   UNL     1      -8.244  10.508  66.429  1.00  0.00    -0.140 A  
HETATM   17  C   UNL     1      -7.056  10.283  65.388  1.00  0.00    -0.139 C  
HETATM   18  C   UNL     1      -7.107   8.810  65.252  1.00  0.00    -0.083 C  
HETATM   19  N   UNL     1      -7.019   7.418  64.983  1.00  0.00    -0.050 NA 
HETATM   20  C   UNL     1      -7.463   6.981  63.663  1.00  0.00    -0.096 C  
ENDROOT
BRANCH   1  21
HETATM   21  O   UNL     1      -9.375   8.203  69.289  1.00  0.00    -0.151 OA 
BRANCH  21  22
HETATM   22  C   UNL     1     -10.695   8.129  69.646  1.00  0.00    -0.195 C  
HETATM   23  C   UNL     1     -12.322   8.983  71.344  1.00  0.00    -0.380 C  
HETATM   24  C   UNL     1     -11.090   9.342  70.502  1.00  0.00    -0.273 C  
HETATM   25  O   UNL     1     -11.448   7.195  69.366  1.00  0.00    -0.041 OA 
HETATM   26  H   UNL     1     -10.255  10.447  71.903  1.00  0.00     0.000 HD 
HETATM   27  C   UNL     1     -11.375  10.540  69.564  1.00  0.00    -0.341 C  
HETATM   28  O   UNL     1     -10.011   9.697  71.374  1.00  0.00    -0.130 OA 
BRANCH  23  29
HETATM   29  C   UNL     1     -12.066   7.805  72.274  1.00  0.00    -0.287 C  
HETATM   30  O   UNL     1     -11.182   7.721  73.119  1.00  0.00    -0.402 OA 
BRANCH  29  31
HETATM   31  O   UNL     1     -13.012   6.849  72.020  1.00  0.00    -0.264 OA 
HETATM   32  C   UNL     1     -14.238   7.386  71.528  1.00  0.00    -0.427 C  
ENDBRANCH  29  31
ENDBRANCH  23  29
BRANCH  27  33
HETATM   33  C   UNL     1     -11.820  11.859  70.233  1.00  0.00    -0.368 C  
BRANCH  33  34
HETATM   34  C   UNL     1     -11.961  13.050  69.272  1.00  0.00    -0.331 C  
HETATM   35  C   UNL     1     -13.053  14.623  70.961  1.00  0.00    -0.427 C  
HETATM   36  O   UNL     1     -10.691  14.604  70.618  1.00  0.00    -0.481 OA 
HETATM   37  C   UNL     1     -11.937  14.440  69.937  1.00  0.00    -0.335 C  
HETATM   38  C   UNL     1     -12.035  15.528  68.860  1.00  0.00    -0.306 C  
HETATM   39  H   UNL     1     -10.675  15.461  71.028  1.00  0.00     0.000 HD 
ENDBRANCH  33  34
ENDBRANCH  27  33
ENDBRANCH  21  22
ENDBRANCH   1  21
BRANCH   3  40
HETATM   40  O   UNL     1      -6.916   6.513  69.483  1.00  0.00    -0.062 OA 
HETATM   41  C   UNL     1      -7.278   5.486  70.389  1.00  0.00    -0.067 C  
ENDBRANCH   3  40
TORSDOF 7
ENDMDL
MODEL       17
REMARK 921   NORMALIZED FREE ENERGY PREDICTED BY IDOCK:   -6.08 KCAL/MOL
REMARK 922        TOTAL FREE ENERGY PREDICTED BY IDOCK:  -10.44 KCAL/MOL
REMARK 923 INTER-LIGAND FREE ENERGY PREDICTED BY IDOCK:   -8.27 KCAL/MOL
REMARK 924 INTRA-LIGAND FREE ENERGY PREDICTED BY IDOCK:   -2.16 KCAL/MOL
REMARK 927      BINDING AFFINITY PREDICTED BY RF-SCORE:    0.00 PKD
ROOT
HETATM    1  C   UNL     1     -10.423  11.309  69.060  1.00  0.00    -0.194 C  
HETATM    2  O   UNL     1      -8.641   9.485  62.872  1.00  0.00    -0.185 OA 
HETATM    3  C   UNL     1     -11.776  11.916  69.364  1.00  0.00    -0.339 C  
HETATM    4  C   UNL     1      -9.830  12.209  67.883  1.00  0.00    -0.199 C  
HETATM    5  C   UNL     1      -7.220   9.637  63.025  1.00  0.00    -0.110 C  
HETATM    6  C   UNL     1     -11.857  13.182  68.954  1.00  0.00    -0.361 C  
HETATM    7  C   UNL     1     -10.649  13.659  68.194  1.00  0.00    -0.247 C  
HETATM    8  C   UNL     1      -9.602  11.481  66.427  1.00  0.00    -0.230 A  
HETATM    9  C   UNL     1      -8.296  11.032  66.109  1.00  0.00    -0.163 A  
HETATM   10  O   UNL     1      -6.839  10.109  64.341  1.00  0.00    -0.127 OA 
HETATM   11  C   UNL     1      -8.056  10.410  64.881  1.00  0.00    -0.130 A  
HETATM   12  C   UNL     1      -9.856  14.633  69.072  1.00  0.00    -0.178 C  
HETATM   13  C   UNL     1      -9.071  10.082  64.017  1.00  0.00    -0.257 A  
HETATM   14  C   UNL     1     -10.355  10.513  64.227  1.00  0.00    -0.208 A  
HETATM   15  C   UNL     1      -9.799  15.943  68.296  1.00  0.00    -0.217 C  
HETATM   16  C   UNL     1     -10.544  11.406  65.297  1.00  0.00    -0.336 A  
HETATM   17  C   UNL     1     -11.301  12.715  64.791  1.00  0.00    -0.350 C  
HETATM   18  C   UNL     1     -11.215  13.551  66.009  1.00  0.00    -0.295 C  
HETATM   19  N   UNL     1     -11.211  14.495  67.070  1.00  0.00    -0.326 NA 
HETATM   20  C   UNL     1     -10.342  15.656  66.906  1.00  0.00    -0.293 C  
ENDROOT
BRANCH   1  21
HETATM   21  O   UNL     1     -10.480   9.906  68.835  1.00  0.00    -0.193 OA 
BRANCH  21  22
HETATM   22  C   UNL     1      -9.772   9.204  69.773  1.00  0.00    -0.181 C  
HETATM   23  C   UNL     1      -9.041   6.882  70.352  1.00  0.00    -0.156 C  
HETATM   24  C   UNL     1      -9.301   7.860  69.197  1.00  0.00    -0.154 C  
HETATM   25  O   UNL     1      -9.584   9.572  70.933  1.00  0.00    -0.251 OA 
HETATM   26  H   UNL     1     -10.017   6.485  67.981  1.00  0.00     0.000 HD 
HETATM   27  C   UNL     1      -8.021   8.099  68.360  1.00  0.00    -0.123 C  
HETATM   28  O   UNL     1     -10.308   7.316  68.337  1.00  0.00    -0.176 OA 
BRANCH  23  29
HETATM   29  C   UNL     1     -10.286   6.632  71.191  1.00  0.00    -0.206 C  
HETATM   30  O   UNL     1     -11.348   6.161  70.800  1.00  0.00    -0.321 OA 
BRANCH  29  31
HETATM   31  O   UNL     1     -10.014   7.009  72.479  1.00  0.00    -0.166 OA 
HETATM   32  C   UNL     1     -10.674   6.203  73.452  1.00  0.00    -0.259 C  
ENDBRANCH  29  31
ENDBRANCH  23  29
BRANCH  27  33
HETATM   33  C   UNL     1      -7.368   6.858  67.714  1.00  0.00    -0.097 C  
BRANCH  33  34
HETATM   34  C   UNL     1      -7.275   6.907  66.180  1.00  0.00    -0.074 C  
HETATM   35  C   UNL     1      -7.958   4.477  65.796  1.00  0.00    -0.095 C  
HETATM   36  O   UNL     1      -9.563   6.244  65.773  1.00  0.00    -0.383 OA 
HETATM   37  C   UNL     1      -8.209   5.937  65.432  1.00  0.00    -0.139 C  
HETATM   38  C   UNL     1      -8.047   6.130  63.919  1.00  0.00    -0.068 C  
HETATM   39  H   UNL     1     -10.140   5.646  65.312  1.00  0.00     0.000 HD 
ENDBRANCH  33  34
ENDBRANCH  27  33
ENDBRANCH  21  22
ENDBRANCH   1  21
BRANCH   3  40
HETATM   40  O   UNL     1     -12.864  11.325  69.951  1.00  0.00    -0.039 OA 
HETATM   41  C   UNL     1     -12.862  11.043  71.339  1.00  0.00    -0.443 C  
ENDBRANCH   3  40
TORSDOF 7
ENDMDL
MODEL       18
REMARK 921   NORMALIZED FREE ENERGY PREDICTED BY IDOCK:   -6.03 KCAL/MOL
REMARK 922        TOTAL FREE ENERGY PREDICTED BY IDOCK:  -10.36 KCAL/MOL
REMARK 923 INTER-LIGAND FREE ENERGY PREDICTED BY IDOCK:   -8.61 KCAL/MOL
REMARK 924 INTRA-LIGAND FREE ENERGY PREDICTED BY IDOCK:   -1.76 KCAL/MOL
REMARK 927      BINDING AFFINITY PREDICTED BY RF-SCORE:    0.00 PKD
ROOT
HETATM    1  C   UNL     1     -11.147   9.116  70.003  1.00  0.00    -0.190 C  
HETATM    2  O   UNL     1      -5.338  12.277  68.972  1.00  0.00    -0.055 OA 
HETATM    3  C   UNL     1     -11.252   7.888  70.881  1.00  0.00    -0.270 C  
HETATM    4  C   UNL     1      -9.991   8.770  68.958  1.00  0.00    -0.197 C  
HETATM    5  C   UNL     1      -5.644  12.834  67.683  1.00  0.00    -0.129 C  
HETATM    6  C   UNL     1     -10.755   6.805  70.284  1.00  0.00    -0.284 C  
HETATM    7  C   UNL     1     -10.110   7.081  68.952  1.00  0.00    -0.173 C  
HETATM    8  C   UNL     1      -8.621   9.676  69.031  1.00  0.00    -0.133 A  
HETATM    9  C   UNL     1      -8.486  10.747  68.113  1.00  0.00    -0.125 A  
HETATM   10  O   UNL     1      -6.963  12.467  67.206  1.00  0.00    -0.148 OA 
HETATM   11  C   UNL     1      -7.337  11.542  68.138  1.00  0.00    -0.094 A  
HETATM   12  C   UNL     1     -11.010   6.536  67.837  1.00  0.00    -0.382 C  
HETATM   13  C   UNL     1      -6.384  11.419  69.119  1.00  0.00    -0.074 A  
HETATM   14  C   UNL     1      -6.416  10.387  70.020  1.00  0.00    -0.126 A  
HETATM   15  C   UNL     1     -10.163   5.525  67.073  1.00  0.00    -0.265 C  
HETATM   16  C   UNL     1      -7.397   9.403  69.804  1.00  0.00    -0.083 A  
HETATM   17  C   UNL     1      -6.723   7.958  69.760  1.00  0.00    -0.038 C  
HETATM   18  C   UNL     1      -7.887   7.142  69.345  1.00  0.00    -0.113 C  
HETATM   19  N   UNL     1      -8.878   6.210  68.937  1.00  0.00    -0.122 NA 
HETATM   20  C   UNL     1      -8.740   5.662  67.592  1.00  0.00    -0.107 C  
ENDROOT
BRANCH   1  21
HETATM   21  O   UNL     1     -11.008  10.322  70.746  1.00  0.00    -0.306 OA 
BRANCH  21  22
HETATM   22  C   UNL     1     -12.125  11.109  70.665  1.00  0.00    -0.379 C  
HETATM   23  C   UNL     1     -12.857  13.429  70.081  1.00  0.00     0.122 C  
HETATM   24  C   UNL     1     -11.878  12.300  69.727  1.00  0.00    -0.318 C  
HETATM   25  O   UNL     1     -13.166  10.920  71.297  1.00  0.00    -0.333 OA 
HETATM   26  H   UNL     1     -10.383  13.511  69.303  1.00  0.00     0.000 HD 
HETATM   27  C   UNL     1     -12.064  11.828  68.265  1.00  0.00    -0.068 C  
HETATM   28  O   UNL     1     -10.536  12.774  69.883  1.00  0.00     0.610 OA 
BRANCH  23  29
HETATM   29  C   UNL     1     -12.694  13.909  71.516  1.00  0.00    -0.357 C  
HETATM   30  O   UNL     1     -13.350  13.547  72.486  1.00  0.00    -0.522 OA 
BRANCH  29  31
HETATM   31  O   UNL     1     -11.666  14.813  71.549  1.00  0.00    -0.341 OA 
HETATM   32  C   UNL     1     -11.708  15.672  72.686  1.00  0.00    -0.451 C  
ENDBRANCH  29  31
ENDBRANCH  23  29
BRANCH  27  33
HETATM   33  C   UNL     1     -11.886  12.893  67.161  1.00  0.00    -0.424 C  
BRANCH  33  34
HETATM   34  C   UNL     1     -11.735  12.324  65.740  1.00  0.00    -0.445 C  
HETATM   35  C   UNL     1     -10.822  14.468  64.695  1.00  0.00    -0.351 C  
HETATM   36  O   UNL     1      -9.368  12.776  65.545  1.00  0.00    -0.456 OA 
HETATM   37  C   UNL     1     -10.624  12.968  64.888  1.00  0.00    -0.337 C  
HETATM   38  C   UNL     1     -10.555  12.272  63.523  1.00  0.00    -0.488 C  
HETATM   39  H   UNL     1      -8.683  13.172  65.020  1.00  0.00     0.000 HD 
ENDBRANCH  33  34
ENDBRANCH  27  33
ENDBRANCH  21  22
ENDBRANCH   1  21
BRANCH   3  40
HETATM   40  O   UNL     1     -11.746   7.790  72.155  1.00  0.00    -0.289 OA 
HETATM   41  C   UNL     1     -10.892   7.442  73.229  1.00  0.00    -0.368 C  
ENDBRANCH   3  40
TORSDOF 7
ENDMDL
MODEL       19
REMARK 921   NORMALIZED FREE ENERGY PREDICTED BY IDOCK:   -5.95 KCAL/MOL
REMARK 922        TOTAL FREE ENERGY PREDICTED BY IDOCK:  -10.25 KCAL/MOL
REMARK 923 INTER-LIGAND FREE ENERGY PREDICTED BY IDOCK:   -8.94 KCAL/MOL
REMARK 924 INTRA-LIGAND FREE ENERGY PREDICTED BY IDOCK:   -1.31 KCAL/MOL
REMARK 927      BINDING AFFINITY PREDICTED BY RF-SCORE:    0.00 PKD
ROOT
HETATM    1  C   UNL     1     -10.085  11.299  67.427  1.00  0.00    -0.188 C  
HETATM    2  O   UNL     1     -11.732  15.937  71.964  1.00  0.00    -0.426 OA 
HETATM    3  C   UNL     1      -9.092  11.572  66.318  1.00  0.00    -0.208 C  
HETATM    4  C   UNL     1     -11.157  12.476  67.311  1.00  0.00    -0.319 C  
HETATM    5  C   UNL     1     -13.048  15.449  72.273  1.00  0.00    -0.405 C  
HETATM    6  C   UNL     1      -9.613  12.340  65.362  1.00  0.00    -0.079 C  
HETATM    7  C   UNL     1     -10.999  12.843  65.665  1.00  0.00    -0.271 C  
HETATM    8  C   UNL     1     -11.246  13.533  68.567  1.00  0.00    -0.310 A  
HETATM    9  C   UNL     1     -12.266  13.332  69.530  1.00  0.00    -0.233 A  
HETATM   10  O   UNL     1     -13.414  14.277  71.502  1.00  0.00    -0.333 OA 
HETATM   11  C   UNL     1     -12.380  14.207  70.614  1.00  0.00    -0.365 A  
HETATM   12  C   UNL     1     -12.005  12.105  64.776  1.00  0.00    -0.377 C  
HETATM   13  C   UNL     1     -11.447  15.183  70.867  1.00  0.00    -0.323 A  
HETATM   14  C   UNL     1     -10.454  15.471  69.968  1.00  0.00    -0.322 A  
HETATM   15  C   UNL     1     -12.718  13.183  63.968  1.00  0.00    -0.131 C  
HETATM   16  C   UNL     1     -10.521  14.805  68.731  1.00  0.00    -0.250 A  
HETATM   17  C   UNL     1     -10.468  15.861  67.537  1.00  0.00    -0.298 C  
HETATM   18  C   UNL     1     -10.739  14.967  66.389  1.00  0.00    -0.316 C  
HETATM   19  N   UNL     1     -11.002  14.271  65.179  1.00  0.00    -0.341 NA 
HETATM   20  C   UNL     1     -12.295  14.522  64.552  1.00  0.00    -0.414 C  
ENDROOT
BRANCH   1  21
HETATM   21  O   UNL     1      -9.467  11.109  68.695  1.00  0.00    -0.190 OA 
BRANCH  21  22
HETATM   22  C   UNL     1      -9.995  10.043  69.372  1.00  0.00    -0.223 C  
HETATM   23  C   UNL     1      -9.627   7.605  69.793  1.00  0.00    -0.163 C  
HETATM   24  C   UNL     1      -8.930   8.956  69.579  1.00  0.00    -0.145 C  
HETATM   25  O   UNL     1     -11.173   9.945  69.720  1.00  0.00    -0.245 OA 
HETATM   26  H   UNL     1      -7.427   8.200  68.554  1.00  0.00     0.000 HD 
HETATM   27  C   UNL     1      -8.057   9.341  70.798  1.00  0.00    -0.194 C  
HETATM   28  O   UNL     1      -8.086   8.873  68.426  1.00  0.00    -0.107 OA 
BRANCH  23  29
HETATM   29  C   UNL     1     -10.494   7.205  68.608  1.00  0.00    -0.197 C  
HETATM   30  O   UNL     1     -10.242   7.392  67.423  1.00  0.00    -0.198 OA 
BRANCH  29  31
HETATM   31  O   UNL     1     -11.610   6.576  69.089  1.00  0.00    -0.276 OA 
HETATM   32  C   UNL     1     -11.640   6.493  70.513  1.00  0.00    -0.393 C  
ENDBRANCH  29  31
ENDBRANCH  23  29
BRANCH  27  33
HETATM   33  C   UNL     1      -6.937   8.354  71.193  1.00  0.00    -0.063 C  
BRANCH  33  34
HETATM   34  C   UNL     1      -7.078   7.754  72.601  1.00  0.00    -0.089 C  
HETATM   35  C   UNL     1      -7.377   5.338  71.828  1.00  0.00    -0.089 C  
HETATM   36  O   UNL     1      -5.229   6.211  72.396  1.00  0.00    -0.025 OA 
HETATM   37  C   UNL     1      -6.613   6.291  72.742  1.00  0.00    -0.065 C  
HETATM   38  C   UNL     1      -6.763   5.843  74.202  1.00  0.00    -0.080 C  
HETATM   39  H   UNL     1      -4.942   5.309  72.483  1.00  0.00     0.000 HD 
ENDBRANCH  33  34
ENDBRANCH  27  33
ENDBRANCH  21  22
ENDBRANCH   1  21
BRANCH   3  40
HETATM   40  O   UNL     1      -7.788  11.162  66.221  1.00  0.00    -0.158 OA 
HETATM   41  C   UNL     1      -7.384  10.311  65.163  1.00  0.00    -0.127 C  
ENDBRANCH   3  40
TORSDOF 7
ENDMDL
MODEL       20
REMARK 921   NORMALIZED FREE ENERGY PREDICTED BY IDOCK:   -5.83 KCAL/MOL
REMARK 922        TOTAL FREE ENERGY PREDICTED BY IDOCK:  -10.09 KCAL/MOL
REMARK 923 INTER-LIGAND FREE ENERGY PREDICTED BY IDOCK:   -8.56 KCAL/MOL
REMARK 924 INTRA-LIGAND FREE ENERGY PREDICTED BY IDOCK:   -1.53 KCAL/MOL
REMARK 927      BINDING AFFINITY PREDICTED BY RF-SCORE:    0.00 PKD
ROOT
HETATM    1  C   UNL     1     -10.026  10.717  69.273  1.00  0.00    -0.193 C  
HETATM    2  O   UNL     1     -11.186  13.085  63.121  1.00  0.00    -0.123 OA 
HETATM    3  C   UNL     1      -8.770   9.946  69.617  1.00  0.00    -0.204 C  
HETATM    4  C   UNL     1     -10.633   9.958  68.007  1.00  0.00    -0.288 C  
HETATM    5  C   UNL     1     -12.622  13.084  63.179  1.00  0.00     0.093 C  
HETATM    6  C   UNL     1      -8.798   8.705  69.131  1.00  0.00    -0.137 C  
HETATM    7  C   UNL     1      -9.998   8.411  68.271  1.00  0.00    -0.187 C  
HETATM    8  C   UNL     1     -10.684  10.791  66.590  1.00  0.00    -0.268 A  
HETATM    9  C   UNL     1     -11.910  11.401  66.225  1.00  0.00     0.546 A  
HETATM   10  O   UNL     1     -13.138  12.582  64.437  1.00  0.00    -0.759 OA 
HETATM   11  C   UNL     1     -12.000  12.116  65.027  1.00  0.00    -0.281 A  
HETATM   12  C   UNL     1     -10.947   7.482  69.035  1.00  0.00     0.004 C  
HETATM   13  C   UNL     1     -10.899  12.379  64.249  1.00  0.00    -0.355 A  
HETATM   14  C   UNL     1      -9.686  11.795  64.507  1.00  0.00    -0.165 A  
HETATM   15  C   UNL     1     -11.094   6.234  68.174  1.00  0.00    -0.364 C  
HETATM   16  C   UNL     1      -9.666  10.826  65.525  1.00  0.00    -0.290 A  
HETATM   17  C   UNL     1      -9.022   9.472  64.982  1.00  0.00    -0.258 C  
HETATM   18  C   UNL     1      -9.279   8.582  66.136  1.00  0.00    -0.211 C  
HETATM   19  N   UNL     1      -9.455   7.584  67.131  1.00  0.00    -0.146 NA 
HETATM   20  C   UNL     1     -10.431   6.539  66.840  1.00  0.00    -0.277 C  
ENDROOT
BRANCH   1  21
HETATM   21  O   UNL     1      -9.804  12.116  69.144  1.00  0.00     0.122 OA 
BRANCH  21  22
HETATM   22  C   UNL     1     -10.971  12.829  69.174  1.00  0.00    -0.133 C  
HETATM   23  C   UNL     1     -11.843  15.164  69.391  1.00  0.00    -0.357 C  
HETATM   24  C   UNL     1     -10.713  14.300  68.813  1.00  0.00    -0.254 C  
HETATM   25  O   UNL     1     -12.068  12.370  69.496  1.00  0.00    -0.268 OA 
HETATM   26  H   UNL     1      -9.304  15.636  69.145  1.00  0.00     0.000 HD 
HETATM   27  C   UNL     1     -10.635  14.428  67.273  1.00  0.00    -0.279 C  
HETATM   28  O   UNL     1      -9.464  14.727  69.367  1.00  0.00    -0.114 OA 
BRANCH  23  29
HETATM   29  C   UNL     1     -11.942  15.054  70.906  1.00  0.00    -0.319 C  
HETATM   30  O   UNL     1     -11.023  15.176  71.708  1.00  0.00    -0.257 OA 
BRANCH  29  31
HETATM   31  O   UNL     1     -13.249  14.809  71.231  1.00  0.00    -0.342 OA 
HETATM   32  C   UNL     1     -13.401  14.100  72.459  1.00  0.00    -0.518 C  
ENDBRANCH  29  31
ENDBRANCH  23  29
BRANCH  27  33
HETATM   33  C   UNL     1     -10.407  15.845  66.702  1.00  0.00    -0.302 C  
BRANCH  33  34
HETATM   34  C   UNL     1      -8.978  16.114  66.206  1.00  0.00    -0.379 C  
HETATM   35  C   UNL     1      -9.037  18.638  66.591  1.00  0.00    -0.306 C  
HETATM   36  O   UNL     1      -8.198  17.141  68.251  1.00  0.00    -0.213 OA 
HETATM   37  C   UNL     1      -8.281  17.336  66.837  1.00  0.00    -0.227 C  
HETATM   38  C   UNL     1      -6.852  17.453  66.290  1.00  0.00    -0.307 C  
HETATM   39  H   UNL     1      -7.768  17.894  68.640  1.00  0.00     0.000 HD 
ENDBRANCH  33  34
ENDBRANCH  27  33
ENDBRANCH  21  22
ENDBRANCH   1  21
BRANCH   3  40
HETATM   40  O   UNL     1      -7.666  10.377  70.306  1.00  0.00    -0.144 OA 
HETATM   41  C   UNL     1      -6.546   9.526  70.465  1.00  0.00    -0.094 C  
ENDBRANCH   3  40
TORSDOF 7
ENDMDL
MODEL       21
REMARK 921   NORMALIZED FREE ENERGY PREDICTED BY IDOCK:   -5.78 KCAL/MOL
REMARK 922        TOTAL FREE ENERGY PREDICTED BY IDOCK:  -10.00 KCAL/MOL
REMARK 923 INTER-LIGAND FREE ENERGY PREDICTED BY IDOCK:   -9.16 KCAL/MOL
REMARK 924 INTRA-LIGAND FREE ENERGY PREDICTED BY IDOCK:   -0.84 KCAL/MOL
REMARK 927      BINDING AFFINITY PREDICTED BY RF-SCORE:    0.00 PKD
ROOT
HETATM    1  C   UNL     1      -9.555  10.978  67.595  1.00  0.00    -0.168 C  
HETATM    2  O   UNL     1     -12.251  14.850  72.343  1.00  0.00    -0.342 OA 
HETATM    3  C   UNL     1      -8.639  11.534  66.526  1.00  0.00    -0.172 C  
HETATM    4  C   UNL     1     -10.864  11.889  67.521  1.00  0.00    -0.283 C  
HETATM    5  C   UNL     1     -13.426  14.061  72.595  1.00  0.00    -0.547 C  
HETATM    6  C   UNL     1      -9.310  12.220  65.602  1.00  0.00     0.001 C  
HETATM    7  C   UNL     1     -10.777  12.379  65.901  1.00  0.00    -0.266 C  
HETATM    8  C   UNL     1     -11.201  12.823  68.831  1.00  0.00    -0.332 A  
HETATM    9  C   UNL     1     -12.159  12.340  69.758  1.00  0.00    -0.298 A  
HETATM   10  O   UNL     1     -13.510  12.884  71.752  1.00  0.00    -0.395 OA 
HETATM   11  C   UNL     1     -12.479  13.102  70.885  1.00  0.00    -0.323 A  
HETATM   12  C   UNL     1     -11.582  11.488  64.949  1.00  0.00    -0.054 C  
HETATM   13  C   UNL     1     -11.793  14.246  71.213  1.00  0.00    -0.149 A  
HETATM   14  C   UNL     1     -10.882  14.803  70.354  1.00  0.00    -0.030 A  
HETATM   15  C   UNL     1     -12.512  12.423  64.187  1.00  0.00    -0.534 C  
HETATM   16  C   UNL     1     -10.785  14.214  69.081  1.00  0.00    -0.216 A  
HETATM   17  C   UNL     1     -10.961  15.323  67.949  1.00  0.00    -0.306 C  
HETATM   18  C   UNL     1     -11.011  14.460  66.747  1.00  0.00    -0.314 C  
HETATM   19  N   UNL     1     -11.098  13.796  65.495  1.00  0.00    -0.294 NA 
HETATM   20  C   UNL     1     -12.409  13.786  64.854  1.00  0.00    -0.405 C  
ENDROOT
BRANCH   1  21
HETATM   21  O   UNL     1      -8.922  10.858  68.864  1.00  0.00    -0.167 OA 
BRANCH  21  22
HETATM   22  C   UNL     1      -8.443   9.595  69.084  1.00  0.00    -0.143 C  
HETATM   23  C   UNL     1      -8.418   7.774  70.799  1.00  0.00    -0.121 C  
HETATM   24  C   UNL     1      -9.267   8.889  70.172  1.00  0.00    -0.180 C  
HETATM   25  O   UNL     1      -7.457   9.110  68.527  1.00  0.00    -0.080 OA 
HETATM   26  H   UNL     1     -10.148   9.389  71.861  1.00  0.00     0.000 HD 
HETATM   27  C   UNL     1     -10.557   8.324  69.530  1.00  0.00    -0.216 C  
HETATM   28  O   UNL     1      -9.639   9.825  71.188  1.00  0.00    -0.069 OA 
BRANCH  23  29
HETATM   29  C   UNL     1      -7.141   8.304  71.435  1.00  0.00    -0.067 C  
HETATM   30  O   UNL     1      -7.051   9.244  72.217  1.00  0.00    -0.300 OA 
BRANCH  29  31
HETATM   31  O   UNL     1      -6.096   7.535  70.998  1.00  0.00    -0.035 OA 
HETATM   32  C   UNL     1      -5.178   7.192  72.034  1.00  0.00    -0.036 C  
ENDBRANCH  29  31
ENDBRANCH  23  29
BRANCH  27  33
HETATM   33  C   UNL     1     -11.515   7.547  70.459  1.00  0.00    -0.259 C  
BRANCH  33  34
HETATM   34  C   UNL     1     -10.951   6.222  70.997  1.00  0.00    -0.340 C  
HETATM   35  C   UNL     1     -10.695   7.008  73.414  1.00  0.00    -0.379 C  
HETATM   36  O   UNL     1     -12.666   5.887  72.667  1.00  0.00    -0.514 OA 
HETATM   37  C   UNL     1     -11.250   5.934  72.482  1.00  0.00    -0.294 C  
HETATM   38  C   UNL     1     -10.676   4.565  72.866  1.00  0.00    -0.281 C  
HETATM   39  H   UNL     1     -12.851   5.709  73.583  1.00  0.00     0.000 HD 
ENDBRANCH  33  34
ENDBRANCH  27  33
ENDBRANCH  21  22
ENDBRANCH   1  21
BRANCH   3  40
HETATM   40  O   UNL     1      -7.275  11.433  66.436  1.00  0.00    -0.101 OA 
HETATM   41  C   UNL     1      -6.443  12.276  67.212  1.00  0.00    -0.152 C  
ENDBRANCH   3  40
TORSDOF 7
ENDMDL
MODEL       22
REMARK 921   NORMALIZED FREE ENERGY PREDICTED BY IDOCK:   -5.75 KCAL/MOL
REMARK 922        TOTAL FREE ENERGY PREDICTED BY IDOCK:   -9.96 KCAL/MOL
REMARK 923 INTER-LIGAND FREE ENERGY PREDICTED BY IDOCK:   -8.55 KCAL/MOL
REMARK 924 INTRA-LIGAND FREE ENERGY PREDICTED BY IDOCK:   -1.41 KCAL/MOL
REMARK 927      BINDING AFFINITY PREDICTED BY RF-SCORE:    0.00 PKD
ROOT
HETATM    1  C   UNL     1     -10.567   8.862  70.345  1.00  0.00    -0.217 C  
HETATM    2  O   UNL     1      -8.023  10.998  64.534  1.00  0.00     0.215 OA 
HETATM    3  C   UNL     1      -9.695   8.317  71.455  1.00  0.00    -0.191 C  
HETATM    4  C   UNL     1     -10.162   8.011  69.056  1.00  0.00    -0.217 C  
HETATM    5  C   UNL     1      -9.176  10.752  63.713  1.00  0.00    -0.244 C  
HETATM    6  C   UNL     1      -9.252   7.090  71.184  1.00  0.00    -0.157 C  
HETATM    7  C   UNL     1      -9.620   6.595  69.811  1.00  0.00    -0.149 C  
HETATM    8  C   UNL     1      -9.446   8.823  67.819  1.00  0.00    -0.164 A  
HETATM    9  C   UNL     1     -10.259   9.215  66.727  1.00  0.00    -0.331 A  
HETATM   10  O   UNL     1     -10.281  10.169  64.449  1.00  0.00    -0.221 OA 
HETATM   11  C   UNL     1      -9.693   9.904  65.651  1.00  0.00    -0.279 A  
HETATM   12  C   UNL     1     -10.702   5.518  69.939  1.00  0.00    -0.358 C  
HETATM   13  C   UNL     1      -8.394  10.351  65.672  1.00  0.00    -0.163 A  
HETATM   14  C   UNL     1      -7.529   9.983  66.669  1.00  0.00    -0.104 A  
HETATM   15  C   UNL     1     -10.120   4.262  69.299  1.00  0.00     0.067 C  
HETATM   16  C   UNL     1      -8.006   9.032  67.588  1.00  0.00    -0.101 A  
HETATM   17  C   UNL     1      -6.989   7.808  67.688  1.00  0.00    -0.081 C  
HETATM   18  C   UNL     1      -7.776   6.886  68.539  1.00  0.00    -0.113 C  
HETATM   19  N   UNL     1      -8.387   5.873  69.323  1.00  0.00    -0.112 NA 
HETATM   20  C   UNL     1      -8.828   4.677  68.613  1.00  0.00    -0.101 C  
ENDROOT
BRANCH   1  21
HETATM   21  O   UNL     1     -10.503  10.279  70.231  1.00  0.00    -0.265 OA 
BRANCH  21  22
HETATM   22  C   UNL     1     -11.745  10.854  70.249  1.00  0.00    -0.347 C  
HETATM   23  C   UNL     1     -12.895  13.057  69.957  1.00  0.00     0.378 C  
HETATM   24  C   UNL     1     -11.738  12.176  69.465  1.00  0.00    -0.336 C  
HETATM   25  O   UNL     1     -12.720  10.404  70.852  1.00  0.00    -0.337 OA 
HETATM   26  H   UNL     1     -10.495  13.680  69.194  1.00  0.00     0.000 HD 
HETATM   27  C   UNL     1     -11.869  11.860  67.956  1.00  0.00    -0.323 C  
HETATM   28  O   UNL     1     -10.500  12.863  69.678  1.00  0.00     0.399 OA 
BRANCH  23  29
HETATM   29  C   UNL     1     -12.789  13.380  71.440  1.00  0.00    -0.333 C  
HETATM   30  O   UNL     1     -13.324  12.771  72.360  1.00  0.00    -0.521 OA 
BRANCH  29  31
HETATM   31  O   UNL     1     -11.971  14.469  71.581  1.00  0.00    -0.341 OA 
HETATM   32  C   UNL     1     -12.487  15.644  70.960  1.00  0.00    -0.447 C  
ENDBRANCH  29  31
ENDBRANCH  23  29
BRANCH  27  33
HETATM   33  C   UNL     1     -11.910  13.065  66.992  1.00  0.00    -0.437 C  
BRANCH  33  34
HETATM   34  C   UNL     1     -12.377  12.731  65.566  1.00  0.00    -0.495 C  
HETATM   35  C   UNL     1     -11.872  15.031  64.578  1.00  0.00    -0.377 C  
HETATM   36  O   UNL     1     -10.277  13.257  64.491  1.00  0.00    -0.530 OA 
HETATM   37  C   UNL     1     -11.681  13.523  64.443  1.00  0.00    -0.407 C  
HETATM   38  C   UNL     1     -12.205  13.053  63.080  1.00  0.00    -0.305 C  
HETATM   39  H   UNL     1      -9.847  13.745  63.798  1.00  0.00     0.000 HD 
ENDBRANCH  33  34
ENDBRANCH  27  33
ENDBRANCH  21  22
ENDBRANCH   1  21
BRANCH   3  40
HETATM   40  O   UNL     1      -9.316   8.930  72.621  1.00  0.00    -0.266 OA 
HETATM   41  C   UNL     1      -8.736   8.176  73.670  1.00  0.00    -0.241 C  
ENDBRANCH   3  40
TORSDOF 7
ENDMDL
MODEL       23
REMARK 921   NORMALIZED FREE ENERGY PREDICTED BY IDOCK:   -5.69 KCAL/MOL
REMARK 922        TOTAL FREE ENERGY PREDICTED BY IDOCK:   -9.89 KCAL/MOL
REMARK 923 INTER-LIGAND FREE ENERGY PREDICTED BY IDOCK:   -9.39 KCAL/MOL
REMARK 924 INTRA-LIGAND FREE ENERGY PREDICTED BY IDOCK:   -0.50 KCAL/MOL
REMARK 927      BINDING AFFINITY PREDICTED BY RF-SCORE:    0.00 PKD
ROOT
HETATM    1  C   UNL     1      -9.557  11.439  67.984  1.00  0.00    -0.183 C  
HETATM    2  O   UNL     1     -12.521  15.449  72.449  1.00  0.00    -0.325 OA 
HETATM    3  C   UNL     1      -8.651  11.974  66.896  1.00  0.00    -0.189 C  
HETATM    4  C   UNL     1     -10.907  12.277  67.836  1.00  0.00    -0.252 C  
HETATM    5  C   UNL     1     -13.659  14.619  72.732  1.00  0.00    -0.437 C  
HETATM    6  C   UNL     1      -9.340  12.569  65.923  1.00  0.00    -0.039 C  
HETATM    7  C   UNL     1     -10.817  12.671  66.191  1.00  0.00    -0.273 C  
HETATM    8  C   UNL     1     -11.313  13.269  69.082  1.00  0.00    -0.336 A  
HETATM    9  C   UNL     1     -12.261  12.796  70.023  1.00  0.00    -0.279 A  
HETATM   10  O   UNL     1     -13.670  13.390  71.962  1.00  0.00    -0.447 OA 
HETATM   11  C   UNL     1     -12.637  13.607  71.097  1.00  0.00    -0.371 A  
HETATM   12  C   UNL     1     -11.561  11.685  65.284  1.00  0.00    -0.105 C  
HETATM   13  C   UNL     1     -12.014  14.801  71.365  1.00  0.00    -0.345 A  
HETATM   14  C   UNL     1     -11.117  15.351  70.486  1.00  0.00    -0.361 A  
HETATM   15  C   UNL     1     -12.524  12.525  64.454  1.00  0.00    -0.530 C  
HETATM   16  C   UNL     1     -10.970  14.692  69.253  1.00  0.00    -0.278 A  
HETATM   17  C   UNL     1     -11.181  15.721  68.053  1.00  0.00    -0.338 C  
HETATM   18  C   UNL     1     -11.168  14.786  66.905  1.00  0.00    -0.347 C  
HETATM   19  N   UNL     1     -11.201  14.044  65.695  1.00  0.00    -0.306 NA 
HETATM   20  C   UNL     1     -12.498  13.929  65.037  1.00  0.00    -0.419 C  
ENDROOT
BRANCH   1  21
HETATM   21  O   UNL     1      -8.940  11.427  69.266  1.00  0.00     0.112 OA 
BRANCH  21  22
HETATM   22  C   UNL     1      -8.284  10.251  69.513  1.00  0.00    -0.155 C  
HETATM   23  C   UNL     1      -8.566   8.047  70.663  1.00  0.00    -0.130 C  
HETATM   24  C   UNL     1      -9.286   9.138  69.857  1.00  0.00    -0.183 C  
HETATM   25  O   UNL     1      -7.060  10.115  69.511  1.00  0.00    -0.074 OA 
HETATM   26  H   UNL     1     -10.978   8.984  70.853  1.00  0.00     0.000 HD 
HETATM   27  C   UNL     1      -9.874   8.574  68.541  1.00  0.00    -0.186 C  
HETATM   28  O   UNL     1     -10.359   9.671  70.640  1.00  0.00    -0.278 OA 
BRANCH  23  29
HETATM   29  C   UNL     1      -7.977   8.579  71.962  1.00  0.00    -0.105 C  
HETATM   30  O   UNL     1      -6.800   8.848  72.174  1.00  0.00    -0.252 OA 
BRANCH  29  31
HETATM   31  O   UNL     1      -8.998   8.726  72.863  1.00  0.00    -0.337 OA 
HETATM   32  C   UNL     1      -9.520   7.484  73.329  1.00  0.00    -0.240 C  
ENDBRANCH  29  31
ENDBRANCH  23  29
BRANCH  27  33
HETATM   33  C   UNL     1     -10.888   7.417  68.670  1.00  0.00    -0.073 C  
BRANCH  33  34
HETATM   34  C   UNL     1     -10.950   6.480  67.453  1.00  0.00    -0.458 C  
HETATM   35  C   UNL     1      -8.466   5.888  67.449  1.00  0.00    -0.103 C  
HETATM   36  O   UNL     1     -10.069   4.539  68.593  1.00  0.00    -0.086 OA 
HETATM   37  C   UNL     1      -9.896   5.356  67.433  1.00  0.00    -0.154 C  
HETATM   38  C   UNL     1     -10.108   4.474  66.196  1.00  0.00    -0.282 C  
HETATM   39  H   UNL     1      -9.419   3.846  68.580  1.00  0.00     0.000 HD 
ENDBRANCH  33  34
ENDBRANCH  27  33
ENDBRANCH  21  22
ENDBRANCH   1  21
BRANCH   3  40
HETATM   40  O   UNL     1      -7.283  11.937  66.831  1.00  0.00    -0.138 OA 
HETATM   41  C   UNL     1      -6.628  10.897  66.127  1.00  0.00    -0.108 C  
ENDBRANCH   3  40
TORSDOF 7
ENDMDL
MODEL       24
REMARK 921   NORMALIZED FREE ENERGY PREDICTED BY IDOCK:   -5.67 KCAL/MOL
REMARK 922        TOTAL FREE ENERGY PREDICTED BY IDOCK:   -9.85 KCAL/MOL
REMARK 923 INTER-LIGAND FREE ENERGY PREDICTED BY IDOCK:   -8.63 KCAL/MOL
REMARK 924 INTRA-LIGAND FREE ENERGY PREDICTED BY IDOCK:   -1.22 KCAL/MOL
REMARK 927      BINDING AFFINITY PREDICTED BY RF-SCORE:    0.00 PKD
ROOT
HETATM    1  C   UNL     1     -10.377   7.554  71.858  1.00  0.00    -0.193 C  
HETATM    2  O   UNL     1      -8.539   5.310  65.826  1.00  0.00    -0.128 OA 
HETATM    3  C   UNL     1      -9.445   7.518  73.050  1.00  0.00    -0.203 C  
HETATM    4  C   UNL     1     -10.382   6.058  71.302  1.00  0.00    -0.266 C  
HETATM    5  C   UNL     1      -9.845   4.959  65.341  1.00  0.00    -0.048 C  
HETATM    6  C   UNL     1      -9.306   6.286  73.537  1.00  0.00    -0.139 C  
HETATM    7  C   UNL     1     -10.002   5.224  72.727  1.00  0.00    -0.160 C  
HETATM    8  C   UNL     1      -9.753   5.814  69.803  1.00  0.00    -0.210 A  
HETATM    9  C   UNL     1     -10.655   5.724  68.714  1.00  0.00    -0.321 A  
HETATM   10  O   UNL     1     -10.894   5.204  66.311  1.00  0.00    -0.296 OA 
HETATM   11  C   UNL     1     -10.165   5.515  67.422  1.00  0.00    -0.209 A  
HETATM   12  C   UNL     1     -11.233   4.734  73.496  1.00  0.00    -0.392 C  
HETATM   13  C   UNL     1      -8.821   5.536  67.138  1.00  0.00    -0.106 A  
HETATM   14  C   UNL     1      -7.881   5.578  68.134  1.00  0.00    -0.092 A  
HETATM   15  C   UNL     1     -11.032   3.237  73.698  1.00  0.00    -0.330 C  
HETATM   16  C   UNL     1      -8.364   5.470  69.450  1.00  0.00    -0.101 A  
HETATM   17  C   UNL     1      -7.605   4.297  70.219  1.00  0.00    -0.046 C  
HETATM   18  C   UNL     1      -8.393   4.256  71.471  1.00  0.00    -0.092 C  
HETATM   19  N   UNL     1      -9.042   4.060  72.720  1.00  0.00    -0.104 NA 
HETATM   20  C   UNL     1      -9.827   2.839  72.860  1.00  0.00    -0.123 C  
ENDROOT
BRANCH   1  21
HETATM   21  O   UNL     1     -10.058   8.586  70.932  1.00  0.00    -0.188 OA 
BRANCH  21  22
HETATM   22  C   UNL     1     -11.178   9.155  70.388  1.00  0.00    -0.240 C  
HETATM   23  C   UNL     1     -11.910  11.063  68.944  1.00  0.00    -0.378 C  
HETATM   24  C   UNL     1     -10.807  10.020  69.174  1.00  0.00    -0.222 C  
HETATM   25  O   UNL     1     -12.318   9.034  70.839  1.00  0.00    -0.238 OA 
HETATM   26  H   UNL     1      -9.336  11.227  68.663  1.00  0.00     0.000 HD 
HETATM   27  C   UNL     1     -10.634   9.099  67.942  1.00  0.00    -0.272 C  
HETATM   28  O   UNL     1      -9.566  10.692  69.414  1.00  0.00    -0.187 OA 
BRANCH  23  29
HETATM   29  C   UNL     1     -12.100  11.980  70.144  1.00  0.00    -0.298 C  
HETATM   30  O   UNL     1     -12.520  11.659  71.250  1.00  0.00    -0.339 OA 
BRANCH  29  31
HETATM   31  O   UNL     1     -11.700  13.239  69.785  1.00  0.00    -0.298 OA 
HETATM   32  C   UNL     1     -12.091  13.597  68.461  1.00  0.00    -0.286 C  
ENDBRANCH  29  31
ENDBRANCH  23  29
BRANCH  27  33
HETATM   33  C   UNL     1     -10.285   9.784  66.603  1.00  0.00    -0.296 C  
BRANCH  33  34
HETATM   34  C   UNL     1      -9.317   8.992  65.710  1.00  0.00    -0.302 C  
HETATM   35  C   UNL     1      -9.600  10.465  63.642  1.00  0.00    -0.364 C  
HETATM   36  O   UNL     1      -7.854  10.854  65.223  1.00  0.00    -0.347 OA 
HETATM   37  C   UNL     1      -8.616   9.812  64.609  1.00  0.00    -0.184 C  
HETATM   38  C   UNL     1      -7.647   8.910  63.834  1.00  0.00    -0.121 C  
HETATM   39  H   UNL     1      -7.421  11.360  64.544  1.00  0.00     0.000 HD 
ENDBRANCH  33  34
ENDBRANCH  27  33
ENDBRANCH  21  22
ENDBRANCH   1  21
BRANCH   3  40
HETATM   40  O   UNL     1      -8.751   8.553  73.621  1.00  0.00    -0.292 OA 
HETATM   41  C   UNL     1      -7.617   8.294  74.428  1.00  0.00    -0.223 C  
ENDBRANCH   3  40
TORSDOF 7
ENDMDL
MODEL       25
REMARK 921   NORMALIZED FREE ENERGY PREDICTED BY IDOCK:   -5.67 KCAL/MOL
REMARK 922        TOTAL FREE ENERGY PREDICTED BY IDOCK:   -9.85 KCAL/MOL
REMARK 923 INTER-LIGAND FREE ENERGY PREDICTED BY IDOCK:   -8.66 KCAL/MOL
REMARK 924 INTRA-LIGAND FREE ENERGY PREDICTED BY IDOCK:   -1.19 KCAL/MOL
REMARK 927      BINDING AFFINITY PREDICTED BY RF-SCORE:    0.00 PKD
ROOT
HETATM    1  C   UNL     1     -10.194  10.039  67.869  1.00  0.00    -0.188 C  
HETATM    2  O   UNL     1     -13.930  14.389  71.321  1.00  0.00    -0.344 OA 
HETATM    3  C   UNL     1     -10.449   8.547  67.909  1.00  0.00    -0.201 C  
HETATM    4  C   UNL     1     -10.070  10.470  69.401  1.00  0.00    -0.233 C  
HETATM    5  C   UNL     1     -12.940  15.420  71.473  1.00  0.00    -0.447 C  
HETATM    6  C   UNL     1     -10.045   8.003  69.056  1.00  0.00    -0.206 C  
HETATM    7  C   UNL     1      -9.549   9.002  70.068  1.00  0.00    -0.186 C  
HETATM    8  C   UNL     1     -11.224  11.482  69.989  1.00  0.00    -0.108 A  
HETATM    9  C   UNL     1     -10.917  12.864  70.061  1.00  0.00     0.595 A  
HETATM   10  O   UNL     1     -11.664  15.071  70.880  1.00  0.00    -0.288 OA 
HETATM   11  C   UNL     1     -11.868  13.761  70.557  1.00  0.00    -0.223 A  
HETATM   12  C   UNL     1      -8.026   8.889  70.180  1.00  0.00    -0.111 C  
HETATM   13  C   UNL     1     -13.154  13.377  70.847  1.00  0.00    -0.041 A  
HETATM   14  C   UNL     1     -13.522  12.057  70.843  1.00  0.00     0.821 A  
HETATM   15  C   UNL     1      -7.738   8.556  71.639  1.00  0.00    -0.150 C  
HETATM   16  C   UNL     1     -12.490  11.123  70.652  1.00  0.00    -0.448 A  
HETATM   17  C   UNL     1     -12.506  10.040  71.823  1.00  0.00    -0.475 C  
HETATM   18  C   UNL     1     -11.256   9.308  71.516  1.00  0.00    -0.386 C  
HETATM   19  N   UNL     1     -10.089   8.509  71.387  1.00  0.00    -0.213 NA 
HETATM   20  C   UNL     1      -9.050   8.707  72.392  1.00  0.00    -0.158 C  
ENDROOT
BRANCH   1  21
HETATM   21  O   UNL     1     -11.139  10.744  67.073  1.00  0.00    -0.265 OA 
BRANCH  21  22
HETATM   22  C   UNL     1     -10.545  11.408  66.034  1.00  0.00    -0.266 C  
HETATM   23  C   UNL     1     -10.524  13.624  64.874  1.00  0.00    -0.426 C  
HETATM   24  C   UNL     1     -10.651  12.928  66.236  1.00  0.00    -0.266 C  
HETATM   25  O   UNL     1     -10.041  10.866  65.049  1.00  0.00    -0.260 OA 
HETATM   26  H   UNL     1     -11.984  14.195  66.941  1.00  0.00     0.000 HD 
HETATM   27  C   UNL     1      -9.535  13.380  67.208  1.00  0.00    -0.234 C  
HETATM   28  O   UNL     1     -11.918  13.256  66.817  1.00  0.00    -0.382 OA 
BRANCH  23  29
HETATM   29  C   UNL     1     -11.611  13.195  63.898  1.00  0.00    -0.433 C  
HETATM   30  O   UNL     1     -11.612  12.183  63.206  1.00  0.00    -0.403 OA 
BRANCH  29  31
HETATM   31  O   UNL     1     -12.612  14.129  63.937  1.00  0.00    -0.752 OA 
HETATM   32  C   UNL     1     -12.142  15.444  64.222  1.00  0.00    -0.166 C  
ENDBRANCH  29  31
ENDBRANCH  23  29
BRANCH  27  33
HETATM   33  C   UNL     1      -9.452  14.889  67.521  1.00  0.00    -0.200 C  
BRANCH  33  34
HETATM   34  C   UNL     1      -8.198  15.315  68.301  1.00  0.00    -0.142 C  
HETATM   35  C   UNL     1      -7.488  17.153  66.677  1.00  0.00    -0.293 C  
HETATM   36  O   UNL     1      -8.853  17.625  68.578  1.00  0.00    -0.280 OA 
HETATM   37  C   UNL     1      -7.784  16.789  68.129  1.00  0.00    -0.180 C  
HETATM   38  C   UNL     1      -6.556  17.084  68.999  1.00  0.00    -0.216 C  
HETATM   39  H   UNL     1      -8.598  18.534  68.472  1.00  0.00     0.000 HD 
ENDBRANCH  33  34
ENDBRANCH  27  33
ENDBRANCH  21  22
ENDBRANCH   1  21
BRANCH   3  40
HETATM   40  O   UNL     1     -11.043   7.758  66.960  1.00  0.00    -0.123 OA 
HETATM   41  C   UNL     1     -10.989   6.346  67.067  1.00  0.00    -0.389 C  
ENDBRANCH   3  40
TORSDOF 7
ENDMDL
MODEL       26
REMARK 921   NORMALIZED FREE ENERGY PREDICTED BY IDOCK:   -5.63 KCAL/MOL
REMARK 922        TOTAL FREE ENERGY PREDICTED BY IDOCK:   -9.79 KCAL/MOL
REMARK 923 INTER-LIGAND FREE ENERGY PREDICTED BY IDOCK:   -8.71 KCAL/MOL
REMARK 924 INTRA-LIGAND FREE ENERGY PREDICTED BY IDOCK:   -1.08 KCAL/MOL
REMARK 927      BINDING AFFINITY PREDICTED BY RF-SCORE:    0.00 PKD
ROOT
HETATM    1  C   UNL     1      -8.398  11.831  69.044  1.00  0.00     0.189 C  
HETATM    2  O   UNL     1     -11.509  11.824  63.117  1.00  0.00    -0.290 OA 
HETATM    3  C   UNL     1      -7.352  10.799  69.407  1.00  0.00    -0.128 C  
HETATM    4  C   UNL     1      -9.665  10.979  68.579  1.00  0.00    -0.189 C  
HETATM    5  C   UNL     1     -12.725  12.467  63.534  1.00  0.00    -0.326 C  
HETATM    6  C   UNL     1      -7.897   9.614  69.680  1.00  0.00    -0.129 C  
HETATM    7  C   UNL     1      -9.384   9.554  69.451  1.00  0.00    -0.180 C  
HETATM    8  C   UNL     1     -10.124  11.116  67.007  1.00  0.00    -0.235 A  
HETATM    9  C   UNL     1     -11.192  11.997  66.703  1.00  0.00    -0.380 A  
HETATM   10  O   UNL     1     -12.744  12.780  64.949  1.00  0.00    -0.629 OA 
HETATM   11  C   UNL     1     -11.617  12.143  65.380  1.00  0.00    -0.330 A  
HETATM   12  C   UNL     1     -10.099   9.514  70.805  1.00  0.00    -0.352 C  
HETATM   13  C   UNL     1     -10.942  11.572  64.329  1.00  0.00    -0.341 A  
HETATM   14  C   UNL     1      -9.926  10.676  64.535  1.00  0.00    -0.410 A  
HETATM   15  C   UNL     1     -10.913   8.225  70.810  1.00  0.00    -0.266 C  
HETATM   16  C   UNL     1      -9.702  10.285  65.866  1.00  0.00    -0.283 A  
HETATM   17  C   UNL     1      -9.719   8.694  65.980  1.00  0.00    -0.238 C  
HETATM   18  C   UNL     1      -9.656   8.539  67.451  1.00  0.00    -0.160 C  
HETATM   19  N   UNL     1      -9.619   8.199  68.829  1.00  0.00    -0.148 NA 
HETATM   20  C   UNL     1     -10.849   7.659  69.400  1.00  0.00    -0.127 C  
ENDROOT
BRANCH   1  21
HETATM   21  O   UNL     1      -7.916  12.818  68.139  1.00  0.00    -0.137 OA 
BRANCH  21  22
HETATM   22  C   UNL     1      -7.581  13.982  68.777  1.00  0.00    -0.113 C  
HETATM   23  C   UNL     1      -7.369  16.445  68.388  1.00  0.00    -0.168 C  
HETATM   24  C   UNL     1      -8.184  15.190  68.043  1.00  0.00    -0.142 C  
HETATM   25  O   UNL     1      -6.854  14.057  69.769  1.00  0.00    -0.084 OA 
HETATM   26  H   UNL     1      -8.513  15.721  66.175  1.00  0.00     0.000 HD 
HETATM   27  C   UNL     1      -9.664  15.342  68.470  1.00  0.00    -0.204 C  
HETATM   28  O   UNL     1      -8.141  14.975  66.629  1.00  0.00    -0.125 OA 
BRANCH  23  29
HETATM   29  C   UNL     1      -5.908  16.318  67.979  1.00  0.00    -0.118 C  
HETATM   30  O   UNL     1      -5.482  16.098  66.852  1.00  0.00    -0.341 OA 
BRANCH  29  31
HETATM   31  O   UNL     1      -5.136  16.513  69.093  1.00  0.00    -0.119 OA 
HETATM   32  C   UNL     1      -5.759  17.343  70.072  1.00  0.00    -0.243 C  
ENDBRANCH  29  31
ENDBRANCH  23  29
BRANCH  27  33
HETATM   33  C   UNL     1     -10.447  16.526  67.861  1.00  0.00    -0.313 C  
BRANCH  33  34
HETATM   34  C   UNL     1     -10.427  17.810  68.705  1.00  0.00    -0.295 C  
HETATM   35  C   UNL     1      -8.762  19.067  67.232  1.00  0.00    -0.298 C  
HETATM   36  O   UNL     1     -11.119  19.287  66.921  1.00  0.00    -0.350 OA 
HETATM   37  C   UNL     1     -10.120  19.105  67.927  1.00  0.00    -0.386 C  
HETATM   38  C   UNL     1     -10.183  20.305  68.880  1.00  0.00    -0.169 C  
HETATM   39  H   UNL     1     -10.930  20.085  66.441  1.00  0.00     0.000 HD 
ENDBRANCH  33  34
ENDBRANCH  27  33
ENDBRANCH  21  22
ENDBRANCH   1  21
BRANCH   3  40
HETATM   40  O   UNL     1      -5.990  10.943  69.450  1.00  0.00    -0.042 OA 
HETATM   41  C   UNL     1      -5.325  11.075  70.693  1.00  0.00    -0.114 C  
ENDBRANCH   3  40
TORSDOF 7
ENDMDL
MODEL       27
REMARK 921   NORMALIZED FREE ENERGY PREDICTED BY IDOCK:   -5.60 KCAL/MOL
REMARK 922        TOTAL FREE ENERGY PREDICTED BY IDOCK:   -9.76 KCAL/MOL
REMARK 923 INTER-LIGAND FREE ENERGY PREDICTED BY IDOCK:   -8.54 KCAL/MOL
REMARK 924 INTRA-LIGAND FREE ENERGY PREDICTED BY IDOCK:   -1.22 KCAL/MOL
REMARK 927      BINDING AFFINITY PREDICTED BY RF-SCORE:    0.00 PKD
ROOT
HETATM    1  C   UNL     1      -7.789   8.012  69.408  1.00  0.00    -0.113 C  
HETATM    2  O   UNL     1     -14.111   8.151  71.600  1.00  0.00    -0.396 OA 
HETATM    3  C   UNL     1      -7.080   6.717  69.072  1.00  0.00    -0.089 C  
HETATM    4  C   UNL     1      -8.339   7.800  70.891  1.00  0.00    -0.111 C  
HETATM    5  C   UNL     1     -14.033   9.379  72.343  1.00  0.00    -0.282 C  
HETATM    6  C   UNL     1      -6.728   6.044  70.167  1.00  0.00    -0.052 C  
HETATM    7  C   UNL     1      -7.216   6.661  71.450  1.00  0.00    -0.082 C  
HETATM    8  C   UNL     1      -9.970   7.777  71.088  1.00  0.00    -0.194 A  
HETATM    9  C   UNL     1     -10.601   8.968  71.525  1.00  0.00    -0.415 A  
HETATM   10  O   UNL     1     -12.714   9.978  72.311  1.00  0.00    -0.318 OA 
HETATM   11  C   UNL     1     -11.987   8.993  71.709  1.00  0.00    -0.368 A  
HETATM   12  C   UNL     1      -6.029   7.286  72.190  1.00  0.00    -0.037 C  
HETATM   13  C   UNL     1     -12.792   7.943  71.341  1.00  0.00    -0.280 A  
HETATM   14  C   UNL     1     -12.262   6.741  70.948  1.00  0.00    -0.386 A  
HETATM   15  C   UNL     1      -5.971   6.594  73.547  1.00  0.00    -0.058 C  
HETATM   16  C   UNL     1     -10.867   6.608  71.063  1.00  0.00    -0.289 A  
HETATM   17  C   UNL     1     -10.509   5.300  71.903  1.00  0.00    -0.282 C  
HETATM   18  C   UNL     1      -9.046   5.477  72.045  1.00  0.00    -0.141 C  
HETATM   19  N   UNL     1      -7.648   5.489  72.297  1.00  0.00    -0.099 NA 
HETATM   20  C   UNL     1      -7.237   5.761  73.670  1.00  0.00    -0.086 C  
ENDROOT
BRANCH   1  21
HETATM   21  O   UNL     1      -8.733   8.403  68.417  1.00  0.00    -0.135 OA 
BRANCH  21  22
HETATM   22  C   UNL     1      -8.360   9.552  67.775  1.00  0.00    -0.118 C  
HETATM   23  C   UNL     1      -9.179  11.223  66.102  1.00  0.00    -0.222 C  
HETATM   24  C   UNL     1      -9.596  10.307  67.262  1.00  0.00    -0.159 C  
HETATM   25  O   UNL     1      -7.195   9.907  67.587  1.00  0.00    -0.087 OA 
HETATM   26  H   UNL     1     -11.343   9.842  66.480  1.00  0.00     0.000 HD 
HETATM   27  C   UNL     1     -10.204  11.118  68.432  1.00  0.00    -0.200 C  
HETATM   28  O   UNL     1     -10.579   9.376  66.797  1.00  0.00    -0.218 OA 
BRANCH  23  29
HETATM   29  C   UNL     1      -8.576  10.448  64.939  1.00  0.00    -0.182 C  
HETATM   30  O   UNL     1      -7.409  10.091  64.827  1.00  0.00    -0.135 OA 
BRANCH  29  31
HETATM   31  O   UNL     1      -9.572  10.196  64.033  1.00  0.00    -0.291 OA 
HETATM   32  C   UNL     1     -10.099  11.377  63.434  1.00  0.00    -0.405 C  
ENDBRANCH  29  31
ENDBRANCH  23  29
BRANCH  27  33
HETATM   33  C   UNL     1     -11.448  11.975  68.113  1.00  0.00    -0.383 C  
BRANCH  33  34
HETATM   34  C   UNL     1     -11.427  13.387  68.722  1.00  0.00    -0.344 C  
HETATM   35  C   UNL     1     -10.215  14.498  66.767  1.00  0.00    -0.266 C  
HETATM   36  O   UNL     1     -12.598  14.458  66.898  1.00  0.00    -0.540 OA 
HETATM   37  C   UNL     1     -11.420  14.543  67.702  1.00  0.00    -0.353 C  
HETATM   38  C   UNL     1     -11.450  15.885  68.446  1.00  0.00    -0.348 C  
HETATM   39  H   UNL     1     -12.595  15.170  66.270  1.00  0.00     0.000 HD 
ENDBRANCH  33  34
ENDBRANCH  27  33
ENDBRANCH  21  22
ENDBRANCH   1  21
BRANCH   3  40
HETATM   40  O   UNL     1      -6.809   6.188  67.837  1.00  0.00    -0.062 OA 
HETATM   41  C   UNL     1      -5.655   6.593  67.124  1.00  0.00    -0.013 C  
ENDBRANCH   3  40
TORSDOF 7
ENDMDL
MODEL       28
REMARK 921   NORMALIZED FREE ENERGY PREDICTED BY IDOCK:   -5.58 KCAL/MOL
REMARK 922        TOTAL FREE ENERGY PREDICTED BY IDOCK:   -9.73 KCAL/MOL
REMARK 923 INTER-LIGAND FREE ENERGY PREDICTED BY IDOCK:   -8.43 KCAL/MOL
REMARK 924 INTRA-LIGAND FREE ENERGY PREDICTED BY IDOCK:   -1.29 KCAL/MOL
REMARK 927      BINDING AFFINITY PREDICTED BY RF-SCORE:    0.00 PKD
ROOT
HETATM    1  C   UNL     1      -8.742  12.297  67.620  1.00  0.00    -0.175 C  
HETATM    2  O   UNL     1     -13.415  11.639  72.366  1.00  0.00    -0.291 OA 
HETATM    3  C   UNL     1      -8.305  13.650  67.100  1.00  0.00    -0.137 C  
HETATM    4  C   UNL     1     -10.330  12.297  67.467  1.00  0.00    -0.214 C  
HETATM    5  C   UNL     1     -13.883  10.330  71.999  1.00  0.00     0.077 C  
HETATM    6  C   UNL     1      -9.218  14.191  66.293  1.00  0.00    -0.152 C  
HETATM    7  C   UNL     1     -10.493  13.398  66.189  1.00  0.00    -0.295 C  
HETATM    8  C   UNL     1     -11.215  12.233  68.851  1.00  0.00    -0.323 A  
HETATM    9  C   UNL     1     -11.722  10.973  69.254  1.00  0.00    -0.397 A  
HETATM   10  O   UNL     1     -13.205   9.791  70.837  1.00  0.00    -0.315 OA 
HETATM   11  C   UNL     1     -12.482  10.872  70.423  1.00  0.00    -0.327 A  
HETATM   12  C   UNL     1     -10.557  12.730  64.812  1.00  0.00    -0.348 C  
HETATM   13  C   UNL     1     -12.640  11.929  71.285  1.00  0.00    -0.277 A  
HETATM   14  C   UNL     1     -12.218  13.190  70.954  1.00  0.00    -0.330 A  
HETATM   15  C   UNL     1     -11.833  13.246  64.157  1.00  0.00    -0.497 C  
HETATM   16  C   UNL     1     -11.734  13.360  69.645  1.00  0.00    -0.375 A  
HETATM   17  C   UNL     1     -12.499  14.563  68.930  1.00  0.00     0.067 C  
HETATM   18  C   UNL     1     -11.970  14.426  67.554  1.00  0.00    -0.354 C  
HETATM   19  N   UNL     1     -11.589  14.435  66.187  1.00  0.00    -0.362 NA 
HETATM   20  C   UNL     1     -12.600  14.007  65.226  1.00  0.00    -0.470 C  
ENDROOT
BRANCH   1  21
HETATM   21  O   UNL     1      -8.215  12.000  68.908  1.00  0.00    -0.024 OA 
BRANCH  21  22
HETATM   22  C   UNL     1      -7.215  11.067  68.853  1.00  0.00    -0.103 C  
HETATM   23  C   UNL     1      -6.575   8.818  69.744  1.00  0.00    -0.041 C  
HETATM   24  C   UNL     1      -7.747   9.684  69.259  1.00  0.00    -0.095 C  
HETATM   25  O   UNL     1      -6.041  11.310  68.571  1.00  0.00    -0.043 OA 
HETATM   26  H   UNL     1      -9.031   8.963  70.568  1.00  0.00     0.000 HD 
HETATM   27  C   UNL     1      -8.455   9.046  68.039  1.00  0.00    -0.125 C  
HETATM   28  O   UNL     1      -8.702   9.818  70.317  1.00  0.00    -0.209 OA 
BRANCH  23  29
HETATM   29  C   UNL     1      -5.862   9.426  70.943  1.00  0.00    -0.060 C  
HETATM   30  O   UNL     1      -5.772  10.619  71.212  1.00  0.00    -0.289 OA 
BRANCH  29  31
HETATM   31  O   UNL     1      -5.344   8.405  71.693  1.00  0.00    -0.033 OA 
HETATM   32  C   UNL     1      -6.206   7.272  71.772  1.00  0.00    -0.037 C  
ENDBRANCH  29  31
ENDBRANCH  23  29
BRANCH  27  33
HETATM   33  C   UNL     1      -9.038   7.629  68.234  1.00  0.00    -0.136 C  
BRANCH  33  34
HETATM   34  C   UNL     1     -10.430   7.593  68.885  1.00  0.00    -0.211 C  
HETATM   35  C   UNL     1     -10.235   5.212  69.788  1.00  0.00    -0.357 C  
HETATM   36  O   UNL     1      -9.644   7.105  71.118  1.00  0.00    -0.165 OA 
HETATM   37  C   UNL     1     -10.559   6.668  70.111  1.00  0.00    -0.221 C  
HETATM   38  C   UNL     1     -11.978   6.769  70.684  1.00  0.00    -0.418 C  
HETATM   39  H   UNL     1      -9.723   6.535  71.874  1.00  0.00     0.000 HD 
ENDBRANCH  33  34
ENDBRANCH  27  33
ENDBRANCH  21  22
ENDBRANCH   1  21
BRANCH   3  40
HETATM   40  O   UNL     1      -7.156  14.342  67.380  1.00  0.00    -0.184 OA 
HETATM   41  C   UNL     1      -7.188  15.749  67.534  1.00  0.00    -0.184 C  
ENDBRANCH   3  40
TORSDOF 7
ENDMDL
MODEL       29
REMARK 921   NORMALIZED FREE ENERGY PREDICTED BY IDOCK:   -5.53 KCAL/MOL
REMARK 922        TOTAL FREE ENERGY PREDICTED BY IDOCK:   -9.66 KCAL/MOL
REMARK 923 INTER-LIGAND FREE ENERGY PREDICTED BY IDOCK:   -7.69 KCAL/MOL
REMARK 924 INTRA-LIGAND FREE ENERGY PREDICTED BY IDOCK:   -1.97 KCAL/MOL
REMARK 927      BINDING AFFINITY PREDICTED BY RF-SCORE:    0.00 PKD
ROOT
HETATM    1  C   UNL     1      -9.577   8.204  67.744  1.00  0.00    -0.151 C  
HETATM    2  O   UNL     1     -11.278  14.613  68.662  1.00  0.00    -0.252 OA 
HETATM    3  C   UNL     1     -10.543   7.068  68.005  1.00  0.00    -0.207 C  
HETATM    4  C   UNL     1      -9.578   9.056  69.094  1.00  0.00    -0.161 C  
HETATM    5  C   UNL     1      -9.963  15.127  68.932  1.00  0.00    -0.227 C  
HETATM    6  C   UNL     1     -10.713   6.849  69.309  1.00  0.00    -0.265 C  
HETATM    7  C   UNL     1     -10.010   7.843  70.195  1.00  0.00    -0.190 C  
HETATM    8  C   UNL     1     -10.168  10.588  69.011  1.00  0.00    -0.233 A  
HETATM    9  C   UNL     1      -9.237  11.650  68.893  1.00  0.00     0.045 A  
HETATM   10  O   UNL     1      -8.939  14.102  68.913  1.00  0.00    -0.111 OA 
HETATM   11  C   UNL     1      -9.694  12.969  68.823  1.00  0.00     0.059 A  
HETATM   12  C   UNL     1      -8.808   7.162  70.857  1.00  0.00    -0.150 C  
HETATM   13  C   UNL     1     -11.029  13.276  68.717  1.00  0.00    -0.260 A  
HETATM   14  C   UNL     1     -11.996  12.315  68.862  1.00  0.00    -0.300 A  
HETATM   15  C   UNL     1      -9.036   7.278  72.359  1.00  0.00    -0.155 C  
HETATM   16  C   UNL     1     -11.551  11.038  69.247  1.00  0.00    -0.384 A  
HETATM   17  C   UNL     1     -12.349  10.547  70.538  1.00  0.00    -0.432 C  
HETATM   18  C   UNL     1     -11.597   9.310  70.852  1.00  0.00    -0.301 C  
HETATM   19  N   UNL     1     -10.986   8.114  71.313  1.00  0.00    -0.235 NA 
HETATM   20  C   UNL     1     -10.223   8.209  72.553  1.00  0.00    -0.313 C  
ENDROOT
BRANCH   1  21
HETATM   21  O   UNL     1      -9.855   8.905  66.537  1.00  0.00    -0.230 OA 
BRANCH  21  22
HETATM   22  C   UNL     1      -8.713   9.334  65.915  1.00  0.00    -0.154 C  
HETATM   23  C   UNL     1      -7.920  10.490  63.844  1.00  0.00     0.000 C  
HETATM   24  C   UNL     1      -9.038  10.435  64.894  1.00  0.00    -0.208 C  
HETATM   25  O   UNL     1      -7.589   8.867  66.108  1.00  0.00    -0.089 OA 
HETATM   26  H   UNL     1     -10.481  10.829  63.613  1.00  0.00     0.000 HD 
HETATM   27  C   UNL     1      -9.177  11.782  65.643  1.00  0.00    -0.109 C  
HETATM   28  O   UNL     1     -10.281  10.148  64.244  1.00  0.00    -0.177 OA 
BRANCH  23  29
HETATM   29  C   UNL     1      -7.762   9.175  63.094  1.00  0.00    -0.114 C  
HETATM   30  O   UNL     1      -8.658   8.393  62.796  1.00  0.00    -0.130 OA 
BRANCH  29  31
HETATM   31  O   UNL     1      -6.437   9.016  62.787  1.00  0.00    -0.095 OA 
HETATM   32  C   UNL     1      -5.604  10.027  63.349  1.00  0.00    -0.112 C  
ENDBRANCH  29  31
ENDBRANCH  23  29
BRANCH  27  33
HETATM   33  C   UNL     1      -9.476  13.030  64.784  1.00  0.00     0.475 C  
BRANCH  33  34
HETATM   34  C   UNL     1     -10.674  13.866  65.263  1.00  0.00    -0.352 C  
HETATM   35  C   UNL     1     -12.298  13.051  63.467  1.00  0.00    -0.500 C  
HETATM   36  O   UNL     1     -12.162  11.990  65.602  1.00  0.00    -0.503 OA 
HETATM   37  C   UNL     1     -12.060  13.264  64.960  1.00  0.00    -0.408 C  
HETATM   38  C   UNL     1     -13.154  14.173  65.535  1.00  0.00    -0.166 C  
HETATM   39  H   UNL     1     -13.016  11.619  65.416  1.00  0.00     0.000 HD 
ENDBRANCH  33  34
ENDBRANCH  27  33
ENDBRANCH  21  22
ENDBRANCH   1  21
BRANCH   3  40
HETATM   40  O   UNL     1     -11.237   6.313  67.097  1.00  0.00    -0.334 OA 
HETATM   41  C   UNL     1     -10.654   5.148  66.542  1.00  0.00    -0.260 C  
ENDBRANCH   3  40
TORSDOF 7
ENDMDL
MODEL       30
REMARK 921   NORMALIZED FREE ENERGY PREDICTED BY IDOCK:   -5.52 KCAL/MOL
REMARK 922        TOTAL FREE ENERGY PREDICTED BY IDOCK:   -9.64 KCAL/MOL
REMARK 923 INTER-LIGAND FREE ENERGY PREDICTED BY IDOCK:   -8.88 KCAL/MOL
REMARK 924 INTRA-LIGAND FREE ENERGY PREDICTED BY IDOCK:   -0.76 KCAL/MOL
REMARK 927      BINDING AFFINITY PREDICTED BY RF-SCORE:    0.00 PKD
ROOT
HETATM    1  C   UNL     1     -10.344  12.703  67.423  1.00  0.00    -0.220 C  
HETATM    2  O   UNL     1      -5.989  17.784  67.552  1.00  0.00    -0.145 OA 
HETATM    3  C   UNL     1     -11.773  12.878  66.958  1.00  0.00    -0.385 C  
HETATM    4  C   UNL     1     -10.143  13.820  68.545  1.00  0.00    -0.225 C  
HETATM    5  C   UNL     1      -5.144  17.291  68.605  1.00  0.00    -0.144 C  
HETATM    6  C   UNL     1     -12.518  13.509  67.865  1.00  0.00     0.284 C  
HETATM    7  C   UNL     1     -11.746  13.995  69.062  1.00  0.00    -0.330 C  
HETATM    8  C   UNL     1      -9.059  15.014  68.225  1.00  0.00    -0.182 A  
HETATM    9  C   UNL     1      -7.759  14.893  68.777  1.00  0.00    -0.139 A  
HETATM   10  O   UNL     1      -5.595  16.024  69.147  1.00  0.00    -0.109 OA 
HETATM   11  C   UNL     1      -6.806  15.886  68.534  1.00  0.00    -0.124 A  
HETATM   12  C   UNL     1     -12.096  13.123  70.273  1.00  0.00    -0.399 C  
HETATM   13  C   UNL     1      -7.032  16.916  67.654  1.00  0.00    -0.137 A  
HETATM   14  C   UNL     1      -8.271  17.130  67.109  1.00  0.00    -0.214 A  
HETATM   15  C   UNL     1     -12.659  14.073  71.324  1.00  0.00    -0.444 C  
HETATM   16  C   UNL     1      -9.314  16.322  67.595  1.00  0.00    -0.218 A  
HETATM   17  C   UNL     1     -10.528  17.230  68.089  1.00  0.00    -0.382 C  
HETATM   18  C   UNL     1     -11.388  16.197  68.710  1.00  0.00    -0.359 C  
HETATM   19  N   UNL     1     -12.326  15.355  69.364  1.00  0.00    -0.198 NA 
HETATM   20  C   UNL     1     -12.417  15.485  70.814  1.00  0.00    -0.440 C  
ENDROOT
BRANCH   1  21
HETATM   21  O   UNL     1      -9.408  12.686  66.352  1.00  0.00    -0.235 OA 
BRANCH  21  22
HETATM   22  C   UNL     1      -9.199  11.422  65.870  1.00  0.00    -0.216 C  
HETATM   23  C   UNL     1      -7.717   9.427  66.161  1.00  0.00    -0.100 C  
HETATM   24  C   UNL     1      -8.425  10.576  66.893  1.00  0.00    -0.125 C  
HETATM   25  O   UNL     1      -9.536  11.031  64.751  1.00  0.00    -0.223 OA 
HETATM   26  H   UNL     1      -6.969  10.863  68.189  1.00  0.00     0.000 HD 
HETATM   27  C   UNL     1      -9.420  10.044  67.952  1.00  0.00    -0.159 C  
HETATM   28  O   UNL     1      -7.448  11.385  67.556  1.00  0.00    -0.101 OA 
BRANCH  23  29
HETATM   29  C   UNL     1      -6.733   9.926  65.112  1.00  0.00    -0.109 C  
HETATM   30  O   UNL     1      -5.806  10.706  65.293  1.00  0.00    -0.135 OA 
BRANCH  29  31
HETATM   31  O   UNL     1      -7.049   9.335  63.918  1.00  0.00    -0.092 OA 
HETATM   32  C   UNL     1      -6.507  10.020  62.791  1.00  0.00    -0.125 C  
ENDBRANCH  29  31
ENDBRANCH  23  29
BRANCH  27  33
HETATM   33  C   UNL     1      -8.840   9.141  69.062  1.00  0.00    -0.139 C  
BRANCH  33  34
HETATM   34  C   UNL     1      -9.737   7.957  69.459  1.00  0.00    -0.173 C  
HETATM   35  C   UNL     1     -10.110   8.708  71.872  1.00  0.00    -0.398 C  
HETATM   36  O   UNL     1     -11.632   9.299  70.130  1.00  0.00    -0.427 OA 
HETATM   37  C   UNL     1     -10.763   8.252  70.570  1.00  0.00    -0.225 C  
HETATM   38  C   UNL     1     -11.618   7.004  70.826  1.00  0.00    -0.381 C  
HETATM   39  H   UNL     1     -12.265   9.481  70.815  1.00  0.00     0.000 HD 
ENDBRANCH  33  34
ENDBRANCH  27  33
ENDBRANCH  21  22
ENDBRANCH   1  21
BRANCH   3  40
HETATM   40  O   UNL     1     -12.334  12.504  65.765  1.00  0.00    -0.627 OA 
HETATM   41  C   UNL     1     -12.338  13.397  64.666  1.00  0.00    -0.382 C  
ENDBRANCH   3  40
TORSDOF 7
ENDMDL
MODEL       31
REMARK 921   NORMALIZED FREE ENERGY PREDICTED BY IDOCK:   -5.51 KCAL/MOL
REMARK 922        TOTAL FREE ENERGY PREDICTED BY IDOCK:   -9.63 KCAL/MOL
REMARK 923 INTER-LIGAND FREE ENERGY PREDICTED BY IDOCK:   -8.29 KCAL/MOL
REMARK 924 INTRA-LIGAND FREE ENERGY PREDICTED BY IDOCK:   -1.33 KCAL/MOL
REMARK 927      BINDING AFFINITY PREDICTED BY RF-SCORE:    0.00 PKD
ROOT
HETATM    1  C   UNL     1     -10.322  10.955  69.156  1.00  0.00    -0.208 C  
HETATM    2  O   UNL     1      -7.694   9.564  63.160  1.00  0.00    -0.118 OA 
HETATM    3  C   UNL     1     -11.789  11.280  69.338  1.00  0.00    -0.355 C  
HETATM    4  C   UNL     1      -9.821  11.963  68.025  1.00  0.00    -0.190 C  
HETATM    5  C   UNL     1      -6.350   9.993  63.431  1.00  0.00    -0.136 C  
HETATM    6  C   UNL     1     -12.084  12.507  68.911  1.00  0.00    -0.167 C  
HETATM    7  C   UNL     1     -10.934  13.220  68.251  1.00  0.00    -0.256 C  
HETATM    8  C   UNL     1      -9.330  11.305  66.601  1.00  0.00    -0.196 A  
HETATM    9  C   UNL     1      -7.939  11.125  66.399  1.00  0.00    -0.147 A  
HETATM   10  O   UNL     1      -6.183  10.521  64.771  1.00  0.00    -0.114 OA 
HETATM   11  C   UNL     1      -7.477  10.572  65.202  1.00  0.00    -0.036 A  
HETATM   12  C   UNL     1     -10.427  14.325  69.184  1.00  0.00    -0.170 C  
HETATM   13  C   UNL     1      -8.330  10.056  64.258  1.00  0.00    -0.169 A  
HETATM   14  C   UNL     1      -9.687  10.223  64.354  1.00  0.00    -0.381 A  
HETATM   15  C   UNL     1     -10.563  15.626  68.403  1.00  0.00    -0.252 C  
HETATM   16  C   UNL     1     -10.139  11.053  65.395  1.00  0.00    -0.326 A  
HETATM   17  C   UNL     1     -11.094  12.190  64.814  1.00  0.00    -0.364 C  
HETATM   18  C   UNL     1     -11.279  13.018  66.028  1.00  0.00    -0.292 C  
HETATM   19  N   UNL     1     -11.552  13.936  67.076  1.00  0.00    -0.349 NA 
HETATM   20  C   UNL     1     -10.919  15.247  66.975  1.00  0.00    -0.324 C  
ENDROOT
BRANCH   1  21
HETATM   21  O   UNL     1     -10.081   9.569  68.941  1.00  0.00    -0.175 OA 
BRANCH  21  22
HETATM   22  C   UNL     1      -9.775   8.913  70.102  1.00  0.00    -0.179 C  
HETATM   23  C   UNL     1     -10.034   6.696  71.234  1.00  0.00    -0.196 C  
HETATM   24  C   UNL     1      -9.804   7.392  69.884  1.00  0.00    -0.178 C  
HETATM   25  O   UNL     1      -9.558   9.461  71.184  1.00  0.00    -0.253 OA 
HETATM   26  H   UNL     1     -10.885   6.107  68.855  1.00  0.00     0.000 HD 
HETATM   27  C   UNL     1      -8.464   6.956  69.244  1.00  0.00    -0.129 C  
HETATM   28  O   UNL     1     -10.867   7.047  68.990  1.00  0.00    -0.222 OA 
BRANCH  23  29
HETATM   29  C   UNL     1     -11.346   7.111  71.884  1.00  0.00    -0.260 C  
HETATM   30  O   UNL     1     -12.471   6.956  71.423  1.00  0.00    -0.357 OA 
BRANCH  29  31
HETATM   31  O   UNL     1     -11.059   7.678  73.097  1.00  0.00    -0.404 OA 
HETATM   32  C   UNL     1      -9.942   7.077  73.749  1.00  0.00    -0.330 C  
ENDBRANCH  29  31
ENDBRANCH  23  29
BRANCH  27  33
HETATM   33  C   UNL     1      -8.281   5.448  68.969  1.00  0.00    -0.094 C  
BRANCH  33  34
HETATM   34  C   UNL     1      -7.358   4.722  69.962  1.00  0.00    -0.054 C  
HETATM   35  C   UNL     1      -9.123   3.085  70.814  1.00  0.00    -0.186 C  
HETATM   36  O   UNL     1      -7.661   2.519  69.014  1.00  0.00    -0.046 OA 
HETATM   37  C   UNL     1      -7.719   3.250  70.241  1.00  0.00    -0.043 C  
HETATM   38  C   UNL     1      -6.690   2.641  71.203  1.00  0.00    -0.031 C  
HETATM   39  H   UNL     1      -7.883   1.612  69.185  1.00  0.00     0.000 HD 
ENDBRANCH  33  34
ENDBRANCH  27  33
ENDBRANCH  21  22
ENDBRANCH   1  21
BRANCH   3  40
HETATM   40  O   UNL     1     -12.785  10.481  69.837  1.00  0.00    -0.209 OA 
HETATM   41  C   UNL     1     -13.036  10.438  71.230  1.00  0.00    -0.399 C  
ENDBRANCH   3  40
TORSDOF 7
ENDMDL
MODEL       32
REMARK 921   NORMALIZED FREE ENERGY PREDICTED BY IDOCK:   -5.43 KCAL/MOL
REMARK 922        TOTAL FREE ENERGY PREDICTED BY IDOCK:   -9.52 KCAL/MOL
REMARK 923 INTER-LIGAND FREE ENERGY PREDICTED BY IDOCK:   -7.93 KCAL/MOL
REMARK 924 INTRA-LIGAND FREE ENERGY PREDICTED BY IDOCK:   -1.58 KCAL/MOL
REMARK 927      BINDING AFFINITY PREDICTED BY RF-SCORE:    0.00 PKD
ROOT
HETATM    1  C   UNL     1      -6.716  14.385  68.480  1.00  0.00    -0.097 C  
HETATM    2  O   UNL     1     -12.884  13.766  65.957  1.00  0.00    -0.402 OA 
HETATM    3  C   UNL     1      -6.437  15.170  69.744  1.00  0.00    -0.166 C  
HETATM    4  C   UNL     1      -7.521  15.397  67.544  1.00  0.00    -0.215 C  
HETATM    5  C   UNL     1     -12.515  13.578  64.581  1.00  0.00    -0.323 C  
HETATM    6  C   UNL     1      -6.497  16.485  69.537  1.00  0.00    -0.223 C  
HETATM    7  C   UNL     1      -6.939  16.868  68.150  1.00  0.00    -0.162 C  
HETATM    8  C   UNL     1      -9.077  15.008  67.186  1.00  0.00    -0.229 A  
HETATM    9  C   UNL     1      -9.334  14.386  65.939  1.00  0.00    -0.100 A  
HETATM   10  O   UNL     1     -11.082  13.630  64.367  1.00  0.00    -0.375 OA 
HETATM   11  C   UNL     1     -10.643  14.040  65.592  1.00  0.00    -0.307 A  
HETATM   12  C   UNL     1      -5.736  17.416  67.374  1.00  0.00    -0.156 C  
HETATM   13  C   UNL     1     -11.686  14.148  66.478  1.00  0.00    -0.397 A  
HETATM   14  C   UNL     1     -11.534  14.774  67.688  1.00  0.00    -0.363 A  
HETATM   15  C   UNL     1      -6.116  18.832  66.959  1.00  0.00    -0.175 C  
HETATM   16  C   UNL     1     -10.297  15.404  67.911  1.00  0.00    -0.247 A  
HETATM   17  C   UNL     1     -10.525  16.924  68.335  1.00  0.00    -0.355 C  
HETATM   18  C   UNL     1      -9.125  17.407  68.328  1.00  0.00    -0.272 C  
HETATM   19  N   UNL     1      -7.858  18.047  68.354  1.00  0.00    -0.287 NA 
HETATM   20  C   UNL     1      -7.591  19.006  67.287  1.00  0.00    -0.229 C  
ENDROOT
BRANCH   1  21
HETATM   21  O   UNL     1      -7.316  13.120  68.732  1.00  0.00    -0.106 OA 
BRANCH  21  22
HETATM   22  C   UNL     1      -7.127  12.245  67.696  1.00  0.00    -0.126 C  
HETATM   23  C   UNL     1      -7.247   9.810  67.135  1.00  0.00    -0.087 C  
HETATM   24  C   UNL     1      -7.896  10.939  67.949  1.00  0.00    -0.109 C  
HETATM   25  O   UNL     1      -6.400  12.453  66.723  1.00  0.00    -0.139 OA 
HETATM   26  H   UNL     1      -8.322   9.797  69.496  1.00  0.00     0.000 HD 
HETATM   27  C   UNL     1      -9.376  11.147  67.547  1.00  0.00    -0.174 C  
HETATM   28  O   UNL     1      -7.847  10.604  69.340  1.00  0.00    -0.149 OA 
BRANCH  23  29
HETATM   29  C   UNL     1      -5.789   9.587  67.512  1.00  0.00    -0.044 C  
HETATM   30  O   UNL     1      -5.284   9.766  68.614  1.00  0.00    -0.037 OA 
BRANCH  29  31
HETATM   31  O   UNL     1      -5.129   9.127  66.403  1.00  0.00    -0.035 OA 
HETATM   32  C   UNL     1      -5.623   7.875  65.933  1.00  0.00    -0.036 C  
ENDBRANCH  29  31
ENDBRANCH  23  29
BRANCH  27  33
HETATM   33  C   UNL     1     -10.317   9.933  67.699  1.00  0.00    -0.275 C  
BRANCH  33  34
HETATM   34  C   UNL     1     -11.482  10.143  68.680  1.00  0.00    -0.105 C  
HETATM   35  C   UNL     1     -11.078   8.013  70.029  1.00  0.00    -0.154 C  
HETATM   36  O   UNL     1     -10.127  10.103  70.682  1.00  0.00    -0.365 OA 
HETATM   37  C   UNL     1     -11.286   9.524  70.078  1.00  0.00    -0.209 C  
HETATM   38  C   UNL     1     -12.495   9.854  70.961  1.00  0.00    -0.441 C  
HETATM   39  H   UNL     1     -10.006   9.722  71.543  1.00  0.00     0.000 HD 
ENDBRANCH  33  34
ENDBRANCH  27  33
ENDBRANCH  21  22
ENDBRANCH   1  21
BRANCH   3  40
HETATM   40  O   UNL     1      -6.175  14.696  71.002  1.00  0.00    -0.101 OA 
HETATM   41  C   UNL     1      -5.260  13.631  71.189  1.00  0.00    -0.163 C  
ENDBRANCH   3  40
TORSDOF 7
ENDMDL
MODEL       33
REMARK 921   NORMALIZED FREE ENERGY PREDICTED BY IDOCK:   -5.43 KCAL/MOL
REMARK 922        TOTAL FREE ENERGY PREDICTED BY IDOCK:   -9.51 KCAL/MOL
REMARK 923 INTER-LIGAND FREE ENERGY PREDICTED BY IDOCK:   -8.08 KCAL/MOL
REMARK 924 INTRA-LIGAND FREE ENERGY PREDICTED BY IDOCK:   -1.43 KCAL/MOL
REMARK 927      BINDING AFFINITY PREDICTED BY RF-SCORE:    0.00 PKD
ROOT
HETATM    1  C   UNL     1      -8.992  11.687  67.536  1.00  0.00    -0.165 C  
HETATM    2  O   UNL     1     -13.500  11.016  72.437  1.00  0.00    -0.216 OA 
HETATM    3  C   UNL     1      -8.423  13.033  67.142  1.00  0.00    -0.174 C  
HETATM    4  C   UNL     1     -10.575  11.882  67.473  1.00  0.00    -0.250 C  
HETATM    5  C   UNL     1     -14.134   9.819  71.958  1.00  0.00     0.052 C  
HETATM    6  C   UNL     1      -9.300  13.762  66.452  1.00  0.00    -0.215 C  
HETATM    7  C   UNL     1     -10.663  13.133  66.334  1.00  0.00    -0.284 C  
HETATM    8  C   UNL     1     -11.400  11.759  68.890  1.00  0.00    -0.326 A  
HETATM    9  C   UNL     1     -12.034  10.526  69.181  1.00  0.00    -0.149 A  
HETATM   10  O   UNL     1     -13.575   9.344  70.707  1.00  0.00    -0.089 OA 
HETATM   11  C   UNL     1     -12.749  10.377  70.373  1.00  0.00    -0.218 A  
HETATM   12  C   UNL     1     -10.865  12.639  64.898  1.00  0.00    -0.329 C  
HETATM   13  C   UNL     1     -12.745  11.340  71.353  1.00  0.00    -0.396 A  
HETATM   14  C   UNL     1     -12.192  12.575  71.137  1.00  0.00    -0.089 A  
HETATM   15  C   UNL     1     -12.098  13.365  64.375  1.00  0.00    -0.468 C  
HETATM   16  C   UNL     1     -11.749  12.839  69.829  1.00  0.00    -0.352 A  
HETATM   17  C   UNL     1     -12.398  14.194  69.294  1.00  0.00    -0.206 C  
HETATM   18  C   UNL     1     -11.948  14.157  67.884  1.00  0.00    -0.343 C  
HETATM   19  N   UNL     1     -11.628  14.280  66.506  1.00  0.00    -0.364 NA 
HETATM   20  C   UNL     1     -12.724  14.080  65.563  1.00  0.00    -0.486 C  
ENDROOT
BRANCH   1  21
HETATM   21  O   UNL     1      -8.450  11.187  68.752  1.00  0.00    -0.156 OA 
BRANCH  21  22
HETATM   22  C   UNL     1      -8.280   9.829  68.721  1.00  0.00    -0.108 C  
HETATM   23  C   UNL     1      -7.410   7.926  70.093  1.00  0.00    -0.070 C  
HETATM   24  C   UNL     1      -8.149   9.271  70.147  1.00  0.00    -0.145 C  
HETATM   25  O   UNL     1      -8.191   9.154  67.695  1.00  0.00    -0.108 OA 
HETATM   26  H   UNL     1      -7.326   9.838  71.844  1.00  0.00     0.000 HD 
HETATM   27  C   UNL     1      -9.565   9.114  70.751  1.00  0.00    -0.338 C  
HETATM   28  O   UNL     1      -7.407  10.183  70.963  1.00  0.00    -0.167 OA 
BRANCH  23  29
HETATM   29  C   UNL     1      -6.014   8.054  69.500  1.00  0.00    -0.033 C  
HETATM   30  O   UNL     1      -5.315   9.061  69.490  1.00  0.00    -0.034 OA 
BRANCH  29  31
HETATM   31  O   UNL     1      -5.655   6.836  68.989  1.00  0.00    -0.016 OA 
HETATM   32  C   UNL     1      -5.945   6.701  67.600  1.00  0.00    -0.024 C  
ENDBRANCH  29  31
ENDBRANCH  23  29
BRANCH  27  33
HETATM   33  C   UNL     1      -9.653   8.535  72.180  1.00  0.00    -0.382 C  
BRANCH  33  34
HETATM   34  C   UNL     1     -10.751   7.476  72.376  1.00  0.00    -0.311 C  
HETATM   35  C   UNL     1      -9.235   5.455  72.003  1.00  0.00    -0.152 C  
HETATM   36  O   UNL     1      -9.651   6.317  74.190  1.00  0.00    -0.164 OA 
HETATM   37  C   UNL     1     -10.264   6.116  72.915  1.00  0.00    -0.189 C  
HETATM   38  C   UNL     1     -11.465   5.181  73.109  1.00  0.00    -0.348 C  
HETATM   39  H   UNL     1      -9.351   5.479  74.522  1.00  0.00     0.000 HD 
ENDBRANCH  33  34
ENDBRANCH  27  33
ENDBRANCH  21  22
ENDBRANCH   1  21
BRANCH   3  40
HETATM   40  O   UNL     1      -7.190  13.555  67.431  1.00  0.00    -0.166 OA 
HETATM   41  C   UNL     1      -7.033  14.468  68.502  1.00  0.00    -0.105 C  
ENDBRANCH   3  40
TORSDOF 7
ENDMDL
MODEL       34
REMARK 921   NORMALIZED FREE ENERGY PREDICTED BY IDOCK:   -5.39 KCAL/MOL
REMARK 922        TOTAL FREE ENERGY PREDICTED BY IDOCK:   -9.46 KCAL/MOL
REMARK 923 INTER-LIGAND FREE ENERGY PREDICTED BY IDOCK:   -8.65 KCAL/MOL
REMARK 924 INTRA-LIGAND FREE ENERGY PREDICTED BY IDOCK:   -0.81 KCAL/MOL
REMARK 927      BINDING AFFINITY PREDICTED BY RF-SCORE:    0.00 PKD
ROOT
HETATM    1  C   UNL     1      -9.337   9.000  69.556  1.00  0.00    -0.160 C  
HETATM    2  O   UNL     1      -9.531   3.252  66.131  1.00  0.00    -0.157 OA 
HETATM    3  C   UNL     1      -8.925   9.058  71.011  1.00  0.00    -0.241 C  
HETATM    4  C   UNL     1     -10.495   7.903  69.506  1.00  0.00    -0.226 C  
HETATM    5  C   UNL     1     -10.536   3.627  65.176  1.00  0.00     0.191 C  
HETATM    6  C   UNL     1      -9.879   8.595  71.818  1.00  0.00    -0.365 C  
HETATM    7  C   UNL     1     -11.070   8.024  71.095  1.00  0.00    -0.252 C  
HETATM    8  C   UNL     1     -10.190   6.530  68.655  1.00  0.00    -0.192 A  
HETATM    9  C   UNL     1     -10.694   6.444  67.334  1.00  0.00    -0.411 A  
HETATM   10  O   UNL     1     -11.040   4.971  65.382  1.00  0.00     0.026 OA 
HETATM   11  C   UNL     1     -10.461   5.294  66.574  1.00  0.00    -0.298 A  
HETATM   12  C   UNL     1     -12.255   8.984  71.244  1.00  0.00    -0.373 C  
HETATM   13  C   UNL     1      -9.631   4.289  67.006  1.00  0.00    -0.203 A  
HETATM   14  C   UNL     1      -9.134   4.273  68.284  1.00  0.00    -0.172 A  
HETATM   15  C   UNL     1     -13.360   8.182  71.920  1.00  0.00    -0.350 C  
HETATM   16  C   UNL     1      -9.621   5.265  69.153  1.00  0.00    -0.201 A  
HETATM   17  C   UNL     1     -10.189   4.597  70.485  1.00  0.00    -0.211 C  
HETATM   18  C   UNL     1     -10.795   5.782  71.132  1.00  0.00    -0.248 C  
HETATM   19  N   UNL     1     -11.443   6.796  71.887  1.00  0.00    -0.268 NA 
HETATM   20  C   UNL     1     -12.900   6.733  71.943  1.00  0.00    -0.219 C  
ENDROOT
BRANCH   1  21
HETATM   21  O   UNL     1      -8.236   8.819  68.672  1.00  0.00    -0.114 OA 
BRANCH  21  22
HETATM   22  C   UNL     1      -7.918   9.969  68.003  1.00  0.00    -0.101 C  
HETATM   23  C   UNL     1      -8.204  11.097  65.788  1.00  0.00    -0.004 C  
HETATM   24  C   UNL     1      -8.881  10.191  66.826  1.00  0.00    -0.132 C  
HETATM   25  O   UNL     1      -6.962  10.698  68.271  1.00  0.00    -0.070 OA 
HETATM   26  H   UNL     1      -9.800   9.073  65.489  1.00  0.00     0.000 HD 
HETATM   27  C   UNL     1     -10.186  10.825  67.364  1.00  0.00    -0.241 C  
HETATM   28  O   UNL     1      -9.205   8.937  66.216  1.00  0.00    -0.175 OA 
BRANCH  23  29
HETATM   29  C   UNL     1      -6.916  10.495  65.244  1.00  0.00    -0.045 C  
HETATM   30  O   UNL     1      -5.775  10.778  65.590  1.00  0.00    -0.124 OA 
BRANCH  29  31
HETATM   31  O   UNL     1      -7.248   9.558  64.303  1.00  0.00    -0.106 OA 
HETATM   32  C   UNL     1      -7.912  10.111  63.168  1.00  0.00    -0.154 C  
ENDBRANCH  29  31
ENDBRANCH  23  29
BRANCH  27  33
HETATM   33  C   UNL     1     -11.280  11.155  66.326  1.00  0.00    -0.087 C  
BRANCH  33  34
HETATM   34  C   UNL     1     -11.483  12.657  66.064  1.00  0.00    -0.414 C  
HETATM   35  C   UNL     1     -11.066  12.542  63.547  1.00  0.00    -0.497 C  
HETATM   36  O   UNL     1     -13.268  12.386  64.456  1.00  0.00    -0.834 OA 
HETATM   37  C   UNL     1     -12.000  13.015  64.657  1.00  0.00    -0.392 C  
HETATM   38  C   UNL     1     -12.203  14.532  64.554  1.00  0.00    -0.483 C  
HETATM   39  H   UNL     1     -13.587  12.606  63.589  1.00  0.00     0.000 HD 
ENDBRANCH  33  34
ENDBRANCH  27  33
ENDBRANCH  21  22
ENDBRANCH   1  21
BRANCH   3  40
HETATM   40  O   UNL     1      -7.736   9.482  71.545  1.00  0.00    -0.266 OA 
HETATM   41  C   UNL     1      -6.757   8.541  71.948  1.00  0.00    -0.081 C  
ENDBRANCH   3  40
TORSDOF 7
ENDMDL
MODEL       35
REMARK 921   NORMALIZED FREE ENERGY PREDICTED BY IDOCK:   -5.34 KCAL/MOL
REMARK 922        TOTAL FREE ENERGY PREDICTED BY IDOCK:   -9.38 KCAL/MOL
REMARK 923 INTER-LIGAND FREE ENERGY PREDICTED BY IDOCK:   -8.96 KCAL/MOL
REMARK 924 INTRA-LIGAND FREE ENERGY PREDICTED BY IDOCK:   -0.43 KCAL/MOL
REMARK 927      BINDING AFFINITY PREDICTED BY RF-SCORE:    0.00 PKD
ROOT
HETATM    1  C   UNL     1     -10.093  11.996  66.398  1.00  0.00    -0.218 C  
HETATM    2  O   UNL     1      -9.828   7.898  71.683  1.00  0.00    -0.160 OA 
HETATM    3  C   UNL     1     -10.827  11.627  65.127  1.00  0.00    -0.288 C  
HETATM    4  C   UNL     1      -9.105  10.772  66.666  1.00  0.00    -0.174 C  
HETATM    5  C   UNL     1      -8.586   8.367  72.232  1.00  0.00    -0.197 C  
HETATM    6  C   UNL     1     -10.157  10.725  64.409  1.00  0.00    -0.419 C  
HETATM    7  C   UNL     1      -8.912  10.209  65.080  1.00  0.00    -0.192 C  
HETATM    8  C   UNL     1      -9.373   9.877  68.019  1.00  0.00    -0.140 A  
HETATM    9  C   UNL     1      -8.585  10.156  69.163  1.00  0.00    -0.167 A  
HETATM   10  O   UNL     1      -7.978   9.419  71.441  1.00  0.00    -0.318 OA 
HETATM   11  C   UNL     1      -8.777   9.418  70.335  1.00  0.00    -0.240 A  
HETATM   12  C   UNL     1      -7.684  10.789  64.371  1.00  0.00     0.270 C  
HETATM   13  C   UNL     1      -9.807   8.520  70.473  1.00  0.00    -0.180 A  
HETATM   14  C   UNL     1     -10.589   8.162  69.406  1.00  0.00    -0.206 A  
HETATM   15  C   UNL     1      -6.882   9.591  63.877  1.00  0.00    -0.105 C  
HETATM   16  C   UNL     1     -10.200   8.665  68.152  1.00  0.00    -0.250 A  
HETATM   17  C   UNL     1     -10.054   7.472  67.105  1.00  0.00    -0.317 C  
HETATM   18  C   UNL     1      -9.472   8.204  65.957  1.00  0.00    -0.087 C  
HETATM   19  N   UNL     1      -8.897   8.732  64.771  1.00  0.00    -0.108 NA 
HETATM   20  C   UNL     1      -7.515   8.354  64.493  1.00  0.00    -0.099 C  
ENDROOT
BRANCH   1  21
HETATM   21  O   UNL     1     -10.966  12.367  67.458  1.00  0.00    -0.234 OA 
BRANCH  21  22
HETATM   22  C   UNL     1     -11.269  13.702  67.433  1.00  0.00    -0.302 C  
HETATM   23  C   UNL     1     -10.556  15.897  68.399  1.00  0.00    -0.266 C  
HETATM   24  C   UNL     1     -10.061  14.536  67.888  1.00  0.00    -0.227 C  
HETATM   25  O   UNL     1     -12.371  14.168  67.139  1.00  0.00    -0.370 OA 
HETATM   26  H   UNL     1      -8.623  14.375  69.224  1.00  0.00     0.000 HD 
HETATM   27  C   UNL     1      -9.092  14.700  66.693  1.00  0.00    -0.285 C  
HETATM   28  O   UNL     1      -9.370  13.860  68.943  1.00  0.00    -0.085 OA 
BRANCH  23  29
HETATM   29  C   UNL     1     -11.513  15.762  69.575  1.00  0.00    -0.353 C  
HETATM   30  O   UNL     1     -12.733  15.881  69.541  1.00  0.00     0.004 OA 
BRANCH  29  31
HETATM   31  O   UNL     1     -10.778  15.464  70.691  1.00  0.00    -0.312 OA 
HETATM   32  C   UNL     1     -11.563  15.393  71.879  1.00  0.00    -0.442 C  
ENDBRANCH  29  31
ENDBRANCH  23  29
BRANCH  27  33
HETATM   33  C   UNL     1      -7.819  15.538  66.938  1.00  0.00    -0.229 C  
BRANCH  33  34
HETATM   34  C   UNL     1      -7.812  16.912  66.247  1.00  0.00    -0.346 C  
HETATM   35  C   UNL     1      -6.419  18.096  68.031  1.00  0.00    -0.189 C  
HETATM   36  O   UNL     1      -5.407  17.105  66.109  1.00  0.00    -0.334 OA 
HETATM   37  C   UNL     1      -6.583  17.792  66.544  1.00  0.00    -0.221 C  
HETATM   38  C   UNL     1      -6.685  19.103  65.754  1.00  0.00    -0.295 C  
HETATM   39  H   UNL     1      -4.648  17.648  66.291  1.00  0.00     0.000 HD 
ENDBRANCH  33  34
ENDBRANCH  27  33
ENDBRANCH  21  22
ENDBRANCH   1  21
BRANCH   3  40
HETATM   40  O   UNL     1     -12.044  12.074  64.684  1.00  0.00    -0.319 OA 
HETATM   41  C   UNL     1     -12.143  12.785  63.463  1.00  0.00    -0.559 C  
ENDBRANCH   3  40
TORSDOF 7
ENDMDL
MODEL       36
REMARK 921   NORMALIZED FREE ENERGY PREDICTED BY IDOCK:   -5.31 KCAL/MOL
REMARK 922        TOTAL FREE ENERGY PREDICTED BY IDOCK:   -9.35 KCAL/MOL
REMARK 923 INTER-LIGAND FREE ENERGY PREDICTED BY IDOCK:   -8.55 KCAL/MOL
REMARK 924 INTRA-LIGAND FREE ENERGY PREDICTED BY IDOCK:   -0.80 KCAL/MOL
REMARK 927      BINDING AFFINITY PREDICTED BY RF-SCORE:    0.00 PKD
ROOT
HETATM    1  C   UNL     1      -9.489  17.223  68.790  1.00  0.00    -0.256 C  
HETATM    2  O   UNL     1      -5.475  11.869  68.675  1.00  0.00    -0.049 OA 
HETATM    3  C   UNL     1      -9.560  18.203  67.638  1.00  0.00    -0.278 C  
HETATM    4  C   UNL     1      -7.936  17.129  69.146  1.00  0.00    -0.041 C  
HETATM    5  C   UNL     1      -5.294  11.729  70.093  1.00  0.00    -0.100 C  
HETATM    6  C   UNL     1      -8.488  18.992  67.589  1.00  0.00    -0.316 C  
HETATM    7  C   UNL     1      -7.426  18.649  68.599  1.00  0.00    -0.307 C  
HETATM    8  C   UNL     1      -7.200  15.679  68.903  1.00  0.00    -0.146 A  
HETATM    9  C   UNL     1      -7.029  14.828  70.023  1.00  0.00    -0.083 A  
HETATM   10  O   UNL     1      -5.986  12.750  70.856  1.00  0.00    -0.265 OA 
HETATM   11  C   UNL     1      -6.406  13.587  69.864  1.00  0.00    -0.071 A  
HETATM   12  C   UNL     1      -7.410  19.719  69.695  1.00  0.00    -0.045 C  
HETATM   13  C   UNL     1      -6.076  13.089  68.627  1.00  0.00    -0.073 A  
HETATM   14  C   UNL     1      -6.170  13.860  67.498  1.00  0.00    -0.016 A  
HETATM   15  C   UNL     1      -6.004  20.305  69.688  1.00  0.00    -0.386 C  
HETATM   16  C   UNL     1      -6.498  15.213  67.694  1.00  0.00    -0.180 A  
HETATM   17  C   UNL     1      -5.423  16.147  66.977  1.00  0.00     0.125 C  
HETATM   18  C   UNL     1      -5.862  17.473  67.470  1.00  0.00    -0.136 C  
HETATM   19  N   UNL     1      -6.124  18.815  67.855  1.00  0.00    -0.190 NA 
HETATM   20  C   UNL     1      -5.167  19.428  68.770  1.00  0.00    -0.190 C  
ENDROOT
BRANCH   1  21
HETATM   21  O   UNL     1     -10.167  16.001  68.525  1.00  0.00    -0.225 OA 
BRANCH  21  22
HETATM   22  C   UNL     1     -10.437  15.302  69.670  1.00  0.00    -0.270 C  
HETATM   23  C   UNL     1     -12.083  13.692  70.648  1.00  0.00    -0.398 C  
HETATM   24  C   UNL     1     -11.345  14.100  69.365  1.00  0.00    -0.272 C  
HETATM   25  O   UNL     1     -10.050  15.619  70.796  1.00  0.00     0.163 OA 
HETATM   26  H   UNL     1     -12.864  13.711  68.174  1.00  0.00     0.000 HD 
HETATM   27  C   UNL     1     -10.472  12.943  68.823  1.00  0.00    -0.183 C  
HETATM   28  O   UNL     1     -12.303  14.453  68.362  1.00  0.00    -0.203 OA 
BRANCH  23  29
HETATM   29  C   UNL     1     -12.948  14.816  71.202  1.00  0.00    -0.359 C  
HETATM   30  O   UNL     1     -13.384  15.777  70.579  1.00  0.00    -0.418 OA 
BRANCH  29  31
HETATM   31  O   UNL     1     -13.176  14.563  72.529  1.00  0.00    -0.380 OA 
HETATM   32  C   UNL     1     -12.272  15.244  73.395  1.00  0.00    -0.482 C  
ENDBRANCH  29  31
ENDBRANCH  23  29
BRANCH  27  33
HETATM   33  C   UNL     1     -11.198  11.623  68.482  1.00  0.00    -0.312 C  
BRANCH  33  34
HETATM   34  C   UNL     1     -10.790  10.996  67.139  1.00  0.00    -0.336 C  
HETATM   35  C   UNL     1      -8.696   9.828  68.019  1.00  0.00    -0.118 C  
HETATM   36  O   UNL     1     -10.803   8.709  67.923  1.00  0.00    -0.466 OA 
HETATM   37  C   UNL     1     -10.001   9.676  67.241  1.00  0.00    -0.197 C  
HETATM   38  C   UNL     1      -9.707   9.141  65.834  1.00  0.00    -0.336 C  
HETATM   39  H   UNL     1     -10.317   7.895  67.986  1.00  0.00     0.000 HD 
ENDBRANCH  33  34
ENDBRANCH  27  33
ENDBRANCH  21  22
ENDBRANCH   1  21
BRANCH   3  40
HETATM   40  O   UNL     1     -10.537  18.330  66.686  1.00  0.00    -0.364 OA 
HETATM   41  C   UNL     1     -10.512  19.415  65.776  1.00  0.00    -0.392 C  
ENDBRANCH   3  40
TORSDOF 7
ENDMDL
MODEL       37
REMARK 921   NORMALIZED FREE ENERGY PREDICTED BY IDOCK:   -5.30 KCAL/MOL
REMARK 922        TOTAL FREE ENERGY PREDICTED BY IDOCK:   -9.33 KCAL/MOL
REMARK 923 INTER-LIGAND FREE ENERGY PREDICTED BY IDOCK:   -7.57 KCAL/MOL
REMARK 924 INTRA-LIGAND FREE ENERGY PREDICTED BY IDOCK:   -1.76 KCAL/MOL
REMARK 927      BINDING AFFINITY PREDICTED BY RF-SCORE:    0.00 PKD
ROOT
HETATM    1  C   UNL     1      -9.818   8.357  70.045  1.00  0.00    -0.182 C  
HETATM    2  O   UNL     1      -8.958   4.219  64.854  1.00  0.00    -0.131 OA 
HETATM    3  C   UNL     1      -8.838   8.421  71.196  1.00  0.00    -0.164 C  
HETATM    4  C   UNL     1     -10.200   6.812  69.922  1.00  0.00    -0.211 C  
HETATM    5  C   UNL     1     -10.340   4.071  64.491  1.00  0.00    -0.206 C  
HETATM    6  C   UNL     1      -8.948   7.366  72.003  1.00  0.00    -0.143 C  
HETATM    7  C   UNL     1      -9.920   6.323  71.520  1.00  0.00    -0.184 C  
HETATM    8  C   UNL     1      -9.748   6.036  68.545  1.00  0.00    -0.142 A  
HETATM    9  C   UNL     1     -10.720   5.875  67.527  1.00  0.00    -0.359 A  
HETATM   10  O   UNL     1     -11.237   4.806  65.362  1.00  0.00    -0.103 OA 
HETATM   11  C   UNL     1     -10.381   5.219  66.340  1.00  0.00    -0.268 A  
HETATM   12  C   UNL     1     -11.174   6.360  72.399  1.00  0.00    -0.313 C  
HETATM   13  C   UNL     1      -9.090   4.846  66.055  1.00  0.00    -0.139 A  
HETATM   14  C   UNL     1      -8.099   4.929  66.997  1.00  0.00    -0.107 A  
HETATM   15  C   UNL     1     -11.302   4.968  73.004  1.00  0.00    -0.374 C  
HETATM   16  C   UNL     1      -8.501   5.293  68.294  1.00  0.00    -0.096 A  
HETATM   17  C   UNL     1      -7.975   4.222  69.352  1.00  0.00    -0.060 C  
HETATM   18  C   UNL     1      -8.663   4.703  70.572  1.00  0.00    -0.102 C  
HETATM   19  N   UNL     1      -9.250   5.006  71.828  1.00  0.00    -0.140 NA 
HETATM   20  C   UNL     1     -10.280   4.088  72.303  1.00  0.00    -0.157 C  
ENDROOT
BRANCH   1  21
HETATM   21  O   UNL     1      -9.340   9.000  68.869  1.00  0.00    -0.142 OA 
BRANCH  21  22
HETATM   22  C   UNL     1     -10.296   9.787  68.286  1.00  0.00    -0.198 C  
HETATM   23  C   UNL     1     -10.569  11.665  66.655  1.00  0.00    -0.281 C  
HETATM   24  C   UNL     1      -9.768  10.395  66.978  1.00  0.00    -0.178 C  
HETATM   25  O   UNL     1     -11.405  10.020  68.769  1.00  0.00    -0.172 OA 
HETATM   26  H   UNL     1      -8.058  11.110  66.311  1.00  0.00     0.000 HD 
HETATM   27  C   UNL     1      -9.901   9.342  65.851  1.00  0.00    -0.335 C  
HETATM   28  O   UNL     1      -8.385  10.734  67.119  1.00  0.00    -0.123 OA 
BRANCH  23  29
HETATM   29  C   UNL     1     -10.456  12.716  67.750  1.00  0.00    -0.221 C  
HETATM   30  O   UNL     1      -9.451  12.993  68.395  1.00  0.00    -0.215 OA 
BRANCH  29  31
HETATM   31  O   UNL     1     -11.675  13.323  67.886  1.00  0.00    -0.317 OA 
HETATM   32  C   UNL     1     -11.597  14.747  67.899  1.00  0.00    -0.351 C  
ENDBRANCH  29  31
ENDBRANCH  23  29
BRANCH  27  33
HETATM   33  C   UNL     1      -9.448   9.771  64.439  1.00  0.00    -0.233 C  
BRANCH  33  34
HETATM   34  C   UNL     1      -8.219   9.018  63.903  1.00  0.00    -0.172 C  
HETATM   35  C   UNL     1      -7.432  10.878  62.340  1.00  0.00    -0.096 C  
HETATM   36  O   UNL     1      -6.600  10.684  64.570  1.00  0.00    -0.354 OA 
HETATM   37  C   UNL     1      -7.045   9.909  63.454  1.00  0.00    -0.126 C  
HETATM   38  C   UNL     1      -5.876   9.028  62.994  1.00  0.00    -0.088 C  
HETATM   39  H   UNL     1      -5.876  11.234  64.293  1.00  0.00     0.000 HD 
ENDBRANCH  33  34
ENDBRANCH  27  33
ENDBRANCH  21  22
ENDBRANCH   1  21
BRANCH   3  40
HETATM   40  O   UNL     1      -7.891   9.376  71.458  1.00  0.00    -0.308 OA 
HETATM   41  C   UNL     1      -6.514   9.045  71.429  1.00  0.00    -0.079 C  
ENDBRANCH   3  40
TORSDOF 7
ENDMDL
MODEL       38
REMARK 921   NORMALIZED FREE ENERGY PREDICTED BY IDOCK:   -5.27 KCAL/MOL
REMARK 922        TOTAL FREE ENERGY PREDICTED BY IDOCK:   -9.30 KCAL/MOL
REMARK 923 INTER-LIGAND FREE ENERGY PREDICTED BY IDOCK:   -9.39 KCAL/MOL
REMARK 924 INTRA-LIGAND FREE ENERGY PREDICTED BY IDOCK:    0.09 KCAL/MOL
REMARK 927      BINDING AFFINITY PREDICTED BY RF-SCORE:    0.00 PKD
ROOT
HETATM    1  C   UNL     1     -10.312  10.051  67.683  1.00  0.00    -0.224 C  
HETATM    2  O   UNL     1     -14.284  12.776  72.331  1.00  0.00    -0.351 OA 
HETATM    3  C   UNL     1     -10.107   8.555  67.574  1.00  0.00    -0.221 C  
HETATM    4  C   UNL     1      -9.981  10.395  69.207  1.00  0.00    -0.246 C  
HETATM    5  C   UNL     1     -13.628  14.051  72.426  1.00  0.00    -0.557 C  
HETATM    6  C   UNL     1      -9.317   8.089  68.540  1.00  0.00    -0.142 C  
HETATM    7  C   UNL     1      -8.921   9.121  69.561  1.00  0.00    -0.151 C  
HETATM    8  C   UNL     1     -11.217  10.955  70.133  1.00  0.00    -0.317 A  
HETATM    9  C   UNL     1     -11.317  12.355  70.328  1.00  0.00     0.325 A  
HETATM   10  O   UNL     1     -12.471  14.158  71.559  1.00  0.00    -0.336 OA 
HETATM   11  C   UNL     1     -12.352  12.875  71.110  1.00  0.00    -0.165 A  
HETATM   12  C   UNL     1      -7.445   9.481  69.365  1.00  0.00    -0.088 C  
HETATM   13  C   UNL     1     -13.373  12.091  71.588  1.00  0.00    -0.139 A  
HETATM   14  C   UNL     1     -13.334  10.725  71.480  1.00  0.00    -0.324 A  
HETATM   15  C   UNL     1      -6.756   9.156  70.684  1.00  0.00    -0.076 C  
HETATM   16  C   UNL     1     -12.144  10.174  70.972  1.00  0.00    -0.476 A  
HETATM   17  C   UNL     1     -11.584   9.064  71.971  1.00  0.00    -0.413 C  
HETATM   18  C   UNL     1     -10.276   8.781  71.337  1.00  0.00    -0.280 C  
HETATM   19  N   UNL     1      -8.987   8.395  70.882  1.00  0.00    -0.149 NA 
HETATM   20  C   UNL     1      -7.854   8.840  71.687  1.00  0.00    -0.076 C  
ENDROOT
BRANCH   1  21
HETATM   21  O   UNL     1     -11.573  10.479  67.183  1.00  0.00    -0.251 OA 
BRANCH  21  22
HETATM   22  C   UNL     1     -11.558  11.794  66.802  1.00  0.00    -0.210 C  
HETATM   23  C   UNL     1     -10.054  13.540  65.828  1.00  0.00    -0.298 C  
HETATM   24  C   UNL     1     -10.423  12.050  65.798  1.00  0.00    -0.254 C  
HETATM   25  O   UNL     1     -12.313  12.662  67.242  1.00  0.00    -0.352 OA 
HETATM   26  H   UNL     1      -8.572  11.431  65.530  1.00  0.00     0.000 HD 
HETATM   27  C   UNL     1     -10.897  11.613  64.391  1.00  0.00    -0.399 C  
HETATM   28  O   UNL     1      -9.274  11.273  66.151  1.00  0.00    -0.194 OA 
BRANCH  23  29
HETATM   29  C   UNL     1      -9.586  13.995  67.203  1.00  0.00    -0.245 C  
HETATM   30  O   UNL     1      -8.558  13.651  67.775  1.00  0.00    -0.158 OA 
BRANCH  29  31
HETATM   31  O   UNL     1     -10.509  14.878  67.696  1.00  0.00    -0.245 OA 
HETATM   32  C   UNL     1     -10.862  15.901  66.767  1.00  0.00    -0.228 C  
ENDBRANCH  29  31
ENDBRANCH  23  29
BRANCH  27  33
HETATM   33  C   UNL     1      -9.904  11.818  63.227  1.00  0.00    -0.402 C  
BRANCH  33  34
HETATM   34  C   UNL     1      -9.557  10.539  62.447  1.00  0.00    -0.179 C  
HETATM   35  C   UNL     1      -7.355  10.082  63.656  1.00  0.00    -0.134 C  
HETATM   36  O   UNL     1      -9.406   9.103  64.386  1.00  0.00    -0.417 OA 
HETATM   37  C   UNL     1      -8.699   9.513  63.213  1.00  0.00    -0.227 C  
HETATM   38  C   UNL     1      -8.476   8.273  62.337  1.00  0.00    -0.126 C  
HETATM   39  H   UNL     1      -8.878   8.470  64.858  1.00  0.00     0.000 HD 
ENDBRANCH  33  34
ENDBRANCH  27  33
ENDBRANCH  21  22
ENDBRANCH   1  21
BRANCH   3  40
HETATM   40  O   UNL     1     -10.642   7.687  66.659  1.00  0.00    -0.274 OA 
HETATM   41  C   UNL     1     -10.922   6.347  67.024  1.00  0.00    -0.389 C  
ENDBRANCH   3  40
TORSDOF 7
ENDMDL
MODEL       39
REMARK 921   NORMALIZED FREE ENERGY PREDICTED BY IDOCK:   -5.27 KCAL/MOL
REMARK 922        TOTAL FREE ENERGY PREDICTED BY IDOCK:   -9.30 KCAL/MOL
REMARK 923 INTER-LIGAND FREE ENERGY PREDICTED BY IDOCK:   -8.36 KCAL/MOL
REMARK 924 INTRA-LIGAND FREE ENERGY PREDICTED BY IDOCK:   -0.93 KCAL/MOL
REMARK 927      BINDING AFFINITY PREDICTED BY RF-SCORE:    0.00 PKD
ROOT
HETATM    1  C   UNL     1      -8.712  12.430  67.452  1.00  0.00    -0.183 C  
HETATM    2  O   UNL     1     -13.219  11.051  72.204  1.00  0.00    -0.481 OA 
HETATM    3  C   UNL     1      -8.351  13.850  67.071  1.00  0.00    -0.092 C  
HETATM    4  C   UNL     1     -10.302  12.371  67.336  1.00  0.00    -0.217 C  
HETATM    5  C   UNL     1     -13.638   9.768  71.710  1.00  0.00    -0.313 C  
HETATM    6  C   UNL     1      -9.309  14.430  66.348  1.00  0.00    -0.284 C  
HETATM    7  C   UNL     1     -10.549  13.591  66.188  1.00  0.00    -0.290 C  
HETATM    8  C   UNL     1     -11.145  12.118  68.724  1.00  0.00    -0.297 A  
HETATM    9  C   UNL     1     -11.584  10.800  69.002  1.00  0.00    -0.370 A  
HETATM   10  O   UNL     1     -12.968   9.388  70.482  1.00  0.00     0.081 OA 
HETATM   11  C   UNL     1     -12.306  10.539  70.170  1.00  0.00    -0.265 A  
HETATM   12  C   UNL     1     -10.621  13.071  64.748  1.00  0.00    -0.380 C  
HETATM   13  C   UNL     1     -12.488  11.490  71.144  1.00  0.00    -0.337 A  
HETATM   14  C   UNL     1     -12.132  12.798  70.940  1.00  0.00    -0.144 A  
HETATM   15  C   UNL     1     -11.936  13.592  64.181  1.00  0.00    -0.498 C  
HETATM   16  C   UNL     1     -11.693  13.129  69.646  1.00  0.00    -0.370 A  
HETATM   17  C   UNL     1     -12.530  14.363  69.082  1.00  0.00    -0.010 C  
HETATM   18  C   UNL     1     -12.033  14.398  67.688  1.00  0.00    -0.343 C  
HETATM   19  N   UNL     1     -11.690  14.570  66.320  1.00  0.00    -0.373 NA 
HETATM   20  C   UNL     1     -12.707  14.198  65.342  1.00  0.00    -0.431 C  
ENDROOT
BRANCH   1  21
HETATM   21  O   UNL     1      -8.138  12.023  68.689  1.00  0.00    -0.137 OA 
BRANCH  21  22
HETATM   22  C   UNL     1      -7.173  11.067  68.520  1.00  0.00    -0.085 C  
HETATM   23  C   UNL     1      -6.510   8.785  69.302  1.00  0.00    -0.042 C  
HETATM   24  C   UNL     1      -7.700   9.689  68.950  1.00  0.00    -0.077 C  
HETATM   25  O   UNL     1      -6.026  11.287  68.129  1.00  0.00    -0.046 OA 
HETATM   26  H   UNL     1      -8.870   8.974  70.364  1.00  0.00     0.000 HD 
HETATM   27  C   UNL     1      -8.539   9.095  67.793  1.00  0.00    -0.121 C  
HETATM   28  O   UNL     1      -8.544   9.825  70.098  1.00  0.00    -0.203 OA 
BRANCH  23  29
HETATM   29  C   UNL     1      -5.668   9.349  70.437  1.00  0.00    -0.038 C  
HETATM   30  O   UNL     1      -5.433  10.533  70.653  1.00  0.00    -0.067 OA 
BRANCH  29  31
HETATM   31  O   UNL     1      -5.224   8.302  71.199  1.00  0.00    -0.029 OA 
HETATM   32  C   UNL     1      -5.797   8.274  72.505  1.00  0.00    -0.053 C  
ENDBRANCH  29  31
ENDBRANCH  23  29
BRANCH  27  33
HETATM   33  C   UNL     1      -9.139   7.690  68.017  1.00  0.00    -0.135 C  
BRANCH  33  34
HETATM   34  C   UNL     1      -8.883   6.694  66.875  1.00  0.00    -0.118 C  
HETATM   35  C   UNL     1      -9.933   4.680  68.042  1.00  0.00    -0.129 C  
HETATM   36  O   UNL     1     -11.198   6.069  66.570  1.00  0.00    -0.741 OA 
HETATM   37  C   UNL     1      -9.890   5.531  66.777  1.00  0.00    -0.167 C  
HETATM   38  C   UNL     1      -9.544   4.651  65.569  1.00  0.00    -0.187 C  
HETATM   39  H   UNL     1     -11.819   5.353  66.509  1.00  0.00     0.000 HD 
ENDBRANCH  33  34
ENDBRANCH  27  33
ENDBRANCH  21  22
ENDBRANCH   1  21
BRANCH   3  40
HETATM   40  O   UNL     1      -7.227  14.562  67.398  1.00  0.00    -0.188 OA 
HETATM   41  C   UNL     1      -7.144  15.944  67.100  1.00  0.00    -0.204 C  
ENDBRANCH   3  40
TORSDOF 7
ENDMDL
MODEL       40
REMARK 921   NORMALIZED FREE ENERGY PREDICTED BY IDOCK:   -5.26 KCAL/MOL
REMARK 922        TOTAL FREE ENERGY PREDICTED BY IDOCK:   -9.28 KCAL/MOL
REMARK 923 INTER-LIGAND FREE ENERGY PREDICTED BY IDOCK:   -7.24 KCAL/MOL
REMARK 924 INTRA-LIGAND FREE ENERGY PREDICTED BY IDOCK:   -2.04 KCAL/MOL
REMARK 927      BINDING AFFINITY PREDICTED BY RF-SCORE:    0.00 PKD
ROOT
HETATM    1  C   UNL     1      -9.580   8.784  66.903  1.00  0.00    -0.190 C  
HETATM    2  O   UNL     1      -5.349   9.095  72.080  1.00  0.00    -0.060 OA 
HETATM    3  C   UNL     1      -9.419   9.657  65.677  1.00  0.00    -0.255 C  
HETATM    4  C   UNL     1      -9.573   9.805  68.131  1.00  0.00    -0.158 C  
HETATM    5  C   UNL     1      -6.258   8.655  73.103  1.00  0.00    -0.078 C  
HETATM    6  C   UNL     1      -9.780  10.918  65.912  1.00  0.00    -0.269 C  
HETATM    7  C   UNL     1     -10.141  11.195  67.347  1.00  0.00    -0.185 C  
HETATM    8  C   UNL     1      -8.320   9.694  69.188  1.00  0.00    -0.130 A  
HETATM    9  C   UNL     1      -8.532   8.977  70.392  1.00  0.00    -0.201 A  
HETATM   10  O   UNL     1      -7.591   8.389  72.599  1.00  0.00    -0.192 OA 
HETATM   11  C   UNL     1      -7.495   8.860  71.322  1.00  0.00    -0.103 A  
HETATM   12  C   UNL     1     -11.658  11.381  67.456  1.00  0.00    -0.298 C  
HETATM   13  C   UNL     1      -6.219   9.292  71.053  1.00  0.00    -0.072 A  
HETATM   14  C   UNL     1      -5.937  10.029  69.932  1.00  0.00    -0.048 A  
HETATM   15  C   UNL     1     -11.868  12.778  68.029  1.00  0.00    -0.386 C  
HETATM   16  C   UNL     1      -7.038  10.420  69.151  1.00  0.00    -0.080 A  
HETATM   17  C   UNL     1      -7.013  11.998  68.918  1.00  0.00    -0.104 C  
HETATM   18  C   UNL     1      -8.325  12.183  68.258  1.00  0.00    -0.172 C  
HETATM   19  N   UNL     1      -9.547  12.552  67.634  1.00  0.00    -0.185 NA 
HETATM   20  C   UNL     1     -10.502  13.287  68.457  1.00  0.00    -0.250 C  
ENDROOT
BRANCH   1  21
HETATM   21  O   UNL     1      -8.648   7.711  66.949  1.00  0.00    -0.118 OA 
BRANCH  21  22
HETATM   22  C   UNL     1      -9.239   6.503  66.695  1.00  0.00    -0.153 C  
HETATM   23  C   UNL     1      -9.409   4.172  67.589  1.00  0.00    -0.208 C  
HETATM   24  C   UNL     1      -9.299   5.654  67.975  1.00  0.00    -0.108 C  
HETATM   25  O   UNL     1      -9.621   6.126  65.587  1.00  0.00     0.104 OA 
HETATM   26  H   UNL     1      -8.149   5.328  69.540  1.00  0.00     0.000 HD 
HETATM   27  C   UNL     1     -10.515   6.110  68.817  1.00  0.00    -0.295 C  
HETATM   28  O   UNL     1      -8.112   5.852  68.749  1.00  0.00    -0.101 OA 
BRANCH  23  29
HETATM   29  C   UNL     1      -8.225   3.700  66.758  1.00  0.00    -0.096 C  
HETATM   30  O   UNL     1      -7.038   3.823  67.041  1.00  0.00    -0.061 OA 
BRANCH  29  31
HETATM   31  O   UNL     1      -8.710   3.089  65.633  1.00  0.00    -0.117 OA 
HETATM   32  C   UNL     1      -7.702   2.810  64.664  1.00  0.00    -0.077 C  
ENDBRANCH  29  31
ENDBRANCH  23  29
BRANCH  27  33
HETATM   33  C   UNL     1     -10.770   5.355  70.139  1.00  0.00    -0.295 C  
BRANCH  33  34
HETATM   34  C   UNL     1     -10.239   6.064  71.396  1.00  0.00    -0.253 C  
HETATM   35  C   UNL     1     -12.193   7.692  71.626  1.00  0.00    -0.346 C  
HETATM   36  O   UNL     1     -12.169   5.599  72.774  1.00  0.00    -0.531 OA 
HETATM   37  C   UNL     1     -11.318   6.656  72.324  1.00  0.00    -0.275 C  
HETATM   38  C   UNL     1     -10.651   7.283  73.554  1.00  0.00    -0.408 C  
HETATM   39  H   UNL     1     -12.834   5.963  73.347  1.00  0.00     0.000 HD 
ENDBRANCH  33  34
ENDBRANCH  27  33
ENDBRANCH  21  22
ENDBRANCH   1  21
BRANCH   3  40
HETATM   40  O   UNL     1      -8.943   9.310  64.440  1.00  0.00    -0.198 OA 
HETATM   41  C   UNL     1      -9.174  10.150  63.323  1.00  0.00    -0.290 C  
ENDBRANCH   3  40
TORSDOF 7
ENDMDL
MODEL       41
REMARK 921   NORMALIZED FREE ENERGY PREDICTED BY IDOCK:   -5.25 KCAL/MOL
REMARK 922        TOTAL FREE ENERGY PREDICTED BY IDOCK:   -9.27 KCAL/MOL
REMARK 923 INTER-LIGAND FREE ENERGY PREDICTED BY IDOCK:   -8.43 KCAL/MOL
REMARK 924 INTRA-LIGAND FREE ENERGY PREDICTED BY IDOCK:   -0.84 KCAL/MOL
REMARK 927      BINDING AFFINITY PREDICTED BY RF-SCORE:    0.00 PKD
ROOT
HETATM    1  C   UNL     1      -8.724   9.818  69.635  1.00  0.00    -0.199 C  
HETATM    2  O   UNL     1      -9.327   5.075  64.951  1.00  0.00    -0.103 OA 
HETATM    3  C   UNL     1      -7.376  10.311  70.114  1.00  0.00    -0.103 C  
HETATM    4  C   UNL     1      -8.658   8.232  69.802  1.00  0.00    -0.129 C  
HETATM    5  C   UNL     1     -10.606   4.560  65.357  1.00  0.00    -0.162 C  
HETATM    6  C   UNL     1      -6.778   9.429  70.913  1.00  0.00    -0.097 C  
HETATM    7  C   UNL     1      -7.518   8.125  71.050  1.00  0.00    -0.067 C  
HETATM    8  C   UNL     1      -8.725   7.332  68.429  1.00  0.00    -0.122 A  
HETATM    9  C   UNL     1      -9.975   6.772  68.064  1.00  0.00    -0.162 A  
HETATM   10  O   UNL     1     -11.140   5.229  66.528  1.00  0.00    -0.104 OA 
HETATM   11  C   UNL     1     -10.077   5.997  66.906  1.00  0.00    -0.185 A  
HETATM   12  C   UNL     1      -8.145   8.048  72.446  1.00  0.00    -0.175 C  
HETATM   13  C   UNL     1      -9.039   5.872  66.016  1.00  0.00    -0.142 A  
HETATM   14  C   UNL     1      -7.787   6.346  66.309  1.00  0.00    -0.101 A  
HETATM   15  C   UNL     1      -7.562   6.800  73.099  1.00  0.00    -0.086 C  
HETATM   16  C   UNL     1      -7.600   6.849  67.609  1.00  0.00    -0.110 A  
HETATM   17  C   UNL     1      -6.349   6.138  68.297  1.00  0.00    -0.043 C  
HETATM   18  C   UNL     1      -6.470   6.675  69.671  1.00  0.00    -0.044 C  
HETATM   19  N   UNL     1      -6.438   7.071  71.035  1.00  0.00    -0.043 NA 
HETATM   20  C   UNL     1      -6.801   6.053  72.016  1.00  0.00    -0.072 C  
ENDROOT
BRANCH   1  21
HETATM   21  O   UNL     1      -9.077  10.319  68.351  1.00  0.00    -0.129 OA 
BRANCH  21  22
HETATM   22  C   UNL     1      -9.684  11.543  68.425  1.00  0.00    -0.202 C  
HETATM   23  C   UNL     1     -11.932  12.634  68.283  1.00  0.00    -0.271 C  
HETATM   24  C   UNL     1     -11.176  11.385  68.759  1.00  0.00    -0.247 C  
HETATM   25  O   UNL     1      -9.127  12.619  68.202  1.00  0.00    -0.196 OA 
HETATM   26  H   UNL     1     -12.627  10.135  68.302  1.00  0.00     0.000 HD 
HETATM   27  C   UNL     1     -11.324  11.182  70.286  1.00  0.00    -0.237 C  
HETATM   28  O   UNL     1     -11.706  10.233  68.095  1.00  0.00    -0.287 OA 
BRANCH  23  29
HETATM   29  C   UNL     1     -11.799  12.856  66.783  1.00  0.00    -0.385 C  
HETATM   30  O   UNL     1     -12.040  12.040  65.900  1.00  0.00    -0.546 OA 
BRANCH  29  31
HETATM   31  O   UNL     1     -11.377  14.142  66.579  1.00  0.00    -0.321 OA 
HETATM   32  C   UNL     1     -11.229  14.474  65.199  1.00  0.00    -0.367 C  
ENDBRANCH  29  31
ENDBRANCH  23  29
BRANCH  27  33
HETATM   33  C   UNL     1     -12.760  11.031  70.833  1.00  0.00    -0.452 C  
BRANCH  33  34
HETATM   34  C   UNL     1     -13.380   9.639  70.631  1.00  0.00     0.042 C  
HETATM   35  C   UNL     1     -11.905   8.444  72.339  1.00  0.00    -0.452 C  
HETATM   36  O   UNL     1     -14.040   9.328  72.936  1.00  0.00    -0.939 OA 
HETATM   37  C   UNL     1     -13.329   8.711  71.861  1.00  0.00    -0.382 C  
HETATM   38  C   UNL     1     -14.025   7.384  71.533  1.00  0.00    -0.517 C  
HETATM   39  H   UNL     1     -14.009   8.757  73.694  1.00  0.00     0.000 HD 
ENDBRANCH  33  34
ENDBRANCH  27  33
ENDBRANCH  21  22
ENDBRANCH   1  21
BRANCH   3  40
HETATM   40  O   UNL     1      -6.738  11.484  69.805  1.00  0.00    -0.122 OA 
HETATM   41  C   UNL     1      -5.603  11.897  70.544  1.00  0.00    -0.162 C  
ENDBRANCH   3  40
TORSDOF 7
ENDMDL
MODEL       42
REMARK 921   NORMALIZED FREE ENERGY PREDICTED BY IDOCK:   -5.20 KCAL/MOL
REMARK 922        TOTAL FREE ENERGY PREDICTED BY IDOCK:   -9.19 KCAL/MOL
REMARK 923 INTER-LIGAND FREE ENERGY PREDICTED BY IDOCK:   -7.44 KCAL/MOL
REMARK 924 INTRA-LIGAND FREE ENERGY PREDICTED BY IDOCK:   -1.76 KCAL/MOL
REMARK 927      BINDING AFFINITY PREDICTED BY RF-SCORE:    0.00 PKD
ROOT
HETATM    1  C   UNL     1      -7.697   6.429  70.111  1.00  0.00    -0.098 C  
HETATM    2  O   UNL     1     -13.364   9.553  71.823  1.00  0.00    -0.375 OA 
HETATM    3  C   UNL     1      -7.216   5.184  70.825  1.00  0.00    -0.064 C  
HETATM    4  C   UNL     1      -7.941   7.494  71.275  1.00  0.00    -0.095 C  
HETATM    5  C   UNL     1     -13.002  10.871  71.380  1.00  0.00    -0.424 C  
HETATM    6  C   UNL     1      -6.713   5.462  72.027  1.00  0.00    -0.058 C  
HETATM    7  C   UNL     1      -6.852   6.905  72.431  1.00  0.00    -0.062 C  
HETATM    8  C   UNL     1      -9.487   7.994  71.520  1.00  0.00    -0.204 A  
HETATM    9  C   UNL     1      -9.883   9.228  70.947  1.00  0.00    -0.363 A  
HETATM   10  O   UNL     1     -11.663  10.936  70.828  1.00  0.00    -0.328 OA 
HETATM   11  C   UNL     1     -11.188   9.694  71.132  1.00  0.00    -0.384 A  
HETATM   12  C   UNL     1      -5.476   7.577  72.373  1.00  0.00    -0.037 C  
HETATM   13  C   UNL     1     -12.158   8.929  71.731  1.00  0.00    -0.362 A  
HETATM   14  C   UNL     1     -11.853   7.743  72.347  1.00  0.00    -0.371 A  
HETATM   15  C   UNL     1      -5.206   8.100  73.779  1.00  0.00    -0.050 C  
HETATM   16  C   UNL     1     -10.487   7.422  72.439  1.00  0.00    -0.273 A  
HETATM   17  C   UNL     1     -10.099   7.102  73.952  1.00  0.00    -0.359 C  
HETATM   18  C   UNL     1      -8.629   6.986  73.824  1.00  0.00    -0.145 C  
HETATM   19  N   UNL     1      -7.216   6.858  73.895  1.00  0.00    -0.091 NA 
HETATM   20  C   UNL     1      -6.498   7.938  74.564  1.00  0.00    -0.101 C  
ENDROOT
BRANCH   1  21
HETATM   21  O   UNL     1      -8.782   6.179  69.226  1.00  0.00    -0.121 OA 
BRANCH  21  22
HETATM   22  C   UNL     1      -8.409   6.277  67.912  1.00  0.00    -0.118 C  
HETATM   23  C   UNL     1      -9.341   6.712  65.632  1.00  0.00     0.237 C  
HETATM   24  C   UNL     1      -9.446   7.086  67.117  1.00  0.00    -0.145 C  
HETATM   25  O   UNL     1      -7.411   5.746  67.423  1.00  0.00    -0.075 OA 
HETATM   26  H   UNL     1     -11.405   7.287  67.096  1.00  0.00     0.000 HD 
HETATM   27  C   UNL     1      -9.177   8.594  67.341  1.00  0.00    -0.158 C  
HETATM   28  O   UNL     1     -10.764   6.787  67.587  1.00  0.00    -0.228 OA 
BRANCH  23  29
HETATM   29  C   UNL     1      -9.600   5.233  65.386  1.00  0.00     0.065 C  
HETATM   30  O   UNL     1     -10.569   4.587  65.770  1.00  0.00    -0.285 OA 
BRANCH  29  31
HETATM   31  O   UNL     1      -8.565   4.738  64.639  1.00  0.00    -0.136 OA 
HETATM   32  C   UNL     1      -8.938   4.424  63.299  1.00  0.00    -0.132 C  
ENDBRANCH  29  31
ENDBRANCH  23  29
BRANCH  27  33
HETATM   33  C   UNL     1     -10.100   9.584  66.599  1.00  0.00    -0.321 C  
BRANCH  33  34
HETATM   34  C   UNL     1     -10.751  10.649  67.496  1.00  0.00    -0.321 C  
HETATM   35  C   UNL     1      -9.846  12.663  66.212  1.00  0.00    -0.266 C  
HETATM   36  O   UNL     1     -11.991  11.734  65.726  1.00  0.00    -0.376 OA 
HETATM   37  C   UNL     1     -11.080  11.984  66.800  1.00  0.00    -0.305 C  
HETATM   38  C   UNL     1     -11.768  12.928  67.795  1.00  0.00    -0.412 C  
HETATM   39  H   UNL     1     -12.194  12.557  65.297  1.00  0.00     0.000 HD 
ENDBRANCH  33  34
ENDBRANCH  27  33
ENDBRANCH  21  22
ENDBRANCH   1  21
BRANCH   3  40
HETATM   40  O   UNL     1      -7.268   3.883  70.398  1.00  0.00    -0.040 OA 
HETATM   41  C   UNL     1      -8.010   2.921  71.128  1.00  0.00    -0.053 C  
ENDBRANCH   3  40
TORSDOF 7
ENDMDL
MODEL       43
REMARK 921   NORMALIZED FREE ENERGY PREDICTED BY IDOCK:   -5.18 KCAL/MOL
REMARK 922        TOTAL FREE ENERGY PREDICTED BY IDOCK:   -9.17 KCAL/MOL
REMARK 923 INTER-LIGAND FREE ENERGY PREDICTED BY IDOCK:   -8.10 KCAL/MOL
REMARK 924 INTRA-LIGAND FREE ENERGY PREDICTED BY IDOCK:   -1.07 KCAL/MOL
REMARK 927      BINDING AFFINITY PREDICTED BY RF-SCORE:    0.00 PKD
ROOT
HETATM    1  C   UNL     1      -9.622  12.761  68.203  1.00  0.00    -0.223 C  
HETATM    2  O   UNL     1      -6.394  18.618  67.922  1.00  0.00    -0.200 OA 
HETATM    3  C   UNL     1     -10.936  12.529  67.488  1.00  0.00    -0.251 C  
HETATM    4  C   UNL     1      -9.861  14.078  69.072  1.00  0.00     0.005 C  
HETATM    5  C   UNL     1      -5.703  18.521  69.178  1.00  0.00    -0.218 C  
HETATM    6  C   UNL     1     -11.952  13.133  68.104  1.00  0.00    -0.333 C  
HETATM    7  C   UNL     1     -11.540  13.984  69.275  1.00  0.00    -0.309 C  
HETATM    8  C   UNL     1      -8.974  15.405  68.679  1.00  0.00    -0.191 A  
HETATM    9  C   UNL     1      -7.812  15.675  69.445  1.00  0.00    -0.222 A  
HETATM   10  O   UNL     1      -6.013  17.304  69.902  1.00  0.00    -0.241 OA 
HETATM   11  C   UNL     1      -7.029  16.794  69.148  1.00  0.00    -0.231 A  
HETATM   12  C   UNL     1     -11.960  13.288  70.574  1.00  0.00    -0.319 C  
HETATM   13  C   UNL     1      -7.259  17.573  68.041  1.00  0.00    -0.206 A  
HETATM   14  C   UNL     1      -8.380  17.407  67.271  1.00  0.00    -0.221 A  
HETATM   15  C   UNL     1     -12.888  14.263  71.289  1.00  0.00    -0.422 C  
HETATM   16  C   UNL     1      -9.332  16.489  67.748  1.00  0.00    -0.210 A  
HETATM   17  C   UNL     1     -10.767  17.180  67.831  1.00  0.00    -0.355 C  
HETATM   18  C   UNL     1     -11.530  16.111  68.515  1.00  0.00    -0.324 C  
HETATM   19  N   UNL     1     -12.409  15.214  69.177  1.00  0.00    -0.123 NA 
HETATM   20  C   UNL     1     -12.813  15.578  70.531  1.00  0.00    -0.353 C  
ENDROOT
BRANCH   1  21
HETATM   21  O   UNL     1      -8.503  12.759  67.325  1.00  0.00    -0.179 OA 
BRANCH  21  22
HETATM   22  C   UNL     1      -7.404  12.173  67.892  1.00  0.00    -0.108 C  
HETATM   23  C   UNL     1      -6.411   9.932  68.394  1.00  0.00    -0.054 C  
HETATM   24  C   UNL     1      -7.235  10.735  67.378  1.00  0.00    -0.093 C  
HETATM   25  O   UNL     1      -6.680  12.703  68.736  1.00  0.00    -0.082 OA 
HETATM   26  H   UNL     1      -8.414   9.230  66.902  1.00  0.00     0.000 HD 
HETATM   27  C   UNL     1      -6.540  10.779  65.996  1.00  0.00    -0.113 C  
HETATM   28  O   UNL     1      -8.518  10.119  67.220  1.00  0.00    -0.124 OA 
BRANCH  23  29
HETATM   29  C   UNL     1      -7.074   9.875  69.763  1.00  0.00    -0.106 C  
HETATM   30  O   UNL     1      -6.790  10.558  70.741  1.00  0.00    -0.317 OA 
BRANCH  29  31
HETATM   31  O   UNL     1      -8.068   8.934  69.716  1.00  0.00    -0.100 OA 
HETATM   32  C   UNL     1      -8.924   8.963  70.857  1.00  0.00    -0.222 C  
ENDBRANCH  29  31
ENDBRANCH  23  29
BRANCH  27  33
HETATM   33  C   UNL     1      -6.252   9.423  65.316  1.00  0.00    -0.066 C  
BRANCH  33  34
HETATM   34  C   UNL     1      -6.831   9.279  63.900  1.00  0.00    -0.092 C  
HETATM   35  C   UNL     1      -7.789   6.937  64.245  1.00  0.00    -0.104 C  
HETATM   36  O   UNL     1      -9.111   8.892  64.606  1.00  0.00    -0.431 OA 
HETATM   37  C   UNL     1      -8.067   8.365  63.784  1.00  0.00    -0.142 C  
HETATM   38  C   UNL     1      -8.565   8.355  62.333  1.00  0.00    -0.103 C  
HETATM   39  H   UNL     1      -9.873   8.329  64.535  1.00  0.00     0.000 HD 
ENDBRANCH  33  34
ENDBRANCH  27  33
ENDBRANCH  21  22
ENDBRANCH   1  21
BRANCH   3  40
HETATM   40  O   UNL     1     -11.166  11.833  66.330  1.00  0.00    -0.316 OA 
HETATM   41  C   UNL     1     -11.820  12.455  65.239  1.00  0.00    -0.399 C  
ENDBRANCH   3  40
TORSDOF 7
ENDMDL
MODEL       44
REMARK 921   NORMALIZED FREE ENERGY PREDICTED BY IDOCK:   -5.12 KCAL/MOL
REMARK 922        TOTAL FREE ENERGY PREDICTED BY IDOCK:   -9.08 KCAL/MOL
REMARK 923 INTER-LIGAND FREE ENERGY PREDICTED BY IDOCK:   -7.50 KCAL/MOL
REMARK 924 INTRA-LIGAND FREE ENERGY PREDICTED BY IDOCK:   -1.58 KCAL/MOL
REMARK 927      BINDING AFFINITY PREDICTED BY RF-SCORE:    0.00 PKD
ROOT
HETATM    1  C   UNL     1      -8.293   8.975  66.790  1.00  0.00    -0.115 C  
HETATM    2  O   UNL     1     -11.606   5.897  71.724  1.00  0.00    -0.254 OA 
HETATM    3  C   UNL     1      -8.676   8.808  65.335  1.00  0.00    -0.183 C  
HETATM    4  C   UNL     1      -8.118   7.486  67.336  1.00  0.00    -0.116 C  
HETATM    5  C   UNL     1     -10.530   5.835  72.673  1.00  0.00    -0.208 C  
HETATM    6  C   UNL     1      -8.309   7.620  64.856  1.00  0.00    -0.054 C  
HETATM    7  C   UNL     1      -7.720   6.698  65.890  1.00  0.00    -0.091 C  
HETATM    8  C   UNL     1      -9.174   6.983  68.491  1.00  0.00    -0.137 A  
HETATM    9  C   UNL     1      -8.749   7.029  69.842  1.00  0.00    -0.142 A  
HETATM   10  O   UNL     1      -9.294   6.398  72.166  1.00  0.00    -0.151 OA 
HETATM   11  C   UNL     1      -9.613   6.609  70.857  1.00  0.00    -0.175 A  
HETATM   12  C   UNL     1      -6.211   6.579  65.654  1.00  0.00    -0.034 C  
HETATM   13  C   UNL     1     -10.925   6.285  70.612  1.00  0.00    -0.309 A  
HETATM   14  C   UNL     1     -11.406   6.176  69.333  1.00  0.00    -0.401 A  
HETATM   15  C   UNL     1      -5.939   5.098  65.421  1.00  0.00    -0.025 C  
HETATM   16  C   UNL     1     -10.460   6.290  68.300  1.00  0.00    -0.277 A  
HETATM   17  C   UNL     1     -10.559   5.031  67.325  1.00  0.00    -0.075 C  
HETATM   18  C   UNL     1      -9.380   5.277  66.464  1.00  0.00    -0.143 C  
HETATM   19  N   UNL     1      -8.288   5.340  65.558  1.00  0.00    -0.124 NA 
HETATM   20  C   UNL     1      -7.226   4.358  65.749  1.00  0.00    -0.072 C  
ENDROOT
BRANCH   1  21
HETATM   21  O   UNL     1      -9.181   9.826  67.505  1.00  0.00    -0.130 OA 
BRANCH  21  22
HETATM   22  C   UNL     1      -8.512  10.741  68.272  1.00  0.00    -0.130 C  
HETATM   23  C   UNL     1      -7.564  13.055  68.192  1.00  0.00    -0.136 C  
HETATM   24  C   UNL     1      -8.719  12.160  67.721  1.00  0.00    -0.171 C  
HETATM   25  O   UNL     1      -7.799  10.463  69.238  1.00  0.00    -0.122 OA 
HETATM   26  H   UNL     1      -8.867  13.008  65.949  1.00  0.00     0.000 HD 
HETATM   27  C   UNL     1     -10.085  12.692  68.218  1.00  0.00    -0.233 C  
HETATM   28  O   UNL     1      -8.739  12.131  66.290  1.00  0.00    -0.117 OA 
BRANCH  23  29
HETATM   29  C   UNL     1      -6.209  12.551  67.716  1.00  0.00    -0.119 C  
HETATM   30  O   UNL     1      -5.922  12.188  66.581  1.00  0.00    -0.226 OA 
BRANCH  29  31
HETATM   31  O   UNL     1      -5.344  12.589  68.778  1.00  0.00    -0.054 OA 
HETATM   32  C   UNL     1      -5.852  13.321  69.891  1.00  0.00    -0.130 C  
ENDBRANCH  29  31
ENDBRANCH  23  29
BRANCH  27  33
HETATM   33  C   UNL     1     -10.471  14.125  67.794  1.00  0.00    -0.246 C  
BRANCH  33  34
HETATM   34  C   UNL     1     -11.549  14.202  66.701  1.00  0.00    -0.399 C  
HETATM   35  C   UNL     1     -10.655  16.325  65.599  1.00  0.00    -0.360 C  
HETATM   36  O   UNL     1     -10.012  14.157  64.836  1.00  0.00    -0.577 OA 
HETATM   37  C   UNL     1     -11.111  14.884  65.390  1.00  0.00    -0.364 C  
HETATM   38  C   UNL     1     -12.263  14.844  64.378  1.00  0.00    -0.399 C  
HETATM   39  H   UNL     1      -9.741  14.577  64.028  1.00  0.00     0.000 HD 
ENDBRANCH  33  34
ENDBRANCH  27  33
ENDBRANCH  21  22
ENDBRANCH   1  21
BRANCH   3  40
HETATM   40  O   UNL     1      -9.345   9.687  64.523  1.00  0.00    -0.261 OA 
HETATM   41  C   UNL     1      -8.812  10.039  63.258  1.00  0.00    -0.237 C  
ENDBRANCH   3  40
TORSDOF 7
ENDMDL
MODEL       45
REMARK 921   NORMALIZED FREE ENERGY PREDICTED BY IDOCK:   -5.10 KCAL/MOL
REMARK 922        TOTAL FREE ENERGY PREDICTED BY IDOCK:   -9.06 KCAL/MOL
REMARK 923 INTER-LIGAND FREE ENERGY PREDICTED BY IDOCK:   -7.18 KCAL/MOL
REMARK 924 INTRA-LIGAND FREE ENERGY PREDICTED BY IDOCK:   -1.87 KCAL/MOL
REMARK 927      BINDING AFFINITY PREDICTED BY RF-SCORE:    0.00 PKD
ROOT
HETATM    1  C   UNL     1      -9.672  10.151  67.616  1.00  0.00    -0.161 C  
HETATM    2  O   UNL     1      -9.426   3.509  68.402  1.00  0.00    -0.173 OA 
HETATM    3  C   UNL     1     -10.060  10.794  66.302  1.00  0.00    -0.232 C  
HETATM    4  C   UNL     1      -8.494   9.142  67.241  1.00  0.00    -0.121 C  
HETATM    5  C   UNL     1      -8.445   3.472  69.451  1.00  0.00    -0.065 C  
HETATM    6  C   UNL     1      -9.083  10.711  65.400  1.00  0.00    -0.214 C  
HETATM    7  C   UNL     1      -7.895   9.908  65.854  1.00  0.00    -0.116 C  
HETATM    8  C   UNL     1      -8.787   7.539  67.451  1.00  0.00    -0.127 A  
HETATM    9  C   UNL     1      -8.304   6.926  68.634  1.00  0.00    -0.121 A  
HETATM   10  O   UNL     1      -7.963   4.788  69.823  1.00  0.00    -0.065 OA 
HETATM   11  C   UNL     1      -8.528   5.564  68.853  1.00  0.00    -0.101 A  
HETATM   12  C   UNL     1      -6.726  10.857  66.137  1.00  0.00    -0.103 C  
HETATM   13  C   UNL     1      -9.331   4.814  68.029  1.00  0.00    -0.133 A  
HETATM   14  C   UNL     1      -9.805   5.316  66.845  1.00  0.00    -0.191 A  
HETATM   15  C   UNL     1      -5.594  10.412  65.218  1.00  0.00    -0.129 C  
HETATM   16  C   UNL     1      -9.323   6.581  66.467  1.00  0.00    -0.188 A  
HETATM   17  C   UNL     1      -8.720   6.521  64.992  1.00  0.00     0.144 C  
HETATM   18  C   UNL     1      -8.126   7.874  64.900  1.00  0.00    -0.144 C  
HETATM   19  N   UNL     1      -7.484   9.113  64.639  1.00  0.00    -0.101 NA 
HETATM   20  C   UNL     1      -6.026   9.094  64.595  1.00  0.00    -0.065 C  
ENDROOT
BRANCH   1  21
HETATM   21  O   UNL     1     -10.784   9.614  68.323  1.00  0.00    -0.231 OA 
BRANCH  21  22
HETATM   22  C   UNL     1     -11.069  10.328  69.456  1.00  0.00    -0.262 C  
HETATM   23  C   UNL     1     -11.939  10.054  71.785  1.00  0.00    -0.254 C  
HETATM   24  C   UNL     1     -11.089   9.405  70.684  1.00  0.00    -0.289 C  
HETATM   25  O   UNL     1     -11.326  11.533  69.482  1.00  0.00    -0.256 OA 
HETATM   26  H   UNL     1     -11.670   7.568  71.093  1.00  0.00     0.000 HD 
HETATM   27  C   UNL     1      -9.633   9.173  71.155  1.00  0.00    -0.347 C  
HETATM   28  O   UNL     1     -11.658   8.139  70.334  1.00  0.00    -0.198 OA 
BRANCH  23  29
HETATM   29  C   UNL     1     -13.376  10.293  71.344  1.00  0.00    -0.304 C  
HETATM   30  O   UNL     1     -13.978   9.693  70.462  1.00  0.00     0.146 OA 
BRANCH  29  31
HETATM   31  O   UNL     1     -13.898  11.293  72.121  1.00  0.00    -0.021 OA 
HETATM   32  C   UNL     1     -13.255  12.551  71.926  1.00  0.00    -0.392 C  
ENDBRANCH  29  31
ENDBRANCH  23  29
BRANCH  27  33
HETATM   33  C   UNL     1      -9.437   8.288  72.405  1.00  0.00    -0.357 C  
BRANCH  33  34
HETATM   34  C   UNL     1      -9.512   6.776  72.138  1.00  0.00    -0.145 C  
HETATM   35  C   UNL     1     -10.265   6.131  74.492  1.00  0.00    -0.318 C  
HETATM   36  O   UNL     1     -11.840   6.535  72.743  1.00  0.00    -0.487 OA 
HETATM   37  C   UNL     1     -10.535   6.006  72.995  1.00  0.00    -0.224 C  
HETATM   38  C   UNL     1     -10.538   4.527  72.589  1.00  0.00    -0.247 C  
HETATM   39  H   UNL     1     -12.471   6.060  73.271  1.00  0.00     0.000 HD 
ENDBRANCH  33  34
ENDBRANCH  27  33
ENDBRANCH  21  22
ENDBRANCH   1  21
BRANCH   3  40
HETATM   40  O   UNL     1     -11.248  11.387  65.960  1.00  0.00    -0.234 OA 
HETATM   41  C   UNL     1     -11.482  12.749  66.269  1.00  0.00    -0.354 C  
ENDBRANCH   3  40
TORSDOF 7
ENDMDL
MODEL       46
REMARK 921   NORMALIZED FREE ENERGY PREDICTED BY IDOCK:   -5.10 KCAL/MOL
REMARK 922        TOTAL FREE ENERGY PREDICTED BY IDOCK:   -9.05 KCAL/MOL
REMARK 923 INTER-LIGAND FREE ENERGY PREDICTED BY IDOCK:   -7.64 KCAL/MOL
REMARK 924 INTRA-LIGAND FREE ENERGY PREDICTED BY IDOCK:   -1.41 KCAL/MOL
REMARK 927      BINDING AFFINITY PREDICTED BY RF-SCORE:    0.00 PKD
ROOT
HETATM    1  C   UNL     1      -9.407   5.576  69.306  1.00  0.00    -0.118 C  
HETATM    2  O   UNL     1      -7.632  10.648  65.315  1.00  0.00    -0.111 OA 
HETATM    3  C   UNL     1      -8.390   4.632  69.910  1.00  0.00    -0.067 C  
HETATM    4  C   UNL     1      -9.097   5.557  67.740  1.00  0.00    -0.107 C  
HETATM    5  C   UNL     1      -8.852  10.740  64.562  1.00  0.00    -0.131 C  
HETATM    6  C   UNL     1      -7.912   3.773  69.011  1.00  0.00    -0.062 C  
HETATM    7  C   UNL     1      -8.398   4.019  67.608  1.00  0.00    -0.094 C  
HETATM    8  C   UNL     1      -8.567   6.958  67.065  1.00  0.00    -0.121 A  
HETATM    9  C   UNL     1      -9.514   7.769  66.392  1.00  0.00    -0.245 A  
HETATM   10  O   UNL     1      -9.836   9.751  64.954  1.00  0.00    -0.284 OA 
HETATM   11  C   UNL     1      -9.107   8.968  65.801  1.00  0.00    -0.219 A  
HETATM   12  C   UNL     1      -9.398   2.924  67.224  1.00  0.00    -0.176 C  
HETATM   13  C   UNL     1      -7.841   9.473  65.969  1.00  0.00    -0.100 A  
HETATM   14  C   UNL     1      -6.853   8.737  66.570  1.00  0.00    -0.072 A  
HETATM   15  C   UNL     1      -8.820   2.245  65.988  1.00  0.00    -0.124 C  
HETATM   16  C   UNL     1      -7.174   7.405  66.886  1.00  0.00    -0.088 A  
HETATM   17  C   UNL     1      -6.085   6.418  66.267  1.00  0.00    -0.033 C  
HETATM   18  C   UNL     1      -6.722   5.114  66.560  1.00  0.00    -0.057 C  
HETATM   19  N   UNL     1      -7.187   3.784  66.738  1.00  0.00    -0.067 NA 
HETATM   20  C   UNL     1      -7.635   3.085  65.538  1.00  0.00    -0.074 C  
ENDROOT
BRANCH   1  21
HETATM   21  O   UNL     1      -9.435   6.847  69.944  1.00  0.00    -0.157 OA 
BRANCH  21  22
HETATM   22  C   UNL     1     -10.712   7.304  70.128  1.00  0.00    -0.244 C  
HETATM   23  C   UNL     1     -11.996   9.195  71.145  1.00  0.00    -0.374 C  
HETATM   24  C   UNL     1     -10.710   8.817  70.397  1.00  0.00    -0.225 C  
HETATM   25  O   UNL     1     -11.719   6.594  70.131  1.00  0.00    -0.394 OA 
HETATM   26  H   UNL     1      -9.576  10.103  71.365  1.00  0.00     0.000 HD 
HETATM   27  C   UNL     1     -10.602   9.561  69.044  1.00  0.00    -0.238 C  
HETATM   28  O   UNL     1      -9.577   9.168  71.198  1.00  0.00    -0.267 OA 
BRANCH  23  29
HETATM   29  C   UNL     1     -12.125   8.473  72.479  1.00  0.00    -0.326 C  
HETATM   30  O   UNL     1     -11.234   7.885  73.080  1.00  0.00    -0.411 OA 
BRANCH  29  31
HETATM   31  O   UNL     1     -13.417   8.608  72.912  1.00  0.00    -0.228 OA 
HETATM   32  C   UNL     1     -14.381   8.399  71.882  1.00  0.00    -0.473 C  
ENDBRANCH  29  31
ENDBRANCH  23  29
BRANCH  27  33
HETATM   33  C   UNL     1     -10.613  11.104  69.095  1.00  0.00    -0.238 C  
BRANCH  33  34
HETATM   34  C   UNL     1     -11.052  11.786  67.789  1.00  0.00    -0.302 C  
HETATM   35  C   UNL     1     -12.006  13.882  68.895  1.00  0.00    -0.393 C  
HETATM   36  O   UNL     1      -9.751  13.798  68.114  1.00  0.00    -0.215 OA 
HETATM   37  C   UNL     1     -11.070  13.327  67.825  1.00  0.00    -0.265 C  
HETATM   38  C   UNL     1     -11.475  13.869  66.448  1.00  0.00    -0.354 C  
HETATM   39  H   UNL     1      -9.762  14.748  68.136  1.00  0.00     0.000 HD 
ENDBRANCH  33  34
ENDBRANCH  27  33
ENDBRANCH  21  22
ENDBRANCH   1  21
BRANCH   3  40
HETATM   40  O   UNL     1      -7.921   4.594  71.197  1.00  0.00    -0.082 OA 
HETATM   41  C   UNL     1      -8.800   4.309  72.271  1.00  0.00    -0.108 C  
ENDBRANCH   3  40
TORSDOF 7
ENDMDL
MODEL       47
REMARK 921   NORMALIZED FREE ENERGY PREDICTED BY IDOCK:   -5.09 KCAL/MOL
REMARK 922        TOTAL FREE ENERGY PREDICTED BY IDOCK:   -9.05 KCAL/MOL
REMARK 923 INTER-LIGAND FREE ENERGY PREDICTED BY IDOCK:   -7.24 KCAL/MOL
REMARK 924 INTRA-LIGAND FREE ENERGY PREDICTED BY IDOCK:   -1.81 KCAL/MOL
REMARK 927      BINDING AFFINITY PREDICTED BY RF-SCORE:    0.00 PKD
ROOT
HETATM    1  C   UNL     1      -8.789   4.279  69.594  1.00  0.00    -0.086 C  
HETATM    2  O   UNL     1     -12.931   9.319  71.091  1.00  0.00    -0.291 OA 
HETATM    3  C   UNL     1      -9.127   2.837  69.906  1.00  0.00    -0.120 C  
HETATM    4  C   UNL     1      -8.970   5.047  70.982  1.00  0.00    -0.162 C  
HETATM    5  C   UNL     1     -11.941  10.352  71.224  1.00  0.00    -0.330 C  
HETATM    6  C   UNL     1      -9.006   2.567  71.206  1.00  0.00    -0.146 C  
HETATM    7  C   UNL     1      -8.684   3.768  72.054  1.00  0.00    -0.096 C  
HETATM    8  C   UNL     1     -10.166   6.172  71.063  1.00  0.00    -0.244 A  
HETATM    9  C   UNL     1      -9.807   7.533  70.893  1.00  0.00    -0.177 A  
HETATM   10  O   UNL     1     -10.589   9.872  71.019  1.00  0.00    -0.290 OA 
HETATM   11  C   UNL     1     -10.790   8.524  70.957  1.00  0.00    -0.241 A  
HETATM   12  C   UNL     1      -7.228   3.676  72.522  1.00  0.00    -0.049 C  
HETATM   13  C   UNL     1     -12.128   8.222  71.035  1.00  0.00    -0.208 A  
HETATM   14  C   UNL     1     -12.559   6.938  71.243  1.00  0.00    -0.394 A  
HETATM   15  C   UNL     1      -7.276   3.683  74.045  1.00  0.00    -0.053 C  
HETATM   16  C   UNL     1     -11.561   5.979  71.494  1.00  0.00    -0.238 A  
HETATM   17  C   UNL     1     -11.885   5.192  72.843  1.00  0.00    -0.147 C  
HETATM   18  C   UNL     1     -10.640   4.404  72.988  1.00  0.00    -0.195 C  
HETATM   19  N   UNL     1      -9.519   3.590  73.299  1.00  0.00    -0.104 NA 
HETATM   20  C   UNL     1      -8.708   4.008  74.438  1.00  0.00    -0.095 C  
ENDROOT
BRANCH   1  21
HETATM   21  O   UNL     1      -9.502   4.789  68.474  1.00  0.00    -0.129 OA 
BRANCH  21  22
HETATM   22  C   UNL     1      -8.666   5.305  67.522  1.00  0.00    -0.106 C  
HETATM   23  C   UNL     1      -8.691   6.549  65.351  1.00  0.00    -0.020 C  
HETATM   24  C   UNL     1      -9.381   6.400  66.714  1.00  0.00    -0.147 C  
HETATM   25  O   UNL     1      -7.519   4.912  67.305  1.00  0.00    -0.080 OA 
HETATM   26  H   UNL     1     -11.194   6.717  66.012  1.00  0.00     0.000 HD 
HETATM   27  C   UNL     1      -9.335   7.721  67.519  1.00  0.00    -0.161 C  
HETATM   28  O   UNL     1     -10.752   6.041  66.511  1.00  0.00    -0.246 OA 
BRANCH  23  29
HETATM   29  C   UNL     1      -8.722   5.261  64.541  1.00  0.00    -0.072 C  
HETATM   30  O   UNL     1      -9.649   4.462  64.474  1.00  0.00    -0.156 OA 
BRANCH  29  31
HETATM   31  O   UNL     1      -7.530   5.148  63.875  1.00  0.00    -0.057 OA 
HETATM   32  C   UNL     1      -6.857   6.395  63.711  1.00  0.00    -0.041 C  
ENDBRANCH  29  31
ENDBRANCH  23  29
BRANCH  27  33
HETATM   33  C   UNL     1      -9.980   8.960  66.861  1.00  0.00    -0.315 C  
BRANCH  33  34
HETATM   34  C   UNL     1      -9.743  10.281  67.612  1.00  0.00    -0.189 C  
HETATM   35  C   UNL     1     -11.374  11.670  66.222  1.00  0.00    -0.293 C  
HETATM   36  O   UNL     1     -12.049  10.616  68.254  1.00  0.00    -0.817 OA 
HETATM   37  C   UNL     1     -10.937  11.255  67.623  1.00  0.00    -0.259 C  
HETATM   38  C   UNL     1     -10.578  12.500  68.446  1.00  0.00    -0.256 C  
HETATM   39  H   UNL     1     -12.786  11.216  68.262  1.00  0.00     0.000 HD 
ENDBRANCH  33  34
ENDBRANCH  27  33
ENDBRANCH  21  22
ENDBRANCH   1  21
BRANCH   3  40
HETATM   40  O   UNL     1      -9.547   1.855  69.048  1.00  0.00    -0.119 OA 
HETATM   41  C   UNL     1      -8.795   1.550  67.888  1.00  0.00    -0.109 C  
ENDBRANCH   3  40
TORSDOF 7
ENDMDL
MODEL       48
REMARK 921   NORMALIZED FREE ENERGY PREDICTED BY IDOCK:   -5.03 KCAL/MOL
REMARK 922        TOTAL FREE ENERGY PREDICTED BY IDOCK:   -8.95 KCAL/MOL
REMARK 923 INTER-LIGAND FREE ENERGY PREDICTED BY IDOCK:   -7.32 KCAL/MOL
REMARK 924 INTRA-LIGAND FREE ENERGY PREDICTED BY IDOCK:   -1.63 KCAL/MOL
REMARK 927      BINDING AFFINITY PREDICTED BY RF-SCORE:    0.00 PKD
ROOT
HETATM    1  C   UNL     1      -9.498   8.954  68.307  1.00  0.00    -0.140 C  
HETATM    2  O   UNL     1      -9.468   2.266  68.034  1.00  0.00    -0.207 OA 
HETATM    3  C   UNL     1      -9.907   9.807  67.126  1.00  0.00    -0.188 C  
HETATM    4  C   UNL     1      -8.371   7.980  67.733  1.00  0.00    -0.129 C  
HETATM    5  C   UNL     1      -8.454   2.034  69.025  1.00  0.00    -0.058 C  
HETATM    6  C   UNL     1      -8.965   9.837  66.184  1.00  0.00    -0.181 C  
HETATM    7  C   UNL     1      -7.792   8.936  66.460  1.00  0.00    -0.100 C  
HETATM    8  C   UNL     1      -8.716   6.373  67.700  1.00  0.00    -0.114 A  
HETATM    9  C   UNL     1      -8.214   5.568  68.753  1.00  0.00    -0.102 A  
HETATM   10  O   UNL     1      -7.912   3.260  69.578  1.00  0.00    -0.049 OA 
HETATM   11  C   UNL     1      -8.481   4.196  68.765  1.00  0.00    -0.083 A  
HETATM   12  C   UNL     1      -6.580   9.793  66.840  1.00  0.00    -0.067 C  
HETATM   13  C   UNL     1      -9.339   3.610  67.866  1.00  0.00    -0.190 A  
HETATM   14  C   UNL     1      -9.834   4.306  66.795  1.00  0.00    -0.230 A  
HETATM   15  C   UNL     1      -5.498   9.464  65.820  1.00  0.00    -0.040 C  
HETATM   16  C   UNL     1      -9.320   5.600  66.601  1.00  0.00    -0.151 A  
HETATM   17  C   UNL     1      -8.770   5.754  65.112  1.00  0.00    -0.070 C  
HETATM   18  C   UNL     1      -8.130   7.086  65.209  1.00  0.00    -0.134 C  
HETATM   19  N   UNL     1      -7.453   8.331  65.120  1.00  0.00    -0.081 NA 
HETATM   20  C   UNL     1      -5.998   8.274  65.016  1.00  0.00    -0.045 C  
ENDROOT
BRANCH   1  21
HETATM   21  O   UNL     1     -10.603   8.346  68.965  1.00  0.00    -0.218 OA 
BRANCH  21  22
HETATM   22  C   UNL     1     -10.773   8.824  70.237  1.00  0.00    -0.227 C  
HETATM   23  C   UNL     1     -11.954   8.319  72.384  1.00  0.00    -0.447 C  
HETATM   24  C   UNL     1     -11.236   7.700  71.176  1.00  0.00    -0.261 C  
HETATM   25  O   UNL     1     -10.626  10.000  70.572  1.00  0.00    -0.292 OA 
HETATM   26  H   UNL     1     -12.427   6.134  71.068  1.00  0.00     0.000 HD 
HETATM   27  C   UNL     1     -10.001   6.876  71.613  1.00  0.00    -0.180 C  
HETATM   28  O   UNL     1     -12.140   6.829  70.488  1.00  0.00    -0.386 OA 
BRANCH  23  29
HETATM   29  C   UNL     1     -13.172   9.136  71.979  1.00  0.00    -0.441 C  
HETATM   30  O   UNL     1     -14.093   8.766  71.260  1.00  0.00    -0.317 OA 
BRANCH  29  31
HETATM   31  O   UNL     1     -13.077  10.366  72.573  1.00  0.00    -0.155 OA 
HETATM   32  C   UNL     1     -13.134  11.446  71.644  1.00  0.00    -0.393 C  
ENDBRANCH  29  31
ENDBRANCH  23  29
BRANCH  27  33
HETATM   33  C   UNL     1     -10.253   5.707  72.591  1.00  0.00    -0.216 C  
BRANCH  33  34
HETATM   34  C   UNL     1     -10.159   4.310  71.957  1.00  0.00    -0.244 C  
HETATM   35  C   UNL     1      -9.142   3.163  74.000  1.00  0.00    -0.089 C  
HETATM   36  O   UNL     1     -11.500   3.192  73.629  1.00  0.00    -0.208 OA 
HETATM   37  C   UNL     1     -10.246   3.131  72.947  1.00  0.00    -0.158 C  
HETATM   38  C   UNL     1     -10.190   1.807  72.175  1.00  0.00    -0.227 C  
HETATM   39  H   UNL     1     -11.554   2.466  74.239  1.00  0.00     0.000 HD 
ENDBRANCH  33  34
ENDBRANCH  27  33
ENDBRANCH  21  22
ENDBRANCH   1  21
BRANCH   3  40
HETATM   40  O   UNL     1     -11.083  10.482  66.928  1.00  0.00    -0.196 OA 
HETATM   41  C   UNL     1     -11.289  11.750  67.525  1.00  0.00    -0.310 C  
ENDBRANCH   3  40
TORSDOF 7
ENDMDL
MODEL       49
REMARK 921   NORMALIZED FREE ENERGY PREDICTED BY IDOCK:   -5.02 KCAL/MOL
REMARK 922        TOTAL FREE ENERGY PREDICTED BY IDOCK:   -8.94 KCAL/MOL
REMARK 923 INTER-LIGAND FREE ENERGY PREDICTED BY IDOCK:   -6.61 KCAL/MOL
REMARK 924 INTRA-LIGAND FREE ENERGY PREDICTED BY IDOCK:   -2.33 KCAL/MOL
REMARK 927      BINDING AFFINITY PREDICTED BY RF-SCORE:    0.00 PKD
ROOT
HETATM    1  C   UNL     1      -8.707   7.731  65.854  1.00  0.00    -0.149 C  
HETATM    2  O   UNL     1     -10.044   8.680  72.344  1.00  0.00    -0.307 OA 
HETATM    3  C   UNL     1      -7.561   8.430  65.156  1.00  0.00    -0.088 C  
HETATM    4  C   UNL     1      -9.540   8.905  66.543  1.00  0.00    -0.297 C  
HETATM    5  C   UNL     1     -11.450   8.391  72.298  1.00  0.00    -0.384 C  
HETATM    6  C   UNL     1      -7.828   9.715  64.926  1.00  0.00    -0.123 C  
HETATM    7  C   UNL     1      -9.133  10.185  65.511  1.00  0.00    -0.178 C  
HETATM    8  C   UNL     1      -9.590   8.923  68.186  1.00  0.00    -0.161 A  
HETATM    9  C   UNL     1     -10.733   8.375  68.819  1.00  0.00    -0.086 A  
HETATM   10  O   UNL     1     -11.921   8.075  70.964  1.00  0.00    -0.296 OA 
HETATM   11  C   UNL     1     -10.820   8.371  70.214  1.00  0.00    -0.239 A  
HETATM   12  C   UNL     1     -10.141  10.401  64.378  1.00  0.00    -0.342 C  
HETATM   13  C   UNL     1      -9.769   8.749  71.013  1.00  0.00    -0.230 A  
HETATM   14  C   UNL     1      -8.643   9.327  70.485  1.00  0.00    -0.271 A  
HETATM   15  C   UNL     1     -10.561  11.864  64.465  1.00  0.00    -0.358 C  
HETATM   16  C   UNL     1      -8.681   9.623  69.111  1.00  0.00    -0.151 A  
HETATM   17  C   UNL     1      -8.311  11.155  68.870  1.00  0.00    -0.101 C  
HETATM   18  C   UNL     1      -8.596  11.265  67.421  1.00  0.00    -0.136 C  
HETATM   19  N   UNL     1      -8.834  11.562  66.053  1.00  0.00    -0.181 NA 
HETATM   20  C   UNL     1      -9.984  12.411  65.761  1.00  0.00    -0.254 C  
ENDROOT
BRANCH   1  21
HETATM   21  O   UNL     1      -8.281   6.663  66.692  1.00  0.00    -0.108 OA 
BRANCH  21  22
HETATM   22  C   UNL     1      -9.033   5.534  66.511  1.00  0.00    -0.123 C  
HETATM   23  C   UNL     1      -9.229   3.159  67.275  1.00  0.00    -0.219 C  
HETATM   24  C   UNL     1      -8.885   4.590  67.715  1.00  0.00    -0.107 C  
HETATM   25  O   UNL     1      -9.695   5.283  65.503  1.00  0.00    -0.080 OA 
HETATM   26  H   UNL     1      -7.446   4.039  68.942  1.00  0.00     0.000 HD 
HETATM   27  C   UNL     1      -9.823   5.075  68.846  1.00  0.00    -0.245 C  
HETATM   28  O   UNL     1      -7.538   4.623  68.198  1.00  0.00    -0.075 OA 
BRANCH  23  29
HETATM   29  C   UNL     1      -8.320   2.660  66.161  1.00  0.00    -0.092 C  
HETATM   30  O   UNL     1      -7.094   2.650  66.168  1.00  0.00    -0.061 OA 
BRANCH  29  31
HETATM   31  O   UNL     1      -9.110   2.200  65.142  1.00  0.00    -0.128 OA 
HETATM   32  C   UNL     1      -8.519   2.365  63.854  1.00  0.00    -0.085 C  
ENDBRANCH  29  31
ENDBRANCH  23  29
BRANCH  27  33
HETATM   33  C   UNL     1      -9.843   4.237  70.142  1.00  0.00    -0.271 C  
BRANCH  33  34
HETATM   34  C   UNL     1      -9.628   5.045  71.432  1.00  0.00    -0.220 C  
HETATM   35  C   UNL     1      -7.706   3.617  72.320  1.00  0.00    -0.063 C  
HETATM   36  O   UNL     1      -7.307   5.571  71.008  1.00  0.00    -0.078 OA 
HETATM   37  C   UNL     1      -8.191   5.025  71.990  1.00  0.00    -0.116 C  
HETATM   38  C   UNL     1      -8.113   5.909  73.241  1.00  0.00    -0.116 C  
HETATM   39  H   UNL     1      -6.421   5.559  71.351  1.00  0.00     0.000 HD 
ENDBRANCH  33  34
ENDBRANCH  27  33
ENDBRANCH  21  22
ENDBRANCH   1  21
BRANCH   3  40
HETATM   40  O   UNL     1      -6.345   7.916  64.789  1.00  0.00    -0.048 OA 
HETATM   41  C   UNL     1      -6.264   6.915  63.791  1.00  0.00    -0.043 C  
ENDBRANCH   3  40
TORSDOF 7
ENDMDL
MODEL       50
REMARK 921   NORMALIZED FREE ENERGY PREDICTED BY IDOCK:   -4.99 KCAL/MOL
REMARK 922        TOTAL FREE ENERGY PREDICTED BY IDOCK:   -8.90 KCAL/MOL
REMARK 923 INTER-LIGAND FREE ENERGY PREDICTED BY IDOCK:   -8.95 KCAL/MOL
REMARK 924 INTRA-LIGAND FREE ENERGY PREDICTED BY IDOCK:    0.05 KCAL/MOL
REMARK 927      BINDING AFFINITY PREDICTED BY RF-SCORE:    0.00 PKD
ROOT
HETATM    1  C   UNL     1      -9.851  12.910  67.867  1.00  0.00    -0.227 C  
HETATM    2  O   UNL     1      -6.167  18.482  68.303  1.00  0.00    -0.200 OA 
HETATM    3  C   UNL     1     -11.199  12.886  67.180  1.00  0.00    -0.289 C  
HETATM    4  C   UNL     1      -9.956  14.099  68.926  1.00  0.00    -0.132 C  
HETATM    5  C   UNL     1      -5.450  18.149  69.503  1.00  0.00    -0.210 C  
HETATM    6  C   UNL     1     -12.144  13.468  67.918  1.00  0.00    -0.304 C  
HETATM    7  C   UNL     1     -11.631  14.104  69.182  1.00  0.00    -0.307 C  
HETATM    8  C   UNL     1      -8.976  15.398  68.693  1.00  0.00    -0.191 A  
HETATM    9  C   UNL     1      -7.774  15.463  69.442  1.00  0.00    -0.227 A  
HETATM   10  O   UNL     1      -5.836  16.866  70.056  1.00  0.00    -0.218 OA 
HETATM   11  C   UNL     1      -6.912  16.551  69.278  1.00  0.00    -0.227 A  
HETATM   12  C   UNL     1     -12.068  13.259  70.383  1.00  0.00    -0.401 C  
HETATM   13  C   UNL     1      -7.110  17.500  68.305  1.00  0.00    -0.210 A  
HETATM   14  C   UNL     1      -8.263  17.534  67.565  1.00  0.00    -0.213 A  
HETATM   15  C   UNL     1     -12.893  14.186  71.268  1.00  0.00    -0.429 C  
HETATM   16  C   UNL     1      -9.272  16.631  67.943  1.00  0.00    -0.219 A  
HETATM   17  C   UNL     1     -10.643  17.410  68.183  1.00  0.00    -0.376 C  
HETATM   18  C   UNL     1     -11.470  16.313  68.737  1.00  0.00    -0.289 C  
HETATM   19  N   UNL     1     -12.399  15.398  69.297  1.00  0.00    -0.171 NA 
HETATM   20  C   UNL     1     -12.733  15.589  70.705  1.00  0.00    -0.436 C  
ENDROOT
BRANCH   1  21
HETATM   21  O   UNL     1      -8.761  12.952  66.954  1.00  0.00    -0.209 OA 
BRANCH  21  22
HETATM   22  C   UNL     1      -7.679  12.248  67.409  1.00  0.00    -0.165 C  
HETATM   23  C   UNL     1      -7.026   9.996  68.282  1.00  0.00    -0.068 C  
HETATM   24  C   UNL     1      -7.931  10.737  67.287  1.00  0.00    -0.117 C  
HETATM   25  O   UNL     1      -6.666  12.751  67.897  1.00  0.00    -0.087 OA 
HETATM   26  H   UNL     1      -9.455   9.510  67.511  1.00  0.00     0.000 HD 
HETATM   27  C   UNL     1      -7.644  10.301  65.830  1.00  0.00    -0.143 C  
HETATM   28  O   UNL     1      -9.299  10.444  67.586  1.00  0.00    -0.147 OA 
BRANCH  23  29
HETATM   29  C   UNL     1      -7.288  10.409  69.723  1.00  0.00    -0.154 C  
HETATM   30  O   UNL     1      -6.502  10.974  70.476  1.00  0.00    -0.309 OA 
BRANCH  29  31
HETATM   31  O   UNL     1      -8.573  10.057  70.041  1.00  0.00    -0.190 OA 
HETATM   32  C   UNL     1      -8.647   9.012  71.009  1.00  0.00    -0.210 C  
ENDBRANCH  29  31
ENDBRANCH  23  29
BRANCH  27  33
HETATM   33  C   UNL     1      -7.812   8.801  65.505  1.00  0.00    -0.098 C  
BRANCH  33  34
HETATM   34  C   UNL     1      -9.224   8.245  65.752  1.00  0.00    -0.142 C  
HETATM   35  C   UNL     1      -8.498   5.817  66.072  1.00  0.00    -0.135 C  
HETATM   36  O   UNL     1      -8.740   7.303  67.925  1.00  0.00    -0.123 OA 
HETATM   37  C   UNL     1      -9.290   6.990  66.644  1.00  0.00    -0.165 C  
HETATM   38  C   UNL     1     -10.755   6.579  66.845  1.00  0.00    -0.403 C  
HETATM   39  H   UNL     1      -8.781   6.530  68.475  1.00  0.00     0.000 HD 
ENDBRANCH  33  34
ENDBRANCH  27  33
ENDBRANCH  21  22
ENDBRANCH   1  21
BRANCH   3  40
HETATM   40  O   UNL     1     -11.518  12.387  65.945  1.00  0.00    -0.337 OA 
HETATM   41  C   UNL     1     -12.544  12.987  65.174  1.00  0.00    -0.469 C  
ENDBRANCH   3  40
TORSDOF 7
ENDMDL
MODEL       51
REMARK 921   NORMALIZED FREE ENERGY PREDICTED BY IDOCK:   -4.96 KCAL/MOL
REMARK 922        TOTAL FREE ENERGY PREDICTED BY IDOCK:   -8.86 KCAL/MOL
REMARK 923 INTER-LIGAND FREE ENERGY PREDICTED BY IDOCK:   -8.85 KCAL/MOL
REMARK 924 INTRA-LIGAND FREE ENERGY PREDICTED BY IDOCK:   -0.01 KCAL/MOL
REMARK 927      BINDING AFFINITY PREDICTED BY RF-SCORE:    0.00 PKD
ROOT
HETATM    1  C   UNL     1      -9.754  10.706  66.166  1.00  0.00    -0.205 C  
HETATM    2  O   UNL     1     -10.920   5.593  70.325  1.00  0.00    -0.294 OA 
HETATM    3  C   UNL     1      -9.961  10.593  64.671  1.00  0.00    -0.337 C  
HETATM    4  C   UNL     1      -8.801   9.480  66.537  1.00  0.00    -0.156 C  
HETATM    5  C   UNL     1      -9.998   5.970  71.362  1.00  0.00    -0.186 C  
HETATM    6  C   UNL     1      -8.997   9.882  64.087  1.00  0.00    -0.274 C  
HETATM    7  C   UNL     1      -8.016   9.271  65.051  1.00  0.00    -0.118 C  
HETATM    8  C   UNL     1      -9.428   8.313  67.510  1.00  0.00    -0.182 A  
HETATM    9  C   UNL     1      -9.117   8.365  68.892  1.00  0.00    -0.147 A  
HETATM   10  O   UNL     1      -9.264   7.181  71.054  1.00  0.00    -0.157 OA 
HETATM   11  C   UNL     1      -9.627   7.392  69.755  1.00  0.00    -0.163 A  
HETATM   12  C   UNL     1      -6.683  10.022  64.953  1.00  0.00    -0.126 C  
HETATM   13  C   UNL     1     -10.544   6.457  69.343  1.00  0.00    -0.257 A  
HETATM   14  C   UNL     1     -10.869   6.311  68.020  1.00  0.00    -0.409 A  
HETATM   15  C   UNL     1      -5.643   8.978  64.565  1.00  0.00    -0.063 C  
HETATM   16  C   UNL     1     -10.123   7.078  67.107  1.00  0.00    -0.283 A  
HETATM   17  C   UNL     1      -9.503   6.137  65.979  1.00  0.00    -0.046 C  
HETATM   18  C   UNL     1      -8.638   7.111  65.276  1.00  0.00     0.014 C  
HETATM   19  N   UNL     1      -7.745   7.894  64.497  1.00  0.00    -0.118 NA 
HETATM   20  C   UNL     1      -6.321   7.621  64.669  1.00  0.00    -0.044 C  
ENDROOT
BRANCH   1  21
HETATM   21  O   UNL     1     -10.973  10.820  66.891  1.00  0.00    -0.256 OA 
BRANCH  21  22
HETATM   22  C   UNL     1     -11.264  12.119  67.209  1.00  0.00    -0.306 C  
HETATM   23  C   UNL     1     -10.756  13.889  68.902  1.00  0.00    -0.256 C  
HETATM   24  C   UNL     1     -10.170  12.711  68.111  1.00  0.00    -0.240 C  
HETATM   25  O   UNL     1     -12.286  12.715  66.865  1.00  0.00    -0.489 OA 
HETATM   26  H   UNL     1      -9.025  12.081  69.585  1.00  0.00     0.000 HD 
HETATM   27  C   UNL     1      -8.983  13.158  67.225  1.00  0.00    -0.216 C  
HETATM   28  O   UNL     1      -9.702  11.716  69.027  1.00  0.00    -0.074 OA 
BRANCH  23  29
HETATM   29  C   UNL     1     -11.927  13.474  69.781  1.00  0.00    -0.340 C  
HETATM   30  O   UNL     1     -12.042  12.419  70.394  1.00  0.00    -0.359 OA 
BRANCH  29  31
HETATM   31  O   UNL     1     -12.837  14.497  69.788  1.00  0.00    -0.130 OA 
HETATM   32  C   UNL     1     -13.351  14.784  71.087  1.00  0.00    -0.400 C  
ENDBRANCH  29  31
ENDBRANCH  23  29
BRANCH  27  33
HETATM   33  C   UNL     1      -7.783  13.811  67.945  1.00  0.00    -0.161 C  
BRANCH  33  34
HETATM   34  C   UNL     1      -7.173  15.016  67.210  1.00  0.00    -0.175 C  
HETATM   35  C   UNL     1      -9.359  15.822  66.164  1.00  0.00    -0.381 C  
HETATM   36  O   UNL     1      -8.583  16.679  68.253  1.00  0.00    -0.197 OA 
HETATM   37  C   UNL     1      -8.129  16.203  66.984  1.00  0.00    -0.210 C  
HETATM   38  C   UNL     1      -7.377  17.346  66.291  1.00  0.00    -0.347 C  
HETATM   39  H   UNL     1      -9.173  17.411  68.114  1.00  0.00     0.000 HD 
ENDBRANCH  33  34
ENDBRANCH  27  33
ENDBRANCH  21  22
ENDBRANCH   1  21
BRANCH   3  40
HETATM   40  O   UNL     1     -10.989  11.090  63.913  1.00  0.00    -0.307 OA 
HETATM   41  C   UNL     1     -10.971  12.438  63.479  1.00  0.00    -0.450 C  
ENDBRANCH   3  40
TORSDOF 7
ENDMDL
MODEL       52
REMARK 921   NORMALIZED FREE ENERGY PREDICTED BY IDOCK:   -4.96 KCAL/MOL
REMARK 922        TOTAL FREE ENERGY PREDICTED BY IDOCK:   -8.86 KCAL/MOL
REMARK 923 INTER-LIGAND FREE ENERGY PREDICTED BY IDOCK:   -7.70 KCAL/MOL
REMARK 924 INTRA-LIGAND FREE ENERGY PREDICTED BY IDOCK:   -1.15 KCAL/MOL
REMARK 927      BINDING AFFINITY PREDICTED BY RF-SCORE:    0.00 PKD
ROOT
HETATM    1  C   UNL     1      -8.480   6.010  67.634  1.00  0.00    -0.107 C  
HETATM    2  O   UNL     1     -10.219  12.396  68.632  1.00  0.00    -0.218 OA 
HETATM    3  C   UNL     1      -7.065   5.605  67.283  1.00  0.00    -0.074 C  
HETATM    4  C   UNL     1      -8.862   7.124  66.556  1.00  0.00    -0.154 C  
HETATM    5  C   UNL     1     -11.603  12.282  68.263  1.00  0.00    -0.331 C  
HETATM    6  C   UNL     1      -6.762   5.898  66.019  1.00  0.00    -0.059 C  
HETATM    7  C   UNL     1      -7.838   6.656  65.290  1.00  0.00    -0.110 C  
HETATM    8  C   UNL     1      -9.130   8.646  67.116  1.00  0.00    -0.156 A  
HETATM    9  C   UNL     1     -10.473   9.049  67.318  1.00  0.00    -0.343 A  
HETATM   10  O   UNL     1     -11.969  10.943  67.844  1.00  0.00    -0.585 OA 
HETATM   11  C   UNL     1     -10.748  10.336  67.791  1.00  0.00    -0.275 A  
HETATM   12  C   UNL     1      -8.508   5.725  64.274  1.00  0.00     0.001 C  
HETATM   13  C   UNL     1      -9.756  11.188  68.209  1.00  0.00    -0.188 A  
HETATM   14  C   UNL     1      -8.432  10.894  68.012  1.00  0.00    -0.130 A  
HETATM   15  C   UNL     1      -8.316   6.383  62.913  1.00  0.00     0.068 C  
HETATM   16  C   UNL     1      -8.157   9.743  67.253  1.00  0.00    -0.117 A  
HETATM   17  C   UNL     1      -7.175  10.104  66.048  1.00  0.00    -0.118 C  
HETATM   18  C   UNL     1      -7.188   8.820  65.311  1.00  0.00    -0.084 C  
HETATM   19  N   UNL     1      -7.094   7.680  64.469  1.00  0.00    -0.063 NA 
HETATM   20  C   UNL     1      -7.756   7.773  63.172  1.00  0.00    -0.135 C  
ENDROOT
BRANCH   1  21
HETATM   21  O   UNL     1      -8.637   6.356  69.005  1.00  0.00    -0.123 OA 
BRANCH  21  22
HETATM   22  C   UNL     1      -9.291   5.382  69.711  1.00  0.00    -0.142 C  
HETATM   23  C   UNL     1      -9.979   4.767  72.036  1.00  0.00    -0.247 C  
HETATM   24  C   UNL     1      -9.786   5.934  71.057  1.00  0.00    -0.172 C  
HETATM   25  O   UNL     1      -9.420   4.213  69.343  1.00  0.00    -0.160 OA 
HETATM   26  H   UNL     1      -9.127   7.187  72.427  1.00  0.00     0.000 HD 
HETATM   27  C   UNL     1     -11.109   6.701  70.824  1.00  0.00    -0.336 C  
HETATM   28  O   UNL     1      -8.822   6.846  71.595  1.00  0.00    -0.129 OA 
BRANCH  23  29
HETATM   29  C   UNL     1      -8.690   3.995  72.281  1.00  0.00    -0.106 C  
HETATM   30  O   UNL     1      -7.551   4.380  72.040  1.00  0.00    -0.075 OA 
BRANCH  29  31
HETATM   31  O   UNL     1      -9.016   2.788  72.839  1.00  0.00    -0.084 OA 
HETATM   32  C   UNL     1     -10.421   2.603  72.997  1.00  0.00    -0.153 C  
ENDBRANCH  29  31
ENDBRANCH  23  29
BRANCH  27  33
HETATM   33  C   UNL     1     -11.789   7.313  72.068  1.00  0.00    -0.332 C  
BRANCH  33  34
HETATM   34  C   UNL     1     -11.952   8.841  72.024  1.00  0.00    -0.446 C  
HETATM   35  C   UNL     1     -14.318   8.826  71.064  1.00  0.00     0.014 C  
HETATM   36  O   UNL     1     -13.926   8.917  73.418  1.00  0.00    -1.236 OA 
HETATM   37  C   UNL     1     -13.399   9.353  72.162  1.00  0.00    -0.468 C  
HETATM   38  C   UNL     1     -13.404  10.887  72.153  1.00  0.00    -0.294 C  
HETATM   39  H   UNL     1     -14.818   9.233  73.503  1.00  0.00     0.000 HD 
ENDBRANCH  33  34
ENDBRANCH  27  33
ENDBRANCH  21  22
ENDBRANCH   1  21
BRANCH   3  40
HETATM   40  O   UNL     1      -6.117   5.033  68.090  1.00  0.00    -0.028 OA 
HETATM   41  C   UNL     1      -5.161   4.139  67.548  1.00  0.00    -0.011 C  
ENDBRANCH   3  40
TORSDOF 7
ENDMDL
MODEL       53
REMARK 921   NORMALIZED FREE ENERGY PREDICTED BY IDOCK:   -4.95 KCAL/MOL
REMARK 922        TOTAL FREE ENERGY PREDICTED BY IDOCK:   -8.84 KCAL/MOL
REMARK 923 INTER-LIGAND FREE ENERGY PREDICTED BY IDOCK:   -7.72 KCAL/MOL
REMARK 924 INTRA-LIGAND FREE ENERGY PREDICTED BY IDOCK:   -1.13 KCAL/MOL
REMARK 927      BINDING AFFINITY PREDICTED BY RF-SCORE:    0.00 PKD
ROOT
HETATM    1  C   UNL     1      -9.064   6.231  69.348  1.00  0.00    -0.139 C  
HETATM    2  O   UNL     1      -9.097   4.003  63.037  1.00  0.00    -0.105 OA 
HETATM    3  C   UNL     1      -7.814   6.216  70.202  1.00  0.00    -0.102 C  
HETATM    4  C   UNL     1      -9.209   4.733  68.816  1.00  0.00    -0.170 C  
HETATM    5  C   UNL     1     -10.482   3.627  62.969  1.00  0.00    -0.214 C  
HETATM    6  C   UNL     1      -7.512   4.988  70.621  1.00  0.00    -0.069 C  
HETATM    7  C   UNL     1      -8.401   3.911  70.057  1.00  0.00    -0.056 C  
HETATM    8  C   UNL     1      -9.059   4.497  67.197  1.00  0.00    -0.136 A  
HETATM    9  C   UNL     1     -10.247   4.387  66.431  1.00  0.00    -0.184 A  
HETATM   10  O   UNL     1     -11.192   3.855  64.212  1.00  0.00    -0.335 OA 
HETATM   11  C   UNL     1     -10.167   4.183  65.051  1.00  0.00    -0.203 A  
HETATM   12  C   UNL     1      -9.333   3.401  71.161  1.00  0.00    -0.208 C  
HETATM   13  C   UNL     1      -8.973   4.228  64.373  1.00  0.00    -0.148 A  
HETATM   14  C   UNL     1      -7.776   4.290  65.039  1.00  0.00    -0.085 A  
HETATM   15  C   UNL     1      -9.052   1.908  71.288  1.00  0.00    -0.149 C  
HETATM   16  C   UNL     1      -7.836   4.178  66.439  1.00  0.00    -0.094 A  
HETATM   17  C   UNL     1      -6.859   3.021  66.938  1.00  0.00    -0.049 C  
HETATM   18  C   UNL     1      -7.230   2.969  68.371  1.00  0.00    -0.049 C  
HETATM   19  N   UNL     1      -7.466   2.765  69.756  1.00  0.00    -0.044 NA 
HETATM   20  C   UNL     1      -8.150   1.530  70.125  1.00  0.00    -0.041 C  
ENDROOT
BRANCH   1  21
HETATM   21  O   UNL     1      -9.060   7.266  68.372  1.00  0.00    -0.136 OA 
BRANCH  21  22
HETATM   22  C   UNL     1     -10.251   7.939  68.329  1.00  0.00    -0.203 C  
HETATM   23  C   UNL     1     -11.212  10.245  68.476  1.00  0.00    -0.271 C  
HETATM   24  C   UNL     1     -10.022   9.416  67.971  1.00  0.00    -0.176 C  
HETATM   25  O   UNL     1     -11.348   7.445  68.592  1.00  0.00     0.212 OA 
HETATM   26  H   UNL     1      -8.680  10.802  68.371  1.00  0.00     0.000 HD 
HETATM   27  C   UNL     1      -9.860   9.536  66.437  1.00  0.00    -0.320 C  
HETATM   28  O   UNL     1      -8.822   9.889  68.592  1.00  0.00    -0.122 OA 
BRANCH  23  29
HETATM   29  C   UNL     1     -11.393  10.141  69.984  1.00  0.00    -0.287 C  
HETATM   30  O   UNL     1     -10.529   9.860  70.805  1.00  0.00    -0.290 OA 
BRANCH  29  31
HETATM   31  O   UNL     1     -12.698  10.437  70.277  1.00  0.00    -0.283 OA 
HETATM   32  C   UNL     1     -12.927  10.652  71.668  1.00  0.00    -0.477 C  
ENDBRANCH  29  31
ENDBRANCH  23  29
BRANCH  27  33
HETATM   33  C   UNL     1      -9.648  10.955  65.867  1.00  0.00    -0.257 C  
BRANCH  33  34
HETATM   34  C   UNL     1     -10.517  11.292  64.645  1.00  0.00    -0.387 C  
HETATM   35  C   UNL     1     -12.026  12.965  65.849  1.00  0.00    -0.504 C  
HETATM   36  O   UNL     1     -10.071  13.668  64.674  1.00  0.00    -0.603 OA 
HETATM   37  C   UNL     1     -11.129  12.707  64.642  1.00  0.00    -0.313 C  
HETATM   38  C   UNL     1     -11.924  12.921  63.348  1.00  0.00    -0.612 C  
HETATM   39  H   UNL     1     -10.447  14.540  64.672  1.00  0.00     0.000 HD 
ENDBRANCH  33  34
ENDBRANCH  27  33
ENDBRANCH  21  22
ENDBRANCH   1  21
BRANCH   3  40
HETATM   40  O   UNL     1      -7.000   7.265  70.540  1.00  0.00    -0.055 OA 
HETATM   41  C   UNL     1      -6.747   7.564  71.901  1.00  0.00    -0.054 C  
ENDBRANCH   3  40
TORSDOF 7
ENDMDL
MODEL       54
REMARK 921   NORMALIZED FREE ENERGY PREDICTED BY IDOCK:   -4.93 KCAL/MOL
REMARK 922        TOTAL FREE ENERGY PREDICTED BY IDOCK:   -8.82 KCAL/MOL
REMARK 923 INTER-LIGAND FREE ENERGY PREDICTED BY IDOCK:   -7.47 KCAL/MOL
REMARK 924 INTRA-LIGAND FREE ENERGY PREDICTED BY IDOCK:   -1.34 KCAL/MOL
REMARK 927      BINDING AFFINITY PREDICTED BY RF-SCORE:    0.00 PKD
ROOT
HETATM    1  C   UNL     1      -7.644  10.593  68.788  1.00  0.00    -0.109 C  
HETATM    2  O   UNL     1     -13.379   9.345  72.006  1.00  0.00    -0.389 OA 
HETATM    3  C   UNL     1      -7.341  11.943  68.175  1.00  0.00    -0.092 C  
HETATM    4  C   UNL     1      -9.062  10.182  68.183  1.00  0.00    -0.128 C  
HETATM    5  C   UNL     1     -13.431   7.928  71.770  1.00  0.00    -0.335 C  
HETATM    6  C   UNL     1      -8.029  12.146  67.052  1.00  0.00    -0.138 C  
HETATM    7  C   UNL     1      -9.015  11.055  66.732  1.00  0.00    -0.157 C  
HETATM    8  C   UNL     1     -10.318  10.059  69.236  1.00  0.00    -0.237 A  
HETATM    9  C   UNL     1     -10.668   8.767  69.702  1.00  0.00    -0.212 A  
HETATM   10  O   UNL     1     -12.318   7.445  70.976  1.00  0.00    -0.318 OA 
HETATM   11  C   UNL     1     -11.731   8.616  70.597  1.00  0.00    -0.155 A  
HETATM   12  C   UNL     1      -8.493  10.239  65.544  1.00  0.00    -0.167 C  
HETATM   13  C   UNL     1     -12.368   9.692  71.163  1.00  0.00    -0.339 A  
HETATM   14  C   UNL     1     -12.121  10.972  70.740  1.00  0.00    -0.467 A  
HETATM   15  C   UNL     1      -9.561  10.344  64.462  1.00  0.00    -0.369 C  
HETATM   16  C   UNL     1     -11.281  11.106  69.620  1.00  0.00    -0.333 A  
HETATM   17  C   UNL     1     -11.995  11.993  68.503  1.00  0.00    -0.273 C  
HETATM   18  C   UNL     1     -11.030  11.834  67.391  1.00  0.00    -0.262 C  
HETATM   19  N   UNL     1     -10.234  11.781  66.217  1.00  0.00    -0.215 NA 
HETATM   20  C   UNL     1     -10.770  11.009  65.101  1.00  0.00    -0.183 C  
ENDROOT
BRANCH   1  21
HETATM   21  O   UNL     1      -7.518  10.584  70.205  1.00  0.00    -0.176 OA 
BRANCH  21  22
HETATM   22  C   UNL     1      -6.428   9.869  70.622  1.00  0.00    -0.106 C  
HETATM   23  C   UNL     1      -5.725   8.165  72.313  1.00  0.00    -0.040 C  
HETATM   24  C   UNL     1      -6.869   8.616  71.394  1.00  0.00    -0.082 C  
HETATM   25  O   UNL     1      -5.256  10.209  70.449  1.00  0.00    -0.040 OA 
HETATM   26  H   UNL     1      -8.295   8.138  72.666  1.00  0.00     0.000 HD 
HETATM   27  C   UNL     1      -7.246   7.512  70.376  1.00  0.00    -0.064 C  
HETATM   28  O   UNL     1      -8.022   8.912  72.189  1.00  0.00    -0.364 OA 
BRANCH  23  29
HETATM   29  C   UNL     1      -5.334   9.235  73.322  1.00  0.00    -0.085 C  
HETATM   30  O   UNL     1      -5.148  10.424  73.090  1.00  0.00    -0.317 OA 
BRANCH  29  31
HETATM   31  O   UNL     1      -5.241   8.644  74.554  1.00  0.00    -0.086 OA 
HETATM   32  C   UNL     1      -5.628   7.272  74.551  1.00  0.00    -0.070 C  
ENDBRANCH  29  31
ENDBRANCH  23  29
BRANCH  27  33
HETATM   33  C   UNL     1      -7.692   6.153  70.956  1.00  0.00    -0.102 C  
BRANCH  33  34
HETATM   34  C   UNL     1      -7.925   5.054  69.907  1.00  0.00    -0.074 C  
HETATM   35  C   UNL     1      -9.752   3.832  71.208  1.00  0.00    -0.245 C  
HETATM   36  O   UNL     1     -10.278   5.509  69.594  1.00  0.00    -0.216 OA 
HETATM   37  C   UNL     1      -9.348   4.462  69.879  1.00  0.00    -0.155 C  
HETATM   38  C   UNL     1      -9.450   3.420  68.757  1.00  0.00    -0.201 C  
HETATM   39  H   UNL     1     -11.156   5.145  69.576  1.00  0.00     0.000 HD 
ENDBRANCH  33  34
ENDBRANCH  27  33
ENDBRANCH  21  22
ENDBRANCH   1  21
BRANCH   3  40
HETATM   40  O   UNL     1      -6.508  12.925  68.643  1.00  0.00    -0.075 OA 
HETATM   41  C   UNL     1      -7.038  14.159  69.091  1.00  0.00    -0.099 C  
ENDBRANCH   3  40
TORSDOF 7
ENDMDL
MODEL       55
REMARK 921   NORMALIZED FREE ENERGY PREDICTED BY IDOCK:   -4.91 KCAL/MOL
REMARK 922        TOTAL FREE ENERGY PREDICTED BY IDOCK:   -8.78 KCAL/MOL
REMARK 923 INTER-LIGAND FREE ENERGY PREDICTED BY IDOCK:   -6.92 KCAL/MOL
REMARK 924 INTRA-LIGAND FREE ENERGY PREDICTED BY IDOCK:   -1.86 KCAL/MOL
REMARK 927      BINDING AFFINITY PREDICTED BY RF-SCORE:    0.00 PKD
ROOT
HETATM    1  C   UNL     1      -8.777   5.990  70.022  1.00  0.00    -0.135 C  
HETATM    2  O   UNL     1     -12.455  11.551  69.437  1.00  0.00    -0.155 OA 
HETATM    3  C   UNL     1      -9.193   4.838  70.911  1.00  0.00    -0.140 C  
HETATM    4  C   UNL     1      -8.814   7.271  70.974  1.00  0.00    -0.144 C  
HETATM    5  C   UNL     1     -11.391  12.456  69.102  1.00  0.00    -0.269 C  
HETATM    6  C   UNL     1      -9.005   5.112  72.202  1.00  0.00    -0.139 C  
HETATM    7  C   UNL     1      -8.546   6.521  72.469  1.00  0.00    -0.121 C  
HETATM    8  C   UNL     1      -9.921   8.433  70.622  1.00  0.00    -0.212 A  
HETATM    9  C   UNL     1      -9.481   9.568  69.895  1.00  0.00    -0.247 A  
HETATM   10  O   UNL     1     -10.091  11.814  69.070  1.00  0.00    -0.121 OA 
HETATM   11  C   UNL     1     -10.388  10.582  69.576  1.00  0.00    -0.221 A  
HETATM   12  C   UNL     1      -7.073   6.497  72.887  1.00  0.00    -0.081 C  
HETATM   13  C   UNL     1     -11.735  10.460  69.813  1.00  0.00    -0.237 A  
HETATM   14  C   UNL     1     -12.239   9.416  70.545  1.00  0.00    -0.045 A  
HETATM   15  C   UNL     1      -7.020   7.129  74.272  1.00  0.00    -0.090 C  
HETATM   16  C   UNL     1     -11.295   8.559  71.138  1.00  0.00    -0.319 A  
HETATM   17  C   UNL     1     -11.583   8.424  72.701  1.00  0.00    -0.367 C  
HETATM   18  C   UNL     1     -10.389   7.655  73.119  1.00  0.00    -0.352 C  
HETATM   19  N   UNL     1      -9.308   6.942  73.702  1.00  0.00    -0.162 NA 
HETATM   20  C   UNL     1      -8.397   7.714  74.541  1.00  0.00    -0.200 C  
ENDROOT
BRANCH   1  21
HETATM   21  O   UNL     1      -9.526   6.060  68.814  1.00  0.00    -0.124 OA 
BRANCH  21  22
HETATM   22  C   UNL     1      -8.734   5.912  67.707  1.00  0.00    -0.104 C  
HETATM   23  C   UNL     1      -8.776   6.142  65.216  1.00  0.00    -0.033 C  
HETATM   24  C   UNL     1      -9.287   6.738  66.536  1.00  0.00    -0.161 C  
HETATM   25  O   UNL     1      -7.747   5.177  67.642  1.00  0.00    -0.087 OA 
HETATM   26  H   UNL     1     -11.060   7.214  65.821  1.00  0.00     0.000 HD 
HETATM   27  C   UNL     1      -8.831   8.207  66.706  1.00  0.00    -0.156 C  
HETATM   28  O   UNL     1     -10.718   6.704  66.546  1.00  0.00    -0.173 OA 
BRANCH  23  29
HETATM   29  C   UNL     1      -9.210   4.695  65.027  1.00  0.00    -0.152 C  
HETATM   30  O   UNL     1     -10.320   4.229  65.259  1.00  0.00    -0.244 OA 
BRANCH  29  31
HETATM   31  O   UNL     1      -8.145   3.993  64.530  1.00  0.00    -0.085 OA 
HETATM   32  C   UNL     1      -7.021   4.816  64.226  1.00  0.00    -0.049 C  
ENDBRANCH  29  31
ENDBRANCH  23  29
BRANCH  27  33
HETATM   33  C   UNL     1      -9.263   9.202  65.607  1.00  0.00    -0.296 C  
BRANCH  33  34
HETATM   34  C   UNL     1      -9.072  10.684  65.972  1.00  0.00    -0.201 C  
HETATM   35  C   UNL     1     -10.126  11.617  63.841  1.00  0.00    -0.395 C  
HETATM   36  O   UNL     1     -11.412  11.275  65.824  1.00  0.00    -0.082 OA 
HETATM   37  C   UNL     1     -10.110  11.649  65.367  1.00  0.00    -0.259 C  
HETATM   38  C   UNL     1      -9.829  13.077  65.853  1.00  0.00    -0.243 C  
HETATM   39  H   UNL     1     -12.051  11.871  65.451  1.00  0.00     0.000 HD 
ENDBRANCH  33  34
ENDBRANCH  27  33
ENDBRANCH  21  22
ENDBRANCH   1  21
BRANCH   3  40
HETATM   40  O   UNL     1      -9.734   3.633  70.548  1.00  0.00    -0.186 OA 
HETATM   41  C   UNL     1      -9.403   2.456  71.262  1.00  0.00    -0.133 C  
ENDBRANCH   3  40
TORSDOF 7
ENDMDL
MODEL       56
REMARK 921   NORMALIZED FREE ENERGY PREDICTED BY IDOCK:   -4.85 KCAL/MOL
REMARK 922        TOTAL FREE ENERGY PREDICTED BY IDOCK:   -8.70 KCAL/MOL
REMARK 923 INTER-LIGAND FREE ENERGY PREDICTED BY IDOCK:   -7.07 KCAL/MOL
REMARK 924 INTRA-LIGAND FREE ENERGY PREDICTED BY IDOCK:   -1.63 KCAL/MOL
REMARK 927      BINDING AFFINITY PREDICTED BY RF-SCORE:    0.00 PKD
ROOT
HETATM    1  C   UNL     1      -8.686   8.601  68.225  1.00  0.00    -0.142 C  
HETATM    2  O   UNL     1     -10.590  15.015  68.406  1.00  0.00    -0.231 OA 
HETATM    3  C   UNL     1      -7.236   8.186  68.358  1.00  0.00    -0.093 C  
HETATM    4  C   UNL     1      -8.692   9.677  67.046  1.00  0.00    -0.135 C  
HETATM    5  C   UNL     1     -11.784  14.887  67.617  1.00  0.00    -0.307 C  
HETATM    6  C   UNL     1      -6.543   8.436  67.249  1.00  0.00    -0.059 C  
HETATM    7  C   UNL     1      -7.322   9.168  66.189  1.00  0.00    -0.095 C  
HETATM    8  C   UNL     1      -9.110  11.216  67.440  1.00  0.00    -0.143 A  
HETATM    9  C   UNL     1     -10.444  11.625  67.189  1.00  0.00    -0.252 A  
HETATM   10  O   UNL     1     -12.010  13.534  67.147  1.00  0.00    -0.380 OA 
HETATM   11  C   UNL     1     -10.842  12.927  67.507  1.00  0.00    -0.235 A  
HETATM   12  C   UNL     1      -7.641   8.201  65.044  1.00  0.00    -0.096 C  
HETATM   13  C   UNL     1     -10.028  13.794  68.193  1.00  0.00    -0.242 A  
HETATM   14  C   UNL     1      -8.713  13.495  68.439  1.00  0.00    -0.140 A  
HETATM   15  C   UNL     1      -7.019   8.813  63.795  1.00  0.00    -0.088 C  
HETATM   16  C   UNL     1      -8.221  12.319  67.845  1.00  0.00    -0.161 A  
HETATM   17  C   UNL     1      -6.903  12.639  67.007  1.00  0.00     0.105 C  
HETATM   18  C   UNL     1      -6.692  11.331  66.346  1.00  0.00    -0.065 C  
HETATM   19  N   UNL     1      -6.344  10.164  65.616  1.00  0.00    -0.094 NA 
HETATM   20  C   UNL     1      -6.557  10.212  64.173  1.00  0.00    -0.113 C  
ENDROOT
BRANCH   1  21
HETATM   21  O   UNL     1      -9.269   8.993  69.461  1.00  0.00    -0.146 OA 
BRANCH  21  22
HETATM   22  C   UNL     1     -10.575   8.596  69.564  1.00  0.00    -0.213 C  
HETATM   23  C   UNL     1     -12.469   8.473  71.195  1.00  0.00    -0.195 C  
HETATM   24  C   UNL     1     -11.263   9.307  70.741  1.00  0.00    -0.288 C  
HETATM   25  O   UNL     1     -11.111   7.748  68.849  1.00  0.00     0.039 OA 
HETATM   26  H   UNL     1     -10.771   9.883  72.559  1.00  0.00     0.000 HD 
HETATM   27  C   UNL     1     -11.693  10.721  70.283  1.00  0.00    -0.442 C  
HETATM   28  O   UNL     1     -10.347   9.443  71.832  1.00  0.00    -0.185 OA 
BRANCH  23  29
HETATM   29  C   UNL     1     -12.071   7.076  71.648  1.00  0.00    -0.347 C  
HETATM   30  O   UNL     1     -11.930   6.089  70.935  1.00  0.00    -0.031 OA 
BRANCH  29  31
HETATM   31  O   UNL     1     -11.875   7.107  73.003  1.00  0.00     0.013 OA 
HETATM   32  C   UNL     1     -10.776   6.305  73.431  1.00  0.00    -0.259 C  
ENDBRANCH  29  31
ENDBRANCH  23  29
BRANCH  27  33
HETATM   33  C   UNL     1     -12.433  11.594  71.320  1.00  0.00    -0.371 C  
BRANCH  33  34
HETATM   34  C   UNL     1     -13.127  12.835  70.735  1.00  0.00     0.140 C  
HETATM   35  C   UNL     1     -13.195  14.153  72.922  1.00  0.00    -0.553 C  
HETATM   36  O   UNL     1     -11.399  14.403  71.370  1.00  0.00    -0.440 OA 
HETATM   37  C   UNL     1     -12.806  14.164  71.447  1.00  0.00    -0.355 C  
HETATM   38  C   UNL     1     -13.521  15.317  70.730  1.00  0.00    -0.359 C  
HETATM   39  H   UNL     1     -11.201  15.222  71.808  1.00  0.00     0.000 HD 
ENDBRANCH  33  34
ENDBRANCH  27  33
ENDBRANCH  21  22
ENDBRANCH   1  21
BRANCH   3  40
HETATM   40  O   UNL     1      -6.602   7.642  69.444  1.00  0.00    -0.038 OA 
HETATM   41  C   UNL     1      -7.251   6.664  70.236  1.00  0.00    -0.077 C  
ENDBRANCH   3  40
TORSDOF 7
ENDMDL
MODEL       57
REMARK 921   NORMALIZED FREE ENERGY PREDICTED BY IDOCK:   -4.81 KCAL/MOL
REMARK 922        TOTAL FREE ENERGY PREDICTED BY IDOCK:   -8.65 KCAL/MOL
REMARK 923 INTER-LIGAND FREE ENERGY PREDICTED BY IDOCK:   -7.34 KCAL/MOL
REMARK 924 INTRA-LIGAND FREE ENERGY PREDICTED BY IDOCK:   -1.30 KCAL/MOL
REMARK 927      BINDING AFFINITY PREDICTED BY RF-SCORE:    0.00 PKD
ROOT
HETATM    1  C   UNL     1      -9.777   7.303  70.124  1.00  0.00    -0.172 C  
HETATM    2  O   UNL     1      -5.208   9.943  66.007  1.00  0.00    -0.034 OA 
HETATM    3  C   UNL     1      -9.409   6.730  71.476  1.00  0.00    -0.153 C  
HETATM    4  C   UNL     1      -8.811   6.561  69.093  1.00  0.00    -0.128 C  
HETATM    5  C   UNL     1      -5.894   9.695  64.768  1.00  0.00    -0.080 C  
HETATM    6  C   UNL     1      -8.805   5.547  71.367  1.00  0.00    -0.142 C  
HETATM    7  C   UNL     1      -8.531   5.127  69.949  1.00  0.00    -0.096 C  
HETATM    8  C   UNL     1      -7.707   7.487  68.303  1.00  0.00    -0.120 A  
HETATM    9  C   UNL     1      -8.018   7.909  66.986  1.00  0.00    -0.112 A  
HETATM   10  O   UNL     1      -7.159   9.010  64.949  1.00  0.00    -0.089 OA 
HETATM   11  C   UNL     1      -7.107   8.696  66.276  1.00  0.00    -0.078 A  
HETATM   12  C   UNL     1      -9.486   3.991  69.568  1.00  0.00    -0.257 C  
HETATM   13  C   UNL     1      -5.971   9.204  66.857  1.00  0.00    -0.053 A  
HETATM   14  C   UNL     1      -5.575   8.815  68.110  1.00  0.00    -0.035 A  
HETATM   15  C   UNL     1      -8.601   2.811  69.184  1.00  0.00    -0.117 C  
HETATM   16  C   UNL     1      -6.321   7.783  68.706  1.00  0.00    -0.043 A  
HETATM   17  C   UNL     1      -5.351   6.607  69.175  1.00  0.00    -0.013 C  
HETATM   18  C   UNL     1      -6.351   5.593  69.580  1.00  0.00    -0.037 C  
HETATM   19  N   UNL     1      -7.158   4.501  69.996  1.00  0.00    -0.048 NA 
HETATM   20  C   UNL     1      -7.175   3.334  69.120  1.00  0.00    -0.049 C  
ENDROOT
BRANCH   1  21
HETATM   21  O   UNL     1      -9.775   8.726  70.103  1.00  0.00    -0.165 OA 
BRANCH  21  22
HETATM   22  C   UNL     1     -11.031   9.241  69.922  1.00  0.00    -0.213 C  
HETATM   23  C   UNL     1     -12.217  11.356  69.307  1.00  0.00    -0.271 C  
HETATM   24  C   UNL     1     -10.976  10.495  69.036  1.00  0.00    -0.243 C  
HETATM   25  O   UNL     1     -12.055   8.794  70.440  1.00  0.00     0.007 OA 
HETATM   26  H   UNL     1      -9.766  12.030  68.789  1.00  0.00     0.000 HD 
HETATM   27  C   UNL     1     -10.907  10.053  67.554  1.00  0.00    -0.326 C  
HETATM   28  O   UNL     1      -9.801  11.255  69.337  1.00  0.00     0.003 OA 
BRANCH  23  29
HETATM   29  C   UNL     1     -12.308  11.801  70.760  1.00  0.00    -0.337 C  
HETATM   30  O   UNL     1     -12.642  11.111  71.716  1.00  0.00    -0.308 OA 
BRANCH  29  31
HETATM   31  O   UNL     1     -11.933  13.116  70.826  1.00  0.00    -0.277 OA 
HETATM   32  C   UNL     1     -12.221  13.845  69.634  1.00  0.00    -0.321 C  
ENDBRANCH  29  31
ENDBRANCH  23  29
BRANCH  27  33
HETATM   33  C   UNL     1     -10.873  11.174  66.493  1.00  0.00    -0.302 C  
BRANCH  33  34
HETATM   34  C   UNL     1     -10.107  10.819  65.209  1.00  0.00    -0.353 C  
HETATM   35  C   UNL     1     -11.704  12.012  63.612  1.00  0.00    -0.587 C  
HETATM   36  O   UNL     1      -9.769  13.101  64.487  1.00  0.00    -0.583 OA 
HETATM   37  C   UNL     1     -10.255  11.829  64.053  1.00  0.00    -0.348 C  
HETATM   38  C   UNL     1      -9.402  11.376  62.862  1.00  0.00    -0.351 C  
HETATM   39  H   UNL     1      -9.860  13.724  63.775  1.00  0.00     0.000 HD 
ENDBRANCH  33  34
ENDBRANCH  27  33
ENDBRANCH  21  22
ENDBRANCH   1  21
BRANCH   3  40
HETATM   40  O   UNL     1      -9.595   7.283  72.716  1.00  0.00    -0.146 OA 
HETATM   41  C   UNL     1     -10.895   7.377  73.269  1.00  0.00    -0.368 C  
ENDBRANCH   3  40
TORSDOF 7
ENDMDL
MODEL       58
REMARK 921   NORMALIZED FREE ENERGY PREDICTED BY IDOCK:   -4.80 KCAL/MOL
REMARK 922        TOTAL FREE ENERGY PREDICTED BY IDOCK:   -8.63 KCAL/MOL
REMARK 923 INTER-LIGAND FREE ENERGY PREDICTED BY IDOCK:   -7.57 KCAL/MOL
REMARK 924 INTRA-LIGAND FREE ENERGY PREDICTED BY IDOCK:   -1.06 KCAL/MOL
REMARK 927      BINDING AFFINITY PREDICTED BY RF-SCORE:    0.00 PKD
ROOT
HETATM    1  C   UNL     1      -8.746  10.280  65.689  1.00  0.00    -0.162 C  
HETATM    2  O   UNL     1     -11.193   5.902  70.122  1.00  0.00    -0.353 OA 
HETATM    3  C   UNL     1      -9.009  10.155  64.203  1.00  0.00    -0.238 C  
HETATM    4  C   UNL     1      -8.163   8.857  66.117  1.00  0.00    -0.116 C  
HETATM    5  C   UNL     1     -10.181   6.059  71.130  1.00  0.00    -0.207 C  
HETATM    6  C   UNL     1      -8.292   9.177  63.651  1.00  0.00    -0.187 C  
HETATM    7  C   UNL     1      -7.498   8.366  64.639  1.00  0.00    -0.098 C  
HETATM    8  C   UNL     1      -9.067   7.960  67.155  1.00  0.00    -0.158 A  
HETATM    9  C   UNL     1      -8.724   7.991  68.530  1.00  0.00    -0.131 A  
HETATM   10  O   UNL     1      -9.147   7.002  70.753  1.00  0.00    -0.153 OA 
HETATM   11  C   UNL     1      -9.465   7.241  69.448  1.00  0.00    -0.154 A  
HETATM   12  C   UNL     1      -6.012   8.711  64.492  1.00  0.00    -0.065 C  
HETATM   13  C   UNL     1     -10.614   6.579  69.092  1.00  0.00    -0.243 A  
HETATM   14  C   UNL     1     -10.995   6.464  67.781  1.00  0.00    -0.425 A  
HETATM   15  C   UNL     1      -5.310   7.401  64.153  1.00  0.00    -0.029 C  
HETATM   16  C   UNL     1     -10.086   6.947  66.824  1.00  0.00    -0.264 A  
HETATM   17  C   UNL     1      -9.775   5.817  65.742  1.00  0.00     0.101 C  
HETATM   18  C   UNL     1      -8.689   6.477  64.983  1.00  0.00     0.158 C  
HETATM   19  N   UNL     1      -7.631   6.942  64.157  1.00  0.00    -0.105 NA 
HETATM   20  C   UNL     1      -6.335   6.293  64.333  1.00  0.00    -0.030 C  
ENDROOT
BRANCH   1  21
HETATM   21  O   UNL     1      -9.870  10.763  66.414  1.00  0.00    -0.195 OA 
BRANCH  21  22
HETATM   22  C   UNL     1      -9.508  11.642  67.400  1.00  0.00    -0.167 C  
HETATM   23  C   UNL     1     -10.472  13.308  68.998  1.00  0.00    -0.044 C  
HETATM   24  C   UNL     1     -10.708  11.958  68.306  1.00  0.00    -0.223 C  
HETATM   25  O   UNL     1      -8.392  12.150  67.515  1.00  0.00    -0.148 OA 
HETATM   26  H   UNL     1     -12.647  12.228  68.084  1.00  0.00     0.000 HD 
HETATM   27  C   UNL     1     -10.867  10.814  69.337  1.00  0.00    -0.289 C  
HETATM   28  O   UNL     1     -11.905  12.032  67.524  1.00  0.00    -0.526 OA 
BRANCH  23  29
HETATM   29  C   UNL     1     -10.310  14.449  68.005  1.00  0.00    -0.227 C  
HETATM   30  O   UNL     1      -9.315  14.697  67.333  1.00  0.00    -0.188 OA 
BRANCH  29  31
HETATM   31  O   UNL     1     -11.484  15.154  67.971  1.00  0.00    -0.325 OA 
HETATM   32  C   UNL     1     -12.165  15.173  69.224  1.00  0.00    -0.177 C  
ENDBRANCH  29  31
ENDBRANCH  23  29
BRANCH  27  33
HETATM   33  C   UNL     1     -12.009  10.957  70.366  1.00  0.00    -0.453 C  
BRANCH  33  34
HETATM   34  C   UNL     1     -13.000   9.782  70.393  1.00  0.00     0.128 C  
HETATM   35  C   UNL     1     -12.082   8.714  72.524  1.00  0.00    -0.368 C  
HETATM   36  O   UNL     1     -13.895  10.266  72.586  1.00  0.00    -0.497 OA 
HETATM   37  C   UNL     1     -13.321   9.224  71.794  1.00  0.00    -0.409 C  
HETATM   38  C   UNL     1     -14.355   8.097  71.674  1.00  0.00    -0.570 C  
HETATM   39  H   UNL     1     -14.093   9.923  73.449  1.00  0.00     0.000 HD 
ENDBRANCH  33  34
ENDBRANCH  27  33
ENDBRANCH  21  22
ENDBRANCH   1  21
BRANCH   3  40
HETATM   40  O   UNL     1      -9.875  10.880  63.427  1.00  0.00    -0.301 OA 
HETATM   41  C   UNL     1     -11.240  10.989  63.788  1.00  0.00     0.263 C  
ENDBRANCH   3  40
TORSDOF 7
ENDMDL
MODEL       59
REMARK 921   NORMALIZED FREE ENERGY PREDICTED BY IDOCK:   -4.77 KCAL/MOL
REMARK 922        TOTAL FREE ENERGY PREDICTED BY IDOCK:   -8.59 KCAL/MOL
REMARK 923 INTER-LIGAND FREE ENERGY PREDICTED BY IDOCK:   -7.02 KCAL/MOL
REMARK 924 INTRA-LIGAND FREE ENERGY PREDICTED BY IDOCK:   -1.57 KCAL/MOL
REMARK 927      BINDING AFFINITY PREDICTED BY RF-SCORE:    0.00 PKD
ROOT
HETATM    1  C   UNL     1      -8.122   7.229  69.088  1.00  0.00    -0.121 C  
HETATM    2  O   UNL     1     -11.544  12.949  68.486  1.00  0.00    -0.279 OA 
HETATM    3  C   UNL     1      -8.711   6.003  69.753  1.00  0.00    -0.130 C  
HETATM    4  C   UNL     1      -8.311   8.400  70.156  1.00  0.00    -0.120 C  
HETATM    5  C   UNL     1     -10.422  13.846  68.451  1.00  0.00    -0.247 C  
HETATM    6  C   UNL     1      -8.757   6.129  71.078  1.00  0.00    -0.132 C  
HETATM    7  C   UNL     1      -8.331   7.483  71.581  1.00  0.00    -0.107 C  
HETATM    8  C   UNL     1      -9.317   9.632  69.745  1.00  0.00    -0.238 A  
HETATM    9  C   UNL     1      -8.734  10.822  69.241  1.00  0.00    -0.044 A  
HETATM   10  O   UNL     1      -9.149  13.165  68.580  1.00  0.00    -0.155 OA 
HETATM   11  C   UNL     1      -9.552  11.897  68.882  1.00  0.00     0.084 A  
HETATM   12  C   UNL     1      -6.958   7.362  72.250  1.00  0.00    -0.063 C  
HETATM   13  C   UNL     1     -10.921  11.799  68.860  1.00  0.00    -0.239 A  
HETATM   14  C   UNL     1     -11.566  10.701  69.367  1.00  0.00    -0.352 A  
HETATM   15  C   UNL     1      -7.148   7.838  73.685  1.00  0.00    -0.124 C  
HETATM   16  C   UNL     1     -10.760   9.751  70.019  1.00  0.00    -0.326 A  
HETATM   17  C   UNL     1     -11.329   9.458  71.479  1.00  0.00    -0.464 C  
HETATM   18  C   UNL     1     -10.243   8.606  72.014  1.00  0.00    -0.337 C  
HETATM   19  N   UNL     1      -9.297   7.796  72.697  1.00  0.00    -0.169 NA 
HETATM   20  C   UNL     1      -8.542   8.439  73.767  1.00  0.00    -0.065 C  
ENDROOT
BRANCH   1  21
HETATM   21  O   UNL     1      -8.638   7.456  67.781  1.00  0.00    -0.120 OA 
BRANCH  21  22
HETATM   22  C   UNL     1      -7.806   8.240  67.028  1.00  0.00    -0.096 C  
HETATM   23  C   UNL     1      -7.428   9.011  64.678  1.00  0.00    -0.103 C  
HETATM   24  C   UNL     1      -8.498   8.656  65.720  1.00  0.00    -0.151 C  
HETATM   25  O   UNL     1      -6.647   8.528  67.329  1.00  0.00    -0.057 OA 
HETATM   26  H   UNL     1      -9.726   7.834  64.418  1.00  0.00     0.000 HD 
HETATM   27  C   UNL     1      -9.426   9.860  66.011  1.00  0.00    -0.258 C  
HETATM   28  O   UNL     1      -9.298   7.577  65.226  1.00  0.00     0.388 OA 
BRANCH  23  29
HETATM   29  C   UNL     1      -6.502   7.842  64.376  1.00  0.00    -0.052 C  
HETATM   30  O   UNL     1      -5.400   7.636  64.873  1.00  0.00    -0.029 OA 
BRANCH  29  31
HETATM   31  O   UNL     1      -7.119   7.035  63.458  1.00  0.00    -0.057 OA 
HETATM   32  C   UNL     1      -6.362   5.871  63.133  1.00  0.00    -0.025 C  
ENDBRANCH  29  31
ENDBRANCH  23  29
BRANCH  27  33
HETATM   33  C   UNL     1     -10.197  10.452  64.811  1.00  0.00    -0.319 C  
BRANCH  33  34
HETATM   34  C   UNL     1     -10.190  11.987  64.738  1.00  0.00    -0.311 C  
HETATM   35  C   UNL     1     -12.342  12.196  63.378  1.00  0.00    -0.648 C  
HETATM   36  O   UNL     1     -12.358  12.291  65.764  1.00  0.00    -0.622 OA 
HETATM   37  C   UNL     1     -11.578  12.647  64.620  1.00  0.00    -0.342 C  
HETATM   38  C   UNL     1     -11.424  14.173  64.609  1.00  0.00    -0.392 C  
HETATM   39  H   UNL     1     -13.214  12.697  65.691  1.00  0.00     0.000 HD 
ENDBRANCH  33  34
ENDBRANCH  27  33
ENDBRANCH  21  22
ENDBRANCH   1  21
BRANCH   3  40
HETATM   40  O   UNL     1      -9.197   4.865  69.165  1.00  0.00    -0.105 OA 
HETATM   41  C   UNL     1      -8.329   4.001  68.453  1.00  0.00    -0.090 C  
ENDBRANCH   3  40
TORSDOF 7
ENDMDL
MODEL       60
REMARK 921   NORMALIZED FREE ENERGY PREDICTED BY IDOCK:   -4.75 KCAL/MOL
REMARK 922        TOTAL FREE ENERGY PREDICTED BY IDOCK:   -8.56 KCAL/MOL
REMARK 923 INTER-LIGAND FREE ENERGY PREDICTED BY IDOCK:   -6.83 KCAL/MOL
REMARK 924 INTRA-LIGAND FREE ENERGY PREDICTED BY IDOCK:   -1.73 KCAL/MOL
REMARK 927      BINDING AFFINITY PREDICTED BY RF-SCORE:    0.00 PKD
ROOT
HETATM    1  C   UNL     1      -9.459   9.367  68.260  1.00  0.00    -0.137 C  
HETATM    2  O   UNL     1      -8.125   3.170  66.112  1.00  0.00    -0.087 OA 
HETATM    3  C   UNL     1     -10.028  10.432  67.348  1.00  0.00    -0.187 C  
HETATM    4  C   UNL     1      -8.164   8.829  67.498  1.00  0.00    -0.110 C  
HETATM    5  C   UNL     1      -7.084   2.857  67.052  1.00  0.00    -0.053 C  
HETATM    6  C   UNL     1      -9.111  10.908  66.506  1.00  0.00    -0.183 C  
HETATM    7  C   UNL     1      -7.784  10.202  66.581  1.00  0.00    -0.106 C  
HETATM    8  C   UNL     1      -8.188   7.265  66.994  1.00  0.00    -0.117 A  
HETATM    9  C   UNL     1      -7.539   6.299  67.802  1.00  0.00    -0.101 A  
HETATM   10  O   UNL     1      -6.791   3.951  67.957  1.00  0.00    -0.046 OA 
HETATM   11  C   UNL     1      -7.532   4.957  67.411  1.00  0.00    -0.082 A  
HETATM   12  C   UNL     1      -6.762  11.124  67.255  1.00  0.00    -0.091 C  
HETATM   13  C   UNL     1      -8.260   4.505  66.338  1.00  0.00    -0.106 A  
HETATM   14  C   UNL     1      -8.883   5.375  65.481  1.00  0.00    -0.153 A  
HETATM   15  C   UNL     1      -5.637  11.311  66.244  1.00  0.00    -0.131 C  
HETATM   16  C   UNL     1      -8.631   6.742  65.689  1.00  0.00    -0.126 A  
HETATM   17  C   UNL     1      -8.123   7.418  64.337  1.00  0.00    -0.070 C  
HETATM   18  C   UNL     1      -7.755   8.761  64.841  1.00  0.00    -0.104 C  
HETATM   19  N   UNL     1      -7.334  10.083  65.145  1.00  0.00    -0.134 NA 
HETATM   20  C   UNL     1      -5.897  10.331  65.111  1.00  0.00    -0.129 C  
ENDROOT
BRANCH   1  21
HETATM   21  O   UNL     1     -10.424   8.400  68.658  1.00  0.00    -0.208 OA 
BRANCH  21  22
HETATM   22  C   UNL     1     -10.594   8.369  70.015  1.00  0.00    -0.235 C  
HETATM   23  C   UNL     1     -11.638   7.005  71.834  1.00  0.00    -0.320 C  
HETATM   24  C   UNL     1     -10.907   6.940  70.486  1.00  0.00    -0.253 C  
HETATM   25  O   UNL     1     -10.554   9.356  70.752  1.00  0.00    -0.254 OA 
HETATM   26  H   UNL     1     -11.937   5.399  69.818  1.00  0.00     0.000 HD 
HETATM   27  C   UNL     1      -9.580   6.152  70.600  1.00  0.00    -0.195 C  
HETATM   28  O   UNL     1     -11.743   6.283  69.528  1.00  0.00    -0.360 OA 
BRANCH  23  29
HETATM   29  C   UNL     1     -12.947   7.777  71.748  1.00  0.00    -0.323 C  
HETATM   30  O   UNL     1     -13.931   7.475  71.081  1.00  0.00    -0.307 OA 
BRANCH  29  31
HETATM   31  O   UNL     1     -12.850   8.872  72.564  1.00  0.00    -0.407 OA 
HETATM   32  C   UNL     1     -13.375  10.061  71.977  1.00  0.00    -0.409 C  
ENDBRANCH  29  31
ENDBRANCH  23  29
BRANCH  27  33
HETATM   33  C   UNL     1      -9.676   4.691  71.089  1.00  0.00    -0.252 C  
BRANCH  33  34
HETATM   34  C   UNL     1      -8.682   4.321  72.202  1.00  0.00    -0.120 C  
HETATM   35  C   UNL     1      -7.928   2.116  71.156  1.00  0.00    -0.049 C  
HETATM   36  O   UNL     1      -6.750   4.154  70.758  1.00  0.00    -0.030 OA 
HETATM   37  C   UNL     1      -7.491   3.449  71.757  1.00  0.00    -0.052 C  
HETATM   38  C   UNL     1      -6.560   3.201  72.951  1.00  0.00    -0.025 C  
HETATM   39  H   UNL     1      -6.016   3.617  70.484  1.00  0.00     0.000 HD 
ENDBRANCH  33  34
ENDBRANCH  27  33
ENDBRANCH  21  22
ENDBRANCH   1  21
BRANCH   3  40
HETATM   40  O   UNL     1     -11.313  10.903  67.284  1.00  0.00    -0.415 OA 
HETATM   41  C   UNL     1     -11.567  12.237  66.881  1.00  0.00    -0.361 C  
ENDBRANCH   3  40
TORSDOF 7
ENDMDL
MODEL       61
REMARK 921   NORMALIZED FREE ENERGY PREDICTED BY IDOCK:   -4.70 KCAL/MOL
REMARK 922        TOTAL FREE ENERGY PREDICTED BY IDOCK:   -8.49 KCAL/MOL
REMARK 923 INTER-LIGAND FREE ENERGY PREDICTED BY IDOCK:   -9.89 KCAL/MOL
REMARK 924 INTRA-LIGAND FREE ENERGY PREDICTED BY IDOCK:    1.40 KCAL/MOL
REMARK 927      BINDING AFFINITY PREDICTED BY RF-SCORE:    0.00 PKD
ROOT
HETATM    1  C   UNL     1      -8.417  12.077  67.314  1.00  0.00    -0.175 C  
HETATM    2  O   UNL     1     -10.224   8.364  72.582  1.00  0.00    -0.302 OA 
HETATM    3  C   UNL     1      -9.290  12.213  66.085  1.00  0.00    -0.195 C  
HETATM    4  C   UNL     1      -8.262  10.504  67.530  1.00  0.00    -0.114 C  
HETATM    5  C   UNL     1      -8.907   8.052  73.062  1.00  0.00    -0.239 C  
HETATM    6  C   UNL     1      -9.266  11.113  65.334  1.00  0.00    -0.225 C  
HETATM    7  C   UNL     1      -8.486   9.975  65.936  1.00  0.00    -0.133 C  
HETATM    8  C   UNL     1      -8.918   9.868  68.896  1.00  0.00    -0.153 A  
HETATM    9  C   UNL     1      -8.056   9.630  69.996  1.00  0.00    -0.190 A  
HETATM   10  O   UNL     1      -7.855   8.614  72.238  1.00  0.00    -0.295 OA 
HETATM   11  C   UNL     1      -8.570   9.088  71.177  1.00  0.00    -0.190 A  
HETATM   12  C   UNL     1      -7.176   9.799  65.161  1.00  0.00    -0.122 C  
HETATM   13  C   UNL     1      -9.917   8.906  71.372  1.00  0.00    -0.308 A  
HETATM   14  C   UNL     1     -10.815   9.072  70.349  1.00  0.00    -0.284 A  
HETATM   15  C   UNL     1      -7.195   8.373  64.625  1.00  0.00    -0.082 C  
HETATM   16  C   UNL     1     -10.271   9.312  69.076  1.00  0.00    -0.217 A  
HETATM   17  C   UNL     1     -10.858   8.268  68.023  1.00  0.00    -0.008 C  
HETATM   18  C   UNL     1     -10.021   8.589  66.845  1.00  0.00    -0.265 C  
HETATM   19  N   UNL     1      -9.305   8.746  65.628  1.00  0.00    -0.191 NA 
HETATM   20  C   UNL     1      -8.379   7.675  65.276  1.00  0.00    -0.115 C  
ENDROOT
BRANCH   1  21
HETATM   21  O   UNL     1      -8.889  12.838  68.420  1.00  0.00    -0.179 OA 
BRANCH  21  22
HETATM   22  C   UNL     1     -10.242  13.041  68.366  1.00  0.00    -0.245 C  
HETATM   23  C   UNL     1     -12.050  14.497  69.300  1.00  0.00    -0.325 C  
HETATM   24  C   UNL     1     -10.591  14.467  68.821  1.00  0.00    -0.254 C  
HETATM   25  O   UNL     1     -11.069  12.185  68.049  1.00  0.00    -0.215 OA 
HETATM   26  H   UNL     1      -9.949  15.741  70.178  1.00  0.00     0.000 HD 
HETATM   27  C   UNL     1     -10.365  15.436  67.635  1.00  0.00    -0.262 C  
HETATM   28  O   UNL     1      -9.734  14.860  69.897  1.00  0.00     0.001 OA 
BRANCH  23  29
HETATM   29  C   UNL     1     -12.297  13.550  70.465  1.00  0.00    -0.342 C  
HETATM   30  O   UNL     1     -12.403  12.330  70.405  1.00  0.00    -0.302 OA 
BRANCH  29  31
HETATM   31  O   UNL     1     -12.366  14.295  71.612  1.00  0.00    -0.343 OA 
HETATM   32  C   UNL     1     -13.133  15.488  71.464  1.00  0.00    -0.496 C  
ENDBRANCH  29  31
ENDBRANCH  23  29
BRANCH  27  33
HETATM   33  C   UNL     1     -10.690  16.925  67.881  1.00  0.00    -0.344 C  
BRANCH  33  34
HETATM   34  C   UNL     1      -9.485  17.873  67.759  1.00  0.00    -0.263 C  
HETATM   35  C   UNL     1     -10.590  19.493  66.122  1.00  0.00    -0.585 C  
HETATM   36  O   UNL     1     -10.661  19.858  68.481  1.00  0.00    -0.483 OA 
HETATM   37  C   UNL     1      -9.832  19.340  67.438  1.00  0.00    -0.336 C  
HETATM   38  C   UNL     1      -8.546  20.175  67.397  1.00  0.00    -0.413 C  
HETATM   39  H   UNL     1     -10.874  20.762  68.283  1.00  0.00     0.000 HD 
ENDBRANCH  33  34
ENDBRANCH  27  33
ENDBRANCH  21  22
ENDBRANCH   1  21
BRANCH   3  40
HETATM   40  O   UNL     1     -10.075  13.271  65.709  1.00  0.00    -0.287 OA 
HETATM   41  C   UNL     1     -10.673  13.298  64.425  1.00  0.00    -0.415 C  
ENDBRANCH   3  40
TORSDOF 7
ENDMDL
MODEL       62
REMARK 921   NORMALIZED FREE ENERGY PREDICTED BY IDOCK:   -4.68 KCAL/MOL
REMARK 922        TOTAL FREE ENERGY PREDICTED BY IDOCK:   -8.46 KCAL/MOL
REMARK 923 INTER-LIGAND FREE ENERGY PREDICTED BY IDOCK:   -7.65 KCAL/MOL
REMARK 924 INTRA-LIGAND FREE ENERGY PREDICTED BY IDOCK:   -0.81 KCAL/MOL
REMARK 927      BINDING AFFINITY PREDICTED BY RF-SCORE:    0.00 PKD
ROOT
HETATM    1  C   UNL     1      -8.243   7.744  67.531  1.00  0.00    -0.124 C  
HETATM    2  O   UNL     1     -11.194  13.744  67.825  1.00  0.00    -0.269 OA 
HETATM    3  C   UNL     1      -6.802   7.533  67.944  1.00  0.00    -0.071 C  
HETATM    4  C   UNL     1      -8.190   8.938  66.473  1.00  0.00    -0.114 C  
HETATM    5  C   UNL     1     -12.165  13.536  66.786  1.00  0.00    -0.340 C  
HETATM    6  C   UNL     1      -5.949   8.011  67.038  1.00  0.00    -0.052 C  
HETATM    7  C   UNL     1      -6.610   8.739  65.898  1.00  0.00    -0.057 C  
HETATM    8  C   UNL     1      -8.933  10.343  66.894  1.00  0.00    -0.151 A  
HETATM    9  C   UNL     1     -10.237  10.579  66.392  1.00  0.00    -0.296 A  
HETATM   10  O   UNL     1     -12.060  12.229  66.167  1.00  0.00    -0.625 OA 
HETATM   11  C   UNL     1     -10.905  11.761  66.722  1.00  0.00    -0.270 A  
HETATM   12  C   UNL     1      -6.522   7.878  64.634  1.00  0.00    -0.048 C  
HETATM   13  C   UNL     1     -10.404  12.652  67.639  1.00  0.00    -0.220 A  
HETATM   14  C   UNL     1      -9.135  12.522  68.141  1.00  0.00    -0.204 A  
HETATM   15  C   UNL     1      -5.771   8.717  63.607  1.00  0.00    -0.071 C  
HETATM   16  C   UNL     1      -8.342  11.509  67.574  1.00  0.00    -0.143 A  
HETATM   17  C   UNL     1      -6.954  12.115  67.074  1.00  0.00    -0.068 C  
HETATM   18  C   UNL     1      -6.397  10.938  66.369  1.00  0.00    -0.132 C  
HETATM   19  N   UNL     1      -5.717   9.928  65.638  1.00  0.00    -0.056 NA 
HETATM   20  C   UNL     1      -5.638  10.113  64.193  1.00  0.00    -0.126 C  
ENDROOT
BRANCH   1  21
HETATM   21  O   UNL     1      -9.122   7.899  68.638  1.00  0.00    -0.137 OA 
BRANCH  21  22
HETATM   22  C   UNL     1      -9.772   6.734  68.947  1.00  0.00    -0.137 C  
HETATM   23  C   UNL     1     -10.409   5.297  70.894  1.00  0.00    -0.303 C  
HETATM   24  C   UNL     1     -10.225   6.744  70.416  1.00  0.00    -0.192 C  
HETATM   25  O   UNL     1      -9.926   5.788  68.174  1.00  0.00    -0.131 OA 
HETATM   26  H   UNL     1      -9.516   7.392  72.136  1.00  0.00     0.000 HD 
HETATM   27  C   UNL     1     -11.543   7.548  70.523  1.00  0.00    -0.224 C  
HETATM   28  O   UNL     1      -9.236   7.386  71.228  1.00  0.00    -0.149 OA 
BRANCH  23  29
HETATM   29  C   UNL     1      -9.126   4.485  70.795  1.00  0.00    -0.127 C  
HETATM   30  O   UNL     1      -8.014   4.826  71.184  1.00  0.00    -0.084 OA 
BRANCH  29  31
HETATM   31  O   UNL     1      -9.425   3.285  70.209  1.00  0.00    -0.161 OA 
HETATM   32  C   UNL     1      -8.598   2.215  70.662  1.00  0.00    -0.053 C  
ENDBRANCH  29  31
ENDBRANCH  23  29
BRANCH  27  33
HETATM   33  C   UNL     1     -12.183   7.652  71.925  1.00  0.00    -0.336 C  
BRANCH  33  34
HETATM   34  C   UNL     1     -12.426   9.089  72.413  1.00  0.00    -0.375 C  
HETATM   35  C   UNL     1     -11.760  10.227  70.226  1.00  0.00    -0.388 C  
HETATM   36  O   UNL     1     -14.031   9.664  70.699  1.00  0.00    -0.469 OA 
HETATM   37  C   UNL     1     -12.818  10.100  71.318  1.00  0.00    -0.410 C  
HETATM   38  C   UNL     1     -13.078  11.472  71.953  1.00  0.00    -0.492 C  
HETATM   39  H   UNL     1     -14.273  10.287  70.024  1.00  0.00     0.000 HD 
ENDBRANCH  33  34
ENDBRANCH  27  33
ENDBRANCH  21  22
ENDBRANCH   1  21
BRANCH   3  40
HETATM   40  O   UNL     1      -6.318   6.965  69.093  1.00  0.00    -0.026 OA 
HETATM   41  C   UNL     1      -5.677   7.765  70.071  1.00  0.00    -0.023 C  
ENDBRANCH   3  40
TORSDOF 7
ENDMDL
MODEL       63
REMARK 921   NORMALIZED FREE ENERGY PREDICTED BY IDOCK:   -4.57 KCAL/MOL
REMARK 922        TOTAL FREE ENERGY PREDICTED BY IDOCK:   -8.31 KCAL/MOL
REMARK 923 INTER-LIGAND FREE ENERGY PREDICTED BY IDOCK:   -8.01 KCAL/MOL
REMARK 924 INTRA-LIGAND FREE ENERGY PREDICTED BY IDOCK:   -0.30 KCAL/MOL
REMARK 927      BINDING AFFINITY PREDICTED BY RF-SCORE:    0.00 PKD
ROOT
HETATM    1  C   UNL     1      -8.859  10.019  68.905  1.00  0.00    -0.148 C  
HETATM    2  O   UNL     1      -9.027   4.643  64.920  1.00  0.00    -0.146 OA 
HETATM    3  C   UNL     1      -7.580  10.500  69.556  1.00  0.00    -0.145 C  
HETATM    4  C   UNL     1      -8.964   8.478  69.307  1.00  0.00    -0.146 C  
HETATM    5  C   UNL     1     -10.398   4.276  65.145  1.00  0.00    -0.195 C  
HETATM    6  C   UNL     1      -7.216   9.720  70.573  1.00  0.00    -0.130 C  
HETATM    7  C   UNL     1      -8.080   8.500  70.752  1.00  0.00    -0.120 C  
HETATM    8  C   UNL     1      -8.862   7.378  68.089  1.00  0.00    -0.127 A  
HETATM    9  C   UNL     1     -10.071   6.844  67.577  1.00  0.00    -0.222 A  
HETATM   10  O   UNL     1     -11.072   5.151  66.084  1.00  0.00    -0.156 OA 
HETATM   11  C   UNL     1     -10.032   5.904  66.543  1.00  0.00    -0.153 A  
HETATM   12  C   UNL     1      -8.952   8.682  71.998  1.00  0.00    -0.286 C  
HETATM   13  C   UNL     1      -8.865   5.578  65.896  1.00  0.00    -0.150 A  
HETATM   14  C   UNL     1      -7.649   6.017  66.351  1.00  0.00    -0.094 A  
HETATM   15  C   UNL     1      -8.608   7.520  72.922  1.00  0.00    -0.172 C  
HETATM   16  C   UNL     1      -7.655   6.706  67.577  1.00  0.00    -0.105 A  
HETATM   17  C   UNL     1      -6.616   6.039  68.585  1.00  0.00    -0.058 C  
HETATM   18  C   UNL     1      -6.933   6.792  69.820  1.00  0.00    -0.063 C  
HETATM   19  N   UNL     1      -7.113   7.394  71.093  1.00  0.00    -0.059 NA 
HETATM   20  C   UNL     1      -7.734   6.567  72.123  1.00  0.00    -0.097 C  
ENDROOT
BRANCH   1  21
HETATM   21  O   UNL     1      -8.930  10.332  67.518  1.00  0.00    -0.134 OA 
BRANCH  21  22
HETATM   22  C   UNL     1      -9.427  11.588  67.298  1.00  0.00    -0.169 C  
HETATM   23  C   UNL     1     -11.573  12.810  66.896  1.00  0.00    -0.428 C  
HETATM   24  C   UNL     1     -10.920  11.647  67.656  1.00  0.00    -0.239 C  
HETATM   25  O   UNL     1      -8.782  12.527  66.829  1.00  0.00    -0.200 OA 
HETATM   26  H   UNL     1     -12.483  10.458  67.503  1.00  0.00     0.000 HD 
HETATM   27  C   UNL     1     -11.058  11.823  69.187  1.00  0.00    -0.294 C  
HETATM   28  O   UNL     1     -11.560  10.422  67.282  1.00  0.00    -0.240 OA 
BRANCH  23  29
HETATM   29  C   UNL     1     -11.448  12.659  65.386  1.00  0.00    -0.338 C  
HETATM   30  O   UNL     1     -11.179  11.632  64.775  1.00  0.00    -0.297 OA 
BRANCH  29  31
HETATM   31  O   UNL     1     -11.708  13.876  64.814  1.00  0.00    -0.352 OA 
HETATM   32  C   UNL     1     -10.652  14.818  64.991  1.00  0.00    -0.429 C  
ENDBRANCH  29  31
ENDBRANCH  23  29
BRANCH  27  33
HETATM   33  C   UNL     1     -12.491  11.934  69.750  1.00  0.00    -0.011 C  
BRANCH  33  34
HETATM   34  C   UNL     1     -12.572  12.404  71.211  1.00  0.00    -0.332 C  
HETATM   35  C   UNL     1     -11.788  14.793  70.764  1.00  0.00    -0.370 C  
HETATM   36  O   UNL     1     -14.107  14.226  70.799  1.00  0.00    -0.226 OA 
HETATM   37  C   UNL     1     -12.852  13.907  71.405  1.00  0.00    -0.361 C  
HETATM   38  C   UNL     1     -12.957  14.222  72.903  1.00  0.00    -0.548 C  
HETATM   39  H   UNL     1     -14.280  15.153  70.918  1.00  0.00     0.000 HD 
ENDBRANCH  33  34
ENDBRANCH  27  33
ENDBRANCH  21  22
ENDBRANCH   1  21
BRANCH   3  40
HETATM   40  O   UNL     1      -6.796  11.569  69.209  1.00  0.00    -0.105 OA 
HETATM   41  C   UNL     1      -5.879  12.115  70.140  1.00  0.00    -0.162 C  
ENDBRANCH   3  40
TORSDOF 7
ENDMDL
MODEL       64
REMARK 921   NORMALIZED FREE ENERGY PREDICTED BY IDOCK:   -4.55 KCAL/MOL
REMARK 922        TOTAL FREE ENERGY PREDICTED BY IDOCK:   -8.28 KCAL/MOL
REMARK 923 INTER-LIGAND FREE ENERGY PREDICTED BY IDOCK:   -7.37 KCAL/MOL
REMARK 924 INTRA-LIGAND FREE ENERGY PREDICTED BY IDOCK:   -0.92 KCAL/MOL
REMARK 927      BINDING AFFINITY PREDICTED BY RF-SCORE:    0.00 PKD
ROOT
HETATM    1  C   UNL     1     -10.544  12.189  69.234  1.00  0.00     0.088 C  
HETATM    2  O   UNL     1      -9.361   9.876  63.065  1.00  0.00    -0.283 OA 
HETATM    3  C   UNL     1     -11.632  13.202  69.520  1.00  0.00    -0.283 C  
HETATM    4  C   UNL     1      -9.674  12.846  68.068  1.00  0.00    -0.224 C  
HETATM    5  C   UNL     1      -7.970   9.560  63.238  1.00  0.00    -0.143 C  
HETATM    6  C   UNL     1     -11.292  14.425  69.114  1.00  0.00    -0.308 C  
HETATM    7  C   UNL     1      -9.984  14.484  68.372  1.00  0.00    -0.241 C  
HETATM    8  C   UNL     1      -9.674  12.082  66.613  1.00  0.00    -0.221 A  
HETATM    9  C   UNL     1      -8.580  11.233  66.312  1.00  0.00    -0.172 A  
HETATM   10  O   UNL     1      -7.475   9.885  64.562  1.00  0.00    -0.130 OA 
HETATM   11  C   UNL     1      -8.537  10.565  65.085  1.00  0.00    -0.180 A  
HETATM   12  C   UNL     1      -8.931  15.149  69.265  1.00  0.00    -0.202 C  
HETATM   13  C   UNL     1      -9.591  10.582  64.206  1.00  0.00    -0.307 A  
HETATM   14  C   UNL     1     -10.668  11.407  64.400  1.00  0.00    -0.405 A  
HETATM   15  C   UNL     1      -8.440  16.369  68.494  1.00  0.00    -0.211 C  
HETATM   16  C   UNL     1     -10.573  12.314  65.469  1.00  0.00    -0.304 A  
HETATM   17  C   UNL     1     -10.858  13.797  64.957  1.00  0.00    -0.377 C  
HETATM   18  C   UNL     1     -10.522  14.562  66.180  1.00  0.00    -0.298 C  
HETATM   19  N   UNL     1     -10.228  15.456  67.244  1.00  0.00    -0.250 NA 
HETATM   20  C   UNL     1      -9.028  16.272  67.096  1.00  0.00    -0.195 C  
ENDROOT
BRANCH   1  21
HETATM   21  O   UNL     1     -11.050  10.879  69.004  1.00  0.00    -0.207 OA 
BRANCH  21  22
HETATM   22  C   UNL     1     -10.781  10.032  70.044  1.00  0.00    -0.299 C  
HETATM   23  C   UNL     1      -9.932   7.730  70.535  1.00  0.00    -0.187 C  
HETATM   24  C   UNL     1      -9.783   8.947  69.610  1.00  0.00    -0.174 C  
HETATM   25  O   UNL     1     -11.304  10.097  71.158  1.00  0.00    -0.346 OA 
HETATM   26  H   UNL     1      -9.434   7.878  67.993  1.00  0.00     0.000 HD 
HETATM   27  C   UNL     1      -8.352   9.533  69.673  1.00  0.00    -0.155 C  
HETATM   28  O   UNL     1     -10.050   8.548  68.262  1.00  0.00    -0.179 OA 
BRANCH  23  29
HETATM   29  C   UNL     1     -11.333   7.136  70.492  1.00  0.00    -0.297 C  
HETATM   30  O   UNL     1     -11.898   6.671  69.509  1.00  0.00    -0.214 OA 
BRANCH  29  31
HETATM   31  O   UNL     1     -11.858   7.192  71.755  1.00  0.00    -0.277 OA 
HETATM   32  C   UNL     1     -12.488   5.978  72.157  1.00  0.00     0.128 C  
ENDBRANCH  29  31
ENDBRANCH  23  29
BRANCH  27  33
HETATM   33  C   UNL     1      -7.193   8.584  69.299  1.00  0.00    -0.063 C  
BRANCH  33  34
HETATM   34  C   UNL     1      -6.042   8.546  70.317  1.00  0.00    -0.030 C  
HETATM   35  C   UNL     1      -7.528   8.556  72.395  1.00  0.00    -0.085 C  
HETATM   36  O   UNL     1      -6.758   6.517  71.420  1.00  0.00    -0.056 OA 
HETATM   37  C   UNL     1      -6.376   7.873  71.663  1.00  0.00    -0.039 C  
HETATM   38  C   UNL     1      -5.128   7.860  72.556  1.00  0.00    -0.036 C  
HETATM   39  H   UNL     1      -6.964   6.102  72.249  1.00  0.00     0.000 HD 
ENDBRANCH  33  34
ENDBRANCH  27  33
ENDBRANCH  21  22
ENDBRANCH   1  21
BRANCH   3  40
HETATM   40  O   UNL     1     -12.860  12.996  70.091  1.00  0.00     0.085 OA 
HETATM   41  C   UNL     1     -13.115  13.425  71.416  1.00  0.00    -0.291 C  
ENDBRANCH   3  40
TORSDOF 7
ENDMDL
MODEL       65
REMARK 921   NORMALIZED FREE ENERGY PREDICTED BY IDOCK:   -4.52 KCAL/MOL
REMARK 922        TOTAL FREE ENERGY PREDICTED BY IDOCK:   -8.24 KCAL/MOL
REMARK 923 INTER-LIGAND FREE ENERGY PREDICTED BY IDOCK:   -8.35 KCAL/MOL
REMARK 924 INTRA-LIGAND FREE ENERGY PREDICTED BY IDOCK:    0.11 KCAL/MOL
REMARK 927      BINDING AFFINITY PREDICTED BY RF-SCORE:    0.00 PKD
ROOT
HETATM    1  C   UNL     1      -8.731   9.785  66.149  1.00  0.00    -0.136 C  
HETATM    2  O   UNL     1     -10.582   5.040  70.491  1.00  0.00    -0.209 OA 
HETATM    3  C   UNL     1      -9.117   9.735  64.686  1.00  0.00    -0.245 C  
HETATM    4  C   UNL     1      -8.049   8.371  66.437  1.00  0.00    -0.104 C  
HETATM    5  C   UNL     1      -9.494   5.188  71.418  1.00  0.00    -0.152 C  
HETATM    6  C   UNL     1      -8.408   8.827  64.015  1.00  0.00    -0.146 C  
HETATM    7  C   UNL     1      -7.495   8.000  64.880  1.00  0.00    -0.089 C  
HETATM    8  C   UNL     1      -8.819   7.370  67.490  1.00  0.00    -0.127 A  
HETATM    9  C   UNL     1      -8.358   7.339  68.830  1.00  0.00    -0.129 A  
HETATM   10  O   UNL     1      -8.540   6.202  71.015  1.00  0.00    -0.129 OA 
HETATM   11  C   UNL     1      -8.981   6.500  69.759  1.00  0.00    -0.142 A  
HETATM   12  C   UNL     1      -6.045   8.427  64.629  1.00  0.00    -0.064 C  
HETATM   13  C   UNL     1     -10.126   5.803  69.461  1.00  0.00    -0.214 A  
HETATM   14  C   UNL     1     -10.615   5.746  68.182  1.00  0.00    -0.286 A  
HETATM   15  C   UNL     1      -5.318   7.176  64.151  1.00  0.00    -0.029 C  
HETATM   16  C   UNL     1      -9.816   6.330  67.183  1.00  0.00    -0.173 A  
HETATM   17  C   UNL     1      -9.551   5.281  66.011  1.00  0.00    -0.166 C  
HETATM   18  C   UNL     1      -8.566   6.038  65.205  1.00  0.00    -0.069 C  
HETATM   19  N   UNL     1      -7.606   6.602  64.323  1.00  0.00    -0.097 NA 
HETATM   20  C   UNL     1      -6.272   6.010  64.348  1.00  0.00    -0.030 C  
ENDROOT
BRANCH   1  21
HETATM   21  O   UNL     1      -9.807  10.169  66.996  1.00  0.00    -0.176 OA 
BRANCH  21  22
HETATM   22  C   UNL     1      -9.651  11.437  67.487  1.00  0.00    -0.167 C  
HETATM   23  C   UNL     1     -10.964  13.443  68.202  1.00  0.00    -0.277 C  
HETATM   24  C   UNL     1     -10.938  11.908  68.181  1.00  0.00    -0.227 C  
HETATM   25  O   UNL     1      -8.639  12.126  67.346  1.00  0.00    -0.159 OA 
HETATM   26  H   UNL     1     -12.878  11.720  67.896  1.00  0.00     0.000 HD 
HETATM   27  C   UNL     1     -10.973  11.323  69.613  1.00  0.00    -0.214 C  
HETATM   28  O   UNL     1     -12.082  11.428  67.467  1.00  0.00    -0.592 OA 
BRANCH  23  29
HETATM   29  C   UNL     1     -10.928  14.044  66.804  1.00  0.00    -0.297 C  
HETATM   30  O   UNL     1     -10.062  14.782  66.348  1.00  0.00    -0.261 OA 
BRANCH  29  31
HETATM   31  O   UNL     1     -12.030  13.601  66.122  1.00  0.00    -0.370 OA 
HETATM   32  C   UNL     1     -12.517  14.542  65.168  1.00  0.00    -0.284 C  
ENDBRANCH  29  31
ENDBRANCH  23  29
BRANCH  27  33
HETATM   33  C   UNL     1     -12.183  11.705  70.493  1.00  0.00    -0.451 C  
BRANCH  33  34
HETATM   34  C   UNL     1     -12.859  13.032  70.113  1.00  0.00     0.268 C  
HETATM   35  C   UNL     1     -13.820  13.512  72.430  1.00  0.00    -0.687 C  
HETATM   36  O   UNL     1     -11.700  14.377  71.754  1.00  0.00    -0.380 OA 
HETATM   37  C   UNL     1     -13.002  14.051  71.260  1.00  0.00    -0.347 C  
HETATM   38  C   UNL     1     -13.642  15.339  70.728  1.00  0.00    -0.313 C  
HETATM   39  H   UNL     1     -11.788  15.005  72.461  1.00  0.00     0.000 HD 
ENDBRANCH  33  34
ENDBRANCH  27  33
ENDBRANCH  21  22
ENDBRANCH   1  21
BRANCH   3  40
HETATM   40  O   UNL     1     -10.079  10.459  64.033  1.00  0.00    -0.307 OA 
HETATM   41  C   UNL     1      -9.720  11.346  62.988  1.00  0.00    -0.371 C  
ENDBRANCH   3  40
TORSDOF 7
ENDMDL
MODEL       66
REMARK 921   NORMALIZED FREE ENERGY PREDICTED BY IDOCK:   -4.40 KCAL/MOL
REMARK 922        TOTAL FREE ENERGY PREDICTED BY IDOCK:   -8.07 KCAL/MOL
REMARK 923 INTER-LIGAND FREE ENERGY PREDICTED BY IDOCK:   -7.93 KCAL/MOL
REMARK 924 INTRA-LIGAND FREE ENERGY PREDICTED BY IDOCK:   -0.13 KCAL/MOL
REMARK 927      BINDING AFFINITY PREDICTED BY RF-SCORE:    0.00 PKD
ROOT
HETATM    1  C   UNL     1      -8.917  13.028  68.507  1.00  0.00    -0.048 C  
HETATM    2  O   UNL     1     -11.790  12.135  62.528  1.00  0.00     0.772 OA 
HETATM    3  C   UNL     1      -7.480  12.635  68.777  1.00  0.00    -0.044 C  
HETATM    4  C   UNL     1      -9.590  11.711  67.906  1.00  0.00    -0.180 C  
HETATM    5  C   UNL     1     -13.149  12.017  62.979  1.00  0.00     0.495 C  
HETATM    6  C   UNL     1      -7.338  11.315  68.892  1.00  0.00    -0.115 C  
HETATM    7  C   UNL     1      -8.595  10.536  68.611  1.00  0.00    -0.139 C  
HETATM    8  C   UNL     1     -10.108  11.779  66.348  1.00  0.00    -0.239 A  
HETATM    9  C   UNL     1     -11.485  12.023  66.117  1.00  0.00    -0.401 A  
HETATM   10  O   UNL     1     -13.277  12.108  64.421  1.00  0.00    -0.758 OA 
HETATM   11  C   UNL     1     -11.969  12.087  64.808  1.00  0.00    -0.236 A  
HETATM   12  C   UNL     1      -9.145   9.979  69.928  1.00  0.00    -0.188 C  
HETATM   13  C   UNL     1     -11.134  12.066  63.718  1.00  0.00    -0.439 A  
HETATM   14  C   UNL     1      -9.797  11.794  63.848  1.00  0.00    -0.298 A  
HETATM   15  C   UNL     1      -9.190   8.466  69.756  1.00  0.00    -0.157 C  
HETATM   16  C   UNL     1      -9.360  11.418  65.130  1.00  0.00    -0.172 A  
HETATM   17  C   UNL     1      -8.564  10.039  65.055  1.00  0.00    -0.173 C  
HETATM   18  C   UNL     1      -8.381   9.766  66.498  1.00  0.00    -0.124 C  
HETATM   19  N   UNL     1      -8.130   9.333  67.828  1.00  0.00    -0.104 NA 
HETATM   20  C   UNL     1      -8.895   8.181  68.292  1.00  0.00    -0.133 C  
ENDROOT
BRANCH   1  21
HETATM   21  O   UNL     1      -9.033  14.221  67.740  1.00  0.00    -0.174 OA 
BRANCH  21  22
HETATM   22  C   UNL     1     -10.201  14.887  67.997  1.00  0.00    -0.228 C  
HETATM   23  C   UNL     1     -11.197  16.584  69.543  1.00  0.00    -0.169 C  
HETATM   24  C   UNL     1      -9.924  16.175  68.788  1.00  0.00    -0.231 C  
HETATM   25  O   UNL     1     -11.323  14.485  67.685  1.00  0.00    -0.306 OA 
HETATM   26  H   UNL     1      -8.698  16.748  70.219  1.00  0.00     0.000 HD 
HETATM   27  C   UNL     1      -9.473  17.277  67.800  1.00  0.00    -0.255 C  
HETATM   28  O   UNL     1      -8.869  15.952  69.730  1.00  0.00    -0.108 OA 
BRANCH  23  29
HETATM   29  C   UNL     1     -11.661  15.514  70.520  1.00  0.00    -0.349 C  
HETATM   30  O   UNL     1     -12.349  14.534  70.257  1.00  0.00    -0.316 OA 
BRANCH  29  31
HETATM   31  O   UNL     1     -11.162  15.821  71.757  1.00  0.00    -0.327 OA 
HETATM   32  C   UNL     1     -12.174  15.982  72.749  1.00  0.00    -0.516 C  
ENDBRANCH  29  31
ENDBRANCH  23  29
BRANCH  27  33
HETATM   33  C   UNL     1      -9.171  18.668  68.398  1.00  0.00    -0.355 C  
BRANCH  33  34
HETATM   34  C   UNL     1      -7.683  19.054  68.407  1.00  0.00    -0.354 C  
HETATM   35  C   UNL     1      -7.502  19.461  65.892  1.00  0.00    -0.297 C  
HETATM   36  O   UNL     1      -7.989  21.236  67.412  1.00  0.00    -0.576 OA 
HETATM   37  C   UNL     1      -7.247  20.020  67.288  1.00  0.00    -0.251 C  
HETATM   38  C   UNL     1      -5.758  20.356  67.450  1.00  0.00    -0.211 C  
HETATM   39  H   UNL     1      -7.720  21.832  66.723  1.00  0.00     0.000 HD 
ENDBRANCH  33  34
ENDBRANCH  27  33
ENDBRANCH  21  22
ENDBRANCH   1  21
BRANCH   3  40
HETATM   40  O   UNL     1      -6.380  13.445  68.879  1.00  0.00    -0.086 OA 
HETATM   41  C   UNL     1      -5.678  13.547  70.105  1.00  0.00    -0.140 C  
ENDBRANCH   3  40
TORSDOF 7
ENDMDL
MODEL       67
REMARK 921   NORMALIZED FREE ENERGY PREDICTED BY IDOCK:   -4.39 KCAL/MOL
REMARK 922        TOTAL FREE ENERGY PREDICTED BY IDOCK:   -8.06 KCAL/MOL
REMARK 923 INTER-LIGAND FREE ENERGY PREDICTED BY IDOCK:   -7.25 KCAL/MOL
REMARK 924 INTRA-LIGAND FREE ENERGY PREDICTED BY IDOCK:   -0.80 KCAL/MOL
REMARK 927      BINDING AFFINITY PREDICTED BY RF-SCORE:    0.00 PKD
ROOT
HETATM    1  C   UNL     1      -8.609   9.414  66.803  1.00  0.00    -0.127 C  
HETATM    2  O   UNL     1     -11.445   6.035  71.836  1.00  0.00    -0.287 OA 
HETATM    3  C   UNL     1      -9.053   9.243  65.366  1.00  0.00    -0.222 C  
HETATM    4  C   UNL     1      -8.303   7.932  67.311  1.00  0.00    -0.122 C  
HETATM    5  C   UNL     1     -10.320   6.034  72.730  1.00  0.00    -0.199 C  
HETATM    6  C   UNL     1      -8.629   8.091  64.848  1.00  0.00     0.000 C  
HETATM    7  C   UNL     1      -7.925   7.197  65.833  1.00  0.00    -0.116 C  
HETATM    8  C   UNL     1      -9.262   7.339  68.508  1.00  0.00    -0.138 A  
HETATM    9  C   UNL     1      -8.772   7.394  69.837  1.00  0.00    -0.141 A  
HETATM   10  O   UNL     1      -9.154   6.690  72.173  1.00  0.00    -0.139 OA 
HETATM   11  C   UNL     1      -9.553   6.898  70.885  1.00  0.00    -0.164 A  
HETATM   12  C   UNL     1      -6.425   7.188  65.520  1.00  0.00    -0.047 C  
HETATM   13  C   UNL     1     -10.849   6.487  70.699  1.00  0.00    -0.266 A  
HETATM   14  C   UNL     1     -11.387   6.364  69.444  1.00  0.00    -0.443 A  
HETATM   15  C   UNL     1      -6.064   5.733  65.246  1.00  0.00    -0.029 C  
HETATM   16  C   UNL     1     -10.504   6.560  68.368  1.00  0.00    -0.258 A  
HETATM   17  C   UNL     1     -10.565   5.312  67.376  1.00  0.00    -0.168 C  
HETATM   18  C   UNL     1      -9.451   5.654  66.462  1.00  0.00    -0.152 C  
HETATM   19  N   UNL     1      -8.414   5.808  65.504  1.00  0.00    -0.147 NA 
HETATM   20  C   UNL     1      -7.278   4.899  65.624  1.00  0.00    -0.072 C  
ENDROOT
BRANCH   1  21
HETATM   21  O   UNL     1      -9.516  10.189  67.578  1.00  0.00    -0.149 OA 
BRANCH  21  22
HETATM   22  C   UNL     1      -8.869  11.081  68.390  1.00  0.00    -0.151 C  
HETATM   23  C   UNL     1      -7.859  13.370  68.384  1.00  0.00    -0.138 C  
HETATM   24  C   UNL     1      -9.008  12.509  67.840  1.00  0.00    -0.188 C  
HETATM   25  O   UNL     1      -8.220  10.777  69.392  1.00  0.00    -0.124 OA 
HETATM   26  H   UNL     1      -9.032  13.373  66.070  1.00  0.00     0.000 HD 
HETATM   27  C   UNL     1     -10.386  13.072  68.263  1.00  0.00    -0.256 C  
HETATM   28  O   UNL     1      -8.946  12.490  66.410  1.00  0.00    -0.179 OA 
BRANCH  23  29
HETATM   29  C   UNL     1      -6.492  12.835  67.982  1.00  0.00    -0.099 C  
HETATM   30  O   UNL     1      -6.140  12.502  66.856  1.00  0.00    -0.251 OA 
BRANCH  29  31
HETATM   31  O   UNL     1      -5.702  12.803  69.100  1.00  0.00    -0.070 OA 
HETATM   32  C   UNL     1      -5.965  13.874  70.005  1.00  0.00    -0.143 C  
ENDBRANCH  29  31
ENDBRANCH  23  29
BRANCH  27  33
HETATM   33  C   UNL     1     -10.711  14.518  67.830  1.00  0.00    -0.256 C  
BRANCH  33  34
HETATM   34  C   UNL     1      -9.902  15.603  68.558  1.00  0.00    -0.205 C  
HETATM   35  C   UNL     1      -8.675  16.452  66.485  1.00  0.00    -0.324 C  
HETATM   36  O   UNL     1     -10.713  17.450  67.226  1.00  0.00    -0.315 OA 
HETATM   37  C   UNL     1      -9.518  16.825  67.701  1.00  0.00    -0.234 C  
HETATM   38  C   UNL     1      -8.762  17.843  68.564  1.00  0.00    -0.297 C  
HETATM   39  H   UNL     1     -10.477  18.204  66.697  1.00  0.00     0.000 HD 
ENDBRANCH  33  34
ENDBRANCH  27  33
ENDBRANCH  21  22
ENDBRANCH   1  21
BRANCH   3  40
HETATM   40  O   UNL     1      -9.821  10.085  64.605  1.00  0.00    -0.318 OA 
HETATM   41  C   UNL     1      -9.429  10.412  63.284  1.00  0.00    -0.323 C  
ENDBRANCH   3  40
TORSDOF 7
ENDMDL
MODEL       68
REMARK 921   NORMALIZED FREE ENERGY PREDICTED BY IDOCK:   -4.36 KCAL/MOL
REMARK 922        TOTAL FREE ENERGY PREDICTED BY IDOCK:   -8.00 KCAL/MOL
REMARK 923 INTER-LIGAND FREE ENERGY PREDICTED BY IDOCK:   -6.41 KCAL/MOL
REMARK 924 INTRA-LIGAND FREE ENERGY PREDICTED BY IDOCK:   -1.60 KCAL/MOL
REMARK 927      BINDING AFFINITY PREDICTED BY RF-SCORE:    0.00 PKD
ROOT
HETATM    1  C   UNL     1      -8.321   7.174  66.170  1.00  0.00    -0.133 C  
HETATM    2  O   UNL     1     -10.858  12.870  68.602  1.00  0.00    -0.246 OA 
HETATM    3  C   UNL     1      -6.852   6.828  66.292  1.00  0.00    -0.060 C  
HETATM    4  C   UNL     1      -8.343   8.624  65.505  1.00  0.00    -0.157 C  
HETATM    5  C   UNL     1     -11.969  12.991  67.699  1.00  0.00    -0.301 C  
HETATM    6  C   UNL     1      -6.103   7.537  65.448  1.00  0.00    -0.038 C  
HETATM    7  C   UNL     1      -6.867   8.577  64.674  1.00  0.00    -0.069 C  
HETATM    8  C   UNL     1      -8.940   9.856  66.415  1.00  0.00    -0.169 A  
HETATM    9  C   UNL     1     -10.284  10.249  66.196  1.00  0.00    -0.285 A  
HETATM   10  O   UNL     1     -12.023  11.921  66.721  1.00  0.00    -0.613 OA 
HETATM   11  C   UNL     1     -10.833  11.293  66.945  1.00  0.00    -0.282 A  
HETATM   12  C   UNL     1      -6.999   8.123  63.217  1.00  0.00    -0.085 C  
HETATM   13  C   UNL     1     -10.164  11.868  67.997  1.00  0.00    -0.192 A  
HETATM   14  C   UNL     1      -8.849  11.577  68.252  1.00  0.00    -0.166 A  
HETATM   15  C   UNL     1      -6.345   9.213  62.378  1.00  0.00    -0.094 C  
HETATM   16  C   UNL     1      -8.198  10.762  67.308  1.00  0.00    -0.121 A  
HETATM   17  C   UNL     1      -6.857  11.466  66.809  1.00  0.00    -0.132 C  
HETATM   18  C   UNL     1      -6.467  10.539  65.722  1.00  0.00    -0.124 C  
HETATM   19  N   UNL     1      -5.951   9.776  64.641  1.00  0.00    -0.085 NA 
HETATM   20  C   UNL     1      -6.055  10.375  63.314  1.00  0.00    -0.122 C  
ENDROOT
BRANCH   1  21
HETATM   21  O   UNL     1      -9.034   7.011  67.391  1.00  0.00    -0.118 OA 
BRANCH  21  22
HETATM   22  C   UNL     1      -9.519   5.740  67.539  1.00  0.00    -0.112 C  
HETATM   23  C   UNL     1      -9.659   3.871  69.196  1.00  0.00    -0.218 C  
HETATM   24  C   UNL     1      -9.683   5.397  69.028  1.00  0.00    -0.152 C  
HETATM   25  O   UNL     1      -9.743   4.960  66.612  1.00  0.00    -0.150 OA 
HETATM   26  H   UNL     1      -8.712   5.759  70.703  1.00  0.00     0.000 HD 
HETATM   27  C   UNL     1     -11.015   6.000  69.533  1.00  0.00    -0.467 C  
HETATM   28  O   UNL     1      -8.611   5.971  69.782  1.00  0.00    -0.127 OA 
BRANCH  23  29
HETATM   29  C   UNL     1      -8.358   3.253  68.704  1.00  0.00    -0.072 C  
HETATM   30  O   UNL     1      -7.223   3.601  69.009  1.00  0.00    -0.049 OA 
BRANCH  29  31
HETATM   31  O   UNL     1      -8.670   2.217  67.865  1.00  0.00    -0.082 OA 
HETATM   32  C   UNL     1      -7.601   1.861  66.990  1.00  0.00    -0.061 C  
ENDBRANCH  29  31
ENDBRANCH  23  29
BRANCH  27  33
HETATM   33  C   UNL     1     -11.382   5.741  71.010  1.00  0.00    -0.122 C  
BRANCH  33  34
HETATM   34  C   UNL     1     -10.763   6.731  72.009  1.00  0.00    -0.245 C  
HETATM   35  C   UNL     1     -10.727   5.120  73.990  1.00  0.00    -0.320 C  
HETATM   36  O   UNL     1      -8.841   5.368  72.547  1.00  0.00    -0.130 OA 
HETATM   37  C   UNL     1      -9.923   6.094  73.134  1.00  0.00    -0.179 C  
HETATM   38  C   UNL     1      -9.328   7.197  74.020  1.00  0.00    -0.291 C  
HETATM   39  H   UNL     1      -8.323   4.975  73.241  1.00  0.00     0.000 HD 
ENDBRANCH  33  34
ENDBRANCH  27  33
ENDBRANCH  21  22
ENDBRANCH   1  21
BRANCH   3  40
HETATM   40  O   UNL     1      -6.253   5.941  67.147  1.00  0.00    -0.031 OA 
HETATM   41  C   UNL     1      -5.323   6.397  68.114  1.00  0.00    -0.008 C  
ENDBRANCH   3  40
TORSDOF 7
ENDMDL
MODEL       69
REMARK 921   NORMALIZED FREE ENERGY PREDICTED BY IDOCK:   -4.34 KCAL/MOL
REMARK 922        TOTAL FREE ENERGY PREDICTED BY IDOCK:   -7.99 KCAL/MOL
REMARK 923 INTER-LIGAND FREE ENERGY PREDICTED BY IDOCK:   -7.50 KCAL/MOL
REMARK 924 INTRA-LIGAND FREE ENERGY PREDICTED BY IDOCK:   -0.48 KCAL/MOL
REMARK 927      BINDING AFFINITY PREDICTED BY RF-SCORE:    0.00 PKD
ROOT
HETATM    1  C   UNL     1     -10.506   9.006  68.214  1.00  0.00    -0.200 C  
HETATM    2  O   UNL     1      -5.979  10.550  63.531  1.00  0.00    -0.140 OA 
HETATM    3  C   UNL     1     -10.115   8.400  69.544  1.00  0.00    -0.200 C  
HETATM    4  C   UNL     1      -9.831   8.057  67.122  1.00  0.00    -0.274 C  
HETATM    5  C   UNL     1      -6.833  10.420  62.383  1.00  0.00    -0.136 C  
HETATM    6  C   UNL     1      -9.780   7.116  69.427  1.00  0.00    -0.160 C  
HETATM    7  C   UNL     1      -9.755   6.615  68.008  1.00  0.00    -0.123 C  
HETATM    8  C   UNL     1      -8.656   8.717  66.181  1.00  0.00    -0.158 A  
HETATM    9  C   UNL     1      -9.018   9.164  64.886  1.00  0.00    -0.201 A  
HETATM   10  O   UNL     1      -8.183  10.017  62.724  1.00  0.00    -0.133 OA 
HETATM   11  C   UNL     1      -8.050   9.729  64.051  1.00  0.00    -0.150 A  
HETATM   12  C   UNL     1     -10.957   5.693  67.780  1.00  0.00    -0.018 C  
HETATM   13  C   UNL     1      -6.778  10.004  64.488  1.00  0.00    -0.128 A  
HETATM   14  C   UNL     1      -6.333   9.570  65.710  1.00  0.00    -0.069 A  
HETATM   15  C   UNL     1     -10.378   4.348  67.359  1.00  0.00     0.161 C  
HETATM   16  C   UNL     1      -7.202   8.728  66.425  1.00  0.00    -0.084 A  
HETATM   17  C   UNL     1      -6.446   7.388  66.844  1.00  0.00    -0.056 C  
HETATM   18  C   UNL     1      -7.580   6.612  67.396  1.00  0.00    -0.104 C  
HETATM   19  N   UNL     1      -8.542   5.720  67.941  1.00  0.00    -0.103 NA 
HETATM   20  C   UNL     1      -8.892   4.562  67.125  1.00  0.00    -0.109 C  
ENDROOT
BRANCH   1  21
HETATM   21  O   UNL     1     -10.217  10.397  68.129  1.00  0.00    -0.151 OA 
BRANCH  21  22
HETATM   22  C   UNL     1     -11.353  11.161  68.141  1.00  0.00    -0.309 C  
HETATM   23  C   UNL     1     -12.132  13.527  67.910  1.00  0.00    -0.304 C  
HETATM   24  C   UNL     1     -11.114  12.492  67.411  1.00  0.00    -0.272 C  
HETATM   25  O   UNL     1     -12.403  10.850  68.704  1.00  0.00    -0.501 OA 
HETATM   26  H   UNL     1      -9.643  13.788  67.227  1.00  0.00     0.000 HD 
HETATM   27  C   UNL     1     -11.250  12.254  65.887  1.00  0.00    -0.381 C  
HETATM   28  O   UNL     1      -9.790  12.966  67.678  1.00  0.00    -0.203 OA 
BRANCH  23  29
HETATM   29  C   UNL     1     -12.019  13.777  69.407  1.00  0.00    -0.347 C  
HETATM   30  O   UNL     1     -12.835  13.459  70.264  1.00  0.00    -0.079 OA 
BRANCH  29  31
HETATM   31  O   UNL     1     -10.828  14.410  69.644  1.00  0.00    -0.211 OA 
HETATM   32  C   UNL     1     -10.985  15.754  70.095  1.00  0.00    -0.352 C  
ENDBRANCH  29  31
ENDBRANCH  23  29
BRANCH  27  33
HETATM   33  C   UNL     1     -11.073  13.484  64.971  1.00  0.00    -0.338 C  
BRANCH  33  34
HETATM   34  C   UNL     1      -9.803  14.307  65.241  1.00  0.00    -0.204 C  
HETATM   35  C   UNL     1     -10.824  16.570  64.640  1.00  0.00    -0.003 C  
HETATM   36  O   UNL     1     -10.803  15.768  66.888  1.00  0.00    -0.319 OA 
HETATM   37  C   UNL     1     -10.045  15.766  65.676  1.00  0.00    -0.371 C  
HETATM   38  C   UNL     1      -8.700  16.448  65.959  1.00  0.00    -0.274 C  
HETATM   39  H   UNL     1     -10.952  16.667  67.157  1.00  0.00     0.000 HD 
ENDBRANCH  33  34
ENDBRANCH  27  33
ENDBRANCH  21  22
ENDBRANCH   1  21
BRANCH   3  40
HETATM   40  O   UNL     1     -10.046   9.008  70.771  1.00  0.00    -0.203 OA 
HETATM   41  C   UNL     1     -10.528   8.344  71.925  1.00  0.00    -0.296 C  
ENDBRANCH   3  40
TORSDOF 7
ENDMDL
MODEL       70
REMARK 921   NORMALIZED FREE ENERGY PREDICTED BY IDOCK:   -4.29 KCAL/MOL
REMARK 922        TOTAL FREE ENERGY PREDICTED BY IDOCK:   -7.91 KCAL/MOL
REMARK 923 INTER-LIGAND FREE ENERGY PREDICTED BY IDOCK:   -7.73 KCAL/MOL
REMARK 924 INTRA-LIGAND FREE ENERGY PREDICTED BY IDOCK:   -0.18 KCAL/MOL
REMARK 927      BINDING AFFINITY PREDICTED BY RF-SCORE:    0.00 PKD
ROOT
HETATM    1  C   UNL     1      -9.413   7.942  69.205  1.00  0.00    -0.152 C  
HETATM    2  O   UNL     1      -9.209   3.698  64.033  1.00  0.00    -0.119 OA 
HETATM    3  C   UNL     1      -8.319   7.995  70.249  1.00  0.00    -0.125 C  
HETATM    4  C   UNL     1      -9.849   6.408  69.152  1.00  0.00    -0.158 C  
HETATM    5  C   UNL     1     -10.624   3.587  63.816  1.00  0.00    -0.275 C  
HETATM    6  C   UNL     1      -8.375   6.957  71.083  1.00  0.00    -0.119 C  
HETATM    7  C   UNL     1      -9.421   5.936  70.721  1.00  0.00    -0.165 C  
HETATM    8  C   UNL     1      -9.563   5.597  67.751  1.00  0.00    -0.128 A  
HETATM    9  C   UNL     1     -10.639   5.449  66.840  1.00  0.00    -0.320 A  
HETATM   10  O   UNL     1     -11.406   4.362  64.759  1.00  0.00    -0.266 OA 
HETATM   11  C   UNL     1     -10.442   4.765  65.637  1.00  0.00    -0.191 A  
HETATM   12  C   UNL     1     -10.577   6.026  71.723  1.00  0.00    -0.277 C  
HETATM   13  C   UNL     1      -9.199   4.349  65.229  1.00  0.00    -0.155 A  
HETATM   14  C   UNL     1      -8.114   4.416  66.063  1.00  0.00    -0.102 A  
HETATM   15  C   UNL     1     -10.682   4.647  72.364  1.00  0.00    -0.186 C  
HETATM   16  C   UNL     1      -8.370   4.813  67.387  1.00  0.00    -0.105 A  
HETATM   17  C   UNL     1      -7.769   3.743  68.406  1.00  0.00    -0.061 C  
HETATM   18  C   UNL     1      -8.314   4.264  69.680  1.00  0.00    -0.061 C  
HETATM   19  N   UNL     1      -8.761   4.605  70.984  1.00  0.00    -0.112 NA 
HETATM   20  C   UNL     1      -9.762   3.726  71.579  1.00  0.00    -0.171 C  
ENDROOT
BRANCH   1  21
HETATM   21  O   UNL     1      -9.040   8.552  67.975  1.00  0.00    -0.140 OA 
BRANCH  21  22
HETATM   22  C   UNL     1      -9.313   9.893  67.960  1.00  0.00    -0.130 C  
HETATM   23  C   UNL     1      -8.785  11.992  66.706  1.00  0.00    -0.192 C  
HETATM   24  C   UNL     1      -9.035  10.484  66.569  1.00  0.00    -0.157 C  
HETATM   25  O   UNL     1      -9.681  10.547  68.937  1.00  0.00    -0.181 OA 
HETATM   26  H   UNL     1      -7.704  10.230  65.139  1.00  0.00     0.000 HD 
HETATM   27  C   UNL     1     -10.247  10.192  65.653  1.00  0.00    -0.288 C  
HETATM   28  O   UNL     1      -7.877   9.865  65.999  1.00  0.00    -0.106 OA 
BRANCH  23  29
HETATM   29  C   UNL     1      -7.598  12.305  67.604  1.00  0.00    -0.144 C  
HETATM   30  O   UNL     1      -7.642  12.758  68.743  1.00  0.00    -0.107 OA 
BRANCH  29  31
HETATM   31  O   UNL     1      -6.453  11.976  66.928  1.00  0.00    -0.142 OA 
HETATM   32  C   UNL     1      -5.327  11.794  67.783  1.00  0.00    -0.057 C  
ENDBRANCH  29  31
ENDBRANCH  23  29
BRANCH  27  33
HETATM   33  C   UNL     1     -10.176  10.732  64.209  1.00  0.00    -0.422 C  
BRANCH  33  34
HETATM   34  C   UNL     1     -10.461  12.237  64.072  1.00  0.00    -0.427 C  
HETATM   35  C   UNL     1     -12.906  11.980  63.381  1.00  0.00    -0.427 C  
HETATM   36  O   UNL     1     -12.280  12.288  65.664  1.00  0.00    -0.605 OA 
HETATM   37  C   UNL     1     -11.922  12.657  64.330  1.00  0.00    -0.400 C  
HETATM   38  C   UNL     1     -12.048  14.181  64.211  1.00  0.00    -0.471 C  
HETATM   39  H   UNL     1     -13.180  12.546  65.823  1.00  0.00     0.000 HD 
ENDBRANCH  33  34
ENDBRANCH  27  33
ENDBRANCH  21  22
ENDBRANCH   1  21
BRANCH   3  40
HETATM   40  O   UNL     1      -7.323   8.925  70.394  1.00  0.00    -0.054 OA 
HETATM   41  C   UNL     1      -6.046   8.700  69.825  1.00  0.00    -0.035 C  
ENDBRANCH   3  40
TORSDOF 7
ENDMDL
MODEL       71
REMARK 921   NORMALIZED FREE ENERGY PREDICTED BY IDOCK:   -4.22 KCAL/MOL
REMARK 922        TOTAL FREE ENERGY PREDICTED BY IDOCK:   -7.81 KCAL/MOL
REMARK 923 INTER-LIGAND FREE ENERGY PREDICTED BY IDOCK:   -8.77 KCAL/MOL
REMARK 924 INTRA-LIGAND FREE ENERGY PREDICTED BY IDOCK:    0.96 KCAL/MOL
REMARK 927      BINDING AFFINITY PREDICTED BY RF-SCORE:    0.00 PKD
ROOT
HETATM    1  C   UNL     1     -12.017  11.471  68.629  1.00  0.00    -0.246 C  
HETATM    2  O   UNL     1      -7.120   7.239  66.921  1.00  0.00    -0.081 OA 
HETATM    3  C   UNL     1     -11.951  12.316  69.883  1.00  0.00    -0.306 C  
HETATM    4  C   UNL     1     -11.763   9.978  69.133  1.00  0.00     0.070 C  
HETATM    5  C   UNL     1      -7.917   6.313  66.165  1.00  0.00    -0.112 C  
HETATM    6  C   UNL     1     -12.174  11.595  70.982  1.00  0.00    -0.336 C  
HETATM    7  C   UNL     1     -12.316  10.118  70.728  1.00  0.00    -0.328 C  
HETATM    8  C   UNL     1     -10.393   9.235  68.612  1.00  0.00    -0.229 A  
HETATM    9  C   UNL     1     -10.499   8.347  67.512  1.00  0.00    -0.328 A  
HETATM   10  O   UNL     1      -9.323   6.667  66.136  1.00  0.00    -0.146 OA 
HETATM   11  C   UNL     1      -9.360   7.691  67.036  1.00  0.00    -0.157 A  
HETATM   12  C   UNL     1     -13.785   9.718  70.904  1.00  0.00     0.011 C  
HETATM   13  C   UNL     1      -8.101   7.983  67.502  1.00  0.00    -0.123 A  
HETATM   14  C   UNL     1      -7.912   8.797  68.588  1.00  0.00    -0.107 A  
HETATM   15  C   UNL     1     -13.802   8.662  72.001  1.00  0.00    -0.491 C  
HETATM   16  C   UNL     1      -9.073   9.209  69.266  1.00  0.00    -0.146 A  
HETATM   17  C   UNL     1      -8.951   8.866  70.819  1.00  0.00    -0.254 C  
HETATM   18  C   UNL     1     -10.321   9.207  71.267  1.00  0.00    -0.334 C  
HETATM   19  N   UNL     1     -11.580   9.463  71.871  1.00  0.00    -0.355 NA 
HETATM   20  C   UNL     1     -12.353   8.296  72.283  1.00  0.00    -0.356 C  
ENDROOT
BRANCH   1  21
HETATM   21  O   UNL     1     -11.177  11.954  67.588  1.00  0.00    -0.239 OA 
BRANCH  21  22
HETATM   22  C   UNL     1     -10.014  12.490  68.070  1.00  0.00    -0.219 C  
HETATM   23  C   UNL     1      -7.858  13.511  67.313  1.00  0.00    -0.106 C  
HETATM   24  C   UNL     1      -9.359  13.394  67.013  1.00  0.00    -0.243 C  
HETATM   25  O   UNL     1      -9.530  12.243  69.176  1.00  0.00     0.266 OA 
HETATM   26  H   UNL     1      -9.132  13.388  65.057  1.00  0.00     0.000 HD 
HETATM   27  C   UNL     1     -10.051  14.778  67.046  1.00  0.00    -0.245 C  
HETATM   28  O   UNL     1      -9.537  12.830  65.710  1.00  0.00    -0.207 OA 
BRANCH  23  29
HETATM   29  C   UNL     1      -7.155  12.161  67.289  1.00  0.00    -0.144 C  
HETATM   30  O   UNL     1      -7.111  11.377  66.347  1.00  0.00    -0.101 OA 
BRANCH  29  31
HETATM   31  O   UNL     1      -6.555  11.971  68.505  1.00  0.00    -0.054 OA 
HETATM   32  C   UNL     1      -5.895  13.137  68.994  1.00  0.00    -0.079 C  
ENDBRANCH  29  31
ENDBRANCH  23  29
BRANCH  27  33
HETATM   33  C   UNL     1      -9.516  15.848  66.071  1.00  0.00    -0.389 C  
BRANCH  33  34
HETATM   34  C   UNL     1     -10.343  17.143  66.021  1.00  0.00    -0.317 C  
HETATM   35  C   UNL     1      -9.385  18.151  68.163  1.00  0.00    -0.295 C  
HETATM   36  O   UNL     1      -8.450  18.645  66.022  1.00  0.00    -0.486 OA 
HETATM   37  C   UNL     1      -9.687  18.370  66.683  1.00  0.00    -0.337 C  
HETATM   38  C   UNL     1     -10.596  19.594  66.514  1.00  0.00    -0.591 C  
HETATM   39  H   UNL     1      -8.045  19.402  66.431  1.00  0.00     0.000 HD 
ENDBRANCH  33  34
ENDBRANCH  27  33
ENDBRANCH  21  22
ENDBRANCH   1  21
BRANCH   3  40
HETATM   40  O   UNL     1     -11.674  13.653  69.997  1.00  0.00    -0.284 OA 
HETATM   41  C   UNL     1     -12.495  14.488  70.793  1.00  0.00    -0.351 C  
ENDBRANCH   3  40
TORSDOF 7
ENDMDL
MODEL       72
REMARK 921   NORMALIZED FREE ENERGY PREDICTED BY IDOCK:   -4.20 KCAL/MOL
REMARK 922        TOTAL FREE ENERGY PREDICTED BY IDOCK:   -7.79 KCAL/MOL
REMARK 923 INTER-LIGAND FREE ENERGY PREDICTED BY IDOCK:   -9.00 KCAL/MOL
REMARK 924 INTRA-LIGAND FREE ENERGY PREDICTED BY IDOCK:    1.22 KCAL/MOL
REMARK 927      BINDING AFFINITY PREDICTED BY RF-SCORE:    0.00 PKD
ROOT
HETATM    1  C   UNL     1     -10.981   9.826  67.794  1.00  0.00    -0.180 C  
HETATM    2  O   UNL     1      -5.642  10.962  63.921  1.00  0.00    -0.058 OA 
HETATM    3  C   UNL     1     -10.865   9.637  69.292  1.00  0.00    -0.205 C  
HETATM    4  C   UNL     1      -9.953   8.775  67.173  1.00  0.00    -0.295 C  
HETATM    5  C   UNL     1      -6.165  10.412  62.701  1.00  0.00    -0.142 C  
HETATM    6  C   UNL     1     -10.368   8.441  69.606  1.00  0.00    -0.218 C  
HETATM    7  C   UNL     1      -9.935   7.626  68.417  1.00  0.00    -0.176 C  
HETATM    8  C   UNL     1      -8.665   9.383  66.354  1.00  0.00    -0.149 A  
HETATM    9  C   UNL     1      -8.744   9.434  64.940  1.00  0.00    -0.220 A  
HETATM   10  O   UNL     1      -7.502   9.873  62.850  1.00  0.00    -0.122 OA 
HETATM   11  C   UNL     1      -7.670   9.942  64.202  1.00  0.00    -0.138 A  
HETATM   12  C   UNL     1     -10.931   6.480  68.206  1.00  0.00    -0.362 C  
HETATM   13  C   UNL     1      -6.586  10.533  64.803  1.00  0.00     0.027 A  
HETATM   14  C   UNL     1      -6.411  10.490  66.161  1.00  0.00    -0.119 A  
HETATM   15  C   UNL     1     -10.117   5.195  68.302  1.00  0.00    -0.199 C  
HETATM   16  C   UNL     1      -7.328   9.707  66.883  1.00  0.00    -0.091 A  
HETATM   17  C   UNL     1      -6.552   8.661  67.803  1.00  0.00    -0.062 C  
HETATM   18  C   UNL     1      -7.691   7.855  68.297  1.00  0.00    -0.121 C  
HETATM   19  N   UNL     1      -8.650   6.967  68.854  1.00  0.00    -0.128 NA 
HETATM   20  C   UNL     1      -8.653   5.604  68.334  1.00  0.00    -0.111 C  
ENDROOT
BRANCH   1  21
HETATM   21  O   UNL     1     -10.841  11.184  67.392  1.00  0.00    -0.232 OA 
BRANCH  21  22
HETATM   22  C   UNL     1     -10.024  11.889  68.234  1.00  0.00    -0.202 C  
HETATM   23  C   UNL     1      -9.474  14.227  68.936  1.00  0.00    -0.071 C  
HETATM   24  C   UNL     1     -10.607  13.285  68.505  1.00  0.00    -0.256 C  
HETATM   25  O   UNL     1      -8.946  11.484  68.671  1.00  0.00    -0.170 OA 
HETATM   26  H   UNL     1     -11.580  14.660  67.485  1.00  0.00     0.000 HD 
HETATM   27  C   UNL     1     -11.692  13.165  69.603  1.00  0.00    -0.370 C  
HETATM   28  O   UNL     1     -11.220  13.798  67.317  1.00  0.00    -0.293 OA 
BRANCH  23  29
HETATM   29  C   UNL     1      -8.393  14.359  67.873  1.00  0.00    -0.162 C  
HETATM   30  O   UNL     1      -8.555  14.693  66.704  1.00  0.00    -0.208 OA 
BRANCH  29  31
HETATM   31  O   UNL     1      -7.189  14.057  68.450  1.00  0.00    -0.090 OA 
HETATM   32  C   UNL     1      -6.686  15.100  69.282  1.00  0.00    -0.146 C  
ENDBRANCH  29  31
ENDBRANCH  23  29
BRANCH  27  33
HETATM   33  C   UNL     1     -12.385  14.473  70.043  1.00  0.00    -0.376 C  
BRANCH  33  34
HETATM   34  C   UNL     1     -12.027  14.942  71.463  1.00  0.00    -0.408 C  
HETATM   35  C   UNL     1     -14.409  15.559  72.144  1.00  0.00    -0.598 C  
HETATM   36  O   UNL     1     -13.497  13.402  72.608  1.00  0.00    -0.568 OA 
HETATM   37  C   UNL     1     -13.146  14.785  72.510  1.00  0.00    -0.402 C  
HETATM   38  C   UNL     1     -12.635  15.242  73.882  1.00  0.00    -0.731 C  
HETATM   39  H   UNL     1     -14.187  13.305  73.254  1.00  0.00     0.000 HD 
ENDBRANCH  33  34
ENDBRANCH  27  33
ENDBRANCH  21  22
ENDBRANCH   1  21
BRANCH   3  40
HETATM   40  O   UNL     1     -11.172  10.525  70.290  1.00  0.00    -0.295 OA 
HETATM   41  C   UNL     1     -11.987  10.125  71.377  1.00  0.00    -0.358 C  
ENDBRANCH   3  40
TORSDOF 7
ENDMDL
MODEL       73
REMARK 921   NORMALIZED FREE ENERGY PREDICTED BY IDOCK:   -4.19 KCAL/MOL
REMARK 922        TOTAL FREE ENERGY PREDICTED BY IDOCK:   -7.78 KCAL/MOL
REMARK 923 INTER-LIGAND FREE ENERGY PREDICTED BY IDOCK:   -6.61 KCAL/MOL
REMARK 924 INTRA-LIGAND FREE ENERGY PREDICTED BY IDOCK:   -1.16 KCAL/MOL
REMARK 927      BINDING AFFINITY PREDICTED BY RF-SCORE:    0.00 PKD
ROOT
HETATM    1  C   UNL     1      -8.650   6.840  71.072  1.00  0.00    -0.136 C  
HETATM    2  O   UNL     1      -8.674   3.687  65.167  1.00  0.00    -0.112 OA 
HETATM    3  C   UNL     1      -7.723   6.435  72.198  1.00  0.00    -0.099 C  
HETATM    4  C   UNL     1      -9.399   5.492  70.660  1.00  0.00    -0.195 C  
HETATM    5  C   UNL     1     -10.037   3.962  64.804  1.00  0.00    -0.198 C  
HETATM    6  C   UNL     1      -8.119   5.308  72.788  1.00  0.00    -0.109 C  
HETATM    7  C   UNL     1      -9.303   4.653  72.128  1.00  0.00    -0.136 C  
HETATM    8  C   UNL     1      -9.109   4.905  69.152  1.00  0.00    -0.144 A  
HETATM    9  C   UNL     1     -10.057   5.190  68.137  1.00  0.00    -0.192 A  
HETATM   10  O   UNL     1     -10.751   4.718  65.815  1.00  0.00    -0.305 OA 
HETATM   11  C   UNL     1      -9.852   4.709  66.841  1.00  0.00    -0.213 A  
HETATM   12  C   UNL     1     -10.537   4.835  73.018  1.00  0.00    -0.279 C  
HETATM   13  C   UNL     1      -8.686   4.086  66.468  1.00  0.00    -0.116 A  
HETATM   14  C   UNL     1      -7.737   3.737  67.393  1.00  0.00    -0.079 A  
HETATM   15  C   UNL     1     -11.028   3.430  73.345  1.00  0.00    -0.306 C  
HETATM   16  C   UNL     1      -8.078   3.936  68.742  1.00  0.00    -0.075 A  
HETATM   17  C   UNL     1      -7.871   2.586  69.565  1.00  0.00    -0.050 C  
HETATM   18  C   UNL     1      -8.457   2.982  70.865  1.00  0.00    -0.065 C  
HETATM   19  N   UNL     1      -8.993   3.177  72.166  1.00  0.00    -0.092 NA 
HETATM   20  C   UNL     1     -10.233   2.472  72.471  1.00  0.00    -0.159 C  
ENDROOT
BRANCH   1  21
HETATM   21  O   UNL     1      -7.988   7.555  70.035  1.00  0.00    -0.107 OA 
BRANCH  21  22
HETATM   22  C   UNL     1      -8.118   8.909  70.178  1.00  0.00    -0.122 C  
HETATM   23  C   UNL     1      -8.046  11.040  68.868  1.00  0.00    -0.135 C  
HETATM   24  C   UNL     1      -8.462   9.562  68.830  1.00  0.00    -0.122 C  
HETATM   25  O   UNL     1      -7.935   9.527  71.228  1.00  0.00    -0.296 OA 
HETATM   26  H   UNL     1      -7.969   9.305  66.940  1.00  0.00     0.000 HD 
HETATM   27  C   UNL     1      -9.981   9.408  68.576  1.00  0.00    -0.190 C  
HETATM   28  O   UNL     1      -7.757   8.902  67.773  1.00  0.00    -0.099 OA 
BRANCH  23  29
HETATM   29  C   UNL     1      -6.555  11.217  69.118  1.00  0.00    -0.088 C  
HETATM   30  O   UNL     1      -5.642  10.702  68.484  1.00  0.00    -0.041 OA 
BRANCH  29  31
HETATM   31  O   UNL     1      -6.400  12.075  70.175  1.00  0.00    -0.122 OA 
HETATM   32  C   UNL     1      -5.167  11.896  70.868  1.00  0.00    -0.141 C  
ENDBRANCH  29  31
ENDBRANCH  23  29
BRANCH  27  33
HETATM   33  C   UNL     1     -10.537  10.029  67.276  1.00  0.00    -0.319 C  
BRANCH  33  34
HETATM   34  C   UNL     1     -10.010   9.387  65.982  1.00  0.00    -0.352 C  
HETATM   35  C   UNL     1     -10.660  11.320  64.445  1.00  0.00    -0.410 C  
HETATM   36  O   UNL     1      -8.486  11.179  65.422  1.00  0.00    -0.352 OA 
HETATM   37  C   UNL     1      -9.548  10.378  64.896  1.00  0.00    -0.289 C  
HETATM   38  C   UNL     1      -9.002   9.603  63.690  1.00  0.00    -0.248 C  
HETATM   39  H   UNL     1      -8.201  11.790  64.753  1.00  0.00     0.000 HD 
ENDBRANCH  33  34
ENDBRANCH  27  33
ENDBRANCH  21  22
ENDBRANCH   1  21
BRANCH   3  40
HETATM   40  O   UNL     1      -6.578   7.055  72.624  1.00  0.00    -0.060 OA 
HETATM   41  C   UNL     1      -5.798   6.483  73.659  1.00  0.00    -0.058 C  
ENDBRANCH   3  40
TORSDOF 7
ENDMDL
MODEL       74
REMARK 921   NORMALIZED FREE ENERGY PREDICTED BY IDOCK:   -4.18 KCAL/MOL
REMARK 922        TOTAL FREE ENERGY PREDICTED BY IDOCK:   -7.76 KCAL/MOL
REMARK 923 INTER-LIGAND FREE ENERGY PREDICTED BY IDOCK:   -8.25 KCAL/MOL
REMARK 924 INTRA-LIGAND FREE ENERGY PREDICTED BY IDOCK:    0.49 KCAL/MOL
REMARK 927      BINDING AFFINITY PREDICTED BY RF-SCORE:    0.00 PKD
ROOT
HETATM    1  C   UNL     1      -9.409  12.069  68.347  1.00  0.00    -0.175 C  
HETATM    2  O   UNL     1     -13.076  15.701  72.610  1.00  0.00    -0.403 OA 
HETATM    3  C   UNL     1      -8.099  12.572  67.779  1.00  0.00    -0.164 C  
HETATM    4  C   UNL     1     -10.460  13.227  68.028  1.00  0.00    -0.248 C  
HETATM    5  C   UNL     1     -14.359  15.138  72.292  1.00  0.00    -0.466 C  
HETATM    6  C   UNL     1      -8.287  13.503  66.844  1.00  0.00    -0.012 C  
HETATM    7  C   UNL     1      -9.725  13.910  66.664  1.00  0.00    -0.289 C  
HETATM    8  C   UNL     1     -11.117  14.016  69.312  1.00  0.00    -0.271 A  
HETATM    9  C   UNL     1     -12.403  13.612  69.750  1.00  0.00    -0.285 A  
HETATM   10  O   UNL     1     -14.295  14.132  71.250  1.00  0.00    -0.193 OA 
HETATM   11  C   UNL     1     -13.000  14.257  70.837  1.00  0.00    -0.329 A  
HETATM   12  C   UNL     1     -10.246  13.343  65.340  1.00  0.00    -0.311 C  
HETATM   13  C   UNL     1     -12.328  15.181  71.598  1.00  0.00    -0.347 A  
HETATM   14  C   UNL     1     -11.099  15.657  71.223  1.00  0.00    -0.315 A  
HETATM   15  C   UNL     1     -10.696  14.544  64.518  1.00  0.00    -0.198 C  
HETATM   16  C   UNL     1     -10.630  15.245  69.963  1.00  0.00    -0.288 A  
HETATM   17  C   UNL     1     -10.227  16.514  69.086  1.00  0.00    -0.298 C  
HETATM   18  C   UNL     1      -9.957  15.857  67.787  1.00  0.00    -0.229 C  
HETATM   19  N   UNL     1      -9.676  15.406  66.470  1.00  0.00    -0.256 NA 
HETATM   20  C   UNL     1     -10.652  15.751  65.442  1.00  0.00    -0.421 C  
ENDROOT
BRANCH   1  21
HETATM   21  O   UNL     1      -9.303  11.647  69.702  1.00  0.00     0.767 OA 
BRANCH  21  22
HETATM   22  C   UNL     1      -9.097  10.298  69.807  1.00  0.00    -0.057 C  
HETATM   23  C   UNL     1     -10.125   8.100  69.198  1.00  0.00    -0.204 C  
HETATM   24  C   UNL     1      -9.899   9.546  68.734  1.00  0.00    -0.169 C  
HETATM   25  O   UNL     1      -8.408   9.757  70.673  1.00  0.00    -0.224 OA 
HETATM   26  H   UNL     1     -11.663   9.716  67.874  1.00  0.00     0.000 HD 
HETATM   27  C   UNL     1      -9.115   9.596  67.401  1.00  0.00    -0.144 C  
HETATM   28  O   UNL     1     -11.167  10.181  68.537  1.00  0.00    -0.233 OA 
BRANCH  23  29
HETATM   29  C   UNL     1     -10.894   8.025  70.509  1.00  0.00    -0.241 C  
HETATM   30  O   UNL     1     -11.938   8.609  70.778  1.00  0.00    -0.240 OA 
BRANCH  29  31
HETATM   31  O   UNL     1     -10.227   7.170  71.345  1.00  0.00    -0.193 OA 
HETATM   32  C   UNL     1     -10.878   5.910  71.497  1.00  0.00    -0.266 C  
ENDBRANCH  29  31
ENDBRANCH  23  29
BRANCH  27  33
HETATM   33  C   UNL     1      -9.744   8.867  66.194  1.00  0.00    -0.338 C  
BRANCH  33  34
HETATM   34  C   UNL     1     -10.088   9.776  65.003  1.00  0.00     0.026 C  
HETATM   35  C   UNL     1      -7.675  10.394  64.438  1.00  0.00    -0.042 C  
HETATM   36  O   UNL     1      -8.775   8.560  63.378  1.00  0.00    -0.425 OA 
HETATM   37  C   UNL     1      -9.005   9.867  63.909  1.00  0.00    -0.248 C  
HETATM   38  C   UNL     1      -9.502  10.761  62.766  1.00  0.00    -0.358 C  
HETATM   39  H   UNL     1      -8.108   8.615  62.703  1.00  0.00     0.000 HD 
ENDBRANCH  33  34
ENDBRANCH  27  33
ENDBRANCH  21  22
ENDBRANCH   1  21
BRANCH   3  40
HETATM   40  O   UNL     1      -6.824  12.213  68.128  1.00  0.00    -0.065 OA 
HETATM   41  C   UNL     1      -6.013  11.485  67.223  1.00  0.00    -0.100 C  
ENDBRANCH   3  40
TORSDOF 7
ENDMDL
MODEL       75
REMARK 921   NORMALIZED FREE ENERGY PREDICTED BY IDOCK:   -4.13 KCAL/MOL
REMARK 922        TOTAL FREE ENERGY PREDICTED BY IDOCK:   -7.69 KCAL/MOL
REMARK 923 INTER-LIGAND FREE ENERGY PREDICTED BY IDOCK:   -8.34 KCAL/MOL
REMARK 924 INTRA-LIGAND FREE ENERGY PREDICTED BY IDOCK:    0.65 KCAL/MOL
REMARK 927      BINDING AFFINITY PREDICTED BY RF-SCORE:    0.00 PKD
ROOT
HETATM    1  C   UNL     1     -11.280   8.322  69.858  1.00  0.00    -0.028 C  
HETATM    2  O   UNL     1      -5.392   6.584  67.190  1.00  0.00    -0.011 OA 
HETATM    3  C   UNL     1     -11.380   9.137  71.130  1.00  0.00    -0.322 C  
HETATM    4  C   UNL     1     -10.333   7.094  70.237  1.00  0.00    -0.214 C  
HETATM    5  C   UNL     1      -5.826   5.391  66.519  1.00  0.00    -0.018 C  
HETATM    6  C   UNL     1     -11.091   8.412  72.210  1.00  0.00    -0.438 C  
HETATM    7  C   UNL     1     -10.625   7.013  71.903  1.00  0.00    -0.214 C  
HETATM    8  C   UNL     1      -8.881   7.005  69.471  1.00  0.00    -0.133 A  
HETATM    9  C   UNL     1      -8.774   6.138  68.355  1.00  0.00    -0.115 A  
HETATM   10  O   UNL     1      -7.232   5.103  66.727  1.00  0.00    -0.074 OA 
HETATM   11  C   UNL     1      -7.558   6.028  67.675  1.00  0.00    -0.090 A  
HETATM   12  C   UNL     1     -11.731   6.023  72.282  1.00  0.00    -0.338 C  
HETATM   13  C   UNL     1      -6.488   6.843  67.955  1.00  0.00    -0.050 A  
HETATM   14  C   UNL     1      -6.493   7.680  69.040  1.00  0.00    -0.040 A  
HETATM   15  C   UNL     1     -11.115   5.083  73.312  1.00  0.00    -0.406 C  
HETATM   16  C   UNL     1      -7.591   7.564  69.911  1.00  0.00    -0.093 A  
HETATM   17  C   UNL     1      -7.083   7.337  71.406  1.00  0.00    -0.064 C  
HETATM   18  C   UNL     1      -8.374   7.063  72.078  1.00  0.00    -0.105 C  
HETATM   19  N   UNL     1      -9.505   6.761  72.882  1.00  0.00    -0.138 NA 
HETATM   20  C   UNL     1      -9.625   5.383  73.346  1.00  0.00    -0.145 C  
ENDROOT
BRANCH   1  21
HETATM   21  O   UNL     1     -10.909   9.100  68.726  1.00  0.00    -0.171 OA 
BRANCH  21  22
HETATM   22  C   UNL     1     -10.045  10.109  69.054  1.00  0.00    -0.205 C  
HETATM   23  C   UNL     1      -8.790  12.026  68.049  1.00  0.00    -0.179 C  
HETATM   24  C   UNL     1     -10.101  11.228  68.003  1.00  0.00    -0.177 C  
HETATM   25  O   UNL     1      -9.290  10.100  70.027  1.00  0.00    -0.175 OA 
HETATM   26  H   UNL     1     -10.297  11.356  66.047  1.00  0.00     0.000 HD 
HETATM   27  C   UNL     1     -11.322  12.131  68.301  1.00  0.00    -0.343 C  
HETATM   28  O   UNL     1     -10.263  10.665  66.697  1.00  0.00    -0.216 OA 
BRANCH  23  29
HETATM   29  C   UNL     1      -7.573  11.159  67.760  1.00  0.00    -0.100 C  
HETATM   30  O   UNL     1      -7.422  10.408  66.803  1.00  0.00    -0.103 OA 
BRANCH  29  31
HETATM   31  O   UNL     1      -6.653  11.373  68.752  1.00  0.00    -0.055 OA 
HETATM   32  C   UNL     1      -6.651  12.713  69.238  1.00  0.00    -0.092 C  
ENDBRANCH  29  31
ENDBRANCH  23  29
BRANCH  27  33
HETATM   33  C   UNL     1     -11.540  13.341  67.367  1.00  0.00    -0.396 C  
BRANCH  33  34
HETATM   34  C   UNL     1     -12.174  12.998  66.010  1.00  0.00    -0.463 C  
HETATM   35  C   UNL     1     -11.295  15.057  64.781  1.00  0.00    -0.409 C  
HETATM   36  O   UNL     1     -10.102  12.989  64.766  1.00  0.00    -0.474 OA 
HETATM   37  C   UNL     1     -11.422  13.536  64.777  1.00  0.00    -0.346 C  
HETATM   38  C   UNL     1     -12.136  13.077  63.498  1.00  0.00    -0.617 C  
HETATM   39  H   UNL     1      -9.638  13.320  64.006  1.00  0.00     0.000 HD 
ENDBRANCH  33  34
ENDBRANCH  27  33
ENDBRANCH  21  22
ENDBRANCH   1  21
BRANCH   3  40
HETATM   40  O   UNL     1     -11.688  10.465  71.270  1.00  0.00    -0.338 OA 
HETATM   41  C   UNL     1     -13.025  10.867  71.506  1.00  0.00    -0.451 C  
ENDBRANCH   3  40
TORSDOF 7
ENDMDL
MODEL       76
REMARK 921   NORMALIZED FREE ENERGY PREDICTED BY IDOCK:   -4.11 KCAL/MOL
REMARK 922        TOTAL FREE ENERGY PREDICTED BY IDOCK:   -7.66 KCAL/MOL
REMARK 923 INTER-LIGAND FREE ENERGY PREDICTED BY IDOCK:   -7.03 KCAL/MOL
REMARK 924 INTRA-LIGAND FREE ENERGY PREDICTED BY IDOCK:   -0.63 KCAL/MOL
REMARK 927      BINDING AFFINITY PREDICTED BY RF-SCORE:    0.00 PKD
ROOT
HETATM    1  C   UNL     1      -8.227   6.455  69.744  1.00  0.00    -0.126 C  
HETATM    2  O   UNL     1     -13.501   9.878  72.039  1.00  0.00    -0.413 OA 
HETATM    3  C   UNL     1      -7.714   5.208  70.432  1.00  0.00    -0.074 C  
HETATM    4  C   UNL     1      -8.280   7.559  70.895  1.00  0.00    -0.112 C  
HETATM    5  C   UNL     1     -13.142  11.166  71.514  1.00  0.00    -0.385 C  
HETATM    6  C   UNL     1      -7.056   5.493  71.554  1.00  0.00    -0.072 C  
HETATM    7  C   UNL     1      -7.082   6.951  71.927  1.00  0.00    -0.074 C  
HETATM    8  C   UNL     1      -9.762   8.135  71.312  1.00  0.00    -0.207 A  
HETATM    9  C   UNL     1     -10.173   9.371  70.753  1.00  0.00    -0.368 A  
HETATM   10  O   UNL     1     -11.880  11.155  70.800  1.00  0.00    -0.315 OA 
HETATM   11  C   UNL     1     -11.424   9.900  71.082  1.00  0.00    -0.383 A  
HETATM   12  C   UNL     1      -5.697   7.558  71.680  1.00  0.00    -0.036 C  
HETATM   13  C   UNL     1     -12.344   9.197  71.820  1.00  0.00    -0.372 A  
HETATM   14  C   UNL     1     -12.015   8.014  72.430  1.00  0.00    -0.405 A  
HETATM   15  C   UNL     1      -5.233   8.104  73.025  1.00  0.00    -0.041 C  
HETATM   16  C   UNL     1     -10.664   7.634  72.364  1.00  0.00    -0.333 A  
HETATM   17  C   UNL     1     -10.105   7.335  73.827  1.00  0.00    -0.375 C  
HETATM   18  C   UNL     1      -8.668   7.149  73.523  1.00  0.00    -0.145 C  
HETATM   19  N   UNL     1      -7.264   6.959  73.425  1.00  0.00    -0.075 NA 
HETATM   20  C   UNL     1      -6.424   8.021  73.967  1.00  0.00    -0.110 C  
ENDROOT
BRANCH   1  21
HETATM   21  O   UNL     1      -9.423   6.232  69.006  1.00  0.00    -0.129 OA 
BRANCH  21  22
HETATM   22  C   UNL     1      -9.486   7.006  67.880  1.00  0.00    -0.124 C  
HETATM   23  C   UNL     1      -8.397   7.324  65.650  1.00  0.00    -0.142 C  
HETATM   24  C   UNL     1      -8.831   6.284  66.692  1.00  0.00    -0.132 C  
HETATM   25  O   UNL     1      -9.954   8.145  67.834  1.00  0.00    -0.165 OA 
HETATM   26  H   UNL     1      -7.278   5.108  66.403  1.00  0.00     0.000 HD 
HETATM   27  C   UNL     1      -9.849   5.279  66.099  1.00  0.00    -0.186 C  
HETATM   28  O   UNL     1      -7.683   5.555  67.137  1.00  0.00    -0.098 OA 
BRANCH  23  29
HETATM   29  C   UNL     1      -7.397   8.325  66.210  1.00  0.00    -0.078 C  
HETATM   30  O   UNL     1      -6.470   8.081  66.974  1.00  0.00    -0.054 OA 
BRANCH  29  31
HETATM   31  O   UNL     1      -7.698   9.559  65.698  1.00  0.00    -0.098 OA 
HETATM   32  C   UNL     1      -7.692  10.592  66.681  1.00  0.00    -0.123 C  
ENDBRANCH  29  31
ENDBRANCH  23  29
BRANCH  27  33
HETATM   33  C   UNL     1      -9.390   4.467  64.869  1.00  0.00    -0.163 C  
BRANCH  33  34
HETATM   34  C   UNL     1     -10.525   3.770  64.101  1.00  0.00    -0.267 C  
HETATM   35  C   UNL     1      -9.012   2.237  62.729  1.00  0.00    -0.084 C  
HETATM   36  O   UNL     1      -9.956   1.528  64.804  1.00  0.00    -0.333 OA 
HETATM   37  C   UNL     1     -10.226   2.327  63.650  1.00  0.00    -0.143 C  
HETATM   38  C   UNL     1     -11.457   1.742  62.946  1.00  0.00    -0.203 C  
HETATM   39  H   UNL     1      -9.772   0.638  64.526  1.00  0.00     0.000 HD 
ENDBRANCH  33  34
ENDBRANCH  27  33
ENDBRANCH  21  22
ENDBRANCH   1  21
BRANCH   3  40
HETATM   40  O   UNL     1      -7.874   3.899  70.056  1.00  0.00    -0.051 OA 
HETATM   41  C   UNL     1      -7.516   2.853  70.940  1.00  0.00    -0.036 C  
ENDBRANCH   3  40
TORSDOF 7
ENDMDL
MODEL       77
REMARK 921   NORMALIZED FREE ENERGY PREDICTED BY IDOCK:   -4.09 KCAL/MOL
REMARK 922        TOTAL FREE ENERGY PREDICTED BY IDOCK:   -7.62 KCAL/MOL
REMARK 923 INTER-LIGAND FREE ENERGY PREDICTED BY IDOCK:   -6.70 KCAL/MOL
REMARK 924 INTRA-LIGAND FREE ENERGY PREDICTED BY IDOCK:   -0.93 KCAL/MOL
REMARK 927      BINDING AFFINITY PREDICTED BY RF-SCORE:    0.00 PKD
ROOT
HETATM    1  C   UNL     1      -8.594   5.926  70.004  1.00  0.00    -0.130 C  
HETATM    2  O   UNL     1      -9.138   4.867  63.418  1.00  0.00    -0.086 OA 
HETATM    3  C   UNL     1      -7.290   6.345  70.648  1.00  0.00    -0.079 C  
HETATM    4  C   UNL     1      -8.229   4.616  69.167  1.00  0.00    -0.081 C  
HETATM    5  C   UNL     1     -10.224   3.927  63.460  1.00  0.00    -0.180 C  
HETATM    6  C   UNL     1      -6.425   5.334  70.727  1.00  0.00    -0.031 C  
HETATM    7  C   UNL     1      -6.897   4.070  70.060  1.00  0.00    -0.034 C  
HETATM    8  C   UNL     1      -8.366   4.711  67.532  1.00  0.00    -0.104 A  
HETATM    9  C   UNL     1      -9.544   4.196  66.936  1.00  0.00    -0.232 A  
HETATM   10  O   UNL     1     -10.664   3.629  64.809  1.00  0.00    -0.063 OA 
HETATM   11  C   UNL     1      -9.702   4.254  65.548  1.00  0.00    -0.203 A  
HETATM   12  C   UNL     1      -7.262   3.042  71.136  1.00  0.00    -0.033 C  
HETATM   13  C   UNL     1      -8.819   4.925  64.739  1.00  0.00    -0.147 A  
HETATM   14  C   UNL     1      -7.636   5.417  65.227  1.00  0.00    -0.079 A  
HETATM   15  C   UNL     1      -6.375   1.831  70.876  1.00  0.00    -0.023 C  
HETATM   16  C   UNL     1      -7.326   5.086  66.558  1.00  0.00    -0.086 A  
HETATM   17  C   UNL     1      -5.876   4.428  66.636  1.00  0.00    -0.026 C  
HETATM   18  C   UNL     1      -5.858   4.008  68.055  1.00  0.00    -0.026 C  
HETATM   19  N   UNL     1      -5.670   3.519  69.376  1.00  0.00    -0.017 NA 
HETATM   20  C   UNL     1      -5.686   2.070  69.541  1.00  0.00    -0.022 C  
ENDROOT
BRANCH   1  21
HETATM   21  O   UNL     1      -9.234   6.984  69.302  1.00  0.00    -0.141 OA 
BRANCH  21  22
HETATM   22  C   UNL     1     -10.560   7.090  69.626  1.00  0.00    -0.234 C  
HETATM   23  C   UNL     1     -12.132   8.387  71.077  1.00  0.00    -0.218 C  
HETATM   24  C   UNL     1     -10.861   8.474  70.221  1.00  0.00    -0.238 C  
HETATM   25  O   UNL     1     -11.387   6.184  69.507  1.00  0.00    -0.418 OA 
HETATM   26  H   UNL     1      -9.954   9.757  71.409  1.00  0.00     0.000 HD 
HETATM   27  C   UNL     1     -11.028   9.487  69.062  1.00  0.00    -0.127 C  
HETATM   28  O   UNL     1      -9.768   8.901  71.041  1.00  0.00    -0.206 OA 
BRANCH  23  29
HETATM   29  C   UNL     1     -11.992   7.395  72.223  1.00  0.00    -0.239 C  
HETATM   30  O   UNL     1     -12.565   6.316  72.329  1.00  0.00    -0.209 OA 
BRANCH  29  31
HETATM   31  O   UNL     1     -11.093   7.905  73.121  1.00  0.00    -0.382 OA 
HETATM   32  C   UNL     1     -10.258   6.910  73.709  1.00  0.00    -0.363 C  
ENDBRANCH  29  31
ENDBRANCH  23  29
BRANCH  27  33
HETATM   33  C   UNL     1     -11.366  10.942  69.452  1.00  0.00    -0.347 C  
BRANCH  33  34
HETATM   34  C   UNL     1     -11.752  11.849  68.272  1.00  0.00    -0.385 C  
HETATM   35  C   UNL     1     -12.161  13.944  69.674  1.00  0.00    -0.374 C  
HETATM   36  O   UNL     1     -10.040  13.509  68.668  1.00  0.00    -0.284 OA 
HETATM   37  C   UNL     1     -11.446  13.347  68.465  1.00  0.00    -0.310 C  
HETATM   38  C   UNL     1     -11.833  14.119  67.198  1.00  0.00    -0.454 C  
HETATM   39  H   UNL     1      -9.851  14.432  68.787  1.00  0.00     0.000 HD 
ENDBRANCH  33  34
ENDBRANCH  27  33
ENDBRANCH  21  22
ENDBRANCH   1  21
BRANCH   3  40
HETATM   40  O   UNL     1      -6.923   7.586  71.101  1.00  0.00    -0.053 OA 
HETATM   41  C   UNL     1      -6.347   8.529  70.215  1.00  0.00    -0.035 C  
ENDBRANCH   3  40
TORSDOF 7
ENDMDL
MODEL       78
REMARK 921   NORMALIZED FREE ENERGY PREDICTED BY IDOCK:   -4.07 KCAL/MOL
REMARK 922        TOTAL FREE ENERGY PREDICTED BY IDOCK:   -7.60 KCAL/MOL
REMARK 923 INTER-LIGAND FREE ENERGY PREDICTED BY IDOCK:   -8.56 KCAL/MOL
REMARK 924 INTRA-LIGAND FREE ENERGY PREDICTED BY IDOCK:    0.96 KCAL/MOL
REMARK 927      BINDING AFFINITY PREDICTED BY RF-SCORE:    0.00 PKD
ROOT
HETATM    1  C   UNL     1      -7.438  14.412  67.358  1.00  0.00    -0.159 C  
HETATM    2  O   UNL     1     -13.152  12.098  64.752  1.00  0.00    -0.602 OA 
HETATM    3  C   UNL     1      -7.364  14.988  68.756  1.00  0.00    -0.125 C  
HETATM    4  C   UNL     1      -8.614  15.223  66.647  1.00  0.00    -0.305 C  
HETATM    5  C   UNL     1     -12.841  12.323  63.367  1.00  0.00    -0.222 C  
HETATM    6  C   UNL     1      -7.901  16.206  68.822  1.00  0.00    -0.203 C  
HETATM    7  C   UNL     1      -8.549  16.660  67.542  1.00  0.00    -0.189 C  
HETATM    8  C   UNL     1      -9.953  14.374  66.215  1.00  0.00    -0.320 A  
HETATM    9  C   UNL     1     -10.063  13.952  64.867  1.00  0.00    -0.294 A  
HETATM   10  O   UNL     1     -11.539  12.930  63.171  1.00  0.00    -0.422 OA 
HETATM   11  C   UNL     1     -11.186  13.229  64.454  1.00  0.00    -0.381 A  
HETATM   12  C   UNL     1      -7.679  17.743  66.896  1.00  0.00    -0.242 C  
HETATM   13  C   UNL     1     -12.133  12.780  65.342  1.00  0.00    -0.462 A  
HETATM   14  C   UNL     1     -12.125  13.176  66.654  1.00  0.00    -0.409 A  
HETATM   15  C   UNL     1      -8.565  18.978  66.779  1.00  0.00    -0.313 C  
HETATM   16  C   UNL     1     -11.179  14.155  67.004  1.00  0.00    -0.328 A  
HETATM   17  C   UNL     1     -11.899  15.379  67.729  1.00  0.00    -0.045 C  
HETATM   18  C   UNL     1     -10.766  16.327  67.823  1.00  0.00    -0.325 C  
HETATM   19  N   UNL     1      -9.809  17.365  67.982  1.00  0.00    -0.276 NA 
HETATM   20  C   UNL     1      -9.977  18.540  67.133  1.00  0.00    -0.336 C  
ENDROOT
BRANCH   1  21
HETATM   21  O   UNL     1      -7.530  12.993  67.345  1.00  0.00    -0.155 OA 
BRANCH  21  22
HETATM   22  C   UNL     1      -8.336  12.519  68.344  1.00  0.00    -0.132 C  
HETATM   23  C   UNL     1      -9.262  10.391  69.281  1.00  0.00    -0.198 C  
HETATM   24  C   UNL     1      -8.034  11.038  68.623  1.00  0.00    -0.143 C  
HETATM   25  O   UNL     1      -9.217  13.171  68.906  1.00  0.00     0.080 OA 
HETATM   26  H   UNL     1      -7.558   9.444  67.569  1.00  0.00     0.000 HD 
HETATM   27  C   UNL     1      -6.790  10.949  69.538  1.00  0.00    -0.125 C  
HETATM   28  O   UNL     1      -7.745  10.359  67.397  1.00  0.00    -0.094 OA 
BRANCH  23  29
HETATM   29  C   UNL     1     -10.500  10.469  68.400  1.00  0.00    -0.186 C  
HETATM   30  O   UNL     1     -10.613  10.037  67.258  1.00  0.00    -0.244 OA 
BRANCH  29  31
HETATM   31  O   UNL     1     -11.490  11.094  69.111  1.00  0.00    -0.242 OA 
HETATM   32  C   UNL     1     -11.857  10.395  70.298  1.00  0.00    -0.312 C  
ENDBRANCH  29  31
ENDBRANCH  23  29
BRANCH  27  33
HETATM   33  C   UNL     1      -6.336   9.535  69.962  1.00  0.00    -0.054 C  
BRANCH  33  34
HETATM   34  C   UNL     1      -5.957   9.401  71.446  1.00  0.00    -0.069 C  
HETATM   35  C   UNL     1      -8.201   8.446  72.204  1.00  0.00    -0.207 C  
HETATM   36  O   UNL     1      -6.383   7.026  71.593  1.00  0.00    -0.038 OA 
HETATM   37  C   UNL     1      -6.685   8.279  72.212  1.00  0.00    -0.082 C  
HETATM   38  C   UNL     1      -6.174   8.228  73.657  1.00  0.00    -0.122 C  
HETATM   39  H   UNL     1      -6.831   6.334  72.065  1.00  0.00     0.000 HD 
ENDBRANCH  33  34
ENDBRANCH  27  33
ENDBRANCH  21  22
ENDBRANCH   1  21
BRANCH   3  40
HETATM   40  O   UNL     1      -6.860  14.409  69.891  1.00  0.00    -0.134 OA 
HETATM   41  C   UNL     1      -5.562  14.742  70.348  1.00  0.00    -0.139 C  
ENDBRANCH   3  40
TORSDOF 7
ENDMDL
MODEL       79
REMARK 921   NORMALIZED FREE ENERGY PREDICTED BY IDOCK:   -4.04 KCAL/MOL
REMARK 922        TOTAL FREE ENERGY PREDICTED BY IDOCK:   -7.56 KCAL/MOL
REMARK 923 INTER-LIGAND FREE ENERGY PREDICTED BY IDOCK:   -5.91 KCAL/MOL
REMARK 924 INTRA-LIGAND FREE ENERGY PREDICTED BY IDOCK:   -1.64 KCAL/MOL
REMARK 927      BINDING AFFINITY PREDICTED BY RF-SCORE:    0.00 PKD
ROOT
HETATM    1  C   UNL     1      -9.690   8.016  70.970  1.00  0.00    -0.160 C  
HETATM    2  O   UNL     1     -10.208   4.069  65.590  1.00  0.00    -0.166 OA 
HETATM    3  C   UNL     1     -10.432   9.331  71.080  1.00  0.00    -0.331 C  
HETATM    4  C   UNL     1      -8.907   8.107  69.583  1.00  0.00    -0.143 C  
HETATM    5  C   UNL     1      -8.927   3.426  65.694  1.00  0.00    -0.142 C  
HETATM    6  C   UNL     1      -9.884  10.277  70.318  1.00  0.00     0.122 C  
HETATM    7  C   UNL     1      -8.752   9.789  69.454  1.00  0.00    -0.174 C  
HETATM    8  C   UNL     1      -9.348   7.050  68.404  1.00  0.00    -0.130 A  
HETATM    9  C   UNL     1      -8.562   5.883  68.234  1.00  0.00    -0.113 A  
HETATM   10  O   UNL     1      -8.143   3.904  66.817  1.00  0.00    -0.095 OA 
HETATM   11  C   UNL     1      -8.899   4.958  67.242  1.00  0.00    -0.103 A  
HETATM   12  C   UNL     1      -7.429  10.326  70.011  1.00  0.00    -0.143 C  
HETATM   13  C   UNL     1     -10.056   5.061  66.509  1.00  0.00    -0.248 A  
HETATM   14  C   UNL     1     -10.850   6.175  66.581  1.00  0.00    -0.279 A  
HETATM   15  C   UNL     1      -6.801  11.140  68.887  1.00  0.00    -0.086 C  
HETATM   16  C   UNL     1     -10.351   7.247  67.343  1.00  0.00    -0.330 A  
HETATM   17  C   UNL     1     -10.354   8.584  66.475  1.00  0.00    -0.215 C  
HETATM   18  C   UNL     1      -9.633   9.492  67.396  1.00  0.00    -0.141 C  
HETATM   19  N   UNL     1      -8.949  10.494  68.135  1.00  0.00    -0.134 NA 
HETATM   20  C   UNL     1      -7.632  10.881  67.640  1.00  0.00    -0.096 C  
ENDROOT
BRANCH   1  21
HETATM   21  O   UNL     1     -10.531   6.885  71.166  1.00  0.00    -0.211 OA 
BRANCH  21  22
HETATM   22  C   UNL     1     -10.342   6.308  72.392  1.00  0.00    -0.191 C  
HETATM   23  C   UNL     1      -9.683   4.147  73.467  1.00  0.00    -0.146 C  
HETATM   24  C   UNL     1      -9.427   5.079  72.274  1.00  0.00    -0.139 C  
HETATM   25  O   UNL     1     -10.873   6.687  73.437  1.00  0.00    -0.279 OA 
HETATM   26  H   UNL     1      -9.142   3.616  70.986  1.00  0.00     0.000 HD 
HETATM   27  C   UNL     1      -7.956   5.557  72.235  1.00  0.00    -0.107 C  
HETATM   28  O   UNL     1      -9.707   4.376  71.059  1.00  0.00    -0.165 OA 
BRANCH  23  29
HETATM   29  C   UNL     1     -11.125   3.664  73.528  1.00  0.00    -0.225 C  
HETATM   30  O   UNL     1     -12.131   4.355  73.416  1.00  0.00    -0.050 OA 
BRANCH  29  31
HETATM   31  O   UNL     1     -11.113   2.308  73.714  1.00  0.00    -0.174 OA 
HETATM   32  C   UNL     1     -10.493   1.599  72.643  1.00  0.00    -0.153 C  
ENDBRANCH  29  31
ENDBRANCH  23  29
BRANCH  27  33
HETATM   33  C   UNL     1      -6.870   4.463  72.147  1.00  0.00    -0.050 C  
BRANCH  33  34
HETATM   34  C   UNL     1      -6.098   4.430  70.818  1.00  0.00    -0.018 C  
HETATM   35  C   UNL     1      -5.766   1.899  70.768  1.00  0.00    -0.016 C  
HETATM   36  O   UNL     1      -7.624   2.936  69.686  1.00  0.00    -0.044 OA 
HETATM   37  C   UNL     1      -6.244   3.130  70.004  1.00  0.00    -0.024 C  
HETATM   38  C   UNL     1      -5.468   3.258  68.687  1.00  0.00    -0.013 C  
HETATM   39  H   UNL     1      -7.714   2.134  69.183  1.00  0.00     0.000 HD 
ENDBRANCH  33  34
ENDBRANCH  27  33
ENDBRANCH  21  22
ENDBRANCH   1  21
BRANCH   3  40
HETATM   40  O   UNL     1     -11.554   9.619  71.813  1.00  0.00    -0.378 OA 
HETATM   41  C   UNL     1     -12.519  10.528  71.315  1.00  0.00    -0.419 C  
ENDBRANCH   3  40
TORSDOF 7
ENDMDL
MODEL       80
REMARK 921   NORMALIZED FREE ENERGY PREDICTED BY IDOCK:   -4.03 KCAL/MOL
REMARK 922        TOTAL FREE ENERGY PREDICTED BY IDOCK:   -7.54 KCAL/MOL
REMARK 923 INTER-LIGAND FREE ENERGY PREDICTED BY IDOCK:   -7.14 KCAL/MOL
REMARK 924 INTRA-LIGAND FREE ENERGY PREDICTED BY IDOCK:   -0.40 KCAL/MOL
REMARK 927      BINDING AFFINITY PREDICTED BY RF-SCORE:    0.00 PKD
ROOT
HETATM    1  C   UNL     1      -8.800   8.489  68.234  1.00  0.00    -0.142 C  
HETATM    2  O   UNL     1     -14.201   7.832  72.133  1.00  0.00    -0.289 OA 
HETATM    3  C   UNL     1      -7.870   7.330  67.943  1.00  0.00    -0.118 C  
HETATM    4  C   UNL     1      -8.898   8.540  69.826  1.00  0.00    -0.137 C  
HETATM    5  C   UNL     1     -14.282   9.193  72.586  1.00  0.00    -0.119 C  
HETATM    6  C   UNL     1      -7.096   7.040  68.988  1.00  0.00    -0.084 C  
HETATM    7  C   UNL     1      -7.408   7.838  70.225  1.00  0.00    -0.067 C  
HETATM    8  C   UNL     1     -10.364   8.223  70.497  1.00  0.00    -0.217 A  
HETATM    9  C   UNL     1     -11.169   9.325  70.879  1.00  0.00    -0.372 A  
HETATM   10  O   UNL     1     -13.222  10.030  72.059  1.00  0.00    -0.433 OA 
HETATM   11  C   UNL     1     -12.423   9.102  71.456  1.00  0.00    -0.346 A  
HETATM   12  C   UNL     1      -6.292   8.862  70.456  1.00  0.00    -0.044 C  
HETATM   13  C   UNL     1     -12.977   7.848  71.538  1.00  0.00    -0.311 A  
HETATM   14  C   UNL     1     -12.253   6.726  71.229  1.00  0.00    -0.415 A  
HETATM   15  C   UNL     1      -5.724   8.556  71.836  1.00  0.00    -0.047 C  
HETATM   16  C   UNL     1     -10.890   6.923  70.949  1.00  0.00    -0.277 A  
HETATM   17  C   UNL     1      -9.999   5.970  71.866  1.00  0.00    -0.195 C  
HETATM   18  C   UNL     1      -8.649   6.480  71.536  1.00  0.00    -0.129 C  
HETATM   19  N   UNL     1      -7.289   6.849  71.358  1.00  0.00    -0.080 NA 
HETATM   20  C   UNL     1      -6.648   7.533  72.476  1.00  0.00    -0.059 C  
ENDROOT
BRANCH   1  21
HETATM   21  O   UNL     1     -10.025   8.414  67.513  1.00  0.00    -0.171 OA 
BRANCH  21  22
HETATM   22  C   UNL     1     -10.463   9.647  67.112  1.00  0.00    -0.249 C  
HETATM   23  C   UNL     1      -9.636  11.829  66.209  1.00  0.00    -0.242 C  
HETATM   24  C   UNL     1      -9.435  10.307  66.180  1.00  0.00    -0.181 C  
HETATM   25  O   UNL     1     -11.510  10.178  67.488  1.00  0.00    -0.249 OA 
HETATM   26  H   UNL     1      -7.473  10.406  66.043  1.00  0.00     0.000 HD 
HETATM   27  C   UNL     1      -9.623   9.739  64.752  1.00  0.00    -0.284 C  
HETATM   28  O   UNL     1      -8.108   9.998  66.619  1.00  0.00    -0.116 OA 
BRANCH  23  29
HETATM   29  C   UNL     1      -9.458  12.411  67.604  1.00  0.00    -0.190 C  
HETATM   30  O   UNL     1      -8.670  12.027  68.460  1.00  0.00    -0.163 OA 
BRANCH  29  31
HETATM   31  O   UNL     1     -10.325  13.462  67.740  1.00  0.00    -0.233 OA 
HETATM   32  C   UNL     1     -11.007  13.790  66.531  1.00  0.00    -0.299 C  
ENDBRANCH  29  31
ENDBRANCH  23  29
BRANCH  27  33
HETATM   33  C   UNL     1      -8.697  10.300  63.652  1.00  0.00    -0.211 C  
BRANCH  33  34
HETATM   34  C   UNL     1      -8.048   9.234  62.754  1.00  0.00    -0.152 C  
HETATM   35  C   UNL     1      -5.662   9.607  63.587  1.00  0.00    -0.094 C  
HETATM   36  O   UNL     1      -7.080   7.950  64.560  1.00  0.00    -0.068 OA 
HETATM   37  C   UNL     1      -6.767   8.589  63.319  1.00  0.00    -0.089 C  
HETATM   38  C   UNL     1      -6.260   7.515  62.349  1.00  0.00    -0.067 C  
HETATM   39  H   UNL     1      -6.290   7.553  64.908  1.00  0.00     0.000 HD 
ENDBRANCH  33  34
ENDBRANCH  27  33
ENDBRANCH  21  22
ENDBRANCH   1  21
BRANCH   3  40
HETATM   40  O   UNL     1      -7.772   6.582  66.800  1.00  0.00    -0.096 OA 
HETATM   41  C   UNL     1      -8.027   5.189  66.833  1.00  0.00    -0.104 C  
ENDBRANCH   3  40
TORSDOF 7
ENDMDL
MODEL       81
REMARK 921   NORMALIZED FREE ENERGY PREDICTED BY IDOCK:   -3.92 KCAL/MOL
REMARK 922        TOTAL FREE ENERGY PREDICTED BY IDOCK:   -7.39 KCAL/MOL
REMARK 923 INTER-LIGAND FREE ENERGY PREDICTED BY IDOCK:   -6.78 KCAL/MOL
REMARK 924 INTRA-LIGAND FREE ENERGY PREDICTED BY IDOCK:   -0.61 KCAL/MOL
REMARK 927      BINDING AFFINITY PREDICTED BY RF-SCORE:    0.00 PKD
ROOT
HETATM    1  C   UNL     1     -10.343   7.430  71.101  1.00  0.00    -0.201 C  
HETATM    2  O   UNL     1      -9.786   3.746  65.540  1.00  0.00    -0.172 OA 
HETATM    3  C   UNL     1     -11.132   8.721  71.137  1.00  0.00    -0.276 C  
HETATM    4  C   UNL     1      -9.331   7.607  69.880  1.00  0.00    -0.150 C  
HETATM    5  C   UNL     1      -8.525   3.127  65.841  1.00  0.00    -0.109 C  
HETATM    6  C   UNL     1     -10.487   9.715  70.528  1.00  0.00    -0.367 C  
HETATM    7  C   UNL     1      -9.206   9.297  69.857  1.00  0.00    -0.195 C  
HETATM    8  C   UNL     1      -9.525   6.601  68.594  1.00  0.00    -0.128 A  
HETATM    9  C   UNL     1      -8.687   5.461  68.513  1.00  0.00    -0.094 A  
HETATM   10  O   UNL     1      -7.966   3.566  67.104  1.00  0.00    -0.082 OA 
HETATM   11  C   UNL     1      -8.816   4.580  67.436  1.00  0.00    -0.106 A  
HETATM   12  C   UNL     1      -8.019   9.833  70.663  1.00  0.00     0.049 C  
HETATM   13  C   UNL     1      -9.828   4.694  66.516  1.00  0.00    -0.223 A  
HETATM   14  C   UNL     1     -10.656   5.786  66.497  1.00  0.00    -0.294 A  
HETATM   15  C   UNL     1      -7.228  10.716  69.706  1.00  0.00    -0.135 C  
HETATM   16  C   UNL     1     -10.332   6.829  67.382  1.00  0.00    -0.286 A  
HETATM   17  C   UNL     1     -10.222   8.208  66.589  1.00  0.00    -0.329 C  
HETATM   18  C   UNL     1      -9.703   9.084  67.664  1.00  0.00    -0.156 C  
HETATM   19  N   UNL     1      -9.190  10.062  68.557  1.00  0.00    -0.137 NA 
HETATM   20  C   UNL     1      -7.818  10.502  68.321  1.00  0.00    -0.111 C  
ENDROOT
BRANCH   1  21
HETATM   21  O   UNL     1     -11.170   6.272  71.092  1.00  0.00    -0.284 OA 
BRANCH  21  22
HETATM   22  C   UNL     1     -11.418   5.806  72.355  1.00  0.00    -0.288 C  
HETATM   23  C   UNL     1     -10.320   4.614  74.261  1.00  0.00    -0.311 C  
HETATM   24  C   UNL     1     -10.104   5.632  73.133  1.00  0.00    -0.181 C  
HETATM   25  O   UNL     1     -12.533   5.516  72.792  1.00  0.00    -0.008 OA 
HETATM   26  H   UNL     1      -8.266   5.046  72.737  1.00  0.00     0.000 HD 
HETATM   27  C   UNL     1      -9.670   7.009  73.689  1.00  0.00    -0.283 C  
HETATM   28  O   UNL     1      -9.078   5.154  72.257  1.00  0.00    -0.131 OA 
BRANCH  23  29
HETATM   29  C   UNL     1     -10.750   3.251  73.738  1.00  0.00    -0.212 C  
HETATM   30  O   UNL     1     -11.899   2.832  73.648  1.00  0.00    -0.099 OA 
BRANCH  29  31
HETATM   31  O   UNL     1      -9.626   2.565  73.363  1.00  0.00    -0.089 OA 
HETATM   32  C   UNL     1      -8.788   2.214  74.462  1.00  0.00    -0.069 C  
ENDBRANCH  29  31
ENDBRANCH  23  29
BRANCH  27  33
HETATM   33  C   UNL     1      -8.376   7.044  74.532  1.00  0.00    -0.202 C  
BRANCH  33  34
HETATM   34  C   UNL     1      -7.286   7.985  73.995  1.00  0.00    -0.190 C  
HETATM   35  C   UNL     1      -5.431   6.230  73.934  1.00  0.00    -0.045 C  
HETATM   36  O   UNL     1      -6.787   6.681  72.021  1.00  0.00    -0.062 OA 
HETATM   37  C   UNL     1      -6.184   7.306  73.157  1.00  0.00    -0.056 C  
HETATM   38  C   UNL     1      -5.199   8.366  72.648  1.00  0.00    -0.041 C  
HETATM   39  H   UNL     1      -6.108   6.263  71.505  1.00  0.00     0.000 HD 
ENDBRANCH  33  34
ENDBRANCH  27  33
ENDBRANCH  21  22
ENDBRANCH   1  21
BRANCH   3  40
HETATM   40  O   UNL     1     -12.373   8.947  71.671  1.00  0.00    -0.307 OA 
HETATM   41  C   UNL     1     -12.817  10.270  71.913  1.00  0.00    -0.426 C  
ENDBRANCH   3  40
TORSDOF 7
ENDMDL
MODEL       82
REMARK 921   NORMALIZED FREE ENERGY PREDICTED BY IDOCK:   -3.92 KCAL/MOL
REMARK 922        TOTAL FREE ENERGY PREDICTED BY IDOCK:   -7.39 KCAL/MOL
REMARK 923 INTER-LIGAND FREE ENERGY PREDICTED BY IDOCK:   -6.54 KCAL/MOL
REMARK 924 INTRA-LIGAND FREE ENERGY PREDICTED BY IDOCK:   -0.84 KCAL/MOL
REMARK 927      BINDING AFFINITY PREDICTED BY RF-SCORE:    0.00 PKD
ROOT
HETATM    1  C   UNL     1      -7.974   9.390  70.109  1.00  0.00    -0.150 C  
HETATM    2  O   UNL     1      -9.163   4.554  65.637  1.00  0.00    -0.134 OA 
HETATM    3  C   UNL     1      -6.725   9.407  70.965  1.00  0.00    -0.076 C  
HETATM    4  C   UNL     1      -8.605   7.943  70.344  1.00  0.00    -0.132 C  
HETATM    5  C   UNL     1     -10.598   4.629  65.645  1.00  0.00    -0.203 C  
HETATM    6  C   UNL     1      -6.777   8.501  71.941  1.00  0.00    -0.085 C  
HETATM    7  C   UNL     1      -7.990   7.611  71.887  1.00  0.00    -0.096 C  
HETATM    8  C   UNL     1      -8.658   6.931  69.049  1.00  0.00    -0.128 A  
HETATM    9  C   UNL     1      -9.879   6.834  68.336  1.00  0.00    -0.136 A  
HETATM   10  O   UNL     1     -11.108   5.623  66.569  1.00  0.00    -0.194 OA 
HETATM   11  C   UNL     1      -9.971   5.984  67.230  1.00  0.00    -0.150 A  
HETATM   12  C   UNL     1      -8.945   7.995  73.022  1.00  0.00    -0.313 C  
HETATM   13  C   UNL     1      -8.875   5.339  66.711  1.00  0.00    -0.111 A  
HETATM   14  C   UNL     1      -7.668   5.347  67.361  1.00  0.00    -0.096 A  
HETATM   15  C   UNL     1      -9.120   6.739  73.865  1.00  0.00    -0.195 C  
HETATM   16  C   UNL     1      -7.651   5.938  68.636  1.00  0.00    -0.090 A  
HETATM   17  C   UNL     1      -7.034   4.926  69.702  1.00  0.00    -0.053 C  
HETATM   18  C   UNL     1      -7.292   5.677  70.952  1.00  0.00    -0.084 C  
HETATM   19  N   UNL     1      -7.472   6.239  72.243  1.00  0.00    -0.093 NA 
HETATM   20  C   UNL     1      -8.467   5.600  73.098  1.00  0.00    -0.117 C  
ENDROOT
BRANCH   1  21
HETATM   21  O   UNL     1      -7.731   9.779  68.763  1.00  0.00    -0.078 OA 
BRANCH  21  22
HETATM   22  C   UNL     1      -8.443  10.895  68.413  1.00  0.00    -0.141 C  
HETATM   23  C   UNL     1      -8.473  12.766  66.752  1.00  0.00    -0.036 C  
HETATM   24  C   UNL     1      -8.162  11.275  66.951  1.00  0.00    -0.153 C  
HETATM   25  O   UNL     1      -9.167  11.536  69.176  1.00  0.00     0.044 OA 
HETATM   26  H   UNL     1      -6.612  11.271  65.736  1.00  0.00     0.000 HD 
HETATM   27  C   UNL     1      -9.034  10.388  66.030  1.00  0.00    -0.178 C  
HETATM   28  O   UNL     1      -6.786  11.036  66.639  1.00  0.00    -0.115 OA 
BRANCH  23  29
HETATM   29  C   UNL     1      -7.629  13.659  67.649  1.00  0.00    -0.179 C  
HETATM   30  O   UNL     1      -6.405  13.677  67.718  1.00  0.00    -0.148 OA 
BRANCH  29  31
HETATM   31  O   UNL     1      -8.474  14.465  68.364  1.00  0.00    -0.153 OA 
HETATM   32  C   UNL     1      -7.821  15.171  69.417  1.00  0.00    -0.208 C  
ENDBRANCH  29  31
ENDBRANCH  23  29
BRANCH  27  33
HETATM   33  C   UNL     1      -8.919  10.636  64.510  1.00  0.00    -0.214 C  
BRANCH  33  34
HETATM   34  C   UNL     1     -10.265  10.761  63.777  1.00  0.00    -0.354 C  
HETATM   35  C   UNL     1     -11.420  12.150  65.581  1.00  0.00    -0.408 C  
HETATM   36  O   UNL     1     -10.301  13.177  63.739  1.00  0.00    -0.584 OA 
HETATM   37  C   UNL     1     -11.076  12.031  64.099  1.00  0.00    -0.368 C  
HETATM   38  C   UNL     1     -12.362  12.046  63.263  1.00  0.00    -0.553 C  
HETATM   39  H   UNL     1     -10.801  13.961  63.938  1.00  0.00     0.000 HD 
ENDBRANCH  33  34
ENDBRANCH  27  33
ENDBRANCH  21  22
ENDBRANCH   1  21
BRANCH   3  40
HETATM   40  O   UNL     1      -5.608  10.189  70.828  1.00  0.00    -0.064 OA 
HETATM   41  C   UNL     1      -5.710  11.600  70.896  1.00  0.00    -0.013 C  
ENDBRANCH   3  40
TORSDOF 7
ENDMDL
MODEL       83
REMARK 921   NORMALIZED FREE ENERGY PREDICTED BY IDOCK:   -3.90 KCAL/MOL
REMARK 922        TOTAL FREE ENERGY PREDICTED BY IDOCK:   -7.36 KCAL/MOL
REMARK 923 INTER-LIGAND FREE ENERGY PREDICTED BY IDOCK:   -5.99 KCAL/MOL
REMARK 924 INTRA-LIGAND FREE ENERGY PREDICTED BY IDOCK:   -1.37 KCAL/MOL
REMARK 927      BINDING AFFINITY PREDICTED BY RF-SCORE:    0.00 PKD
ROOT
HETATM    1  C   UNL     1      -8.041  10.001  67.966  1.00  0.00    -0.112 C  
HETATM    2  O   UNL     1     -13.216  11.755  71.832  1.00  0.00    -0.482 OA 
HETATM    3  C   UNL     1      -7.246  11.016  67.174  1.00  0.00    -0.112 C  
HETATM    4  C   UNL     1      -9.560  10.261  67.549  1.00  0.00    -0.180 C  
HETATM    5  C   UNL     1     -13.938  10.514  71.768  1.00  0.00     0.421 C  
HETATM    6  C   UNL     1      -7.914  11.448  66.105  1.00  0.00     0.021 C  
HETATM    7  C   UNL     1      -9.321  10.923  66.008  1.00  0.00    -0.190 C  
HETATM    8  C   UNL     1     -10.577  10.799  68.722  1.00  0.00    -0.229 A  
HETATM    9  C   UNL     1     -11.407   9.848  69.366  1.00  0.00    -0.143 A  
HETATM   10  O   UNL     1     -13.286   9.522  70.935  1.00  0.00    -0.233 OA 
HETATM   11  C   UNL     1     -12.289  10.261  70.369  1.00  0.00    -0.238 A  
HETATM   12  C   UNL     1      -9.394   9.888  64.880  1.00  0.00    -0.329 C  
HETATM   13  C   UNL     1     -12.284  11.542  70.863  1.00  0.00    -0.322 A  
HETATM   14  C   UNL     1     -11.544  12.533  70.272  1.00  0.00    -0.052 A  
HETATM   15  C   UNL     1     -10.435  10.413  63.898  1.00  0.00     0.315 C  
HETATM   16  C   UNL     1     -10.897  12.194  69.071  1.00  0.00    -0.208 A  
HETATM   17  C   UNL     1     -11.277  13.242  67.930  1.00  0.00    -0.302 C  
HETATM   18  C   UNL     1     -10.652  12.587  66.759  1.00  0.00    -0.233 C  
HETATM   19  N   UNL     1     -10.135  12.100  65.529  1.00  0.00    -0.246 NA 
HETATM   20  C   UNL     1     -11.111  11.600  64.566  1.00  0.00    -0.301 C  
ENDROOT
BRANCH   1  21
HETATM   21  O   UNL     1      -7.740  10.020  69.357  1.00  0.00    -0.101 OA 
BRANCH  21  22
HETATM   22  C   UNL     1      -6.979   8.947  69.734  1.00  0.00    -0.050 C  
HETATM   23  C   UNL     1      -6.762   7.230  71.540  1.00  0.00    -0.051 C  
HETATM   24  C   UNL     1      -7.758   8.050  70.709  1.00  0.00    -0.082 C  
HETATM   25  O   UNL     1      -5.814   8.754  69.384  1.00  0.00    -0.034 OA 
HETATM   26  H   UNL     1      -9.033   8.303  72.189  1.00  0.00     0.000 HD 
HETATM   27  C   UNL     1      -8.704   7.135  69.895  1.00  0.00    -0.142 C  
HETATM   28  O   UNL     1      -8.551   8.856  71.586  1.00  0.00    -0.280 OA 
BRANCH  23  29
HETATM   29  C   UNL     1      -5.818   8.108  72.349  1.00  0.00    -0.047 C  
HETATM   30  O   UNL     1      -5.319   9.168  71.989  1.00  0.00    -0.051 OA 
BRANCH  29  31
HETATM   31  O   UNL     1      -5.630   7.519  73.571  1.00  0.00    -0.045 OA 
HETATM   32  C   UNL     1      -6.828   7.421  74.338  1.00  0.00    -0.096 C  
ENDBRANCH  29  31
ENDBRANCH  23  29
BRANCH  27  33
HETATM   33  C   UNL     1      -9.561   6.131  70.695  1.00  0.00    -0.195 C  
BRANCH  33  34
HETATM   34  C   UNL     1     -11.079   6.312  70.536  1.00  0.00    -0.399 C  
HETATM   35  C   UNL     1     -11.697   5.393  72.837  1.00  0.00    -0.232 C  
HETATM   36  O   UNL     1     -11.361   7.729  72.474  1.00  0.00    -0.320 OA 
HETATM   37  C   UNL     1     -11.856   6.543  71.847  1.00  0.00    -0.334 C  
HETATM   38  C   UNL     1     -13.342   6.758  71.534  1.00  0.00    -0.195 C  
HETATM   39  H   UNL     1     -11.840   7.871  73.283  1.00  0.00     0.000 HD 
ENDBRANCH  33  34
ENDBRANCH  27  33
ENDBRANCH  21  22
ENDBRANCH   1  21
BRANCH   3  40
HETATM   40  O   UNL     1      -6.003  11.525  67.445  1.00  0.00    -0.061 OA 
HETATM   41  C   UNL     1      -5.859  12.860  67.893  1.00  0.00    -0.123 C  
ENDBRANCH   3  40
TORSDOF 7
ENDMDL
MODEL       84
REMARK 921   NORMALIZED FREE ENERGY PREDICTED BY IDOCK:   -3.89 KCAL/MOL
REMARK 922        TOTAL FREE ENERGY PREDICTED BY IDOCK:   -7.34 KCAL/MOL
REMARK 923 INTER-LIGAND FREE ENERGY PREDICTED BY IDOCK:   -6.78 KCAL/MOL
REMARK 924 INTRA-LIGAND FREE ENERGY PREDICTED BY IDOCK:   -0.56 KCAL/MOL
REMARK 927      BINDING AFFINITY PREDICTED BY RF-SCORE:    0.00 PKD
ROOT
HETATM    1  C   UNL     1      -9.572   7.903  67.700  1.00  0.00    -0.150 C  
HETATM    2  O   UNL     1     -11.144  14.406  67.906  1.00  0.00    -0.259 OA 
HETATM    3  C   UNL     1     -10.557   6.822  68.093  1.00  0.00    -0.230 C  
HETATM    4  C   UNL     1      -9.546   8.900  68.946  1.00  0.00    -0.160 C  
HETATM    5  C   UNL     1      -9.818  14.921  68.108  1.00  0.00    -0.218 C  
HETATM    6  C   UNL     1     -10.720   6.754  69.413  1.00  0.00    -0.291 C  
HETATM    7  C   UNL     1      -9.991   7.826  70.178  1.00  0.00    -0.186 C  
HETATM    8  C   UNL     1     -10.108  10.424  68.696  1.00  0.00    -0.188 A  
HETATM    9  C   UNL     1      -9.158  11.448  68.454  1.00  0.00    -0.179 A  
HETATM   10  O   UNL     1      -8.813  13.880  68.198  1.00  0.00    -0.171 OA 
HETATM   11  C   UNL     1      -9.590  12.760  68.239  1.00  0.00    -0.211 A  
HETATM   12  C   UNL     1      -8.797   7.200  70.905  1.00  0.00    -0.150 C  
HETATM   13  C   UNL     1     -10.920  13.079  68.108  1.00  0.00    -0.244 A  
HETATM   14  C   UNL     1     -11.903  12.159  68.366  1.00  0.00    -0.360 A  
HETATM   15  C   UNL     1      -9.011   7.488  72.386  1.00  0.00    -0.172 C  
HETATM   16  C   UNL     1     -11.480  10.925  68.889  1.00  0.00    -0.369 A  
HETATM   17  C   UNL     1     -12.276  10.597  70.231  1.00  0.00    -0.417 C  
HETATM   18  C   UNL     1     -11.545   9.389  70.676  1.00  0.00    -0.269 C  
HETATM   19  N   UNL     1     -10.953   8.239  71.265  1.00  0.00    -0.237 NA 
HETATM   20  C   UNL     1     -10.178   8.458  72.482  1.00  0.00    -0.299 C  
ENDROOT
BRANCH   1  21
HETATM   21  O   UNL     1      -9.846   8.469  66.424  1.00  0.00    -0.253 OA 
BRANCH  21  22
HETATM   22  C   UNL     1      -8.718   8.960  65.824  1.00  0.00    -0.176 C  
HETATM   23  C   UNL     1      -6.295   8.444  65.476  1.00  0.00    -0.048 C  
HETATM   24  C   UNL     1      -7.699   7.834  65.592  1.00  0.00    -0.101 C  
HETATM   25  O   UNL     1      -8.523  10.146  65.556  1.00  0.00    -0.140 OA 
HETATM   26  H   UNL     1      -7.094   6.221  66.548  1.00  0.00     0.000 HD 
HETATM   27  C   UNL     1      -8.090   7.067  64.306  1.00  0.00    -0.040 C  
HETATM   28  O   UNL     1      -7.724   6.917  66.691  1.00  0.00    -0.100 OA 
BRANCH  23  29
HETATM   29  C   UNL     1      -5.888   9.206  66.730  1.00  0.00    -0.051 C  
HETATM   30  O   UNL     1      -5.943   8.796  67.884  1.00  0.00    -0.048 OA 
BRANCH  29  31
HETATM   31  O   UNL     1      -5.426  10.437  66.348  1.00  0.00    -0.048 OA 
HETATM   32  C   UNL     1      -5.300  10.578  64.935  1.00  0.00    -0.147 C  
ENDBRANCH  29  31
ENDBRANCH  23  29
BRANCH  27  33
HETATM   33  C   UNL     1      -7.166   5.905  63.879  1.00  0.00    -0.056 C  
BRANCH  33  34
HETATM   34  C   UNL     1      -7.801   4.509  63.986  1.00  0.00    -0.086 C  
HETATM   35  C   UNL     1      -5.659   3.300  64.676  1.00  0.00    -0.010 C  
HETATM   36  O   UNL     1      -7.196   4.142  66.298  1.00  0.00    -0.066 OA 
HETATM   37  C   UNL     1      -7.129   3.557  64.995  1.00  0.00    -0.065 C  
HETATM   38  C   UNL     1      -7.893   2.227  65.034  1.00  0.00    -0.077 C  
HETATM   39  H   UNL     1      -6.782   3.555  66.920  1.00  0.00     0.000 HD 
ENDBRANCH  33  34
ENDBRANCH  27  33
ENDBRANCH  21  22
ENDBRANCH   1  21
BRANCH   3  40
HETATM   40  O   UNL     1     -11.272   5.984  67.279  1.00  0.00    -0.231 OA 
HETATM   41  C   UNL     1     -10.603   5.093  66.405  1.00  0.00    -0.276 C  
ENDBRANCH   3  40
TORSDOF 7
ENDMDL
MODEL       85
REMARK 921   NORMALIZED FREE ENERGY PREDICTED BY IDOCK:   -3.82 KCAL/MOL
REMARK 922        TOTAL FREE ENERGY PREDICTED BY IDOCK:   -7.24 KCAL/MOL
REMARK 923 INTER-LIGAND FREE ENERGY PREDICTED BY IDOCK:   -6.83 KCAL/MOL
REMARK 924 INTRA-LIGAND FREE ENERGY PREDICTED BY IDOCK:   -0.41 KCAL/MOL
REMARK 927      BINDING AFFINITY PREDICTED BY RF-SCORE:    0.00 PKD
ROOT
HETATM    1  C   UNL     1      -9.095   9.732  68.135  1.00  0.00    -0.125 C  
HETATM    2  O   UNL     1      -8.908   7.765  74.530  1.00  0.00    -0.144 OA 
HETATM    3  C   UNL     1     -10.390   9.822  67.357  1.00  0.00    -0.240 C  
HETATM    4  C   UNL     1      -9.079   8.250  68.726  1.00  0.00    -0.144 C  
HETATM    5  C   UNL     1      -7.570   7.241  74.535  1.00  0.00    -0.129 C  
HETATM    6  C   UNL     1     -10.848   8.619  67.013  1.00  0.00    -0.024 C  
HETATM    7  C   UNL     1     -10.048   7.474  67.573  1.00  0.00    -0.200 C  
HETATM    8  C   UNL     1      -9.152   8.095  70.361  1.00  0.00    -0.150 A  
HETATM    9  C   UNL     1      -7.938   7.885  71.061  1.00  0.00    -0.090 A  
HETATM   10  O   UNL     1      -6.918   7.340  73.243  1.00  0.00    -0.071 OA 
HETATM   11  C   UNL     1      -7.953   7.746  72.452  1.00  0.00    -0.115 A  
HETATM   12  C   UNL     1      -9.247   6.821  66.442  1.00  0.00    -0.185 C  
HETATM   13  C   UNL     1      -9.090   7.949  73.194  1.00  0.00    -0.260 A  
HETATM   14  C   UNL     1     -10.312   8.116  72.597  1.00  0.00    -0.398 A  
HETATM   15  C   UNL     1      -9.694   5.364  66.400  1.00  0.00    -0.183 C  
HETATM   16  C   UNL     1     -10.353   7.943  71.202  1.00  0.00    -0.225 A  
HETATM   17  C   UNL     1     -11.478   6.882  70.814  1.00  0.00    -0.381 C  
HETATM   18  C   UNL     1     -11.205   6.734  69.366  1.00  0.00    -0.234 C  
HETATM   19  N   UNL     1     -11.079   6.451  67.980  1.00  0.00    -0.312 NA 
HETATM   20  C   UNL     1     -10.557   5.134  67.630  1.00  0.00     0.012 C  
ENDROOT
BRANCH   1  21
HETATM   21  O   UNL     1      -8.927  10.800  69.061  1.00  0.00    -0.169 OA 
BRANCH  21  22
HETATM   22  C   UNL     1      -7.622  11.202  69.153  1.00  0.00    -0.098 C  
HETATM   23  C   UNL     1      -5.885  12.533  67.940  1.00  0.00    -0.100 C  
HETATM   24  C   UNL     1      -7.379  12.445  68.283  1.00  0.00    -0.113 C  
HETATM   25  O   UNL     1      -6.750  10.619  69.800  1.00  0.00    -0.098 OA 
HETATM   26  H   UNL     1      -7.986  13.118  66.535  1.00  0.00     0.000 HD 
HETATM   27  C   UNL     1      -7.855  13.696  69.061  1.00  0.00     0.130 C  
HETATM   28  O   UNL     1      -8.136  12.350  67.072  1.00  0.00    -0.174 OA 
BRANCH  23  29
HETATM   29  C   UNL     1      -5.393  11.312  67.175  1.00  0.00    -0.065 C  
HETATM   30  O   UNL     1      -5.131  10.211  67.648  1.00  0.00    -0.034 OA 
BRANCH  29  31
HETATM   31  O   UNL     1      -5.307  11.645  65.850  1.00  0.00    -0.262 OA 
HETATM   32  C   UNL     1      -5.597  10.556  64.976  1.00  0.00    -0.140 C  
ENDBRANCH  29  31
ENDBRANCH  23  29
BRANCH  27  33
HETATM   33  C   UNL     1      -7.669  15.061  68.365  1.00  0.00    -0.113 C  
BRANCH  33  34
HETATM   34  C   UNL     1      -8.740  16.108  68.710  1.00  0.00    -0.240 C  
HETATM   35  C   UNL     1      -8.678  17.303  66.454  1.00  0.00    -0.285 C  
HETATM   36  O   UNL     1     -10.230  15.544  66.893  1.00  0.00    -0.267 OA 
HETATM   37  C   UNL     1      -9.553  16.639  67.513  1.00  0.00    -0.242 C  
HETATM   38  C   UNL     1     -10.612  17.631  68.009  1.00  0.00    -0.379 C  
HETATM   39  H   UNL     1     -10.732  15.870  66.154  1.00  0.00     0.000 HD 
ENDBRANCH  33  34
ENDBRANCH  27  33
ENDBRANCH  21  22
ENDBRANCH   1  21
BRANCH   3  40
HETATM   40  O   UNL     1     -11.106  10.940  67.019  1.00  0.00    -0.272 OA 
HETATM   41  C   UNL     1     -11.658  11.768  68.027  1.00  0.00    -0.316 C  
ENDBRANCH   3  40
TORSDOF 7
ENDMDL
MODEL       86
REMARK 921   NORMALIZED FREE ENERGY PREDICTED BY IDOCK:   -3.77 KCAL/MOL
REMARK 922        TOTAL FREE ENERGY PREDICTED BY IDOCK:   -7.18 KCAL/MOL
REMARK 923 INTER-LIGAND FREE ENERGY PREDICTED BY IDOCK:   -6.82 KCAL/MOL
REMARK 924 INTRA-LIGAND FREE ENERGY PREDICTED BY IDOCK:   -0.35 KCAL/MOL
REMARK 927      BINDING AFFINITY PREDICTED BY RF-SCORE:    0.00 PKD
ROOT
HETATM    1  C   UNL     1      -8.724   6.991  69.153  1.00  0.00    -0.132 C  
HETATM    2  O   UNL     1      -9.782  12.749  65.909  1.00  0.00    -0.258 OA 
HETATM    3  C   UNL     1      -7.478   6.159  68.935  1.00  0.00    -0.087 C  
HETATM    4  C   UNL     1      -9.319   7.221  67.690  1.00  0.00    -0.139 C  
HETATM    5  C   UNL     1     -11.218  12.732  65.944  1.00  0.00    -0.300 C  
HETATM    6  C   UNL     1      -7.510   5.512  67.771  1.00  0.00    -0.080 C  
HETATM    7  C   UNL     1      -8.699   5.849  66.913  1.00  0.00    -0.111 C  
HETATM    8  C   UNL     1      -9.345   8.764  67.127  1.00  0.00    -0.188 A  
HETATM    9  C   UNL     1     -10.561   9.485  67.226  1.00  0.00    -0.317 A  
HETATM   10  O   UNL     1     -11.756  11.552  66.592  1.00  0.00    -0.486 OA 
HETATM   11  C   UNL     1     -10.629  10.800  66.757  1.00  0.00    -0.250 A  
HETATM   12  C   UNL     1      -9.666   4.661  66.906  1.00  0.00    -0.215 C  
HETATM   13  C   UNL     1      -9.516  11.482  66.330  1.00  0.00    -0.217 A  
HETATM   14  C   UNL     1      -8.311  10.850  66.165  1.00  0.00    -0.168 A  
HETATM   15  C   UNL     1      -9.811   4.248  65.446  1.00  0.00    -0.218 C  
HETATM   16  C   UNL     1      -8.312   9.455  66.334  1.00  0.00    -0.116 A  
HETATM   17  C   UNL     1      -7.671   8.747  65.056  1.00  0.00    -0.105 C  
HETATM   18  C   UNL     1      -7.951   7.329  65.379  1.00  0.00    -0.125 C  
HETATM   19  N   UNL     1      -8.148   5.929  65.510  1.00  0.00    -0.124 NA 
HETATM   20  C   UNL     1      -9.128   5.322  64.615  1.00  0.00     0.093 C  
ENDROOT
BRANCH   1  21
HETATM   21  O   UNL     1      -8.489   8.149  69.945  1.00  0.00    -0.122 OA 
BRANCH  21  22
HETATM   22  C   UNL     1      -9.544   8.433  70.769  1.00  0.00    -0.173 C  
HETATM   23  C   UNL     1     -11.086   7.368  72.427  1.00  0.00    -0.331 C  
HETATM   24  C   UNL     1      -9.647   7.389  71.892  1.00  0.00    -0.151 C  
HETATM   25  O   UNL     1     -10.334   9.364  70.605  1.00  0.00    -0.241 OA 
HETATM   26  H   UNL     1      -9.376   5.447  72.079  1.00  0.00     0.000 HD 
HETATM   27  C   UNL     1      -8.635   7.755  73.005  1.00  0.00    -0.218 C  
HETATM   28  O   UNL     1      -9.313   6.093  71.385  1.00  0.00    -0.152 OA 
BRANCH  23  29
HETATM   29  C   UNL     1     -12.100   7.012  71.349  1.00  0.00    -0.355 C  
HETATM   30  O   UNL     1     -11.853   6.673  70.197  1.00  0.00    -0.389 OA 
BRANCH  29  31
HETATM   31  O   UNL     1     -13.353   7.115  71.893  1.00  0.00    -0.303 OA 
HETATM   32  C   UNL     1     -14.091   8.229  71.395  1.00  0.00    -0.305 C  
ENDBRANCH  29  31
ENDBRANCH  23  29
BRANCH  27  33
HETATM   33  C   UNL     1      -8.602   6.838  74.246  1.00  0.00    -0.176 C  
BRANCH  33  34
HETATM   34  C   UNL     1      -7.233   6.203  74.539  1.00  0.00    -0.090 C  
HETATM   35  C   UNL     1      -8.015   3.781  74.330  1.00  0.00    -0.081 C  
HETATM   36  O   UNL     1      -7.091   4.960  72.471  1.00  0.00    -0.072 OA 
HETATM   37  C   UNL     1      -6.993   4.826  73.891  1.00  0.00    -0.076 C  
HETATM   38  C   UNL     1      -5.577   4.340  74.224  1.00  0.00    -0.008 C  
HETATM   39  H   UNL     1      -6.943   4.111  72.071  1.00  0.00     0.000 HD 
ENDBRANCH  33  34
ENDBRANCH  27  33
ENDBRANCH  21  22
ENDBRANCH   1  21
BRANCH   3  40
HETATM   40  O   UNL     1      -6.381   6.038  69.747  1.00  0.00    -0.034 OA 
HETATM   41  C   UNL     1      -5.229   5.350  69.293  1.00  0.00    -0.003 C  
ENDBRANCH   3  40
TORSDOF 7
ENDMDL
MODEL       87
REMARK 921   NORMALIZED FREE ENERGY PREDICTED BY IDOCK:   -3.75 KCAL/MOL
REMARK 922        TOTAL FREE ENERGY PREDICTED BY IDOCK:   -7.15 KCAL/MOL
REMARK 923 INTER-LIGAND FREE ENERGY PREDICTED BY IDOCK:   -6.02 KCAL/MOL
REMARK 924 INTRA-LIGAND FREE ENERGY PREDICTED BY IDOCK:   -1.13 KCAL/MOL
REMARK 927      BINDING AFFINITY PREDICTED BY RF-SCORE:    0.00 PKD
ROOT
HETATM    1  C   UNL     1      -8.957  13.550  67.497  1.00  0.00    -0.210 C  
HETATM    2  O   UNL     1     -12.831  14.538  72.866  1.00  0.00    -0.430 OA 
HETATM    3  C   UNL     1      -7.787  14.453  67.170  1.00  0.00    -0.082 C  
HETATM    4  C   UNL     1     -10.197  14.540  67.668  1.00  0.00    -0.225 C  
HETATM    5  C   UNL     1     -14.030  13.931  72.356  1.00  0.00    -0.531 C  
HETATM    6  C   UNL     1      -8.185  15.627  66.682  1.00  0.00    -0.284 C  
HETATM    7  C   UNL     1      -9.678  15.818  66.685  1.00  0.00    -0.249 C  
HETATM    8  C   UNL     1     -10.875  14.639  69.162  1.00  0.00    -0.269 A  
HETATM    9  C   UNL     1     -12.046  13.881  69.409  1.00  0.00    -0.384 A  
HETATM   10  O   UNL     1     -13.884  13.440  71.000  1.00  0.00     0.230 OA 
HETATM   11  C   UNL     1     -12.658  13.937  70.665  1.00  0.00    -0.335 A  
HETATM   12  C   UNL     1     -10.197  15.732  65.246  1.00  0.00    -0.323 C  
HETATM   13  C   UNL     1     -12.085  14.591  71.728  1.00  0.00    -0.277 A  
HETATM   14  C   UNL     1     -10.977  15.381  71.567  1.00  0.00    -0.156 A  
HETATM   15  C   UNL     1     -10.888  17.061  64.970  1.00  0.00    -0.017 C  
HETATM   16  C   UNL     1     -10.541  15.581  70.246  1.00  0.00    -0.324 A  
HETATM   17  C   UNL     1     -10.406  17.140  69.943  1.00  0.00     0.221 C  
HETATM   18  C   UNL     1     -10.131  17.099  68.489  1.00  0.00    -0.329 C  
HETATM   19  N   UNL     1      -9.878  17.254  67.100  1.00  0.00    -0.261 NA 
HETATM   20  C   UNL     1     -10.968  17.799  66.297  1.00  0.00     0.271 C  
ENDROOT
BRANCH   1  21
HETATM   21  O   UNL     1      -8.688  12.658  68.573  1.00  0.00    -0.147 OA 
BRANCH  21  22
HETATM   22  C   UNL     1      -8.358  11.405  68.133  1.00  0.00    -0.149 C  
HETATM   23  C   UNL     1      -8.104   9.046  68.928  1.00  0.00    -0.104 C  
HETATM   24  C   UNL     1      -8.924  10.335  69.079  1.00  0.00    -0.172 C  
HETATM   25  O   UNL     1      -7.658  11.167  67.146  1.00  0.00    -0.112 OA 
HETATM   26  H   UNL     1      -9.193  10.127  71.019  1.00  0.00     0.000 HD 
HETATM   27  C   UNL     1     -10.414  10.101  68.729  1.00  0.00    -0.223 C  
HETATM   28  O   UNL     1      -8.843  10.788  70.434  1.00  0.00     0.931 OA 
BRANCH  23  29
HETATM   29  C   UNL     1      -6.634   9.251  69.265  1.00  0.00    -0.049 C  
HETATM   30  O   UNL     1      -5.680   9.061  68.518  1.00  0.00    -0.041 OA 
BRANCH  29  31
HETATM   31  O   UNL     1      -6.552   9.707  70.553  1.00  0.00    -0.082 OA 
HETATM   32  C   UNL     1      -5.271  10.240  70.881  1.00  0.00    -0.073 C  
ENDBRANCH  29  31
ENDBRANCH  23  29
BRANCH  27  33
HETATM   33  C   UNL     1     -11.164   9.033  69.554  1.00  0.00     0.053 C  
BRANCH  33  34
HETATM   34  C   UNL     1     -12.239   9.591  70.500  1.00  0.00    -0.096 C  
HETATM   35  C   UNL     1     -12.913   7.337  71.493  1.00  0.00    -0.434 C  
HETATM   36  O   UNL     1     -11.260   8.713  72.529  1.00  0.00    -0.329 OA 
HETATM   37  C   UNL     1     -12.478   8.770  71.782  1.00  0.00    -0.350 C  
HETATM   38  C   UNL     1     -13.533   9.468  72.651  1.00  0.00    -0.253 C  
HETATM   39  H   UNL     1     -11.407   8.208  73.319  1.00  0.00     0.000 HD 
ENDBRANCH  33  34
ENDBRANCH  27  33
ENDBRANCH  21  22
ENDBRANCH   1  21
BRANCH   3  40
HETATM   40  O   UNL     1      -6.449  14.211  67.343  1.00  0.00    -0.306 OA 
HETATM   41  C   UNL     1      -5.705  14.951  68.294  1.00  0.00    -0.115 C  
ENDBRANCH   3  40
TORSDOF 7
ENDMDL
MODEL       88
REMARK 921   NORMALIZED FREE ENERGY PREDICTED BY IDOCK:   -3.74 KCAL/MOL
REMARK 922        TOTAL FREE ENERGY PREDICTED BY IDOCK:   -7.13 KCAL/MOL
REMARK 923 INTER-LIGAND FREE ENERGY PREDICTED BY IDOCK:   -6.56 KCAL/MOL
REMARK 924 INTRA-LIGAND FREE ENERGY PREDICTED BY IDOCK:   -0.58 KCAL/MOL
REMARK 927      BINDING AFFINITY PREDICTED BY RF-SCORE:    0.00 PKD
ROOT
HETATM    1  C   UNL     1      -9.449   7.342  68.210  1.00  0.00    -0.142 C  
HETATM    2  O   UNL     1     -10.593  13.916  67.691  1.00  0.00    -0.243 OA 
HETATM    3  C   UNL     1      -8.053   6.776  68.366  1.00  0.00    -0.119 C  
HETATM    4  C   UNL     1      -9.366   8.273  66.916  1.00  0.00    -0.222 C  
HETATM    5  C   UNL     1     -11.817  13.843  66.941  1.00  0.00    -0.423 C  
HETATM    6  C   UNL     1      -7.369   6.818  67.224  1.00  0.00    -0.091 C  
HETATM    7  C   UNL     1      -8.090   7.514  66.101  1.00  0.00    -0.116 C  
HETATM    8  C   UNL     1      -9.591   9.886  67.140  1.00  0.00    -0.201 A  
HETATM    9  C   UNL     1     -10.876  10.419  66.866  1.00  0.00    -0.229 A  
HETATM   10  O   UNL     1     -12.212  12.483  66.632  1.00  0.00    -0.552 OA 
HETATM   11  C   UNL     1     -11.112  11.786  67.040  1.00  0.00    -0.304 A  
HETATM   12  C   UNL     1      -8.552   6.471  65.078  1.00  0.00     0.057 C  
HETATM   13  C   UNL     1     -10.183  12.621  67.608  1.00  0.00    -0.217 A  
HETATM   14  C   UNL     1      -8.905  12.198  67.865  1.00  0.00    -0.177 A  
HETATM   15  C   UNL     1      -7.900   6.862  63.758  1.00  0.00    -0.108 C  
HETATM   16  C   UNL     1      -8.569  10.914  67.402  1.00  0.00    -0.127 A  
HETATM   17  C   UNL     1      -7.248  10.982  66.510  1.00  0.00    -0.143 C  
HETATM   18  C   UNL     1      -7.209   9.592  66.000  1.00  0.00    -0.098 C  
HETATM   19  N   UNL     1      -7.021   8.318  65.402  1.00  0.00    -0.062 NA 
HETATM   20  C   UNL     1      -7.270   8.230  63.967  1.00  0.00    -0.090 C  
ENDROOT
BRANCH   1  21
HETATM   21  O   UNL     1      -9.946   7.935  69.403  1.00  0.00    -0.181 OA 
BRANCH  21  22
HETATM   22  C   UNL     1     -10.793   7.100  70.080  1.00  0.00    -0.257 C  
HETATM   23  C   UNL     1     -11.714   6.667  72.366  1.00  0.00    -0.260 C  
HETATM   24  C   UNL     1     -11.272   7.760  71.383  1.00  0.00    -0.246 C  
HETATM   25  O   UNL     1     -11.089   5.959  69.724  1.00  0.00    -0.377 OA 
HETATM   26  H   UNL     1     -10.503   8.925  72.773  1.00  0.00     0.000 HD 
HETATM   27  C   UNL     1     -12.435   8.726  71.052  1.00  0.00    -0.152 C  
HETATM   28  O   UNL     1     -10.207   8.517  71.968  1.00  0.00    -0.264 OA 
BRANCH  23  29
HETATM   29  C   UNL     1     -10.587   5.702  72.706  1.00  0.00    -0.228 C  
HETATM   30  O   UNL     1     -10.499   4.530  72.358  1.00  0.00    -0.194 OA 
BRANCH  29  31
HETATM   31  O   UNL     1      -9.663   6.375  73.460  1.00  0.00    -0.155 OA 
HETATM   32  C   UNL     1      -8.333   5.894  73.283  1.00  0.00    -0.116 C  
ENDBRANCH  29  31
ENDBRANCH  23  29
BRANCH  27  33
HETATM   33  C   UNL     1     -13.081   9.472  72.239  1.00  0.00    -0.492 C  
BRANCH  33  34
HETATM   34  C   UNL     1     -13.387  10.956  71.975  1.00  0.00    -0.394 C  
HETATM   35  C   UNL     1     -11.192  11.467  70.772  1.00  0.00     0.878 C  
HETATM   36  O   UNL     1     -13.154  10.829  69.572  1.00  0.00    -0.424 OA 
HETATM   37  C   UNL     1     -12.715  11.554  70.723  1.00  0.00    -0.227 C  
HETATM   38  C   UNL     1     -13.147  13.016  70.556  1.00  0.00     0.284 C  
HETATM   39  H   UNL     1     -12.741  11.198  68.800  1.00  0.00     0.000 HD 
ENDBRANCH  33  34
ENDBRANCH  27  33
ENDBRANCH  21  22
ENDBRANCH   1  21
BRANCH   3  40
HETATM   40  O   UNL     1      -7.453   6.286  69.496  1.00  0.00    -0.088 OA 
HETATM   41  C   UNL     1      -7.434   4.893  69.749  1.00  0.00    -0.056 C  
ENDBRANCH   3  40
TORSDOF 7
ENDMDL
MODEL       89
REMARK 921   NORMALIZED FREE ENERGY PREDICTED BY IDOCK:   -3.73 KCAL/MOL
REMARK 922        TOTAL FREE ENERGY PREDICTED BY IDOCK:   -7.13 KCAL/MOL
REMARK 923 INTER-LIGAND FREE ENERGY PREDICTED BY IDOCK:   -5.16 KCAL/MOL
REMARK 924 INTRA-LIGAND FREE ENERGY PREDICTED BY IDOCK:   -1.97 KCAL/MOL
REMARK 927      BINDING AFFINITY PREDICTED BY RF-SCORE:    0.00 PKD
ROOT
HETATM    1  C   UNL     1      -8.981   8.823  66.941  1.00  0.00    -0.132 C  
HETATM    2  O   UNL     1      -7.207   8.069  73.351  1.00  0.00    -0.115 OA 
HETATM    3  C   UNL     1      -8.083   9.503  65.930  1.00  0.00    -0.115 C  
HETATM    4  C   UNL     1      -9.102   9.867  68.142  1.00  0.00    -0.121 C  
HETATM    5  C   UNL     1      -8.527   8.032  73.916  1.00  0.00    -0.260 C  
HETATM    6  C   UNL     1      -8.062  10.825  66.093  1.00  0.00    -0.160 C  
HETATM    7  C   UNL     1      -8.828  11.308  67.295  1.00  0.00    -0.150 C  
HETATM    8  C   UNL     1      -8.463   9.420  69.589  1.00  0.00    -0.166 A  
HETATM    9  C   UNL     1      -9.344   8.901  70.570  1.00  0.00    -0.240 A  
HETATM   10  O   UNL     1      -9.573   8.190  72.924  1.00  0.00    -0.257 OA 
HETATM   11  C   UNL     1      -8.845   8.511  71.816  1.00  0.00    -0.211 A  
HETATM   12  C   UNL     1     -10.114  11.997  66.828  1.00  0.00    -0.223 C  
HETATM   13  C   UNL     1      -7.499   8.472  72.084  1.00  0.00    -0.071 A  
HETATM   14  C   UNL     1      -6.581   8.992  71.208  1.00  0.00    -0.086 A  
HETATM   15  C   UNL     1     -10.046  13.420  67.368  1.00  0.00    -0.237 C  
HETATM   16  C   UNL     1      -7.101   9.672  70.093  1.00  0.00    -0.116 A  
HETATM   17  C   UNL     1      -6.463  11.130  69.993  1.00  0.00    -0.133 C  
HETATM   18  C   UNL     1      -7.280  11.695  68.895  1.00  0.00    -0.113 C  
HETATM   19  N   UNL     1      -7.971  12.405  67.877  1.00  0.00    -0.142 NA 
HETATM   20  C   UNL     1      -8.861  13.473  68.320  1.00  0.00    -0.179 C  
ENDROOT
BRANCH   1  21
HETATM   21  O   UNL     1      -8.555   7.506  67.269  1.00  0.00    -0.117 OA 
BRANCH  21  22
HETATM   22  C   UNL     1      -9.581   6.603  67.214  1.00  0.00    -0.132 C  
HETATM   23  C   UNL     1     -10.069   4.163  67.480  1.00  0.00     0.061 C  
HETATM   24  C   UNL     1      -9.224   5.334  68.004  1.00  0.00    -0.113 C  
HETATM   25  O   UNL     1     -10.624   6.761  66.577  1.00  0.00    -0.157 OA 
HETATM   26  H   UNL     1      -7.616   4.243  68.322  1.00  0.00     0.000 HD 
HETATM   27  C   UNL     1      -9.488   5.594  69.507  1.00  0.00    -0.174 C  
HETATM   28  O   UNL     1      -7.837   5.027  67.834  1.00  0.00    -0.089 OA 
BRANCH  23  29
HETATM   29  C   UNL     1      -9.828   3.889  66.003  1.00  0.00    -0.121 C  
HETATM   30  O   UNL     1     -10.567   4.193  65.074  1.00  0.00    -0.240 OA 
BRANCH  29  31
HETATM   31  O   UNL     1      -8.621   3.254  65.879  1.00  0.00    -0.111 OA 
HETATM   32  C   UNL     1      -8.733   1.832  65.870  1.00  0.00    -0.116 C  
ENDBRANCH  29  31
ENDBRANCH  23  29
BRANCH  27  33
HETATM   33  C   UNL     1      -9.217   4.422  70.475  1.00  0.00    -0.192 C  
BRANCH  33  34
HETATM   34  C   UNL     1      -8.362   4.786  71.699  1.00  0.00    -0.110 C  
HETATM   35  C   UNL     1      -6.591   2.983  71.329  1.00  0.00    -0.030 C  
HETATM   36  O   UNL     1      -6.324   5.192  70.464  1.00  0.00    -0.024 OA 
HETATM   37  C   UNL     1      -6.860   4.466  71.572  1.00  0.00    -0.034 C  
HETATM   38  C   UNL     1      -6.127   4.926  72.839  1.00  0.00    -0.026 C  
HETATM   39  H   UNL     1      -5.398   4.995  70.385  1.00  0.00     0.000 HD 
ENDBRANCH  33  34
ENDBRANCH  27  33
ENDBRANCH  21  22
ENDBRANCH   1  21
BRANCH   3  40
HETATM   40  O   UNL     1      -7.317   8.930  64.949  1.00  0.00    -0.090 OA 
HETATM   41  C   UNL     1      -6.888   9.696  63.838  1.00  0.00    -0.113 C  
ENDBRANCH   3  40
TORSDOF 7
ENDMDL
MODEL       90
REMARK 921   NORMALIZED FREE ENERGY PREDICTED BY IDOCK:   -3.73 KCAL/MOL
REMARK 922        TOTAL FREE ENERGY PREDICTED BY IDOCK:   -7.12 KCAL/MOL
REMARK 923 INTER-LIGAND FREE ENERGY PREDICTED BY IDOCK:   -8.66 KCAL/MOL
REMARK 924 INTRA-LIGAND FREE ENERGY PREDICTED BY IDOCK:    1.53 KCAL/MOL
REMARK 927      BINDING AFFINITY PREDICTED BY RF-SCORE:    0.00 PKD
ROOT
HETATM    1  C   UNL     1      -8.713  10.157  67.269  1.00  0.00    -0.129 C  
HETATM    2  O   UNL     1     -10.228   7.994  73.419  1.00  0.00    -0.260 OA 
HETATM    3  C   UNL     1      -9.684  10.047  66.114  1.00  0.00    -0.227 C  
HETATM    4  C   UNL     1      -8.618   8.678  67.862  1.00  0.00    -0.137 C  
HETATM    5  C   UNL     1      -8.891   7.717  73.865  1.00  0.00    -0.272 C  
HETATM    6  C   UNL     1      -9.782   8.797  65.663  1.00  0.00    -0.016 C  
HETATM    7  C   UNL     1      -9.009   7.791  66.473  1.00  0.00    -0.161 C  
HETATM    8  C   UNL     1      -9.181   8.446  69.388  1.00  0.00    -0.154 A  
HETATM    9  C   UNL     1      -8.238   8.427  70.446  1.00  0.00    -0.115 A  
HETATM   10  O   UNL     1      -7.890   7.983  72.850  1.00  0.00    -0.121 OA 
HETATM   11  C   UNL     1      -8.672   8.230  71.760  1.00  0.00    -0.164 A  
HETATM   12  C   UNL     1      -7.784   7.337  65.673  1.00  0.00    -0.105 C  
HETATM   13  C   UNL     1     -10.004   8.197  72.093  1.00  0.00    -0.247 A  
HETATM   14  C   UNL     1     -10.979   8.169  71.130  1.00  0.00    -0.271 A  
HETATM   15  C   UNL     1      -7.922   5.827  65.516  1.00  0.00    -0.115 C  
HETATM   16  C   UNL     1     -10.539   8.049  69.801  1.00  0.00    -0.238 A  
HETATM   17  C   UNL     1     -11.269   6.822  69.090  1.00  0.00    -0.236 C  
HETATM   18  C   UNL     1     -10.525   6.783  67.811  1.00  0.00    -0.222 C  
HETATM   19  N   UNL     1      -9.913   6.584  66.545  1.00  0.00    -0.134 NA 
HETATM   20  C   UNL     1      -9.076   5.397  66.407  1.00  0.00    -0.141 C  
ENDROOT
BRANCH   1  21
HETATM   21  O   UNL     1      -9.046  11.199  68.180  1.00  0.00    -0.147 OA 
BRANCH  21  22
HETATM   22  C   UNL     1     -10.393  11.441  68.215  1.00  0.00    -0.194 C  
HETATM   23  C   UNL     1     -12.055  13.222  68.785  1.00  0.00    -0.254 C  
HETATM   24  C   UNL     1     -10.669  12.952  68.181  1.00  0.00    -0.241 C  
HETATM   25  O   UNL     1     -11.261  10.572  68.315  1.00  0.00    -0.278 OA 
HETATM   26  H   UNL     1      -9.850  14.581  68.925  1.00  0.00     0.000 HD 
HETATM   27  C   UNL     1     -10.587  13.439  66.715  1.00  0.00    -0.277 C  
HETATM   28  O   UNL     1      -9.679  13.647  68.946  1.00  0.00    -0.090 OA 
BRANCH  23  29
HETATM   29  C   UNL     1     -12.162  12.750  70.227  1.00  0.00    -0.277 C  
HETATM   30  O   UNL     1     -12.179  11.587  70.616  1.00  0.00    -0.364 OA 
BRANCH  29  31
HETATM   31  O   UNL     1     -12.219  13.855  71.034  1.00  0.00    -0.344 OA 
HETATM   32  C   UNL     1     -13.164  13.728  72.095  1.00  0.00    -0.447 C  
ENDBRANCH  29  31
ENDBRANCH  23  29
BRANCH  27  33
HETATM   33  C   UNL     1     -10.864  14.936  66.461  1.00  0.00    -0.322 C  
BRANCH  33  34
HETATM   34  C   UNL     1      -9.672  15.723  65.893  1.00  0.00    -0.389 C  
HETATM   35  C   UNL     1     -10.214  17.918  67.081  1.00  0.00    -0.355 C  
HETATM   36  O   UNL     1      -8.725  16.315  68.037  1.00  0.00    -0.174 OA 
HETATM   37  C   UNL     1      -9.150  16.864  66.787  1.00  0.00    -0.245 C  
HETATM   38  C   UNL     1      -7.935  17.524  66.123  1.00  0.00    -0.261 C  
HETATM   39  H   UNL     1      -8.403  17.018  68.589  1.00  0.00     0.000 HD 
ENDBRANCH  33  34
ENDBRANCH  27  33
ENDBRANCH  21  22
ENDBRANCH   1  21
BRANCH   3  40
HETATM   40  O   UNL     1     -10.445  11.033  65.542  1.00  0.00    -0.262 OA 
HETATM   41  C   UNL     1     -10.668  11.044  64.143  1.00  0.00    -0.274 C  
ENDBRANCH   3  40
TORSDOF 7
ENDMDL
MODEL       91
REMARK 921   NORMALIZED FREE ENERGY PREDICTED BY IDOCK:   -3.66 KCAL/MOL
REMARK 922        TOTAL FREE ENERGY PREDICTED BY IDOCK:   -7.02 KCAL/MOL
REMARK 923 INTER-LIGAND FREE ENERGY PREDICTED BY IDOCK:   -6.86 KCAL/MOL
REMARK 924 INTRA-LIGAND FREE ENERGY PREDICTED BY IDOCK:   -0.16 KCAL/MOL
REMARK 927      BINDING AFFINITY PREDICTED BY RF-SCORE:    0.00 PKD
ROOT
HETATM    1  C   UNL     1      -8.029   8.865  65.745  1.00  0.00    -0.101 C  
HETATM    2  O   UNL     1      -9.535   3.223  69.017  1.00  0.00    -0.163 OA 
HETATM    3  C   UNL     1      -8.663   9.221  64.418  1.00  0.00    -0.181 C  
HETATM    4  C   UNL     1      -7.440   7.396  65.532  1.00  0.00    -0.088 C  
HETATM    5  C   UNL     1      -8.295   3.072  69.728  1.00  0.00    -0.051 C  
HETATM    6  C   UNL     1      -8.167   8.494  63.418  1.00  0.00    -0.136 C  
HETATM    7  C   UNL     1      -7.198   7.428  63.856  1.00  0.00    -0.078 C  
HETATM    8  C   UNL     1      -8.106   6.187  66.424  1.00  0.00    -0.111 A  
HETATM    9  C   UNL     1      -7.427   5.781  67.600  1.00  0.00    -0.078 A  
HETATM   10  O   UNL     1      -7.335   4.114  69.420  1.00  0.00    -0.053 OA 
HETATM   11  C   UNL     1      -7.956   4.755  68.387  1.00  0.00    -0.084 A  
HETATM   12  C   UNL     1      -5.780   7.842  63.451  1.00  0.00    -0.054 C  
HETATM   13  C   UNL     1      -9.194   4.212  68.146  1.00  0.00    -0.147 A  
HETATM   14  C   UNL     1      -9.898   4.517  67.011  1.00  0.00    -0.232 A  
HETATM   15  C   UNL     1      -5.263   6.733  62.543  1.00  0.00    -0.031 C  
HETATM   16  C   UNL     1      -9.232   5.309  66.059  1.00  0.00    -0.163 A  
HETATM   17  C   UNL     1      -9.270   4.599  64.632  1.00  0.00    -0.119 C  
HETATM   18  C   UNL     1      -8.373   5.499  63.871  1.00  0.00    -0.086 C  
HETATM   19  N   UNL     1      -7.531   6.234  62.996  1.00  0.00    -0.063 NA 
HETATM   20  C   UNL     1      -6.273   5.599  62.617  1.00  0.00    -0.018 C  
ENDROOT
BRANCH   1  21
HETATM   21  O   UNL     1      -8.904   9.057  66.850  1.00  0.00    -0.114 OA 
BRANCH  21  22
HETATM   22  C   UNL     1      -8.812  10.320  67.368  1.00  0.00    -0.131 C  
HETATM   23  C   UNL     1     -10.222  12.202  68.222  1.00  0.00    -0.209 C  
HETATM   24  C   UNL     1     -10.084  10.675  68.153  1.00  0.00    -0.158 C  
HETATM   25  O   UNL     1      -7.865  11.087  67.186  1.00  0.00    -0.123 OA 
HETATM   26  H   UNL     1     -12.019  10.346  67.982  1.00  0.00     0.000 HD 
HETATM   27  C   UNL     1      -9.985  10.052  69.567  1.00  0.00    -0.249 C  
HETATM   28  O   UNL     1     -11.232  10.127  67.496  1.00  0.00    -0.265 OA 
BRANCH  23  29
HETATM   29  C   UNL     1     -10.319  12.839  66.843  1.00  0.00    -0.238 C  
HETATM   30  O   UNL     1      -9.433  12.887  65.997  1.00  0.00    -0.210 OA 
BRANCH  29  31
HETATM   31  O   UNL     1     -11.584  13.341  66.693  1.00  0.00    -0.331 OA 
HETATM   32  C   UNL     1     -12.241  12.871  65.518  1.00  0.00    -0.474 C  
ENDBRANCH  29  31
ENDBRANCH  23  29
BRANCH  27  33
HETATM   33  C   UNL     1     -11.162  10.319  70.530  1.00  0.00    -0.408 C  
BRANCH  33  34
HETATM   34  C   UNL     1     -11.274   9.325  71.697  1.00  0.00    -0.449 C  
HETATM   35  C   UNL     1     -11.851   7.295  70.259  1.00  0.00    -0.109 C  
HETATM   36  O   UNL     1      -9.598   7.790  70.874  1.00  0.00    -0.167 OA 
HETATM   37  C   UNL     1     -10.945   7.860  71.348  1.00  0.00    -0.232 C  
HETATM   38  C   UNL     1     -11.047   6.995  72.611  1.00  0.00    -0.317 C  
HETATM   39  H   UNL     1      -9.394   6.887  70.659  1.00  0.00     0.000 HD 
ENDBRANCH  33  34
ENDBRANCH  27  33
ENDBRANCH  21  22
ENDBRANCH   1  21
BRANCH   3  40
HETATM   40  O   UNL     1      -9.653  10.134  64.163  1.00  0.00    -0.290 OA 
HETATM   41  C   UNL     1      -9.657  10.864  62.950  1.00  0.00    -0.344 C  
ENDBRANCH   3  40
TORSDOF 7
ENDMDL
MODEL       92
REMARK 921   NORMALIZED FREE ENERGY PREDICTED BY IDOCK:   -3.61 KCAL/MOL
REMARK 922        TOTAL FREE ENERGY PREDICTED BY IDOCK:   -6.95 KCAL/MOL
REMARK 923 INTER-LIGAND FREE ENERGY PREDICTED BY IDOCK:   -8.26 KCAL/MOL
REMARK 924 INTRA-LIGAND FREE ENERGY PREDICTED BY IDOCK:    1.32 KCAL/MOL
REMARK 927      BINDING AFFINITY PREDICTED BY RF-SCORE:    0.00 PKD
ROOT
HETATM    1  C   UNL     1      -8.890  15.694  67.619  1.00  0.00    -0.175 C  
HETATM    2  O   UNL     1      -6.400  20.995  64.379  1.00  0.00    -0.300 OA 
HETATM    3  C   UNL     1      -9.484  15.804  69.007  1.00  0.00    -0.247 C  
HETATM    4  C   UNL     1      -7.442  16.355  67.745  1.00  0.00    -0.158 C  
HETATM    5  C   UNL     1      -5.455  20.294  63.553  1.00  0.00    -0.232 C  
HETATM    6  C   UNL     1      -8.545  15.949  69.941  1.00  0.00     0.424 C  
HETATM    7  C   UNL     1      -7.150  16.087  69.392  1.00  0.00    -0.217 C  
HETATM    8  C   UNL     1      -7.173  17.734  66.893  1.00  0.00    -0.228 A  
HETATM    9  C   UNL     1      -6.500  17.624  65.650  1.00  0.00    -0.049 A  
HETATM   10  O   UNL     1      -5.445  18.864  63.794  1.00  0.00    -0.254 OA 
HETATM   11  C   UNL     1      -6.248  18.771  64.893  1.00  0.00    -0.188 A  
HETATM   12  C   UNL     1      -6.370  14.799  69.673  1.00  0.00    -0.142 C  
HETATM   13  C   UNL     1      -6.756  20.000  65.236  1.00  0.00    -0.301 A  
HETATM   14  C   UNL     1      -7.382  20.203  66.438  1.00  0.00    -0.313 A  
HETATM   15  C   UNL     1      -5.162  15.214  70.505  1.00  0.00    -0.129 C  
HETATM   16  C   UNL     1      -7.361  19.126  67.341  1.00  0.00    -0.248 A  
HETATM   17  C   UNL     1      -6.786  19.602  68.750  1.00  0.00    -0.344 C  
HETATM   18  C   UNL     1      -6.686  18.298  69.443  1.00  0.00    -0.168 C  
HETATM   19  N   UNL     1      -6.505  17.145  70.253  1.00  0.00     0.351 NA 
HETATM   20  C   UNL     1      -5.127  16.734  70.500  1.00  0.00    -0.224 C  
ENDROOT
BRANCH   1  21
HETATM   21  O   UNL     1      -9.747  16.203  66.604  1.00  0.00    -0.224 OA 
BRANCH  21  22
HETATM   22  C   UNL     1     -10.890  15.462  66.476  1.00  0.00    -0.298 C  
HETATM   23  C   UNL     1     -11.778  13.392  65.386  1.00  0.00    -0.354 C  
HETATM   24  C   UNL     1     -10.553  14.019  66.066  1.00  0.00    -0.297 C  
HETATM   25  O   UNL     1     -12.033  15.901  66.616  1.00  0.00     0.645 OA 
HETATM   26  H   UNL     1      -9.245  13.125  64.898  1.00  0.00     0.000 HD 
HETATM   27  C   UNL     1     -10.141  13.227  67.330  1.00  0.00    -0.233 C  
HETATM   28  O   UNL     1      -9.453  14.016  65.151  1.00  0.00     0.103 OA 
BRANCH  23  29
HETATM   29  C   UNL     1     -12.204  14.155  64.140  1.00  0.00    -0.390 C  
HETATM   30  O   UNL     1     -12.279  15.373  64.019  1.00  0.00    -0.629 OA 
BRANCH  29  31
HETATM   31  O   UNL     1     -12.477  13.244  63.155  1.00  0.00    -0.696 OA 
HETATM   32  C   UNL     1     -12.495  11.898  63.623  1.00  0.00    -0.470 C  
ENDBRANCH  29  31
ENDBRANCH  23  29
BRANCH  27  33
HETATM   33  C   UNL     1      -9.789  11.737  67.135  1.00  0.00    -0.207 C  
BRANCH  33  34
HETATM   34  C   UNL     1      -9.572  10.953  68.439  1.00  0.00    -0.177 C  
HETATM   35  C   UNL     1     -11.943  11.268  69.334  1.00  0.00    -0.410 C  
HETATM   36  O   UNL     1     -11.336   9.345  68.056  1.00  0.00    -0.494 OA 
HETATM   37  C   UNL     1     -10.830  10.274  69.017  1.00  0.00    -0.230 C  
HETATM   38  C   UNL     1     -10.456   9.490  70.282  1.00  0.00    -0.319 C  
HETATM   39  H   UNL     1     -12.112   8.927  68.412  1.00  0.00     0.000 HD 
ENDBRANCH  33  34
ENDBRANCH  27  33
ENDBRANCH  21  22
ENDBRANCH   1  21
BRANCH   3  40
HETATM   40  O   UNL     1     -10.805  15.799  69.372  1.00  0.00    -0.229 OA 
HETATM   41  C   UNL     1     -11.259  14.940  70.402  1.00  0.00    -0.211 C  
ENDBRANCH   3  40
TORSDOF 7
ENDMDL
MODEL       93
REMARK 921   NORMALIZED FREE ENERGY PREDICTED BY IDOCK:   -3.61 KCAL/MOL
REMARK 922        TOTAL FREE ENERGY PREDICTED BY IDOCK:   -6.95 KCAL/MOL
REMARK 923 INTER-LIGAND FREE ENERGY PREDICTED BY IDOCK:   -7.38 KCAL/MOL
REMARK 924 INTRA-LIGAND FREE ENERGY PREDICTED BY IDOCK:    0.44 KCAL/MOL
REMARK 927      BINDING AFFINITY PREDICTED BY RF-SCORE:    0.00 PKD
ROOT
HETATM    1  C   UNL     1      -8.103   8.834  66.843  1.00  0.00    -0.101 C  
HETATM    2  O   UNL     1     -11.399   6.946  72.354  1.00  0.00    -0.259 OA 
HETATM    3  C   UNL     1      -8.453   8.299  65.471  1.00  0.00    -0.161 C  
HETATM    4  C   UNL     1      -7.887   7.534  67.742  1.00  0.00    -0.117 C  
HETATM    5  C   UNL     1     -10.339   7.161  73.299  1.00  0.00    -0.327 C  
HETATM    6  C   UNL     1      -8.036   7.044  65.305  1.00  0.00    -0.134 C  
HETATM    7  C   UNL     1      -7.435   6.429  66.540  1.00  0.00    -0.086 C  
HETATM    8  C   UNL     1      -8.946   7.292  68.975  1.00  0.00    -0.134 A  
HETATM    9  C   UNL     1      -8.548   7.686  70.277  1.00  0.00    -0.143 A  
HETATM   10  O   UNL     1      -9.114   7.629  72.680  1.00  0.00    -0.136 OA 
HETATM   11  C   UNL     1      -9.416   7.497  71.356  1.00  0.00    -0.148 A  
HETATM   12  C   UNL     1      -5.918   6.313  66.355  1.00  0.00    -0.028 C  
HETATM   13  C   UNL     1     -10.711   7.073  71.187  1.00  0.00    -0.230 A  
HETATM   14  C   UNL     1     -11.164   6.633  69.970  1.00  0.00    -0.425 A  
HETATM   15  C   UNL     1      -5.591   4.832  66.499  1.00  0.00    -0.017 C  
HETATM   16  C   UNL     1     -10.203   6.524  68.950  1.00  0.00    -0.206 A  
HETATM   17  C   UNL     1     -10.240   5.061  68.316  1.00  0.00    -0.143 C  
HETATM   18  C   UNL     1      -9.055   5.132  67.432  1.00  0.00    -0.113 C  
HETATM   19  N   UNL     1      -7.949   5.011  66.549  1.00  0.00    -0.107 NA 
HETATM   20  C   UNL     1      -6.858   4.147  66.987  1.00  0.00    -0.051 C  
ENDROOT
BRANCH   1  21
HETATM   21  O   UNL     1      -9.033   9.801  67.317  1.00  0.00    -0.134 OA 
BRANCH  21  22
HETATM   22  C   UNL     1      -8.918  10.995  66.657  1.00  0.00    -0.168 C  
HETATM   23  C   UNL     1     -10.264  12.969  65.916  1.00  0.00    -0.298 C  
HETATM   24  C   UNL     1     -10.076  11.932  67.032  1.00  0.00    -0.205 C  
HETATM   25  O   UNL     1      -8.039  11.262  65.836  1.00  0.00    -0.084 OA 
HETATM   26  H   UNL     1     -12.000  11.758  67.416  1.00  0.00     0.000 HD 
HETATM   27  C   UNL     1      -9.749  12.609  68.385  1.00  0.00    -0.187 C  
HETATM   28  O   UNL     1     -11.284  11.179  67.184  1.00  0.00    -0.298 OA 
BRANCH  23  29
HETATM   29  C   UNL     1     -10.586  12.326  64.575  1.00  0.00    -0.311 C  
HETATM   30  O   UNL     1      -9.810  12.159  63.640  1.00  0.00    -0.339 OA 
BRANCH  29  31
HETATM   31  O   UNL     1     -11.900  11.941  64.591  1.00  0.00    -0.295 OA 
HETATM   32  C   UNL     1     -12.535  12.054  63.319  1.00  0.00    -0.425 C  
ENDBRANCH  29  31
ENDBRANCH  23  29
BRANCH  27  33
HETATM   33  C   UNL     1     -10.783  13.619  68.927  1.00  0.00    -0.237 C  
BRANCH  33  34
HETATM   34  C   UNL     1     -11.134  14.761  67.959  1.00  0.00    -0.294 C  
HETATM   35  C   UNL     1     -10.400  16.654  69.509  1.00  0.00    -0.245 C  
HETATM   36  O   UNL     1      -8.914  15.716  67.893  1.00  0.00    -0.178 OA 
HETATM   37  C   UNL     1     -10.288  16.040  68.117  1.00  0.00    -0.260 C  
HETATM   38  C   UNL     1     -10.710  17.069  67.060  1.00  0.00    -0.149 C  
HETATM   39  H   UNL     1      -8.392  16.504  67.990  1.00  0.00     0.000 HD 
ENDBRANCH  33  34
ENDBRANCH  27  33
ENDBRANCH  21  22
ENDBRANCH   1  21
BRANCH   3  40
HETATM   40  O   UNL     1      -9.136   8.923  64.461  1.00  0.00    -0.058 OA 
HETATM   41  C   UNL     1      -8.568   9.022  63.167  1.00  0.00    -0.151 C  
ENDBRANCH   3  40
TORSDOF 7
ENDMDL
MODEL       94
REMARK 921   NORMALIZED FREE ENERGY PREDICTED BY IDOCK:   -3.57 KCAL/MOL
REMARK 922        TOTAL FREE ENERGY PREDICTED BY IDOCK:   -6.89 KCAL/MOL
REMARK 923 INTER-LIGAND FREE ENERGY PREDICTED BY IDOCK:   -6.01 KCAL/MOL
REMARK 924 INTRA-LIGAND FREE ENERGY PREDICTED BY IDOCK:   -0.88 KCAL/MOL
REMARK 927      BINDING AFFINITY PREDICTED BY RF-SCORE:    0.00 PKD
ROOT
HETATM    1  C   UNL     1      -8.372   7.349  70.053  1.00  0.00    -0.137 C  
HETATM    2  O   UNL     1      -9.491   3.250  64.882  1.00  0.00    -0.149 OA 
HETATM    3  C   UNL     1      -7.480   6.960  71.212  1.00  0.00    -0.082 C  
HETATM    4  C   UNL     1      -9.423   6.154  69.932  1.00  0.00    -0.170 C  
HETATM    5  C   UNL     1     -10.783   3.755  64.507  1.00  0.00    -0.118 C  
HETATM    6  C   UNL     1      -8.069   6.080  72.021  1.00  0.00    -0.107 C  
HETATM    7  C   UNL     1      -9.411   5.602  71.533  1.00  0.00    -0.146 C  
HETATM    8  C   UNL     1      -9.373   5.249  68.561  1.00  0.00    -0.152 A  
HETATM    9  C   UNL     1     -10.304   5.550  67.535  1.00  0.00    -0.268 A  
HETATM   10  O   UNL     1     -11.244   4.827  65.369  1.00  0.00    -0.103 OA 
HETATM   11  C   UNL     1     -10.299   4.804  66.353  1.00  0.00    -0.273 A  
HETATM   12  C   UNL     1     -10.510   6.220  72.402  1.00  0.00    -0.223 C  
HETATM   13  C   UNL     1      -9.326   3.875  66.079  1.00  0.00    -0.171 A  
HETATM   14  C   UNL     1      -8.413   3.495  67.029  1.00  0.00    -0.107 A  
HETATM   15  C   UNL     1     -11.272   5.048  73.010  1.00  0.00    -0.383 C  
HETATM   16  C   UNL     1      -8.609   4.012  68.322  1.00  0.00    -0.112 A  
HETATM   17  C   UNL     1      -8.644   2.826  69.387  1.00  0.00    -0.115 C  
HETATM   18  C   UNL     1      -9.039   3.579  70.600  1.00  0.00    -0.116 C  
HETATM   19  N   UNL     1      -9.427   4.127  71.851  1.00  0.00    -0.132 NA 
HETATM   20  C   UNL     1     -10.767   3.791  72.320  1.00  0.00     0.177 C  
ENDROOT
BRANCH   1  21
HETATM   21  O   UNL     1      -7.643   7.691  68.880  1.00  0.00    -0.096 OA 
BRANCH  21  22
HETATM   22  C   UNL     1      -7.586   9.044  68.685  1.00  0.00    -0.092 C  
HETATM   23  C   UNL     1      -8.605  10.879  67.323  1.00  0.00    -0.128 C  
HETATM   24  C   UNL     1      -8.886   9.551  68.041  1.00  0.00    -0.123 C  
HETATM   25  O   UNL     1      -6.609   9.751  68.939  1.00  0.00    -0.046 OA 
HETATM   26  H   UNL     1     -10.170   8.908  66.694  1.00  0.00     0.000 HD 
HETATM   27  C   UNL     1      -9.954   9.722  69.148  1.00  0.00    -0.195 C  
HETATM   28  O   UNL     1      -9.367   8.594  67.092  1.00  0.00    -0.142 OA 
BRANCH  23  29
HETATM   29  C   UNL     1      -7.555  10.736  66.230  1.00  0.00    -0.142 C  
HETATM   30  O   UNL     1      -7.654  10.073  65.204  1.00  0.00    -0.127 OA 
BRANCH  29  31
HETATM   31  O   UNL     1      -6.472  11.499  66.578  1.00  0.00    -0.121 OA 
HETATM   32  C   UNL     1      -5.250  11.030  66.014  1.00  0.00    -0.139 C  
ENDBRANCH  29  31
ENDBRANCH  23  29
BRANCH  27  33
HETATM   33  C   UNL     1     -11.334  10.255  68.708  1.00  0.00    -0.226 C  
BRANCH  33  34
HETATM   34  C   UNL     1     -11.971  11.264  69.677  1.00  0.00    -0.423 C  
HETATM   35  C   UNL     1     -13.659   9.633  70.684  1.00  0.00     0.162 C  
HETATM   36  O   UNL     1     -11.522   9.994  71.684  1.00  0.00    -0.282 OA 
HETATM   37  C   UNL     1     -12.564  10.657  70.964  1.00  0.00    -0.416 C  
HETATM   38  C   UNL     1     -13.115  11.778  71.855  1.00  0.00    -0.482 C  
HETATM   39  H   UNL     1     -11.886   9.620  72.478  1.00  0.00     0.000 HD 
ENDBRANCH  33  34
ENDBRANCH  27  33
ENDBRANCH  21  22
ENDBRANCH   1  21
BRANCH   3  40
HETATM   40  O   UNL     1      -6.200   7.371  71.479  1.00  0.00    -0.036 OA 
HETATM   41  C   UNL     1      -5.968   8.582  72.175  1.00  0.00    -0.062 C  
ENDBRANCH   3  40
TORSDOF 7
ENDMDL
MODEL       95
REMARK 921   NORMALIZED FREE ENERGY PREDICTED BY IDOCK:   -3.56 KCAL/MOL
REMARK 922        TOTAL FREE ENERGY PREDICTED BY IDOCK:   -6.88 KCAL/MOL
REMARK 923 INTER-LIGAND FREE ENERGY PREDICTED BY IDOCK:   -5.61 KCAL/MOL
REMARK 924 INTRA-LIGAND FREE ENERGY PREDICTED BY IDOCK:   -1.27 KCAL/MOL
REMARK 927      BINDING AFFINITY PREDICTED BY RF-SCORE:    0.00 PKD
ROOT
HETATM    1  C   UNL     1      -8.912   7.691  69.272  1.00  0.00    -0.135 C  
HETATM    2  O   UNL     1      -9.073  12.071  64.213  1.00  0.00     0.318 OA 
HETATM    3  C   UNL     1      -7.629   7.344  69.997  1.00  0.00    -0.089 C  
HETATM    4  C   UNL     1      -8.583   7.451  67.729  1.00  0.00    -0.120 C  
HETATM    5  C   UNL     1     -10.223  11.541  63.533  1.00  0.00    -0.420 C  
HETATM    6  C   UNL     1      -6.845   6.550  69.268  1.00  0.00    -0.065 C  
HETATM    7  C   UNL     1      -7.358   6.290  67.877  1.00  0.00    -0.088 C  
HETATM    8  C   UNL     1      -8.600   8.768  66.746  1.00  0.00    -0.122 A  
HETATM    9  C   UNL     1      -9.767   9.006  65.978  1.00  0.00    -0.339 A  
HETATM   10  O   UNL     1     -10.775  10.368  64.182  1.00  0.00     0.122 OA 
HETATM   11  C   UNL     1      -9.825  10.113  65.127  1.00  0.00    -0.325 A  
HETATM   12  C   UNL     1      -7.868   4.848  67.791  1.00  0.00    -0.094 C  
HETATM   13  C   UNL     1      -8.843  11.072  65.109  1.00  0.00    -0.106 A  
HETATM   14  C   UNL     1      -7.665  10.901  65.788  1.00  0.00    -0.036 A  
HETATM   15  C   UNL     1      -7.052   4.181  66.691  1.00  0.00    -0.060 C  
HETATM   16  C   UNL     1      -7.471   9.647  66.393  1.00  0.00    -0.094 A  
HETATM   17  C   UNL     1      -6.080   9.023  65.928  1.00  0.00    -0.052 C  
HETATM   18  C   UNL     1      -6.190   7.672  66.524  1.00  0.00    -0.045 C  
HETATM   19  N   UNL     1      -6.129   6.336  67.003  1.00  0.00    -0.024 NA 
HETATM   20  C   UNL     1      -6.257   5.280  66.004  1.00  0.00    -0.034 C  
ENDROOT
BRANCH   1  21
HETATM   21  O   UNL     1      -9.426   8.968  69.633  1.00  0.00    -0.162 OA 
BRANCH  21  22
HETATM   22  C   UNL     1     -10.794   8.980  69.672  1.00  0.00    -0.186 C  
HETATM   23  C   UNL     1     -12.732  10.478  70.181  1.00  0.00    -0.191 C  
HETATM   24  C   UNL     1     -11.323  10.420  69.575  1.00  0.00    -0.265 C  
HETATM   25  O   UNL     1     -11.503   7.983  69.819  1.00  0.00     0.026 OA 
HETATM   26  H   UNL     1     -10.789  12.196  70.238  1.00  0.00     0.000 HD 
HETATM   27  C   UNL     1     -11.328  10.848  68.088  1.00  0.00    -0.383 C  
HETATM   28  O   UNL     1     -10.462  11.306  70.298  1.00  0.00     0.564 OA 
BRANCH  23  29
HETATM   29  C   UNL     1     -12.753  10.060  71.644  1.00  0.00    -0.435 C  
HETATM   30  O   UNL     1     -12.153   9.114  72.141  1.00  0.00    -0.362 OA 
BRANCH  29  31
HETATM   31  O   UNL     1     -13.550  10.939  72.327  1.00  0.00    -0.243 OA 
HETATM   32  C   UNL     1     -13.238  12.305  72.062  1.00  0.00    -0.403 C  
ENDBRANCH  29  31
ENDBRANCH  23  29
BRANCH  27  33
HETATM   33  C   UNL     1     -11.856  12.264  67.772  1.00  0.00    -0.341 C  
BRANCH  33  34
HETATM   34  C   UNL     1     -10.910  13.127  66.922  1.00  0.00    -0.278 C  
HETATM   35  C   UNL     1     -10.489  14.898  68.713  1.00  0.00    -0.242 C  
HETATM   36  O   UNL     1      -9.040  13.018  68.450  1.00  0.00    -0.256 OA 
HETATM   37  C   UNL     1      -9.860  13.930  67.715  1.00  0.00    -0.237 C  
HETATM   38  C   UNL     1      -8.958  14.699  66.742  1.00  0.00    -0.283 C  
HETATM   39  H   UNL     1      -8.393  13.513  68.939  1.00  0.00     0.000 HD 
ENDBRANCH  33  34
ENDBRANCH  27  33
ENDBRANCH  21  22
ENDBRANCH   1  21
BRANCH   3  40
HETATM   40  O   UNL     1      -7.208   7.760  71.233  1.00  0.00    -0.059 OA 
HETATM   41  C   UNL     1      -7.033   6.824  72.281  1.00  0.00    -0.067 C  
ENDBRANCH   3  40
TORSDOF 7
ENDMDL
MODEL       96
REMARK 921   NORMALIZED FREE ENERGY PREDICTED BY IDOCK:   -3.55 KCAL/MOL
REMARK 922        TOTAL FREE ENERGY PREDICTED BY IDOCK:   -6.87 KCAL/MOL
REMARK 923 INTER-LIGAND FREE ENERGY PREDICTED BY IDOCK:   -7.88 KCAL/MOL
REMARK 924 INTRA-LIGAND FREE ENERGY PREDICTED BY IDOCK:    1.01 KCAL/MOL
REMARK 927      BINDING AFFINITY PREDICTED BY RF-SCORE:    0.00 PKD
ROOT
HETATM    1  C   UNL     1     -11.483   6.775  70.630  1.00  0.00    -0.351 C  
HETATM    2  O   UNL     1      -6.181   4.917  66.991  1.00  0.00    -0.030 OA 
HETATM    3  C   UNL     1     -11.342   7.548  71.923  1.00  0.00    -0.260 C  
HETATM    4  C   UNL     1     -10.539   5.501  70.814  1.00  0.00    -0.320 C  
HETATM    5  C   UNL     1      -6.767   3.764  66.366  1.00  0.00    -0.049 C  
HETATM    6  C   UNL     1     -10.913   6.776  72.921  1.00  0.00    -0.297 C  
HETATM    7  C   UNL     1     -10.561   5.373  72.503  1.00  0.00    -0.227 C  
HETATM    8  C   UNL     1      -9.235   5.386  69.820  1.00  0.00    -0.169 A  
HETATM    9  C   UNL     1      -9.346   4.554  68.678  1.00  0.00    -0.199 A  
HETATM   10  O   UNL     1      -8.132   3.521  66.791  1.00  0.00    -0.090 OA 
HETATM   11  C   UNL     1      -8.261   4.424  67.806  1.00  0.00    -0.098 A  
HETATM   12  C   UNL     1     -11.631   4.411  73.029  1.00  0.00    -0.104 C  
HETATM   13  C   UNL     1      -7.127   5.189  67.931  1.00  0.00    -0.066 A  
HETATM   14  C   UNL     1      -6.922   5.987  69.026  1.00  0.00    -0.068 A  
HETATM   15  C   UNL     1     -10.897   3.414  73.918  1.00  0.00    -0.299 C  
HETATM   16  C   UNL     1      -7.868   5.881  70.060  1.00  0.00    -0.100 A  
HETATM   17  C   UNL     1      -7.136   5.585  71.445  1.00  0.00    -0.071 C  
HETATM   18  C   UNL     1      -8.311   5.334  72.310  1.00  0.00    -0.122 C  
HETATM   19  N   UNL     1      -9.309   5.047  73.279  1.00  0.00    -0.131 NA 
HETATM   20  C   UNL     1      -9.410   3.659  73.717  1.00  0.00    -0.095 C  
ENDROOT
BRANCH   1  21
HETATM   21  O   UNL     1     -11.268   7.577  69.475  1.00  0.00    -0.110 OA 
BRANCH  21  22
HETATM   22  C   UNL     1     -10.277   8.501  69.666  1.00  0.00    -0.209 C  
HETATM   23  C   UNL     1      -9.079  10.366  68.506  1.00  0.00    -0.145 C  
HETATM   24  C   UNL     1     -10.437   9.673  68.684  1.00  0.00    -0.210 C  
HETATM   25  O   UNL     1      -9.355   8.387  70.475  1.00  0.00    -0.155 OA 
HETATM   26  H   UNL     1     -10.987   9.912  66.808  1.00  0.00     0.000 HD 
HETATM   27  C   UNL     1     -11.501  10.648  69.243  1.00  0.00    -0.351 C  
HETATM   28  O   UNL     1     -10.889   9.189  67.415  1.00  0.00    -0.243 OA 
BRANCH  23  29
HETATM   29  C   UNL     1      -8.014   9.426  67.958  1.00  0.00    -0.092 C  
HETATM   30  O   UNL     1      -8.167   8.580  67.084  1.00  0.00    -0.106 OA 
BRANCH  29  31
HETATM   31  O   UNL     1      -6.836   9.697  68.600  1.00  0.00    -0.055 OA 
HETATM   32  C   UNL     1      -7.010  10.432  69.810  1.00  0.00    -0.138 C  
ENDBRANCH  29  31
ENDBRANCH  23  29
BRANCH  27  33
HETATM   33  C   UNL     1     -11.789  11.916  68.411  1.00  0.00    -0.352 C  
BRANCH  33  34
HETATM   34  C   UNL     1     -12.001  13.193  69.241  1.00  0.00    -0.344 C  
HETATM   35  C   UNL     1      -9.989  14.454  68.300  1.00  0.00    -0.232 C  
HETATM   36  O   UNL     1     -12.166  14.690  67.349  1.00  0.00    -0.571 OA 
HETATM   37  C   UNL     1     -11.486  14.493  68.592  1.00  0.00    -0.293 C  
HETATM   38  C   UNL     1     -11.808  15.685  69.501  1.00  0.00    -0.387 C  
HETATM   39  H   UNL     1     -11.849  15.491  66.949  1.00  0.00     0.000 HD 
ENDBRANCH  33  34
ENDBRANCH  27  33
ENDBRANCH  21  22
ENDBRANCH   1  21
BRANCH   3  40
HETATM   40  O   UNL     1     -11.568   8.881  72.149  1.00  0.00    -0.363 OA 
HETATM   41  C   UNL     1     -12.891   9.368  72.285  1.00  0.00    -0.375 C  
ENDBRANCH   3  40
TORSDOF 7
ENDMDL
MODEL       97
REMARK 921   NORMALIZED FREE ENERGY PREDICTED BY IDOCK:   -3.54 KCAL/MOL
REMARK 922        TOTAL FREE ENERGY PREDICTED BY IDOCK:   -6.86 KCAL/MOL
REMARK 923 INTER-LIGAND FREE ENERGY PREDICTED BY IDOCK:   -5.41 KCAL/MOL
REMARK 924 INTRA-LIGAND FREE ENERGY PREDICTED BY IDOCK:   -1.45 KCAL/MOL
REMARK 927      BINDING AFFINITY PREDICTED BY RF-SCORE:    0.00 PKD
ROOT
HETATM    1  C   UNL     1      -7.866   8.238  67.813  1.00  0.00    -0.114 C  
HETATM    2  O   UNL     1      -7.166   2.147  65.128  1.00  0.00    -0.054 OA 
HETATM    3  C   UNL     1      -8.816   9.268  67.241  1.00  0.00    -0.124 C  
HETATM    4  C   UNL     1      -6.964   7.787  66.577  1.00  0.00    -0.067 C  
HETATM    5  C   UNL     1      -5.817   1.898  65.557  1.00  0.00    -0.017 C  
HETATM    6  C   UNL     1      -8.349   9.804  66.114  1.00  0.00    -0.122 C  
HETATM    7  C   UNL     1      -7.067   9.185  65.625  1.00  0.00    -0.082 C  
HETATM    8  C   UNL     1      -7.101   6.226  66.080  1.00  0.00    -0.067 A  
HETATM    9  C   UNL     1      -6.125   5.301  66.528  1.00  0.00    -0.027 A  
HETATM   10  O   UNL     1      -5.245   3.005  66.298  1.00  0.00    -0.007 OA 
HETATM   11  C   UNL     1      -6.201   3.964  66.128  1.00  0.00    -0.032 A  
HETATM   12  C   UNL     1      -5.915  10.168  65.854  1.00  0.00    -0.084 C  
HETATM   13  C   UNL     1      -7.274   3.470  65.429  1.00  0.00    -0.067 A  
HETATM   14  C   UNL     1      -8.240   4.301  64.923  1.00  0.00    -0.103 A  
HETATM   15  C   UNL     1      -5.309  10.430  64.481  1.00  0.00    -0.142 C  
HETATM   16  C   UNL     1      -8.004   5.681  65.052  1.00  0.00    -0.115 A  
HETATM   17  C   UNL     1      -8.128   6.393  63.630  1.00  0.00    -0.029 C  
HETATM   18  C   UNL     1      -7.665   7.754  63.981  1.00  0.00    -0.126 C  
HETATM   19  N   UNL     1      -7.233   9.099  64.127  1.00  0.00    -0.095 NA 
HETATM   20  C   UNL     1      -5.950   9.440  63.521  1.00  0.00    -0.090 C  
ENDROOT
BRANCH   1  21
HETATM   21  O   UNL     1      -8.530   7.210  68.539  1.00  0.00    -0.124 OA 
BRANCH  21  22
HETATM   22  C   UNL     1      -7.863   6.876  69.686  1.00  0.00    -0.119 C  
HETATM   23  C   UNL     1      -7.663   7.510  72.098  1.00  0.00    -0.096 C  
HETATM   24  C   UNL     1      -8.637   7.366  70.920  1.00  0.00    -0.135 C  
HETATM   25  O   UNL     1      -6.770   6.309  69.725  1.00  0.00    -0.052 OA 
HETATM   26  H   UNL     1      -9.716   8.939  71.410  1.00  0.00     0.000 HD 
HETATM   27  C   UNL     1      -9.761   6.351  71.237  1.00  0.00    -0.189 C  
HETATM   28  O   UNL     1      -9.238   8.636  70.648  1.00  0.00    -0.153 OA 
BRANCH  23  29
HETATM   29  C   UNL     1      -6.546   8.503  71.810  1.00  0.00    -0.072 C  
HETATM   30  O   UNL     1      -6.676   9.646  71.388  1.00  0.00    -0.311 OA 
BRANCH  29  31
HETATM   31  O   UNL     1      -5.354   7.905  72.121  1.00  0.00    -0.035 OA 
HETATM   32  C   UNL     1      -5.485   6.849  73.070  1.00  0.00    -0.038 C  
ENDBRANCH  29  31
ENDBRANCH  23  29
BRANCH  27  33
HETATM   33  C   UNL     1     -10.642   6.649  72.470  1.00  0.00    -0.245 C  
BRANCH  33  34
HETATM   34  C   UNL     1     -12.155   6.544  72.217  1.00  0.00    -0.236 C  
HETATM   35  C   UNL     1     -12.633   9.043  72.440  1.00  0.00    -0.403 C  
HETATM   36  O   UNL     1     -12.191   8.040  70.319  1.00  0.00    -0.357 OA 
HETATM   37  C   UNL     1     -12.805   7.790  71.585  1.00  0.00    -0.340 C  
HETATM   38  C   UNL     1     -14.297   7.526  71.345  1.00  0.00    -0.540 C  
HETATM   39  H   UNL     1     -12.592   8.808  69.929  1.00  0.00     0.000 HD 
ENDBRANCH  33  34
ENDBRANCH  27  33
ENDBRANCH  21  22
ENDBRANCH   1  21
BRANCH   3  40
HETATM   40  O   UNL     1     -10.042   9.655  67.716  1.00  0.00    -0.166 OA 
HETATM   41  C   UNL     1     -10.808  10.619  67.017  1.00  0.00    -0.238 C  
ENDBRANCH   3  40
TORSDOF 7
ENDMDL
MODEL       98
REMARK 921   NORMALIZED FREE ENERGY PREDICTED BY IDOCK:   -3.49 KCAL/MOL
REMARK 922        TOTAL FREE ENERGY PREDICTED BY IDOCK:   -6.78 KCAL/MOL
REMARK 923 INTER-LIGAND FREE ENERGY PREDICTED BY IDOCK:   -7.14 KCAL/MOL
REMARK 924 INTRA-LIGAND FREE ENERGY PREDICTED BY IDOCK:    0.35 KCAL/MOL
REMARK 927      BINDING AFFINITY PREDICTED BY RF-SCORE:    0.00 PKD
ROOT
HETATM    1  C   UNL     1     -10.972  15.971  67.796  1.00  0.00    -0.307 C  
HETATM    2  O   UNL     1      -5.125  13.445  69.856  1.00  0.00    -0.082 OA 
HETATM    3  C   UNL     1     -11.256  16.259  66.338  1.00  0.00     0.280 C  
HETATM    4  C   UNL     1      -9.603  16.734  68.100  1.00  0.00    -0.242 C  
HETATM    5  C   UNL     1      -5.138  13.985  71.188  1.00  0.00    -0.129 C  
HETATM    6  C   UNL     1     -10.621  17.351  65.913  1.00  0.00    -0.201 C  
HETATM    7  C   UNL     1      -9.694  17.957  66.932  1.00  0.00    -0.309 C  
HETATM    8  C   UNL     1      -8.299  15.809  68.480  1.00  0.00    -0.175 A  
HETATM    9  C   UNL     1      -7.973  15.655  69.851  1.00  0.00     0.206 A  
HETATM   10  O   UNL     1      -6.308  14.796  71.460  1.00  0.00     0.258 OA 
HETATM   11  C   UNL     1      -6.871  14.878  70.220  1.00  0.00     0.012 A  
HETATM   12  C   UNL     1     -10.308  19.259  67.456  1.00  0.00    -0.542 C  
HETATM   13  C   UNL     1      -6.165  14.132  69.308  1.00  0.00    -0.103 A  
HETATM   14  C   UNL     1      -6.387  14.253  67.961  1.00  0.00    -0.159 A  
HETATM   15  C   UNL     1      -9.295  20.355  67.144  1.00  0.00    -0.537 C  
HETATM   16  C   UNL     1      -7.279  15.265  67.566  1.00  0.00    -0.224 A  
HETATM   17  C   UNL     1      -6.592  16.205  66.476  1.00  0.00     0.514 C  
HETATM   18  C   UNL     1      -7.620  17.266  66.364  1.00  0.00    -0.314 C  
HETATM   19  N   UNL     1      -8.479  18.374  66.141  1.00  0.00    -0.482 NA 
HETATM   20  C   UNL     1      -8.031  19.661  66.665  1.00  0.00    -0.300 C  
ENDROOT
BRANCH   1  21
HETATM   21  O   UNL     1     -11.023  14.584  68.110  1.00  0.00    -0.241 OA 
BRANCH  21  22
HETATM   22  C   UNL     1     -11.111  14.364  69.458  1.00  0.00    -0.231 C  
HETATM   23  C   UNL     1     -12.499  13.179  71.169  1.00  0.00    -0.378 C  
HETATM   24  C   UNL     1     -11.934  13.098  69.744  1.00  0.00    -0.314 C  
HETATM   25  O   UNL     1     -10.642  15.104  70.324  1.00  0.00    -0.247 OA 
HETATM   26  H   UNL     1     -13.525  12.217  68.989  1.00  0.00     0.000 HD 
HETATM   27  C   UNL     1     -11.021  11.861  69.567  1.00  0.00    -0.090 C  
HETATM   28  O   UNL     1     -13.016  12.999  68.813  1.00  0.00     1.145 OA 
BRANCH  23  29
HETATM   29  C   UNL     1     -13.400  14.389  71.369  1.00  0.00    -0.349 C  
HETATM   30  O   UNL     1     -13.890  15.087  70.489  1.00  0.00    -0.038 OA 
BRANCH  29  31
HETATM   31  O   UNL     1     -13.589  14.562  72.714  1.00  0.00    -0.477 OA 
HETATM   32  C   UNL     1     -12.464  15.144  73.370  1.00  0.00    -0.513 C  
ENDBRANCH  29  31
ENDBRANCH  23  29
BRANCH  27  33
HETATM   33  C   UNL     1     -11.656  10.481  69.839  1.00  0.00    -0.384 C  
BRANCH  33  34
HETATM   34  C   UNL     1     -11.052   9.720  71.030  1.00  0.00    -0.431 C  
HETATM   35  C   UNL     1     -13.222   9.560  72.368  1.00  0.00    -0.451 C  
HETATM   36  O   UNL     1     -12.537   7.818  70.885  1.00  0.00    -0.515 OA 
HETATM   37  C   UNL     1     -12.030   8.802  71.790  1.00  0.00    -0.349 C  
HETATM   38  C   UNL     1     -11.284   8.072  72.913  1.00  0.00    -0.389 C  
HETATM   39  H   UNL     1     -13.140   7.252  71.353  1.00  0.00     0.000 HD 
ENDBRANCH  33  34
ENDBRANCH  27  33
ENDBRANCH  21  22
ENDBRANCH   1  21
BRANCH   3  40
HETATM   40  O   UNL     1     -12.027  15.541  65.461  1.00  0.00     0.199 OA 
HETATM   41  C   UNL     1     -11.429  14.875  64.363  1.00  0.00    -0.247 C  
ENDBRANCH   3  40
TORSDOF 7
ENDMDL
MODEL       99
REMARK 921   NORMALIZED FREE ENERGY PREDICTED BY IDOCK:   -3.46 KCAL/MOL
REMARK 922        TOTAL FREE ENERGY PREDICTED BY IDOCK:   -6.74 KCAL/MOL
REMARK 923 INTER-LIGAND FREE ENERGY PREDICTED BY IDOCK:   -6.52 KCAL/MOL
REMARK 924 INTRA-LIGAND FREE ENERGY PREDICTED BY IDOCK:   -0.21 KCAL/MOL
REMARK 927      BINDING AFFINITY PREDICTED BY RF-SCORE:    0.00 PKD
ROOT
HETATM    1  C   UNL     1      -8.708  10.267  69.324  1.00  0.00    -0.174 C  
HETATM    2  O   UNL     1      -9.327   5.064  65.161  1.00  0.00    -0.140 OA 
HETATM    3  C   UNL     1      -7.424  11.061  69.438  1.00  0.00    -0.072 C  
HETATM    4  C   UNL     1      -8.267   8.750  69.547  1.00  0.00    -0.111 C  
HETATM    5  C   UNL     1     -10.339   4.349  65.889  1.00  0.00    -0.204 C  
HETATM    6  C   UNL     1      -6.485  10.396  70.110  1.00  0.00    -0.137 C  
HETATM    7  C   UNL     1      -6.877   8.992  70.485  1.00  0.00    -0.061 C  
HETATM    8  C   UNL     1      -8.449   7.724  68.276  1.00  0.00    -0.124 A  
HETATM    9  C   UNL     1      -9.599   6.896  68.253  1.00  0.00    -0.128 A  
HETATM   10  O   UNL     1     -10.723   5.011  67.121  1.00  0.00    -0.126 OA 
HETATM   11  C   UNL     1      -9.793   6.007  67.192  1.00  0.00    -0.142 A  
HETATM   12  C   UNL     1      -7.140   8.931  71.993  1.00  0.00     0.040 C  
HETATM   13  C   UNL     1      -8.981   6.001  66.085  1.00  0.00    -0.152 A  
HETATM   14  C   UNL     1      -7.827   6.739  66.042  1.00  0.00    -0.104 A  
HETATM   15  C   UNL     1      -6.171   7.892  72.545  1.00  0.00    -0.056 C  
HETATM   16  C   UNL     1      -7.463   7.394  67.232  1.00  0.00    -0.103 A  
HETATM   17  C   UNL     1      -5.966   7.014  67.630  1.00  0.00    -0.028 C  
HETATM   18  C   UNL     1      -5.884   7.649  68.965  1.00  0.00    -0.030 C  
HETATM   19  N   UNL     1      -5.630   8.174  70.259  1.00  0.00    -0.022 NA 
HETATM   20  C   UNL     1      -5.533   7.206  71.347  1.00  0.00    -0.031 C  
ENDROOT
BRANCH   1  21
HETATM   21  O   UNL     1      -9.441  10.561  68.141  1.00  0.00    -0.146 OA 
BRANCH  21  22
HETATM   22  C   UNL     1     -10.425  11.488  68.361  1.00  0.00    -0.207 C  
HETATM   23  C   UNL     1     -11.110  13.812  67.738  1.00  0.00    -0.288 C  
HETATM   24  C   UNL     1     -10.453  12.522  67.225  1.00  0.00    -0.220 C  
HETATM   25  O   UNL     1     -11.151  11.520  69.356  1.00  0.00    -0.247 OA 
HETATM   26  H   UNL     1      -9.137  13.451  66.092  1.00  0.00     0.000 HD 
HETATM   27  C   UNL     1     -11.235  11.926  66.030  1.00  0.00    -0.377 C  
HETATM   28  O   UNL     1      -9.119  12.812  66.794  1.00  0.00    -0.217 OA 
BRANCH  23  29
HETATM   29  C   UNL     1     -10.359  14.417  68.916  1.00  0.00    -0.231 C  
HETATM   30  O   UNL     1      -9.239  14.914  68.890  1.00  0.00    -0.191 OA 
BRANCH  29  31
HETATM   31  O   UNL     1     -11.161  14.328  70.022  1.00  0.00    -0.159 OA 
HETATM   32  C   UNL     1     -11.594  15.597  70.506  1.00  0.00    -0.360 C  
ENDBRANCH  29  31
ENDBRANCH  23  29
BRANCH  27  33
HETATM   33  C   UNL     1     -11.403  12.827  64.788  1.00  0.00    -0.346 C  
BRANCH  33  34
HETATM   34  C   UNL     1     -10.290  12.686  63.737  1.00  0.00    -0.360 C  
HETATM   35  C   UNL     1      -9.323  10.514  64.669  1.00  0.00    -0.294 C  
HETATM   36  O   UNL     1     -10.974  10.508  62.945  1.00  0.00    -0.124 OA 
HETATM   37  C   UNL     1      -9.849  11.241  63.435  1.00  0.00    -0.385 C  
HETATM   38  C   UNL     1      -8.775  11.249  62.339  1.00  0.00    -0.248 C  
HETATM   39  H   UNL     1     -10.703   9.616  62.758  1.00  0.00     0.000 HD 
ENDBRANCH  33  34
ENDBRANCH  27  33
ENDBRANCH  21  22
ENDBRANCH   1  21
BRANCH   3  40
HETATM   40  O   UNL     1      -7.139  12.300  68.926  1.00  0.00    -0.104 OA 
HETATM   41  C   UNL     1      -6.112  13.091  69.497  1.00  0.00    -0.115 C  
ENDBRANCH   3  40
TORSDOF 7
ENDMDL
MODEL      100
REMARK 921   NORMALIZED FREE ENERGY PREDICTED BY IDOCK:   -3.42 KCAL/MOL
REMARK 922        TOTAL FREE ENERGY PREDICTED BY IDOCK:   -6.68 KCAL/MOL
REMARK 923 INTER-LIGAND FREE ENERGY PREDICTED BY IDOCK:   -7.76 KCAL/MOL
REMARK 924 INTRA-LIGAND FREE ENERGY PREDICTED BY IDOCK:    1.08 KCAL/MOL
REMARK 927      BINDING AFFINITY PREDICTED BY RF-SCORE:    0.00 PKD
ROOT
HETATM    1  C   UNL     1      -9.815  14.463  67.696  1.00  0.00    -0.224 C  
HETATM    2  O   UNL     1     -13.785  16.010  72.858  1.00  0.00    -0.565 OA 
HETATM    3  C   UNL     1     -10.265  13.546  66.579  1.00  0.00    -0.283 C  
HETATM    4  C   UNL     1     -10.086  13.635  69.033  1.00  0.00     0.038 C  
HETATM    5  C   UNL     1     -12.755  16.270  73.826  1.00  0.00    -0.506 C  
HETATM    6  C   UNL     1     -10.287  12.270  66.961  1.00  0.00    -0.237 C  
HETATM    7  C   UNL     1      -9.980  12.060  68.419  1.00  0.00    -0.208 C  
HETATM    8  C   UNL     1     -11.216  14.232  70.067  1.00  0.00    -0.154 A  
HETATM    9  C   UNL     1     -10.765  14.984  71.180  1.00  0.00     0.161 A  
HETATM   10  O   UNL     1     -11.419  16.070  73.299  1.00  0.00    -0.095 OA 
HETATM   11  C   UNL     1     -11.691  15.509  72.086  1.00  0.00    -0.476 A  
HETATM   12  C   UNL     1      -8.584  11.444  68.554  1.00  0.00    -0.150 C  
HETATM   13  C   UNL     1     -13.045  15.448  71.864  1.00  0.00    -0.429 A  
HETATM   14  C   UNL     1     -13.567  14.708  70.836  1.00  0.00    -0.234 A  
HETATM   15  C   UNL     1      -8.779  10.122  69.287  1.00  0.00    -0.186 C  
HETATM   16  C   UNL     1     -12.656  13.922  70.109  1.00  0.00    -0.285 A  
HETATM   17  C   UNL     1     -13.155  12.408  70.062  1.00  0.00     1.002 C  
HETATM   18  C   UNL     1     -11.978  11.767  69.432  1.00  0.00    -0.298 C  
HETATM   19  N   UNL     1     -10.941  10.983  68.860  1.00  0.00    -0.208 NA 
HETATM   20  C   UNL     1     -10.221  10.094  69.767  1.00  0.00    -0.247 C  
ENDROOT
BRANCH   1  21
HETATM   21  O   UNL     1     -10.386  15.764  67.613  1.00  0.00    -0.268 OA 
BRANCH  21  22
HETATM   22  C   UNL     1      -9.627  16.702  68.259  1.00  0.00    -0.233 C  
HETATM   23  C   UNL     1      -7.270  17.513  68.475  1.00  0.00    -0.240 C  
HETATM   24  C   UNL     1      -8.312  16.944  67.501  1.00  0.00    -0.189 C  
HETATM   25  O   UNL     1      -9.929  17.239  69.325  1.00  0.00    -0.236 OA 
HETATM   26  H   UNL     1      -7.013  15.861  66.491  1.00  0.00     0.000 HD 
HETATM   27  C   UNL     1      -8.585  17.920  66.332  1.00  0.00    -0.254 C  
HETATM   28  O   UNL     1      -7.826  15.712  66.959  1.00  0.00    -0.200 OA 
BRANCH  23  29
HETATM   29  C   UNL     1      -6.986  16.571  69.636  1.00  0.00    -0.026 C  
HETATM   30  O   UNL     1      -7.452  15.449  69.797  1.00  0.00    -0.195 OA 
BRANCH  29  31
HETATM   31  O   UNL     1      -6.095  17.185  70.475  1.00  0.00     0.063 OA 
HETATM   32  C   UNL     1      -5.431  18.296  69.875  1.00  0.00    -0.227 C  
ENDBRANCH  29  31
ENDBRANCH  23  29
BRANCH  27  33
HETATM   33  C   UNL     1      -7.375  18.318  65.459  1.00  0.00     0.084 C  
BRANCH  33  34
HETATM   34  C   UNL     1      -6.260  19.065  66.209  1.00  0.00    -0.202 C  
HETATM   35  C   UNL     1      -6.092  21.008  64.560  1.00  0.00    -0.292 C  
HETATM   36  O   UNL     1      -7.493  21.126  66.489  1.00  0.00    -0.541 OA 
HETATM   37  C   UNL     1      -6.251  20.595  66.020  1.00  0.00    -0.227 C  
HETATM   38  C   UNL     1      -5.126  21.210  66.861  1.00  0.00    -0.264 C  
HETATM   39  H   UNL     1      -7.488  22.069  66.373  1.00  0.00     0.000 HD 
ENDBRANCH  33  34
ENDBRANCH  27  33
ENDBRANCH  21  22
ENDBRANCH   1  21
BRANCH   3  40
HETATM   40  O   UNL     1     -10.656  13.878  65.308  1.00  0.00    -0.320 OA 
HETATM   41  C   UNL     1     -10.562  12.930  64.260  1.00  0.00    -0.408 C  
ENDBRANCH   3  40
TORSDOF 7
ENDMDL
MODEL      101
REMARK 921   NORMALIZED FREE ENERGY PREDICTED BY IDOCK:   -3.38 KCAL/MOL
REMARK 922        TOTAL FREE ENERGY PREDICTED BY IDOCK:   -6.64 KCAL/MOL
REMARK 923 INTER-LIGAND FREE ENERGY PREDICTED BY IDOCK:   -7.67 KCAL/MOL
REMARK 924 INTRA-LIGAND FREE ENERGY PREDICTED BY IDOCK:    1.03 KCAL/MOL
REMARK 927      BINDING AFFINITY PREDICTED BY RF-SCORE:    0.00 PKD
ROOT
HETATM    1  C   UNL     1     -11.364   9.342  68.910  1.00  0.00     0.331 C  
HETATM    2  O   UNL     1      -5.706   7.005  66.204  1.00  0.00    -0.029 OA 
HETATM    3  C   UNL     1     -11.372  10.154  70.187  1.00  0.00    -0.303 C  
HETATM    4  C   UNL     1     -10.552   8.018  69.276  1.00  0.00    -0.193 C  
HETATM    5  C   UNL     1      -6.267   5.869  65.527  1.00  0.00    -0.037 C  
HETATM    6  C   UNL     1     -11.157   9.395  71.261  1.00  0.00    -0.446 C  
HETATM    7  C   UNL     1     -10.845   7.957  70.944  1.00  0.00    -0.234 C  
HETATM    8  C   UNL     1      -9.121   7.780  68.503  1.00  0.00    -0.132 A  
HETATM    9  C   UNL     1      -9.111   6.913  67.381  1.00  0.00    -0.122 A  
HETATM   10  O   UNL     1      -7.695   5.731  65.739  1.00  0.00    -0.090 OA 
HETATM   11  C   UNL     1      -7.916   6.680  66.695  1.00  0.00    -0.105 A  
HETATM   12  C   UNL     1     -12.048   7.087  71.322  1.00  0.00    -0.403 C  
HETATM   13  C   UNL     1      -6.765   7.374  66.975  1.00  0.00    -0.069 A  
HETATM   14  C   UNL     1      -6.676   8.199  68.065  1.00  0.00    -0.065 A  
HETATM   15  C   UNL     1     -11.531   6.081  72.342  1.00  0.00    -0.357 C  
HETATM   16  C   UNL     1      -7.777   8.195  68.940  1.00  0.00    -0.103 A  
HETATM   17  C   UNL     1      -7.290   7.906  70.431  1.00  0.00    -0.068 C  
HETATM   18  C   UNL     1      -8.600   7.766  71.108  1.00  0.00    -0.131 C  
HETATM   19  N   UNL     1      -9.753   7.581  71.915  1.00  0.00    -0.158 NA 
HETATM   20  C   UNL     1     -10.018   6.220  72.371  1.00  0.00    -0.172 C  
ENDROOT
BRANCH   1  21
HETATM   21  O   UNL     1     -10.917  10.083  67.781  1.00  0.00    -0.283 OA 
BRANCH  21  22
HETATM   22  C   UNL     1      -9.980  11.022  68.118  1.00  0.00    -0.177 C  
HETATM   23  C   UNL     1      -8.583  12.848  67.131  1.00  0.00    -0.198 C  
HETATM   24  C   UNL     1      -9.951  12.152  67.077  1.00  0.00    -0.202 C  
HETATM   25  O   UNL     1      -9.228  10.947  69.091  1.00  0.00    -0.157 OA 
HETATM   26  H   UNL     1     -10.135  12.311  65.122  1.00  0.00     0.000 HD 
HETATM   27  C   UNL     1     -11.101  13.141  67.384  1.00  0.00    -0.301 C  
HETATM   28  O   UNL     1     -10.154  11.614  65.766  1.00  0.00    -0.223 OA 
BRANCH  23  29
HETATM   29  C   UNL     1      -7.435  11.894  66.834  1.00  0.00    -0.079 C  
HETATM   30  O   UNL     1      -7.499  10.851  66.194  1.00  0.00    -0.140 OA 
BRANCH  29  31
HETATM   31  O   UNL     1      -6.296  12.411  67.393  1.00  0.00    -0.134 OA 
HETATM   32  C   UNL     1      -6.555  13.285  68.489  1.00  0.00    -0.089 C  
ENDBRANCH  29  31
ENDBRANCH  23  29
BRANCH  27  33
HETATM   33  C   UNL     1     -11.226  14.372  66.461  1.00  0.00    -0.340 C  
BRANCH  33  34
HETATM   34  C   UNL     1     -11.108  15.726  67.179  1.00  0.00    -0.180 C  
HETATM   35  C   UNL     1      -8.789  16.301  66.276  1.00  0.00    -0.367 C  
HETATM   36  O   UNL     1     -10.775  17.038  65.176  1.00  0.00    -0.672 OA 
HETATM   37  C   UNL     1     -10.227  16.773  66.469  1.00  0.00    -0.316 C  
HETATM   38  C   UNL     1     -10.241  18.084  67.267  1.00  0.00    -0.371 C  
HETATM   39  H   UNL     1     -10.232  17.683  64.738  1.00  0.00     0.000 HD 
ENDBRANCH  33  34
ENDBRANCH  27  33
ENDBRANCH  21  22
ENDBRANCH   1  21
BRANCH   3  40
HETATM   40  O   UNL     1     -11.536  11.506  70.337  1.00  0.00    -0.281 OA 
HETATM   41  C   UNL     1     -12.655  12.017  71.039  1.00  0.00    -0.273 C  
ENDBRANCH   3  40
TORSDOF 7
ENDMDL
MODEL      102
REMARK 921   NORMALIZED FREE ENERGY PREDICTED BY IDOCK:   -3.38 KCAL/MOL
REMARK 922        TOTAL FREE ENERGY PREDICTED BY IDOCK:   -6.63 KCAL/MOL
REMARK 923 INTER-LIGAND FREE ENERGY PREDICTED BY IDOCK:   -8.03 KCAL/MOL
REMARK 924 INTRA-LIGAND FREE ENERGY PREDICTED BY IDOCK:    1.40 KCAL/MOL
REMARK 927      BINDING AFFINITY PREDICTED BY RF-SCORE:    0.00 PKD
ROOT
HETATM    1  C   UNL     1     -10.481  12.058  68.186  1.00  0.00    -0.202 C  
HETATM    2  O   UNL     1     -14.138  15.517  72.598  1.00  0.00    -0.540 OA 
HETATM    3  C   UNL     1     -10.923  10.714  67.650  1.00  0.00    -0.310 C  
HETATM    4  C   UNL     1     -10.545  11.903  69.774  1.00  0.00     0.531 C  
HETATM    5  C   UNL     1     -13.063  16.243  73.216  1.00  0.00    -0.339 C  
HETATM    6  C   UNL     1     -10.774   9.745  68.553  1.00  0.00    -0.252 C  
HETATM    7  C   UNL     1     -10.322  10.229  69.904  1.00  0.00    -0.233 C  
HETATM    8  C   UNL     1     -11.641  12.832  70.573  1.00  0.00     0.244 A  
HETATM    9  C   UNL     1     -11.179  14.028  71.177  1.00  0.00     0.997 A  
HETATM   10  O   UNL     1     -11.763  15.907  72.669  1.00  0.00    -0.445 OA 
HETATM   11  C   UNL     1     -12.076  14.847  71.869  1.00  0.00    -0.362 A  
HETATM   12  C   UNL     1      -8.861   9.822  70.120  1.00  0.00    -0.226 C  
HETATM   13  C   UNL     1     -13.429  14.614  71.867  1.00  0.00    -0.370 A  
HETATM   14  C   UNL     1     -13.955  13.462  71.342  1.00  0.00     0.336 A  
HETATM   15  C   UNL     1      -8.848   8.959  71.376  1.00  0.00    -0.283 C  
HETATM   16  C   UNL     1     -13.029  12.489  70.926  1.00  0.00    -0.067 A  
HETATM   17  C   UNL     1     -13.363  11.088  71.611  1.00  0.00    -0.344 C  
HETATM   18  C   UNL     1     -12.182  10.304  71.184  1.00  0.00    -0.397 C  
HETATM   19  N   UNL     1     -11.119   9.409  70.889  1.00  0.00    -0.290 NA 
HETATM   20  C   UNL     1     -10.232   9.064  71.996  1.00  0.00    -0.200 C  
ENDROOT
BRANCH   1  21
HETATM   21  O   UNL     1     -11.194  13.148  67.614  1.00  0.00    -0.259 OA 
BRANCH  21  22
HETATM   22  C   UNL     1     -10.403  13.911  66.798  1.00  0.00    -0.272 C  
HETATM   23  C   UNL     1     -10.105  16.258  65.983  1.00  0.00    -0.377 C  
HETATM   24  C   UNL     1     -10.496  15.393  67.191  1.00  0.00    -0.290 C  
HETATM   25  O   UNL     1      -9.749  13.478  65.848  1.00  0.00    -0.260 OA 
HETATM   26  H   UNL     1     -11.892  16.628  67.827  1.00  0.00     0.000 HD 
HETATM   27  C   UNL     1      -9.558  15.648  68.395  1.00  0.00    -0.199 C  
HETATM   28  O   UNL     1     -11.835  15.712  67.584  1.00  0.00    -0.104 OA 
BRANCH  23  29
HETATM   29  C   UNL     1     -11.013  16.023  64.784  1.00  0.00    -0.356 C  
HETATM   30  O   UNL     1     -11.552  16.884  64.097  1.00  0.00    -1.091 OA 
BRANCH  29  31
HETATM   31  O   UNL     1     -11.117  14.672  64.586  1.00  0.00    -0.376 OA 
HETATM   32  C   UNL     1     -12.397  14.271  64.105  1.00  0.00    -0.327 C  
ENDBRANCH  29  31
ENDBRANCH  23  29
BRANCH  27  33
HETATM   33  C   UNL     1      -9.484  17.095  68.928  1.00  0.00    -0.217 C  
BRANCH  33  34
HETATM   34  C   UNL     1      -9.418  18.177  67.838  1.00  0.00    -0.284 C  
HETATM   35  C   UNL     1     -10.038  20.128  69.365  1.00  0.00    -0.065 C  
HETATM   36  O   UNL     1      -7.761  19.543  68.949  1.00  0.00    -0.358 OA 
HETATM   37  C   UNL     1      -9.050  19.590  68.334  1.00  0.00    -0.356 C  
HETATM   38  C   UNL     1      -8.971  20.550  67.140  1.00  0.00    -0.417 C  
HETATM   39  H   UNL     1      -7.534  20.413  69.254  1.00  0.00     0.000 HD 
ENDBRANCH  33  34
ENDBRANCH  27  33
ENDBRANCH  21  22
ENDBRANCH   1  21
BRANCH   3  40
HETATM   40  O   UNL     1     -11.455  10.418  66.423  1.00  0.00     0.227 OA 
HETATM   41  C   UNL     1     -10.610  10.258  65.297  1.00  0.00     0.106 C  
ENDBRANCH   3  40
TORSDOF 7
ENDMDL
MODEL      103
REMARK 921   NORMALIZED FREE ENERGY PREDICTED BY IDOCK:   -3.37 KCAL/MOL
REMARK 922        TOTAL FREE ENERGY PREDICTED BY IDOCK:   -6.61 KCAL/MOL
REMARK 923 INTER-LIGAND FREE ENERGY PREDICTED BY IDOCK:   -6.00 KCAL/MOL
REMARK 924 INTRA-LIGAND FREE ENERGY PREDICTED BY IDOCK:   -0.61 KCAL/MOL
REMARK 927      BINDING AFFINITY PREDICTED BY RF-SCORE:    0.00 PKD
ROOT
HETATM    1  C   UNL     1      -7.990   6.982  69.418  1.00  0.00    -0.118 C  
HETATM    2  O   UNL     1     -13.499   8.960  72.664  1.00  0.00    -0.435 OA 
HETATM    3  C   UNL     1      -6.847   7.928  69.117  1.00  0.00    -0.052 C  
HETATM    4  C   UNL     1      -9.285   7.712  68.839  1.00  0.00    -0.139 C  
HETATM    5  C   UNL     1     -14.410   7.999  72.107  1.00  0.00    -0.338 C  
HETATM    6  C   UNL     1      -7.144   8.768  68.126  1.00  0.00    -0.078 C  
HETATM    7  C   UNL     1      -8.562   8.657  67.632  1.00  0.00    -0.136 C  
HETATM    8  C   UNL     1     -10.429   8.178  69.923  1.00  0.00    -0.226 A  
HETATM    9  C   UNL     1     -11.556   7.338  70.098  1.00  0.00    -0.149 A  
HETATM   10  O   UNL     1     -13.782   7.115  71.144  1.00  0.00    -0.296 OA 
HETATM   11  C   UNL     1     -12.555   7.696  71.007  1.00  0.00    -0.147 A  
HETATM   12  C   UNL     1      -8.562   7.991  66.253  1.00  0.00    -0.156 C  
HETATM   13  C   UNL     1     -12.422   8.769  71.854  1.00  0.00    -0.372 A  
HETATM   14  C   UNL     1     -11.384   9.655  71.726  1.00  0.00    -0.200 A  
HETATM   15  C   UNL     1      -9.217   8.989  65.306  1.00  0.00    -0.205 C  
HETATM   16  C   UNL     1     -10.548   9.476  70.610  1.00  0.00    -0.374 A  
HETATM   17  C   UNL     1     -10.434  10.837  69.786  1.00  0.00    -0.130 C  
HETATM   18  C   UNL     1      -9.686  10.360  68.601  1.00  0.00    -0.175 C  
HETATM   19  N   UNL     1      -8.995  10.082  67.392  1.00  0.00    -0.131 NA 
HETATM   20  C   UNL     1      -9.790  10.102  66.169  1.00  0.00    -0.237 C  
ENDROOT
BRANCH   1  21
HETATM   21  O   UNL     1      -8.032   6.575  70.781  1.00  0.00    -0.110 OA 
BRANCH  21  22
HETATM   22  C   UNL     1      -7.453   5.349  70.972  1.00  0.00    -0.088 C  
HETATM   23  C   UNL     1      -8.027   2.944  71.353  1.00  0.00    -0.051 C  
HETATM   24  C   UNL     1      -8.442   4.227  70.620  1.00  0.00    -0.074 C  
HETATM   25  O   UNL     1      -6.318   5.168  71.414  1.00  0.00    -0.028 OA 
HETATM   26  H   UNL     1     -10.376   3.901  70.809  1.00  0.00     0.000 HD 
HETATM   27  C   UNL     1      -8.441   4.027  69.085  1.00  0.00    -0.100 C  
HETATM   28  O   UNL     1      -9.764   4.595  71.027  1.00  0.00    -0.163 OA 
BRANCH  23  29
HETATM   29  C   UNL     1      -8.019   3.116  72.865  1.00  0.00    -0.071 C  
HETATM   30  O   UNL     1      -8.992   3.318  73.582  1.00  0.00    -0.083 OA 
BRANCH  29  31
HETATM   31  O   UNL     1      -6.727   2.989  73.302  1.00  0.00    -0.027 OA 
HETATM   32  C   UNL     1      -6.017   1.934  72.657  1.00  0.00    -0.008 C  
ENDBRANCH  29  31
ENDBRANCH  23  29
BRANCH  27  33
HETATM   33  C   UNL     1      -9.355   2.915  68.526  1.00  0.00    -0.249 C  
BRANCH  33  34
HETATM   34  C   UNL     1      -9.190   2.646  67.021  1.00  0.00    -0.142 C  
HETATM   35  C   UNL     1     -10.188   4.865  66.246  1.00  0.00    -0.312 C  
HETATM   36  O   UNL     1      -7.838   4.597  66.569  1.00  0.00    -0.097 OA 
HETATM   37  C   UNL     1      -9.011   3.900  66.143  1.00  0.00    -0.130 C  
HETATM   38  C   UNL     1      -8.808   3.480  64.682  1.00  0.00    -0.119 C  
HETATM   39  H   UNL     1      -7.726   5.370  66.028  1.00  0.00     0.000 HD 
ENDBRANCH  33  34
ENDBRANCH  27  33
ENDBRANCH  21  22
ENDBRANCH   1  21
BRANCH   3  40
HETATM   40  O   UNL     1      -5.631   8.021  69.741  1.00  0.00    -0.023 OA 
HETATM   41  C   UNL     1      -5.415   8.995  70.746  1.00  0.00    -0.029 C  
ENDBRANCH   3  40
TORSDOF 7
ENDMDL
MODEL      104
REMARK 921   NORMALIZED FREE ENERGY PREDICTED BY IDOCK:   -3.29 KCAL/MOL
REMARK 922        TOTAL FREE ENERGY PREDICTED BY IDOCK:   -6.51 KCAL/MOL
REMARK 923 INTER-LIGAND FREE ENERGY PREDICTED BY IDOCK:   -5.91 KCAL/MOL
REMARK 924 INTRA-LIGAND FREE ENERGY PREDICTED BY IDOCK:   -0.59 KCAL/MOL
REMARK 927      BINDING AFFINITY PREDICTED BY RF-SCORE:    0.00 PKD
ROOT
HETATM    1  C   UNL     1      -8.010   9.706  68.756  1.00  0.00    -0.089 C  
HETATM    2  O   UNL     1      -8.280   4.031  65.218  1.00  0.00    -0.100 OA 
HETATM    3  C   UNL     1      -6.716  10.462  68.970  1.00  0.00    -0.061 C  
HETATM    4  C   UNL     1      -7.691   8.216  69.229  1.00  0.00    -0.104 C  
HETATM    5  C   UNL     1      -9.427   3.453  65.862  1.00  0.00    -0.112 C  
HETATM    6  C   UNL     1      -5.927   9.857  69.857  1.00  0.00    -0.045 C  
HETATM    7  C   UNL     1      -6.447   8.529  70.336  1.00  0.00    -0.036 C  
HETATM    8  C   UNL     1      -7.736   7.040  68.081  1.00  0.00    -0.113 A  
HETATM    9  C   UNL     1      -8.913   6.258  67.980  1.00  0.00    -0.114 A  
HETATM   10  O   UNL     1      -9.956   4.282  66.927  1.00  0.00    -0.216 OA 
HETATM   11  C   UNL     1      -8.994   5.245  67.020  1.00  0.00    -0.112 A  
HETATM   12  C   UNL     1      -6.937   8.673  71.780  1.00  0.00    -0.096 C  
HETATM   13  C   UNL     1      -8.026   5.068  66.062  1.00  0.00    -0.107 A  
HETATM   14  C   UNL     1      -6.840   5.753  66.110  1.00  0.00    -0.058 A  
HETATM   15  C   UNL     1      -6.120   7.681  72.600  1.00  0.00    -0.044 C  
HETATM   16  C   UNL     1      -6.623   6.543  67.252  1.00  0.00    -0.054 A  
HETATM   17  C   UNL     1      -5.227   6.166  67.923  1.00  0.00    -0.004 C  
HETATM   18  C   UNL     1      -5.312   6.965  69.166  1.00  0.00    -0.014 C  
HETATM   19  N   UNL     1      -5.227   7.645  70.410  1.00  0.00    -0.023 NA 
HETATM   20  C   UNL     1      -5.348   6.824  71.610  1.00  0.00    -0.028 C  
ENDROOT
BRANCH   1  21
HETATM   21  O   UNL     1      -8.540   9.870  67.446  1.00  0.00    -0.124 OA 
BRANCH  21  22
HETATM   22  C   UNL     1      -9.906   9.960  67.450  1.00  0.00    -0.179 C  
HETATM   23  C   UNL     1     -11.769  11.522  68.041  1.00  0.00    -0.343 C  
HETATM   24  C   UNL     1     -10.347  11.432  67.470  1.00  0.00    -0.195 C  
HETATM   25  O   UNL     1     -10.675   8.999  67.486  1.00  0.00    -0.267 OA 
HETATM   26  H   UNL     1      -9.733  13.107  68.305  1.00  0.00     0.000 HD 
HETATM   27  C   UNL     1     -10.280  11.991  66.028  1.00  0.00    -0.256 C  
HETATM   28  O   UNL     1      -9.460  12.197  68.293  1.00  0.00    -0.202 OA 
BRANCH  23  29
HETATM   29  C   UNL     1     -11.861  10.976  69.459  1.00  0.00    -0.333 C  
HETATM   30  O   UNL     1     -10.946  10.897  70.271  1.00  0.00    -0.197 OA 
BRANCH  29  31
HETATM   31  O   UNL     1     -13.157  10.600  69.687  1.00  0.00    -0.052 OA 
HETATM   32  C   UNL     1     -13.379  10.121  71.012  1.00  0.00    -0.261 C  
ENDBRANCH  29  31
ENDBRANCH  23  29
BRANCH  27  33
HETATM   33  C   UNL     1     -10.716  13.458  65.828  1.00  0.00    -0.280 C  
BRANCH  33  34
HETATM   34  C   UNL     1      -9.586  14.489  65.981  1.00  0.00    -0.305 C  
HETATM   35  C   UNL     1     -10.897  16.461  65.024  1.00  0.00    -0.289 C  
HETATM   36  O   UNL     1     -10.838  16.021  67.370  1.00  0.00    -0.319 OA 
HETATM   37  C   UNL     1     -10.047  15.946  66.182  1.00  0.00    -0.315 C  
HETATM   38  C   UNL     1      -8.823  16.852  66.370  1.00  0.00    -0.322 C  
HETATM   39  H   UNL     1     -11.122  16.919  67.494  1.00  0.00     0.000 HD 
ENDBRANCH  33  34
ENDBRANCH  27  33
ENDBRANCH  21  22
ENDBRANCH   1  21
BRANCH   3  40
HETATM   40  O   UNL     1      -6.290  11.614  68.361  1.00  0.00    -0.049 OA 
HETATM   41  C   UNL     1      -6.063  12.785  69.124  1.00  0.00    -0.092 C  
ENDBRANCH   3  40
TORSDOF 7
ENDMDL
MODEL      105
REMARK 921   NORMALIZED FREE ENERGY PREDICTED BY IDOCK:   -3.29 KCAL/MOL
REMARK 922        TOTAL FREE ENERGY PREDICTED BY IDOCK:   -6.50 KCAL/MOL
REMARK 923 INTER-LIGAND FREE ENERGY PREDICTED BY IDOCK:   -5.95 KCAL/MOL
REMARK 924 INTRA-LIGAND FREE ENERGY PREDICTED BY IDOCK:   -0.55 KCAL/MOL
REMARK 927      BINDING AFFINITY PREDICTED BY RF-SCORE:    0.00 PKD
ROOT
HETATM    1  C   UNL     1     -10.757   9.296  69.645  1.00  0.00    -0.230 C  
HETATM    2  O   UNL     1      -9.103  12.423  63.962  1.00  0.00     0.526 OA 
HETATM    3  C   UNL     1      -9.725   8.631  70.529  1.00  0.00    -0.180 C  
HETATM    4  C   UNL     1     -10.510   8.674  68.195  1.00  0.00    -0.241 C  
HETATM    5  C   UNL     1     -10.351  12.248  63.272  1.00  0.00    -0.235 C  
HETATM    6  C   UNL     1      -9.289   7.484  70.011  1.00  0.00    -0.154 C  
HETATM    7  C   UNL     1      -9.828   7.188  68.637  1.00  0.00    -0.154 C  
HETATM    8  C   UNL     1      -9.996   9.700  67.019  1.00  0.00    -0.263 A  
HETATM    9  C   UNL     1     -10.963  10.214  66.120  1.00  0.00     0.244 A  
HETATM   10  O   UNL     1     -11.327  11.504  64.045  1.00  0.00    -0.368 OA 
HETATM   11  C   UNL     1     -10.571  11.088  65.102  1.00  0.00    -0.226 A  
HETATM   12  C   UNL     1     -10.851   6.051  68.734  1.00  0.00    -0.391 C  
HETATM   13  C   UNL     1      -9.295  11.590  65.022  1.00  0.00    -0.089 A  
HETATM   14  C   UNL     1      -8.290  11.117  65.825  1.00  0.00    -0.041 A  
HETATM   15  C   UNL     1     -10.328   4.939  67.833  1.00  0.00    -0.050 C  
HETATM   16  C   UNL     1      -8.608  10.014  66.636  1.00  0.00    -0.130 A  
HETATM   17  C   UNL     1      -7.552   8.842  66.405  1.00  0.00    -0.091 C  
HETATM   18  C   UNL     1      -8.187   7.762  67.195  1.00  0.00    -0.118 C  
HETATM   19  N   UNL     1      -8.655   6.611  67.883  1.00  0.00    -0.118 NA 
HETATM   20  C   UNL     1      -9.156   5.518  67.056  1.00  0.00    -0.112 C  
ENDROOT
BRANCH   1  21
HETATM   21  O   UNL     1     -10.751  10.715  69.750  1.00  0.00    -0.256 OA 
BRANCH  21  22
HETATM   22  C   UNL     1     -12.009  11.225  69.921  1.00  0.00    -0.365 C  
HETATM   23  C   UNL     1     -13.229  13.391  70.211  1.00  0.00     0.577 C  
HETATM   24  C   UNL     1     -12.051  12.704  69.504  1.00  0.00    -0.192 C  
HETATM   25  O   UNL     1     -12.962  10.604  70.392  1.00  0.00    -0.304 OA 
HETATM   26  H   UNL     1     -10.858  14.266  69.624  1.00  0.00     0.000 HD 
HETATM   27  C   UNL     1     -12.192  12.782  67.965  1.00  0.00     0.020 C  
HETATM   28  O   UNL     1     -10.832  13.353  69.881  1.00  0.00     0.212 OA 
BRANCH  23  29
HETATM   29  C   UNL     1     -13.114  13.325  71.727  1.00  0.00    -0.379 C  
HETATM   30  O   UNL     1     -13.487  12.407  72.448  1.00  0.00    -0.503 OA 
BRANCH  29  31
HETATM   31  O   UNL     1     -12.499  14.470  72.157  1.00  0.00    -0.326 OA 
HETATM   32  C   UNL     1     -13.360  15.322  72.909  1.00  0.00    -0.514 C  
ENDBRANCH  29  31
ENDBRANCH  23  29
BRANCH  27  33
HETATM   33  C   UNL     1     -12.282  14.193  67.344  1.00  0.00    -0.278 C  
BRANCH  33  34
HETATM   34  C   UNL     1     -11.464  15.269  68.076  1.00  0.00    -0.351 C  
HETATM   35  C   UNL     1      -9.449  15.180  66.510  1.00  0.00    -0.308 C  
HETATM   36  O   UNL     1     -11.226  16.736  66.170  1.00  0.00     0.212 OA 
HETATM   37  C   UNL     1     -10.485  16.067  67.193  1.00  0.00    -0.308 C  
HETATM   38  C   UNL     1      -9.779  17.134  68.040  1.00  0.00    -0.274 C  
HETATM   39  H   UNL     1     -10.623  17.228  65.625  1.00  0.00     0.000 HD 
ENDBRANCH  33  34
ENDBRANCH  27  33
ENDBRANCH  21  22
ENDBRANCH   1  21
BRANCH   3  40
HETATM   40  O   UNL     1      -9.206   9.077  71.717  1.00  0.00    -0.329 OA 
HETATM   41  C   UNL     1      -7.835   8.880  72.016  1.00  0.00     0.136 C  
ENDBRANCH   3  40
TORSDOF 7
ENDMDL
MODEL      106
REMARK 921   NORMALIZED FREE ENERGY PREDICTED BY IDOCK:   -3.29 KCAL/MOL
REMARK 922        TOTAL FREE ENERGY PREDICTED BY IDOCK:   -6.50 KCAL/MOL
REMARK 923 INTER-LIGAND FREE ENERGY PREDICTED BY IDOCK:   -6.16 KCAL/MOL
REMARK 924 INTRA-LIGAND FREE ENERGY PREDICTED BY IDOCK:   -0.34 KCAL/MOL
REMARK 927      BINDING AFFINITY PREDICTED BY RF-SCORE:    0.00 PKD
ROOT
HETATM    1  C   UNL     1      -8.645   5.172  67.651  1.00  0.00    -0.104 C  
HETATM    2  O   UNL     1      -8.594  11.845  67.128  1.00  0.00    -0.158 OA 
HETATM    3  C   UNL     1      -7.389   4.341  67.495  1.00  0.00    -0.069 C  
HETATM    4  C   UNL     1      -8.701   6.074  66.335  1.00  0.00    -0.133 C  
HETATM    5  C   UNL     1      -9.954  12.018  66.697  1.00  0.00    -0.201 C  
HETATM    6  C   UNL     1      -7.008   4.251  66.221  1.00  0.00    -0.066 C  
HETATM    7  C   UNL     1      -7.832   5.080  65.273  1.00  0.00    -0.089 C  
HETATM    8  C   UNL     1      -8.551   7.698  66.534  1.00  0.00    -0.142 A  
HETATM    9  C   UNL     1      -9.736   8.475  66.551  1.00  0.00    -0.330 A  
HETATM   10  O   UNL     1     -10.666  10.763  66.552  1.00  0.00    -0.240 OA 
HETATM   11  C   UNL     1      -9.656   9.861  66.715  1.00  0.00    -0.183 A  
HETATM   12  C   UNL     1      -8.721   4.153  64.438  1.00  0.00    -0.130 C  
HETATM   13  C   UNL     1      -8.473  10.495  67.008  1.00  0.00    -0.128 A  
HETATM   14  C   UNL     1      -7.277   9.827  66.971  1.00  0.00    -0.090 A  
HETATM   15  C   UNL     1      -8.347   4.412  62.984  1.00  0.00    -0.097 C  
HETATM   16  C   UNL     1      -7.317   8.503  66.498  1.00  0.00    -0.084 A  
HETATM   17  C   UNL     1      -6.265   8.312  65.315  1.00  0.00    -0.045 C  
HETATM   18  C   UNL     1      -6.620   6.944  64.872  1.00  0.00    -0.043 C  
HETATM   19  N   UNL     1      -6.831   5.660  64.304  1.00  0.00    -0.049 NA 
HETATM   20  C   UNL     1      -7.433   5.627  62.975  1.00  0.00    -0.063 C  
ENDROOT
BRANCH   1  21
HETATM   21  O   UNL     1      -8.713   5.848  68.901  1.00  0.00    -0.116 OA 
BRANCH  21  22
HETATM   22  C   UNL     1      -9.421   5.138  69.833  1.00  0.00    -0.160 C  
HETATM   23  C   UNL     1      -9.839   4.998  72.296  1.00  0.00    -0.214 C  
HETATM   24  C   UNL     1      -9.584   5.956  71.124  1.00  0.00    -0.169 C  
HETATM   25  O   UNL     1      -9.826   3.984  69.680  1.00  0.00    -0.210 OA 
HETATM   26  H   UNL     1      -8.493   7.213  72.177  1.00  0.00     0.000 HD 
HETATM   27  C   UNL     1     -10.757   6.948  70.938  1.00  0.00    -0.258 C  
HETATM   28  O   UNL     1      -8.393   6.707  71.379  1.00  0.00    -0.119 OA 
BRANCH  23  29
HETATM   29  C   UNL     1      -8.698   4.011  72.497  1.00  0.00    -0.103 C  
HETATM   30  O   UNL     1      -8.776   2.788  72.463  1.00  0.00    -0.073 OA 
BRANCH  29  31
HETATM   31  O   UNL     1      -7.549   4.725  72.708  1.00  0.00    -0.087 OA 
HETATM   32  C   UNL     1      -6.826   4.299  73.861  1.00  0.00    -0.060 C  
ENDBRANCH  29  31
ENDBRANCH  23  29
BRANCH  27  33
HETATM   33  C   UNL     1     -11.105   7.850  72.142  1.00  0.00    -0.351 C  
BRANCH  33  34
HETATM   34  C   UNL     1     -11.634   9.244  71.768  1.00  0.00    -0.458 C  
HETATM   35  C   UNL     1      -9.572   9.962  70.444  1.00  0.00    -0.117 C  
HETATM   36  O   UNL     1     -11.449   8.943  69.377  1.00  0.00    -0.413 OA 
HETATM   37  C   UNL     1     -11.091   9.821  70.446  1.00  0.00    -0.307 C  
HETATM   38  C   UNL     1     -11.740  11.185  70.176  1.00  0.00    -0.439 C  
HETATM   39  H   UNL     1     -11.115   9.299  68.562  1.00  0.00     0.000 HD 
ENDBRANCH  33  34
ENDBRANCH  27  33
ENDBRANCH  21  22
ENDBRANCH   1  21
BRANCH   3  40
HETATM   40  O   UNL     1      -6.639   3.738  68.469  1.00  0.00    -0.043 OA 
HETATM   41  C   UNL     1      -5.564   2.885  68.119  1.00  0.00    -0.018 C  
ENDBRANCH   3  40
TORSDOF 7
ENDMDL
MODEL      107
REMARK 921   NORMALIZED FREE ENERGY PREDICTED BY IDOCK:   -3.28 KCAL/MOL
REMARK 922        TOTAL FREE ENERGY PREDICTED BY IDOCK:   -6.48 KCAL/MOL
REMARK 923 INTER-LIGAND FREE ENERGY PREDICTED BY IDOCK:   -4.94 KCAL/MOL
REMARK 924 INTRA-LIGAND FREE ENERGY PREDICTED BY IDOCK:   -1.54 KCAL/MOL
REMARK 927      BINDING AFFINITY PREDICTED BY RF-SCORE:    0.00 PKD
ROOT
HETATM    1  C   UNL     1      -9.625   5.913  71.277  1.00  0.00    -0.168 C  
HETATM    2  O   UNL     1      -6.710   2.137  66.583  1.00  0.00    -0.037 OA 
HETATM    3  C   UNL     1      -9.040   6.070  72.664  1.00  0.00    -0.137 C  
HETATM    4  C   UNL     1      -9.726   4.336  71.056  1.00  0.00    -0.260 C  
HETATM    5  C   UNL     1      -7.891   1.811  65.832  1.00  0.00    -0.072 C  
HETATM    6  C   UNL     1      -9.224   4.980  73.409  1.00  0.00    -0.124 C  
HETATM    7  C   UNL     1      -9.853   3.830  72.668  1.00  0.00    -0.151 C  
HETATM    8  C   UNL     1      -8.788   3.684  69.874  1.00  0.00    -0.151 A  
HETATM    9  C   UNL     1      -9.390   3.427  68.617  1.00  0.00    -0.232 A  
HETATM   10  O   UNL     1      -9.098   2.379  66.400  1.00  0.00    -0.132 OA 
HETATM   11  C   UNL     1      -8.631   2.871  67.584  1.00  0.00    -0.099 A  
HETATM   12  C   UNL     1     -11.299   3.658  73.143  1.00  0.00    -0.088 C  
HETATM   13  C   UNL     1      -7.273   2.693  67.689  1.00  0.00    -0.053 A  
HETATM   14  C   UNL     1      -6.619   2.878  68.879  1.00  0.00    -0.033 A  
HETATM   15  C   UNL     1     -11.393   2.240  73.691  1.00  0.00    -0.318 C  
HETATM   16  C   UNL     1      -7.427   3.133  70.001  1.00  0.00    -0.044 A  
HETATM   17  C   UNL     1      -7.080   2.107  71.171  1.00  0.00    -0.032 C  
HETATM   18  C   UNL     1      -8.154   2.441  72.135  1.00  0.00    -0.054 C  
HETATM   19  N   UNL     1      -9.117   2.610  73.164  1.00  0.00    -0.081 NA 
HETATM   20  C   UNL     1     -10.095   1.539  73.323  1.00  0.00    -0.091 C  
ENDROOT
BRANCH   1  21
HETATM   21  O   UNL     1      -8.926   6.661  70.289  1.00  0.00    -0.150 OA 
BRANCH  21  22
HETATM   22  C   UNL     1      -9.772   7.219  69.370  1.00  0.00    -0.161 C  
HETATM   23  C   UNL     1      -9.790   8.746  67.388  1.00  0.00    -0.250 C  
HETATM   24  C   UNL     1      -8.995   7.654  68.117  1.00  0.00    -0.126 C  
HETATM   25  O   UNL     1     -10.979   7.397  69.541  1.00  0.00    -0.222 OA 
HETATM   26  H   UNL     1      -7.235   8.443  67.719  1.00  0.00     0.000 HD 
HETATM   27  C   UNL     1      -8.775   6.416  67.214  1.00  0.00    -0.106 C  
HETATM   28  O   UNL     1      -7.715   8.174  68.492  1.00  0.00    -0.108 OA 
BRANCH  23  29
HETATM   29  C   UNL     1     -10.021   9.974  68.257  1.00  0.00    -0.153 C  
HETATM   30  O   UNL     1      -9.169  10.762  68.649  1.00  0.00    -0.168 OA 
BRANCH  29  31
HETATM   31  O   UNL     1     -11.363  10.064  68.518  1.00  0.00    -0.176 OA 
HETATM   32  C   UNL     1     -11.656  10.786  69.713  1.00  0.00    -0.317 C  
ENDBRANCH  29  31
ENDBRANCH  23  29
BRANCH  27  33
HETATM   33  C   UNL     1      -8.032   6.649  65.881  1.00  0.00    -0.112 C  
BRANCH  33  34
HETATM   34  C   UNL     1      -8.343   5.618  64.784  1.00  0.00    -0.128 C  
HETATM   35  C   UNL     1      -7.237   6.915  62.883  1.00  0.00    -0.067 C  
HETATM   36  O   UNL     1      -6.046   5.260  64.125  1.00  0.00    -0.021 OA 
HETATM   37  C   UNL     1      -7.342   5.580  63.613  1.00  0.00    -0.053 C  
HETATM   38  C   UNL     1      -7.747   4.477  62.626  1.00  0.00    -0.061 C  
HETATM   39  H   UNL     1      -5.428   5.236  63.403  1.00  0.00     0.000 HD 
ENDBRANCH  33  34
ENDBRANCH  27  33
ENDBRANCH  21  22
ENDBRANCH   1  21
BRANCH   3  40
HETATM   40  O   UNL     1      -8.358   7.138  73.186  1.00  0.00    -0.109 OA 
HETATM   41  C   UNL     1      -9.006   8.385  73.358  1.00  0.00    -0.096 C  
ENDBRANCH   3  40
TORSDOF 7
ENDMDL
MODEL      108
REMARK 921   NORMALIZED FREE ENERGY PREDICTED BY IDOCK:   -3.23 KCAL/MOL
REMARK 922        TOTAL FREE ENERGY PREDICTED BY IDOCK:   -6.42 KCAL/MOL
REMARK 923 INTER-LIGAND FREE ENERGY PREDICTED BY IDOCK:   -7.82 KCAL/MOL
REMARK 924 INTRA-LIGAND FREE ENERGY PREDICTED BY IDOCK:    1.40 KCAL/MOL
REMARK 927      BINDING AFFINITY PREDICTED BY RF-SCORE:    0.00 PKD
ROOT
HETATM    1  C   UNL     1     -10.983   7.414  69.472  1.00  0.00    -0.139 C  
HETATM    2  O   UNL     1      -6.577   3.447  66.366  1.00  0.00    -0.039 OA 
HETATM    3  C   UNL     1     -10.583   8.327  70.612  1.00  0.00    -0.215 C  
HETATM    4  C   UNL     1     -10.457   5.971  69.905  1.00  0.00    -0.313 C  
HETATM    5  C   UNL     1      -7.498   2.429  65.939  1.00  0.00    -0.067 C  
HETATM    6  C   UNL     1     -10.376   7.651  71.742  1.00  0.00    -0.233 C  
HETATM    7  C   UNL     1     -10.470   6.157  71.589  1.00  0.00    -0.222 C  
HETATM    8  C   UNL     1      -9.275   5.298  68.983  1.00  0.00    -0.152 A  
HETATM    9  C   UNL     1      -9.659   4.348  68.004  1.00  0.00    -0.204 A  
HETATM   10  O   UNL     1      -8.860   2.683  66.364  1.00  0.00    -0.121 OA 
HETATM   11  C   UNL     1      -8.687   3.749  67.198  1.00  0.00    -0.113 A  
HETATM   12  C   UNL     1     -11.764   5.666  72.248  1.00  0.00    -0.202 C  
HETATM   13  C   UNL     1      -7.374   4.150  67.217  1.00  0.00    -0.069 A  
HETATM   14  C   UNL     1      -6.910   5.032  68.158  1.00  0.00    -0.056 A  
HETATM   15  C   UNL     1     -11.336   4.670  73.318  1.00  0.00    -0.393 C  
HETATM   16  C   UNL     1      -7.816   5.398  69.168  1.00  0.00    -0.090 A  
HETATM   17  C   UNL     1      -7.168   5.147  70.603  1.00  0.00    -0.067 C  
HETATM   18  C   UNL     1      -8.340   5.415  71.467  1.00  0.00    -0.122 C  
HETATM   19  N   UNL     1      -9.352   5.615  72.444  1.00  0.00    -0.144 NA 
HETATM   20  C   UNL     1      -9.850   4.420  73.118  1.00  0.00    -0.137 C  
ENDROOT
BRANCH   1  21
HETATM   21  O   UNL     1     -10.570   7.898  68.200  1.00  0.00    -0.194 OA 
BRANCH  21  22
HETATM   22  C   UNL     1      -9.371   8.556  68.262  1.00  0.00    -0.137 C  
HETATM   23  C   UNL     1      -7.799   9.912  66.866  1.00  0.00    -0.102 C  
HETATM   24  C   UNL     1      -9.278   9.611  67.149  1.00  0.00    -0.134 C  
HETATM   25  O   UNL     1      -8.471   8.302  69.063  1.00  0.00    -0.128 OA 
HETATM   26  H   UNL     1      -9.837   9.771  65.267  1.00  0.00     0.000 HD 
HETATM   27  C   UNL     1     -10.036  10.881  67.604  1.00  0.00    -0.206 C  
HETATM   28  O   UNL     1      -9.895   9.119  65.955  1.00  0.00    -0.277 OA 
BRANCH  23  29
HETATM   29  C   UNL     1      -7.031   8.677  66.419  1.00  0.00    -0.078 C  
HETATM   30  O   UNL     1      -6.125   8.120  67.028  1.00  0.00    -0.051 OA 
BRANCH  29  31
HETATM   31  O   UNL     1      -7.539   8.273  65.213  1.00  0.00    -0.086 OA 
HETATM   32  C   UNL     1      -7.290   6.898  64.930  1.00  0.00    -0.087 C  
ENDBRANCH  29  31
ENDBRANCH  23  29
BRANCH  27  33
HETATM   33  C   UNL     1     -10.036  12.080  66.631  1.00  0.00    -0.219 C  
BRANCH  33  34
HETATM   34  C   UNL     1     -11.182  12.074  65.606  1.00  0.00    -0.377 C  
HETATM   35  C   UNL     1     -10.973  14.538  64.965  1.00  0.00    -0.408 C  
HETATM   36  O   UNL     1      -9.845  12.828  63.739  1.00  0.00    -0.679 OA 
HETATM   37  C   UNL     1     -11.047  13.099  64.462  1.00  0.00    -0.356 C  
HETATM   38  C   UNL     1     -12.227  12.946  63.494  1.00  0.00    -0.595 C  
HETATM   39  H   UNL     1      -9.762  13.459  63.033  1.00  0.00     0.000 HD 
ENDBRANCH  33  34
ENDBRANCH  27  33
ENDBRANCH  21  22
ENDBRANCH   1  21
BRANCH   3  40
HETATM   40  O   UNL     1     -10.395   9.684  70.592  1.00  0.00    -0.278 OA 
HETATM   41  C   UNL     1     -11.503  10.561  70.691  1.00  0.00    -0.327 C  
ENDBRANCH   3  40
TORSDOF 7
ENDMDL
MODEL      109
REMARK 921   NORMALIZED FREE ENERGY PREDICTED BY IDOCK:   -3.13 KCAL/MOL
REMARK 922        TOTAL FREE ENERGY PREDICTED BY IDOCK:   -6.27 KCAL/MOL
REMARK 923 INTER-LIGAND FREE ENERGY PREDICTED BY IDOCK:   -6.82 KCAL/MOL
REMARK 924 INTRA-LIGAND FREE ENERGY PREDICTED BY IDOCK:    0.55 KCAL/MOL
REMARK 927      BINDING AFFINITY PREDICTED BY RF-SCORE:    0.00 PKD
ROOT
HETATM    1  C   UNL     1     -10.636  12.551  66.108  1.00  0.00    -0.253 C  
HETATM    2  O   UNL     1      -6.147  17.515  66.172  1.00  0.00    -0.206 OA 
HETATM    3  C   UNL     1     -12.118  12.806  65.939  1.00  0.00    -0.426 C  
HETATM    4  C   UNL     1     -10.199  13.490  67.323  1.00  0.00    -0.242 C  
HETATM    5  C   UNL     1      -5.148  16.865  66.974  1.00  0.00    -0.139 C  
HETATM    6  C   UNL     1     -12.667  13.305  67.046  1.00  0.00     0.648 C  
HETATM    7  C   UNL     1     -11.678  13.602  68.141  1.00  0.00    -0.357 C  
HETATM    8  C   UNL     1      -9.147  14.707  66.986  1.00  0.00    -0.254 A  
HETATM    9  C   UNL     1      -7.775  14.493  67.271  1.00  0.00    -0.177 A  
HETATM   10  O   UNL     1      -5.541  15.537  67.401  1.00  0.00    -0.319 OA 
HETATM   11  C   UNL     1      -6.845  15.502  67.004  1.00  0.00     0.096 A  
HETATM   12  C   UNL     1     -11.840  12.566  69.258  1.00  0.00    -0.360 C  
HETATM   13  C   UNL     1      -7.187  16.652  66.335  1.00  0.00    -0.133 A  
HETATM   14  C   UNL     1      -8.494  16.956  66.059  1.00  0.00    -0.186 A  
HETATM   15  C   UNL     1     -12.173  13.357  70.517  1.00  0.00    -0.425 C  
HETATM   16  C   UNL     1      -9.462  16.095  66.606  1.00  0.00    -0.269 A  
HETATM   17  C   UNL     1     -10.536  16.933  67.435  1.00  0.00    -0.294 C  
HETATM   18  C   UNL     1     -11.309  15.829  68.047  1.00  0.00    -0.310 C  
HETATM   19  N   UNL     1     -12.147  14.909  68.732  1.00  0.00    -0.228 NA 
HETATM   20  C   UNL     1     -11.975  14.826  70.179  1.00  0.00    -0.312 C  
ENDROOT
BRANCH   1  21
HETATM   21  O   UNL     1      -9.906  12.682  64.894  1.00  0.00    -0.179 OA 
BRANCH  21  22
HETATM   22  C   UNL     1      -9.563  11.467  64.365  1.00  0.00    -0.188 C  
HETATM   23  C   UNL     1      -7.992   9.549  64.704  1.00  0.00    -0.128 C  
HETATM   24  C   UNL     1      -8.849  10.604  65.418  1.00  0.00    -0.189 C  
HETATM   25  O   UNL     1      -9.750  11.131  63.195  1.00  0.00    -0.311 OA 
HETATM   26  H   UNL     1      -7.565  10.891  66.883  1.00  0.00     0.000 HD 
HETATM   27  C   UNL     1      -9.916   9.945  66.326  1.00  0.00    -0.322 C  
HETATM   28  O   UNL     1      -8.006  11.425  66.233  1.00  0.00    -0.134 OA 
BRANCH  23  29
HETATM   29  C   UNL     1      -6.936  10.174  63.803  1.00  0.00    -0.105 C  
HETATM   30  O   UNL     1      -6.070  10.974  64.139  1.00  0.00     0.270 OA 
BRANCH  29  31
HETATM   31  O   UNL     1      -7.104   9.672  62.540  1.00  0.00    -0.101 OA 
HETATM   32  C   UNL     1      -6.601   8.346  62.390  1.00  0.00    -0.091 C  
ENDBRANCH  29  31
ENDBRANCH  23  29
BRANCH  27  33
HETATM   33  C   UNL     1      -9.401   9.008  67.439  1.00  0.00    -0.167 C  
BRANCH  33  34
HETATM   34  C   UNL     1      -8.219   9.564  68.251  1.00  0.00    -0.113 C  
HETATM   35  C   UNL     1      -8.047   7.583  69.854  1.00  0.00    -0.129 C  
HETATM   36  O   UNL     1      -6.746   7.689  67.855  1.00  0.00    -0.062 OA 
HETATM   37  C   UNL     1      -7.302   8.503  68.890  1.00  0.00    -0.086 C  
HETATM   38  C   UNL     1      -6.145   9.196  69.621  1.00  0.00    -0.039 C  
HETATM   39  H   UNL     1      -6.180   7.034  68.249  1.00  0.00     0.000 HD 
ENDBRANCH  33  34
ENDBRANCH  27  33
ENDBRANCH  21  22
ENDBRANCH   1  21
BRANCH   3  40
HETATM   40  O   UNL     1     -12.895  12.617  64.826  1.00  0.00    -0.730 OA 
HETATM   41  C   UNL     1     -12.734  13.449  63.692  1.00  0.00     0.123 C  
ENDBRANCH   3  40
TORSDOF 7
ENDMDL
MODEL      110
REMARK 921   NORMALIZED FREE ENERGY PREDICTED BY IDOCK:   -3.12 KCAL/MOL
REMARK 922        TOTAL FREE ENERGY PREDICTED BY IDOCK:   -6.27 KCAL/MOL
REMARK 923 INTER-LIGAND FREE ENERGY PREDICTED BY IDOCK:   -6.60 KCAL/MOL
REMARK 924 INTRA-LIGAND FREE ENERGY PREDICTED BY IDOCK:    0.33 KCAL/MOL
REMARK 927      BINDING AFFINITY PREDICTED BY RF-SCORE:    0.00 PKD
ROOT
HETATM    1  C   UNL     1      -9.702   6.254  72.169  1.00  0.00    -0.152 C  
HETATM    2  O   UNL     1      -7.948   3.930  66.143  1.00  0.00    -0.093 OA 
HETATM    3  C   UNL     1      -8.881   5.978  73.411  1.00  0.00    -0.126 C  
HETATM    4  C   UNL     1      -9.972   4.815  71.534  1.00  0.00    -0.263 C  
HETATM    5  C   UNL     1      -9.262   3.876  65.564  1.00  0.00    -0.151 C  
HETATM    6  C   UNL     1      -9.029   4.725  73.837  1.00  0.00    -0.113 C  
HETATM    7  C   UNL     1      -9.868   3.864  72.932  1.00  0.00    -0.139 C  
HETATM    8  C   UNL     1      -9.305   4.509  70.064  1.00  0.00    -0.223 A  
HETATM    9  C   UNL     1     -10.129   4.652  68.920  1.00  0.00    -0.103 A  
HETATM   10  O   UNL     1     -10.303   4.291  66.483  1.00  0.00    -0.146 OA 
HETATM   11  C   UNL     1      -9.604   4.399  67.649  1.00  0.00    -0.166 A  
HETATM   12  C   UNL     1     -11.223   3.606  73.599  1.00  0.00    -0.278 C  
HETATM   13  C   UNL     1      -8.268   4.155  67.446  1.00  0.00    -0.099 A  
HETATM   14  C   UNL     1      -7.410   3.961  68.497  1.00  0.00    -0.055 A  
HETATM   15  C   UNL     1     -11.344   2.093  73.730  1.00  0.00    -0.289 C  
HETATM   16  C   UNL     1      -7.994   3.902  69.775  1.00  0.00    -0.058 A  
HETATM   17  C   UNL     1      -7.543   2.567  70.522  1.00  0.00    -0.042 C  
HETATM   18  C   UNL     1      -8.407   2.637  71.722  1.00  0.00    -0.057 C  
HETATM   19  N   UNL     1      -9.166   2.528  72.917  1.00  0.00    -0.080 NA 
HETATM   20  C   UNL     1     -10.191   1.490  72.945  1.00  0.00    -0.113 C  
ENDROOT
BRANCH   1  21
HETATM   21  O   UNL     1      -9.118   7.236  71.322  1.00  0.00    -0.146 OA 
BRANCH  21  22
HETATM   22  C   UNL     1     -10.041   7.823  70.500  1.00  0.00    -0.192 C  
HETATM   23  C   UNL     1     -10.721  10.049  69.580  1.00  0.00    -0.282 C  
HETATM   24  C   UNL     1      -9.525   9.178  69.991  1.00  0.00    -0.198 C  
HETATM   25  O   UNL     1     -11.153   7.358  70.245  1.00  0.00    -0.259 OA 
HETATM   26  H   UNL     1      -8.473  10.679  70.711  1.00  0.00     0.000 HD 
HETATM   27  C   UNL     1      -8.571   8.929  68.798  1.00  0.00    -0.136 C  
HETATM   28  O   UNL     1      -8.792   9.842  71.026  1.00  0.00    -0.092 OA 
BRANCH  23  29
HETATM   29  C   UNL     1     -11.675  10.306  70.738  1.00  0.00    -0.360 C  
HETATM   30  O   UNL     1     -11.843   9.591  71.719  1.00  0.00    -0.377 OA 
BRANCH  29  31
HETATM   31  O   UNL     1     -12.313  11.496  70.507  1.00  0.00    -0.350 OA 
HETATM   32  C   UNL     1     -11.835  12.175  69.349  1.00  0.00    -0.309 C  
ENDBRANCH  29  31
ENDBRANCH  23  29
BRANCH  27  33
HETATM   33  C   UNL     1      -7.963  10.176  68.120  1.00  0.00    -0.104 C  
BRANCH  33  34
HETATM   34  C   UNL     1      -6.987  10.974  69.001  1.00  0.00    -0.097 C  
HETATM   35  C   UNL     1      -6.459  12.763  67.256  1.00  0.00    -0.073 C  
HETATM   36  O   UNL     1      -8.192  13.065  68.870  1.00  0.00    -0.345 OA 
HETATM   37  C   UNL     1      -6.900  12.481  68.689  1.00  0.00    -0.088 C  
HETATM   38  C   UNL     1      -5.934  13.154  69.672  1.00  0.00    -0.116 C  
HETATM   39  H   UNL     1      -8.139  13.994  68.679  1.00  0.00     0.000 HD 
ENDBRANCH  33  34
ENDBRANCH  27  33
ENDBRANCH  21  22
ENDBRANCH   1  21
BRANCH   3  40
HETATM   40  O   UNL     1      -8.033   6.824  74.077  1.00  0.00    -0.105 OA 
HETATM   41  C   UNL     1      -8.331   8.205  74.176  1.00  0.00    -0.224 C  
ENDBRANCH   3  40
TORSDOF 7
ENDMDL
MODEL      111
REMARK 921   NORMALIZED FREE ENERGY PREDICTED BY IDOCK:   -3.09 KCAL/MOL
REMARK 922        TOTAL FREE ENERGY PREDICTED BY IDOCK:   -6.22 KCAL/MOL
REMARK 923 INTER-LIGAND FREE ENERGY PREDICTED BY IDOCK:   -7.00 KCAL/MOL
REMARK 924 INTRA-LIGAND FREE ENERGY PREDICTED BY IDOCK:    0.78 KCAL/MOL
REMARK 927      BINDING AFFINITY PREDICTED BY RF-SCORE:    0.00 PKD
ROOT
HETATM    1  C   UNL     1     -10.306   7.721  68.942  1.00  0.00    -0.213 C  
HETATM    2  O   UNL     1      -8.922   3.904  63.621  1.00  0.00    -0.106 OA 
HETATM    3  C   UNL     1      -9.227   8.218  69.880  1.00  0.00    -0.154 C  
HETATM    4  C   UNL     1     -10.087   6.141  68.873  1.00  0.00    -0.211 C  
HETATM    5  C   UNL     1     -10.186   3.226  63.532  1.00  0.00    -0.199 C  
HETATM    6  C   UNL     1      -8.776   7.250  70.677  1.00  0.00    -0.147 C  
HETATM    7  C   UNL     1      -9.350   5.891  70.377  1.00  0.00    -0.159 C  
HETATM    8  C   UNL     1      -9.640   5.511  67.422  1.00  0.00    -0.128 A  
HETATM    9  C   UNL     1     -10.649   4.935  66.611  1.00  0.00    -0.200 A  
HETATM   10  O   UNL     1     -11.115   3.621  64.572  1.00  0.00    -0.181 OA 
HETATM   11  C   UNL     1     -10.314   4.385  65.371  1.00  0.00    -0.216 A  
HETATM   12  C   UNL     1     -10.336   5.508  71.485  1.00  0.00    -0.282 C  
HETATM   13  C   UNL     1      -9.056   4.507  64.833  1.00  0.00    -0.152 A  
HETATM   14  C   UNL     1      -8.013   5.012  65.565  1.00  0.00    -0.104 A  
HETATM   15  C   UNL     1      -9.810   4.208  72.082  1.00  0.00    -0.235 C  
HETATM   16  C   UNL     1      -8.274   5.277  66.920  1.00  0.00    -0.108 A  
HETATM   17  C   UNL     1      -7.193   4.548  67.839  1.00  0.00    -0.065 C  
HETATM   18  C   UNL     1      -7.772   4.808  69.176  1.00  0.00    -0.071 C  
HETATM   19  N   UNL     1      -8.185   4.943  70.528  1.00  0.00    -0.094 NA 
HETATM   20  C   UNL     1      -8.680   3.736  71.181  1.00  0.00    -0.081 C  
ENDROOT
BRANCH   1  21
HETATM   21  O   UNL     1     -10.336   8.424  67.705  1.00  0.00    -0.217 OA 
BRANCH  21  22
HETATM   22  C   UNL     1      -9.106   8.917  67.362  1.00  0.00    -0.132 C  
HETATM   23  C   UNL     1      -8.000  10.527  65.799  1.00  0.00    -0.158 C  
HETATM   24  C   UNL     1      -9.247  10.275  66.658  1.00  0.00    -0.155 C  
HETATM   25  O   UNL     1      -8.038   8.330  67.543  1.00  0.00    -0.118 OA 
HETATM   26  H   UNL     1     -10.493  11.112  65.383  1.00  0.00     0.000 HD 
HETATM   27  C   UNL     1      -9.425  11.375  67.733  1.00  0.00    -0.167 C  
HETATM   28  O   UNL     1     -10.406  10.272  65.818  1.00  0.00    -0.239 OA 
BRANCH  23  29
HETATM   29  C   UNL     1      -7.803   9.456  64.735  1.00  0.00    -0.118 C  
HETATM   30  O   UNL     1      -8.636   9.072  63.922  1.00  0.00    -0.191 OA 
BRANCH  29  31
HETATM   31  O   UNL     1      -6.515   8.999  64.825  1.00  0.00    -0.066 OA 
HETATM   32  C   UNL     1      -5.816   9.040  63.583  1.00  0.00    -0.076 C  
ENDBRANCH  29  31
ENDBRANCH  23  29
BRANCH  27  33
HETATM   33  C   UNL     1      -9.556  12.828  67.228  1.00  0.00    -0.208 C  
BRANCH  33  34
HETATM   34  C   UNL     1     -10.985  13.249  66.848  1.00  0.00    -0.298 C  
HETATM   35  C   UNL     1     -10.293  15.083  65.211  1.00  0.00    -0.424 C  
HETATM   36  O   UNL     1     -10.735  12.855  64.476  1.00  0.00    -0.327 OA 
HETATM   37  C   UNL     1     -11.144  13.836  65.432  1.00  0.00    -0.302 C  
HETATM   38  C   UNL     1     -12.621  14.162  65.173  1.00  0.00    -0.426 C  
HETATM   39  H   UNL     1     -10.833  13.216  63.603  1.00  0.00     0.000 HD 
ENDBRANCH  33  34
ENDBRANCH  27  33
ENDBRANCH  21  22
ENDBRANCH   1  21
BRANCH   3  40
HETATM   40  O   UNL     1      -8.683   9.473  69.966  1.00  0.00    -0.184 OA 
HETATM   41  C   UNL     1      -7.448   9.673  70.629  1.00  0.00    -0.085 C  
ENDBRANCH   3  40
TORSDOF 7
ENDMDL
MODEL      112
REMARK 921   NORMALIZED FREE ENERGY PREDICTED BY IDOCK:   -3.09 KCAL/MOL
REMARK 922        TOTAL FREE ENERGY PREDICTED BY IDOCK:   -6.22 KCAL/MOL
REMARK 923 INTER-LIGAND FREE ENERGY PREDICTED BY IDOCK:   -7.22 KCAL/MOL
REMARK 924 INTRA-LIGAND FREE ENERGY PREDICTED BY IDOCK:    1.01 KCAL/MOL
REMARK 927      BINDING AFFINITY PREDICTED BY RF-SCORE:    0.00 PKD
ROOT
HETATM    1  C   UNL     1     -11.353   8.668  68.824  1.00  0.00     0.664 C  
HETATM    2  O   UNL     1      -6.379   5.538  65.620  1.00  0.00    -0.036 OA 
HETATM    3  C   UNL     1     -11.105   9.562  70.020  1.00  0.00    -0.237 C  
HETATM    4  C   UNL     1     -10.636   7.290  69.192  1.00  0.00    -0.219 C  
HETATM    5  C   UNL     1      -7.139   4.428  65.117  1.00  0.00    -0.063 C  
HETATM    6  C   UNL     1     -10.824   8.859  71.117  1.00  0.00    -0.352 C  
HETATM    7  C   UNL     1     -10.704   7.377  70.883  1.00  0.00    -0.235 C  
HETATM    8  C   UNL     1      -9.355   6.843  68.265  1.00  0.00    -0.125 A  
HETATM    9  C   UNL     1      -9.585   5.905  67.227  1.00  0.00    -0.122 A  
HETATM   10  O   UNL     1      -8.531   4.464  65.521  1.00  0.00    -0.113 OA 
HETATM   11  C   UNL     1      -8.524   5.494  66.415  1.00  0.00    -0.119 A  
HETATM   12  C   UNL     1     -11.926   6.674  71.482  1.00  0.00    -0.402 C  
HETATM   13  C   UNL     1      -7.281   6.074  66.487  1.00  0.00    -0.073 A  
HETATM   14  C   UNL     1      -6.962   6.957  67.485  1.00  0.00    -0.083 A  
HETATM   15  C   UNL     1     -11.380   5.688  72.508  1.00  0.00    -0.349 C  
HETATM   16  C   UNL     1      -7.928   7.135  68.491  1.00  0.00    -0.124 A  
HETATM   17  C   UNL     1      -7.276   6.897  69.927  1.00  0.00    -0.076 C  
HETATM   18  C   UNL     1      -8.489   6.949  70.774  1.00  0.00    -0.136 C  
HETATM   19  N   UNL     1      -9.535   6.950  71.735  1.00  0.00    -0.153 NA 
HETATM   20  C   UNL     1      -9.870   5.661  72.332  1.00  0.00    -0.164 C  
ENDROOT
BRANCH   1  21
HETATM   21  O   UNL     1     -10.991   9.276  67.590  1.00  0.00    -0.204 OA 
BRANCH  21  22
HETATM   22  C   UNL     1      -9.946  10.148  67.732  1.00  0.00    -0.168 C  
HETATM   23  C   UNL     1      -8.615  11.843  66.461  1.00  0.00    -0.126 C  
HETATM   24  C   UNL     1     -10.017  11.251  66.664  1.00  0.00    -0.209 C  
HETATM   25  O   UNL     1      -9.044  10.035  68.563  1.00  0.00    -0.122 OA 
HETATM   26  H   UNL     1     -10.525  11.385  64.766  1.00  0.00     0.000 HD 
HETATM   27  C   UNL     1     -11.023  12.330  67.131  1.00  0.00    -0.308 C  
HETATM   28  O   UNL     1     -10.481  10.704  65.426  1.00  0.00    -0.258 OA 
BRANCH  23  29
HETATM   29  C   UNL     1      -7.605  10.799  66.003  1.00  0.00    -0.130 C  
HETATM   30  O   UNL     1      -6.662  10.361  66.652  1.00  0.00    -0.080 OA 
BRANCH  29  31
HETATM   31  O   UNL     1      -7.940  10.412  64.733  1.00  0.00    -0.152 OA 
HETATM   32  C   UNL     1      -7.538   9.078  64.428  1.00  0.00    -0.112 C  
ENDBRANCH  29  31
ENDBRANCH  23  29
BRANCH  27  33
HETATM   33  C   UNL     1     -11.219  13.549  66.204  1.00  0.00    -0.306 C  
BRANCH  33  34
HETATM   34  C   UNL     1     -11.223  14.907  66.923  1.00  0.00    -0.343 C  
HETATM   35  C   UNL     1      -8.834  15.549  66.288  1.00  0.00    -0.338 C  
HETATM   36  O   UNL     1     -10.702  16.224  64.963  1.00  0.00    -0.600 OA 
HETATM   37  C   UNL     1     -10.298  15.978  66.312  1.00  0.00    -0.321 C  
HETATM   38  C   UNL     1     -10.441  17.290  67.095  1.00  0.00    -0.297 C  
HETATM   39  H   UNL     1     -10.131  16.884  64.587  1.00  0.00     0.000 HD 
ENDBRANCH  33  34
ENDBRANCH  27  33
ENDBRANCH  21  22
ENDBRANCH   1  21
BRANCH   3  40
HETATM   40  O   UNL     1     -11.111  10.931  70.078  1.00  0.00    -0.268 OA 
HETATM   41  C   UNL     1     -12.232  11.620  70.600  1.00  0.00    -0.366 C  
ENDBRANCH   3  40
TORSDOF 7
ENDMDL
MODEL      113
REMARK 921   NORMALIZED FREE ENERGY PREDICTED BY IDOCK:   -3.07 KCAL/MOL
REMARK 922        TOTAL FREE ENERGY PREDICTED BY IDOCK:   -6.19 KCAL/MOL
REMARK 923 INTER-LIGAND FREE ENERGY PREDICTED BY IDOCK:   -7.81 KCAL/MOL
REMARK 924 INTRA-LIGAND FREE ENERGY PREDICTED BY IDOCK:    1.62 KCAL/MOL
REMARK 927      BINDING AFFINITY PREDICTED BY RF-SCORE:    0.00 PKD
ROOT
HETATM    1  C   UNL     1      -9.133   7.663  66.631  1.00  0.00    -0.164 C  
HETATM    2  O   UNL     1     -12.029  13.670  67.207  1.00  0.00    -0.376 OA 
HETATM    3  C   UNL     1      -7.832   7.325  67.328  1.00  0.00    -0.111 C  
HETATM    4  C   UNL     1      -8.823   9.005  65.825  1.00  0.00    -0.216 C  
HETATM    5  C   UNL     1     -12.726  13.672  65.951  1.00  0.00    -0.372 C  
HETATM    6  C   UNL     1      -6.786   7.899  66.736  1.00  0.00    -0.063 C  
HETATM    7  C   UNL     1      -7.152   8.828  65.609  1.00  0.00    -0.083 C  
HETATM    8  C   UNL     1      -9.634  10.359  66.285  1.00  0.00    -0.230 A  
HETATM    9  C   UNL     1     -10.780  10.729  65.538  1.00  0.00    -0.145 A  
HETATM   10  O   UNL     1     -12.487  12.476  65.168  1.00  0.00    -0.573 OA 
HETATM   11  C   UNL     1     -11.499  11.874  65.893  1.00  0.00    -0.278 A  
HETATM   12  C   UNL     1      -6.774   8.173  64.277  1.00  0.00    -0.066 C  
HETATM   13  C   UNL     1     -11.224  12.586  67.034  1.00  0.00    -0.302 A  
HETATM   14  C   UNL     1     -10.112  12.321  67.790  1.00  0.00    -0.202 A  
HETATM   15  C   UNL     1      -5.795   9.127  63.605  1.00  0.00    -0.079 C  
HETATM   16  C   UNL     1      -9.214  11.375  67.265  1.00  0.00    -0.167 A  
HETATM   17  C   UNL     1      -7.743  11.989  67.208  1.00  0.00    -0.168 C  
HETATM   18  C   UNL     1      -7.042  10.913  66.470  1.00  0.00    -0.139 C  
HETATM   19  N   UNL     1      -6.216  10.001  65.762  1.00  0.00    -0.084 NA 
HETATM   20  C   UNL     1      -5.794  10.407  64.425  1.00  0.00    -0.123 C  
ENDROOT
BRANCH   1  21
HETATM   21  O   UNL     1     -10.249   7.681  67.513  1.00  0.00    -0.187 OA 
BRANCH  21  22
HETATM   22  C   UNL     1      -9.877   7.907  68.811  1.00  0.00    -0.167 C  
HETATM   23  C   UNL     1     -10.603   7.478  71.167  1.00  0.00    -0.234 C  
HETATM   24  C   UNL     1     -10.551   6.893  69.748  1.00  0.00    -0.233 C  
HETATM   25  O   UNL     1      -9.147   8.827  69.184  1.00  0.00    -0.140 OA 
HETATM   26  H   UNL     1     -12.300   5.996  69.879  1.00  0.00     0.000 HD 
HETATM   27  C   UNL     1      -9.745   5.571  69.712  1.00  0.00    -0.236 C  
HETATM   28  O   UNL     1     -11.883   6.623  69.300  1.00  0.00    -0.097 OA 
BRANCH  23  29
HETATM   29  C   UNL     1     -11.389   8.780  71.228  1.00  0.00    -0.291 C  
HETATM   30  O   UNL     1     -10.926   9.915  71.199  1.00  0.00    -0.333 OA 
BRANCH  29  31
HETATM   31  O   UNL     1     -12.721   8.470  71.304  1.00  0.00    -0.289 OA 
HETATM   32  C   UNL     1     -13.364   9.029  72.447  1.00  0.00    -0.460 C  
ENDBRANCH  29  31
ENDBRANCH  23  29
BRANCH  27  33
HETATM   33  C   UNL     1     -10.246   4.424  70.615  1.00  0.00    -0.097 C  
BRANCH  33  34
HETATM   34  C   UNL     1      -9.329   4.096  71.804  1.00  0.00    -0.194 C  
HETATM   35  C   UNL     1     -11.056   4.600  73.617  1.00  0.00    -0.379 C  
HETATM   36  O   UNL     1     -10.757   2.394  72.755  1.00  0.00    -0.150 OA 
HETATM   37  C   UNL     1     -10.047   3.593  73.072  1.00  0.00    -0.152 C  
HETATM   38  C   UNL     1      -9.011   3.259  74.152  1.00  0.00    -0.092 C  
HETATM   39  H   UNL     1     -11.200   2.083  73.536  1.00  0.00     0.000 HD 
ENDBRANCH  33  34
ENDBRANCH  27  33
ENDBRANCH  21  22
ENDBRANCH   1  21
BRANCH   3  40
HETATM   40  O   UNL     1      -7.639   6.562  68.450  1.00  0.00    -0.099 OA 
HETATM   41  C   UNL     1      -6.353   6.056  68.758  1.00  0.00    -0.041 C  
ENDBRANCH   3  40
TORSDOF 7
ENDMDL
MODEL      114
REMARK 921   NORMALIZED FREE ENERGY PREDICTED BY IDOCK:   -2.98 KCAL/MOL
REMARK 922        TOTAL FREE ENERGY PREDICTED BY IDOCK:   -6.07 KCAL/MOL
REMARK 923 INTER-LIGAND FREE ENERGY PREDICTED BY IDOCK:   -5.56 KCAL/MOL
REMARK 924 INTRA-LIGAND FREE ENERGY PREDICTED BY IDOCK:   -0.52 KCAL/MOL
REMARK 927      BINDING AFFINITY PREDICTED BY RF-SCORE:    0.00 PKD
ROOT
HETATM    1  C   UNL     1      -7.824  10.179  68.318  1.00  0.00    -0.093 C  
HETATM    2  O   UNL     1     -13.231   9.754  72.241  1.00  0.00    -0.437 OA 
HETATM    3  C   UNL     1      -7.410  11.474  67.654  1.00  0.00    -0.105 C  
HETATM    4  C   UNL     1      -9.352   9.980  67.899  1.00  0.00    -0.151 C  
HETATM    5  C   UNL     1     -13.516   8.361  72.031  1.00  0.00    -0.350 C  
HETATM    6  C   UNL     1      -8.197  11.780  66.623  1.00  0.00    -0.117 C  
HETATM    7  C   UNL     1      -9.362  10.844  66.442  1.00  0.00    -0.176 C  
HETATM    8  C   UNL     1     -10.470  10.034  69.102  1.00  0.00    -0.238 A  
HETATM    9  C   UNL     1     -10.941   8.803  69.625  1.00  0.00    -0.114 A  
HETATM   10  O   UNL     1     -12.592   7.726  71.112  1.00  0.00    -0.284 OA 
HETATM   11  C   UNL     1     -11.894   8.802  70.647  1.00  0.00    -0.112 A  
HETATM   12  C   UNL     1      -9.115   9.967  65.210  1.00  0.00    -0.243 C  
HETATM   13  C   UNL     1     -12.295   9.956  71.274  1.00  0.00    -0.381 A  
HETATM   14  C   UNL     1     -11.921  11.189  70.807  1.00  0.00    -0.415 A  
HETATM   15  C   UNL     1     -10.283  10.231  64.268  1.00  0.00    -0.041 C  
HETATM   16  C   UNL     1     -11.218  11.207  69.589  1.00  0.00    -0.333 A  
HETATM   17  C   UNL     1     -11.931  12.192  68.558  1.00  0.00    -0.273 C  
HETATM   18  C   UNL     1     -11.145  11.902  67.337  1.00  0.00    -0.279 C  
HETATM   19  N   UNL     1     -10.518  11.741  66.074  1.00  0.00    -0.238 NA 
HETATM   20  C   UNL     1     -11.295  11.059  65.043  1.00  0.00     0.304 C  
ENDROOT
BRANCH   1  21
HETATM   21  O   UNL     1      -7.525  10.145  69.708  1.00  0.00    -0.131 OA 
BRANCH  21  22
HETATM   22  C   UNL     1      -6.387   9.432  69.973  1.00  0.00    -0.047 C  
HETATM   23  C   UNL     1      -5.612   7.172  70.716  1.00  0.00    -0.027 C  
HETATM   24  C   UNL     1      -6.665   7.923  69.889  1.00  0.00    -0.037 C  
HETATM   25  O   UNL     1      -5.304   9.928  70.288  1.00  0.00    -0.038 OA 
HETATM   26  H   UNL     1      -8.139   6.704  70.360  1.00  0.00     0.000 HD 
HETATM   27  C   UNL     1      -6.629   7.493  68.403  1.00  0.00    -0.050 C  
HETATM   28  O   UNL     1      -7.967   7.636  70.411  1.00  0.00    -0.094 OA 
BRANCH  23  29
HETATM   29  C   UNL     1      -5.628   7.579  72.183  1.00  0.00    -0.036 C  
HETATM   30  O   UNL     1      -5.802   8.709  72.625  1.00  0.00    -0.070 OA 
BRANCH  29  31
HETATM   31  O   UNL     1      -5.430   6.455  72.939  1.00  0.00    -0.036 OA 
HETATM   32  C   UNL     1      -6.478   5.498  72.808  1.00  0.00    -0.065 C  
ENDBRANCH  29  31
ENDBRANCH  23  29
BRANCH  27  33
HETATM   33  C   UNL     1      -6.858   5.996  68.104  1.00  0.00    -0.070 C  
BRANCH  33  34
HETATM   34  C   UNL     1      -6.907   5.640  66.610  1.00  0.00    -0.063 C  
HETATM   35  C   UNL     1      -9.103   4.340  66.721  1.00  0.00    -0.141 C  
HETATM   36  O   UNL     1      -9.054   6.666  66.184  1.00  0.00    -0.169 OA 
HETATM   37  C   UNL     1      -8.320   5.450  66.025  1.00  0.00    -0.120 C  
HETATM   38  C   UNL     1      -8.220   5.151  64.523  1.00  0.00    -0.133 C  
HETATM   39  H   UNL     1      -9.926   6.549  65.823  1.00  0.00     0.000 HD 
ENDBRANCH  33  34
ENDBRANCH  27  33
ENDBRANCH  21  22
ENDBRANCH   1  21
BRANCH   3  40
HETATM   40  O   UNL     1      -6.392  12.323  68.002  1.00  0.00    -0.060 OA 
HETATM   41  C   UNL     1      -6.680  13.590  68.568  1.00  0.00    -0.095 C  
ENDBRANCH   3  40
TORSDOF 7
ENDMDL
MODEL      115
REMARK 921   NORMALIZED FREE ENERGY PREDICTED BY IDOCK:   -2.95 KCAL/MOL
REMARK 922        TOTAL FREE ENERGY PREDICTED BY IDOCK:   -6.02 KCAL/MOL
REMARK 923 INTER-LIGAND FREE ENERGY PREDICTED BY IDOCK:   -7.01 KCAL/MOL
REMARK 924 INTRA-LIGAND FREE ENERGY PREDICTED BY IDOCK:    0.99 KCAL/MOL
REMARK 927      BINDING AFFINITY PREDICTED BY RF-SCORE:    0.00 PKD
ROOT
HETATM    1  C   UNL     1     -10.476   9.178  66.255  1.00  0.00     0.035 C  
HETATM    2  O   UNL     1      -8.147   8.652  72.507  1.00  0.00    -0.347 OA 
HETATM    3  C   UNL     1      -9.701   9.883  65.162  1.00  0.00    -0.306 C  
HETATM    4  C   UNL     1     -10.555  10.238  67.445  1.00  0.00    -0.324 C  
HETATM    5  C   UNL     1      -9.413   8.556  73.180  1.00  0.00     0.028 C  
HETATM    6  C   UNL     1      -9.739  11.208  65.301  1.00  0.00    -0.285 C  
HETATM    7  C   UNL     1     -10.430  11.674  66.555  1.00  0.00    -0.239 C  
HETATM    8  C   UNL     1      -9.777   9.856  68.841  1.00  0.00    -0.176 A  
HETATM    9  C   UNL     1     -10.546   9.312  69.900  1.00  0.00    -0.246 A  
HETATM   10  O   UNL     1     -10.543   8.638  72.276  1.00  0.00    -0.334 OA 
HETATM   11  C   UNL     1      -9.926   8.974  71.106  1.00  0.00    -0.295 A  
HETATM   12  C   UNL     1     -11.785  12.284  66.184  1.00  0.00    -0.440 C  
HETATM   13  C   UNL     1      -8.563   9.013  71.263  1.00  0.00    -0.155 A  
HETATM   14  C   UNL     1      -7.749   9.562  70.306  1.00  0.00    -0.170 A  
HETATM   15  C   UNL     1     -11.752  13.720  66.694  1.00  0.00    -0.421 C  
HETATM   16  C   UNL     1      -8.395  10.190  69.226  1.00  0.00    -0.160 A  
HETATM   17  C   UNL     1      -7.847  11.677  69.050  1.00  0.00     0.031 C  
HETATM   18  C   UNL     1      -8.780  12.176  68.014  1.00  0.00    -0.180 C  
HETATM   19  N   UNL     1      -9.590  12.827  67.046  1.00  0.00    -0.222 NA 
HETATM   20  C   UNL     1     -10.498  13.855  67.543  1.00  0.00    -0.248 C  
ENDROOT
BRANCH   1  21
HETATM   21  O   UNL     1      -9.953   7.892  66.567  1.00  0.00    -0.243 OA 
BRANCH  21  22
HETATM   22  C   UNL     1      -8.593   7.840  66.422  1.00  0.00    -0.145 C  
HETATM   23  C   UNL     1      -6.671   6.239  66.477  1.00  0.00    -0.060 C  
HETATM   24  C   UNL     1      -8.143   6.411  66.077  1.00  0.00    -0.120 C  
HETATM   25  O   UNL     1      -7.830   8.791  66.594  1.00  0.00    -0.098 OA 
HETATM   26  H   UNL     1      -8.662   4.579  66.581  1.00  0.00     0.000 HD 
HETATM   27  C   UNL     1      -8.349   6.178  64.561  1.00  0.00    -0.021 C  
HETATM   28  O   UNL     1      -8.940   5.462  66.793  1.00  0.00    -0.112 OA 
BRANCH  23  29
HETATM   29  C   UNL     1      -6.443   6.466  67.964  1.00  0.00    -0.049 C  
HETATM   30  O   UNL     1      -6.007   7.484  68.489  1.00  0.00    -0.026 OA 
BRANCH  29  31
HETATM   31  O   UNL     1      -6.829   5.334  68.632  1.00  0.00    -0.052 OA 
HETATM   32  C   UNL     1      -7.052   5.550  70.024  1.00  0.00    -0.066 C  
ENDBRANCH  29  31
ENDBRANCH  23  29
BRANCH  27  33
HETATM   33  C   UNL     1      -7.927   4.801  64.004  1.00  0.00    -0.102 C  
BRANCH  33  34
HETATM   34  C   UNL     1      -9.007   4.085  63.177  1.00  0.00    -0.113 C  
HETATM   35  C   UNL     1      -9.344   2.147  64.806  1.00  0.00    -0.108 C  
HETATM   36  O   UNL     1     -10.697   4.111  64.905  1.00  0.00    -0.512 OA 
HETATM   37  C   UNL     1     -10.014   3.250  63.991  1.00  0.00    -0.178 C  
HETATM   38  C   UNL     1     -11.058   2.638  63.048  1.00  0.00    -0.148 C  
HETATM   39  H   UNL     1     -11.318   3.597  65.407  1.00  0.00     0.000 HD 
ENDBRANCH  33  34
ENDBRANCH  27  33
ENDBRANCH  21  22
ENDBRANCH   1  21
BRANCH   3  40
HETATM   40  O   UNL     1      -8.987   9.332  64.131  1.00  0.00    -0.191 OA 
HETATM   41  C   UNL     1      -8.680  10.101  62.982  1.00  0.00    -0.211 C  
ENDBRANCH   3  40
TORSDOF 7
ENDMDL
MODEL      116
REMARK 921   NORMALIZED FREE ENERGY PREDICTED BY IDOCK:   -2.92 KCAL/MOL
REMARK 922        TOTAL FREE ENERGY PREDICTED BY IDOCK:   -5.97 KCAL/MOL
REMARK 923 INTER-LIGAND FREE ENERGY PREDICTED BY IDOCK:   -7.24 KCAL/MOL
REMARK 924 INTRA-LIGAND FREE ENERGY PREDICTED BY IDOCK:    1.27 KCAL/MOL
REMARK 927      BINDING AFFINITY PREDICTED BY RF-SCORE:    0.00 PKD
ROOT
HETATM    1  C   UNL     1      -8.049   8.415  67.525  1.00  0.00    -0.110 C  
HETATM    2  O   UNL     1      -9.766   7.353  73.906  1.00  0.00    -0.281 OA 
HETATM    3  C   UNL     1      -8.954   8.036  66.373  1.00  0.00    -0.169 C  
HETATM    4  C   UNL     1      -7.913   7.080  68.389  1.00  0.00    -0.123 C  
HETATM    5  C   UNL     1      -8.441   7.241  74.450  1.00  0.00    -0.203 C  
HETATM    6  C   UNL     1      -8.968   6.720  66.163  1.00  0.00    -0.157 C  
HETATM    7  C   UNL     1      -8.190   5.929  67.179  1.00  0.00    -0.105 C  
HETATM    8  C   UNL     1      -8.540   7.106  69.908  1.00  0.00    -0.141 A  
HETATM    9  C   UNL     1      -7.652   7.337  70.988  1.00  0.00    -0.084 A  
HETATM   10  O   UNL     1      -7.404   7.370  73.445  1.00  0.00    -0.077 OA 
HETATM   11  C   UNL     1      -8.141   7.365  72.297  1.00  0.00    -0.101 A  
HETATM   12  C   UNL     1      -6.905   5.404  66.528  1.00  0.00    -0.063 C  
HETATM   13  C   UNL     1      -9.485   7.319  72.575  1.00  0.00    -0.147 A  
HETATM   14  C   UNL     1     -10.408   7.056  71.597  1.00  0.00    -0.216 A  
HETATM   15  C   UNL     1      -6.962   3.887  66.654  1.00  0.00    -0.059 C  
HETATM   16  C   UNL     1      -9.896   6.715  70.333  1.00  0.00    -0.189 A  
HETATM   17  C   UNL     1     -10.529   5.338  69.838  1.00  0.00    -0.351 C  
HETATM   18  C   UNL     1      -9.721   5.104  68.620  1.00  0.00    -0.151 C  
HETATM   19  N   UNL     1      -9.036   4.707  67.441  1.00  0.00    -0.118 NA 
HETATM   20  C   UNL     1      -8.137   3.564  67.563  1.00  0.00    -0.081 C  
ENDROOT
BRANCH   1  21
HETATM   21  O   UNL     1      -8.478   9.587  68.208  1.00  0.00    -0.118 OA 
BRANCH  21  22
HETATM   22  C   UNL     1      -9.842   9.688  68.253  1.00  0.00    -0.150 C  
HETATM   23  C   UNL     1     -11.677  11.266  68.890  1.00  0.00    -0.409 C  
HETATM   24  C   UNL     1     -10.273  11.163  68.276  1.00  0.00    -0.182 C  
HETATM   25  O   UNL     1     -10.616   8.732  68.319  1.00  0.00    -0.210 OA 
HETATM   26  H   UNL     1      -9.623  12.838  69.082  1.00  0.00     0.000 HD 
HETATM   27  C   UNL     1     -10.246  11.711  66.829  1.00  0.00    -0.248 C  
HETATM   28  O   UNL     1      -9.357  11.927  69.067  1.00  0.00     0.054 OA 
BRANCH  23  29
HETATM   29  C   UNL     1     -11.729  10.730  70.313  1.00  0.00    -0.352 C  
HETATM   30  O   UNL     1     -10.800  10.236  70.942  1.00  0.00    -0.220 OA 
BRANCH  29  31
HETATM   31  O   UNL     1     -13.000  10.911  70.790  1.00  0.00    -0.314 OA 
HETATM   32  C   UNL     1     -13.118  12.032  71.664  1.00  0.00    -0.318 C  
ENDBRANCH  29  31
ENDBRANCH  23  29
BRANCH  27  33
HETATM   33  C   UNL     1     -10.678  13.180  66.633  1.00  0.00    -0.286 C  
BRANCH  33  34
HETATM   34  C   UNL     1      -9.517  14.170  66.445  1.00  0.00    -0.289 C  
HETATM   35  C   UNL     1     -10.675  16.151  67.566  1.00  0.00    -0.304 C  
HETATM   36  O   UNL     1      -9.248  14.682  68.792  1.00  0.00    -0.195 OA 
HETATM   37  C   UNL     1      -9.422  15.283  67.507  1.00  0.00    -0.202 C  
HETATM   38  C   UNL     1      -8.195  16.160  67.224  1.00  0.00    -0.203 C  
HETATM   39  H   UNL     1      -9.189  15.368  69.447  1.00  0.00     0.000 HD 
ENDBRANCH  33  34
ENDBRANCH  27  33
ENDBRANCH  21  22
ENDBRANCH   1  21
BRANCH   3  40
HETATM   40  O   UNL     1      -9.732   8.853  65.595  1.00  0.00    -0.210 OA 
HETATM   41  C   UNL     1      -9.180   9.501  64.463  1.00  0.00    -0.162 C  
ENDBRANCH   3  40
TORSDOF 7
ENDMDL
MODEL      117
REMARK 921   NORMALIZED FREE ENERGY PREDICTED BY IDOCK:   -2.91 KCAL/MOL
REMARK 922        TOTAL FREE ENERGY PREDICTED BY IDOCK:   -5.97 KCAL/MOL
REMARK 923 INTER-LIGAND FREE ENERGY PREDICTED BY IDOCK:   -4.86 KCAL/MOL
REMARK 924 INTRA-LIGAND FREE ENERGY PREDICTED BY IDOCK:   -1.11 KCAL/MOL
REMARK 927      BINDING AFFINITY PREDICTED BY RF-SCORE:    0.00 PKD
ROOT
HETATM    1  C   UNL     1      -7.776   8.439  69.266  1.00  0.00    -0.098 C  
HETATM    2  O   UNL     1      -5.396   7.892  63.034  1.00  0.00    -0.049 OA 
HETATM    3  C   UNL     1      -7.124   7.743  70.442  1.00  0.00    -0.050 C  
HETATM    4  C   UNL     1      -8.026   7.280  68.198  1.00  0.00    -0.123 C  
HETATM    5  C   UNL     1      -6.631   8.114  62.333  1.00  0.00    -0.087 C  
HETATM    6  C   UNL     1      -7.376   6.434  70.448  1.00  0.00    -0.089 C  
HETATM    7  C   UNL     1      -8.133   5.950  69.241  1.00  0.00    -0.106 C  
HETATM    8  C   UNL     1      -7.197   7.377  66.782  1.00  0.00    -0.087 A  
HETATM    9  C   UNL     1      -7.869   7.917  65.657  1.00  0.00    -0.109 A  
HETATM   10  O   UNL     1      -7.759   8.314  63.222  1.00  0.00    -0.127 OA 
HETATM   11  C   UNL     1      -7.203   8.015  64.432  1.00  0.00    -0.085 A  
HETATM   12  C   UNL     1      -9.569   5.610  69.653  1.00  0.00    -0.197 C  
HETATM   13  C   UNL     1      -5.864   7.742  64.304  1.00  0.00    -0.052 A  
HETATM   14  C   UNL     1      -5.149   7.178  65.329  1.00  0.00    -0.027 A  
HETATM   15  C   UNL     1      -9.768   4.140  69.303  1.00  0.00    -0.219 C  
HETATM   16  C   UNL     1      -5.887   6.785  66.459  1.00  0.00    -0.025 A  
HETATM   17  C   UNL     1      -5.586   5.257  66.805  1.00  0.00    -0.017 C  
HETATM   18  C   UNL     1      -6.587   5.032  67.873  1.00  0.00    -0.050 C  
HETATM   19  N   UNL     1      -7.490   4.630  68.892  1.00  0.00    -0.060 NA 
HETATM   20  C   UNL     1      -8.553   3.712  68.495  1.00  0.00    -0.091 C  
ENDROOT
BRANCH   1  21
HETATM   21  O   UNL     1      -7.052   9.581  68.825  1.00  0.00    -0.066 OA 
BRANCH  21  22
HETATM   22  C   UNL     1      -7.770  10.737  68.977  1.00  0.00    -0.133 C  
HETATM   23  C   UNL     1      -8.291  12.894  67.821  1.00  0.00    -0.178 C  
HETATM   24  C   UNL     1      -8.025  11.396  67.613  1.00  0.00    -0.123 C  
HETATM   25  O   UNL     1      -8.116  11.212  70.060  1.00  0.00     0.571 OA 
HETATM   26  H   UNL     1      -7.038  11.640  65.926  1.00  0.00     0.000 HD 
HETATM   27  C   UNL     1      -9.231  10.696  66.941  1.00  0.00    -0.172 C  
HETATM   28  O   UNL     1      -6.881  11.233  66.769  1.00  0.00    -0.125 OA 
BRANCH  23  29
HETATM   29  C   UNL     1      -7.118  13.604  68.483  1.00  0.00    -0.107 C  
HETATM   30  O   UNL     1      -6.136  13.075  68.990  1.00  0.00    -0.078 OA 
BRANCH  29  31
HETATM   31  O   UNL     1      -7.337  14.953  68.400  1.00  0.00    -0.105 OA 
HETATM   32  C   UNL     1      -8.374  15.409  69.267  1.00  0.00    -0.254 C  
ENDBRANCH  29  31
ENDBRANCH  23  29
BRANCH  27  33
HETATM   33  C   UNL     1      -9.671  11.235  65.563  1.00  0.00    -0.268 C  
BRANCH  33  34
HETATM   34  C   UNL     1     -11.129  11.719  65.498  1.00  0.00    -0.336 C  
HETATM   35  C   UNL     1     -10.585  14.085  64.707  1.00  0.00    -0.441 C  
HETATM   36  O   UNL     1     -11.079  12.334  63.161  1.00  0.00    -0.669 OA 
HETATM   37  C   UNL     1     -11.410  12.825  64.463  1.00  0.00    -0.334 C  
HETATM   38  C   UNL     1     -12.904  13.172  64.473  1.00  0.00    -0.173 C  
HETATM   39  H   UNL     1     -11.253  13.016  62.522  1.00  0.00     0.000 HD 
ENDBRANCH  33  34
ENDBRANCH  27  33
ENDBRANCH  21  22
ENDBRANCH   1  21
BRANCH   3  40
HETATM   40  O   UNL     1      -6.330   8.283  71.420  1.00  0.00    -0.035 OA 
HETATM   41  C   UNL     1      -6.660   8.110  72.786  1.00  0.00    -0.085 C  
ENDBRANCH   3  40
TORSDOF 7
ENDMDL
MODEL      118
REMARK 921   NORMALIZED FREE ENERGY PREDICTED BY IDOCK:   -2.87 KCAL/MOL
REMARK 922        TOTAL FREE ENERGY PREDICTED BY IDOCK:   -5.91 KCAL/MOL
REMARK 923 INTER-LIGAND FREE ENERGY PREDICTED BY IDOCK:   -7.20 KCAL/MOL
REMARK 924 INTRA-LIGAND FREE ENERGY PREDICTED BY IDOCK:    1.29 KCAL/MOL
REMARK 927      BINDING AFFINITY PREDICTED BY RF-SCORE:    0.00 PKD
ROOT
HETATM    1  C   UNL     1     -10.792  11.935  69.244  1.00  0.00    -0.104 C  
HETATM    2  O   UNL     1     -10.491  11.146  62.604  1.00  0.00     0.040 OA 
HETATM    3  C   UNL     1     -11.657  12.994  69.892  1.00  0.00    -0.179 C  
HETATM    4  C   UNL     1      -9.905  12.729  68.181  1.00  0.00    -0.226 C  
HETATM    5  C   UNL     1      -9.170  10.585  62.534  1.00  0.00    -0.297 C  
HETATM    6  C   UNL     1     -11.135  14.213  69.759  1.00  0.00    -0.142 C  
HETATM    7  C   UNL     1      -9.894  14.259  68.908  1.00  0.00    -0.137 C  
HETATM    8  C   UNL     1     -10.147  12.378  66.594  1.00  0.00    -0.234 A  
HETATM    9  C   UNL     1      -9.247  11.477  65.971  1.00  0.00    -0.229 A  
HETATM   10  O   UNL     1      -8.531  10.475  63.830  1.00  0.00    -0.168 OA 
HETATM   11  C   UNL     1      -9.413  11.151  64.622  1.00  0.00    -0.213 A  
HETATM   12  C   UNL     1      -8.678  14.500  69.808  1.00  0.00     0.583 C  
HETATM   13  C   UNL     1     -10.508  11.559  63.901  1.00  0.00    -0.385 A  
HETATM   14  C   UNL     1     -11.404  12.461  64.413  1.00  0.00    -0.396 A  
HETATM   15  C   UNL     1      -8.034  15.787  69.306  1.00  0.00    -0.239 C  
HETATM   16  C   UNL     1     -11.071  13.034  65.653  1.00  0.00    -0.301 A  
HETATM   17  C   UNL     1     -11.122  14.625  65.553  1.00  0.00    -0.345 C  
HETATM   18  C   UNL     1     -10.568  14.986  66.878  1.00  0.00    -0.297 C  
HETATM   19  N   UNL     1     -10.042  15.516  68.086  1.00  0.00    -0.217 NA 
HETATM   20  C   UNL     1      -8.729  16.147  68.003  1.00  0.00    -0.176 C  
ENDROOT
BRANCH   1  21
HETATM   21  O   UNL     1     -11.539  10.824  68.762  1.00  0.00    -0.282 OA 
BRANCH  21  22
HETATM   22  C   UNL     1     -10.770   9.697  68.646  1.00  0.00    -0.201 C  
HETATM   23  C   UNL     1      -9.149   8.283  69.924  1.00  0.00    -0.147 C  
HETATM   24  C   UNL     1     -10.419   9.140  70.034  1.00  0.00    -0.221 C  
HETATM   25  O   UNL     1     -10.371   9.225  67.581  1.00  0.00    -0.222 OA 
HETATM   26  H   UNL     1      -9.965   9.872  71.806  1.00  0.00     0.000 HD 
HETATM   27  C   UNL     1     -11.617   8.310  70.555  1.00  0.00    -0.133 C  
HETATM   28  O   UNL     1     -10.183  10.216  70.948  1.00  0.00     0.029 OA 
BRANCH  23  29
HETATM   29  C   UNL     1      -7.956   9.078  69.412  1.00  0.00    -0.100 C  
HETATM   30  O   UNL     1      -7.673   9.295  68.239  1.00  0.00    -0.086 OA 
BRANCH  29  31
HETATM   31  O   UNL     1      -7.251   9.532  70.494  1.00  0.00    -0.110 OA 
HETATM   32  C   UNL     1      -6.069  10.245  70.136  1.00  0.00    -0.088 C  
ENDBRANCH  29  31
ENDBRANCH  23  29
BRANCH  27  33
HETATM   33  C   UNL     1     -11.451   7.635  71.934  1.00  0.00    -0.313 C  
BRANCH  33  34
HETATM   34  C   UNL     1     -10.272   8.162  72.768  1.00  0.00    -0.372 C  
HETATM   35  C   UNL     1     -10.327   6.294  74.509  1.00  0.00    -0.233 C  
HETATM   36  O   UNL     1      -8.927   6.162  72.580  1.00  0.00    -0.135 OA 
HETATM   37  C   UNL     1      -9.470   7.086  73.526  1.00  0.00    -0.192 C  
HETATM   38  C   UNL     1      -8.301   7.744  74.269  1.00  0.00    -0.293 C  
HETATM   39  H   UNL     1      -8.432   5.499  73.047  1.00  0.00     0.000 HD 
ENDBRANCH  33  34
ENDBRANCH  27  33
ENDBRANCH  21  22
ENDBRANCH   1  21
BRANCH   3  40
HETATM   40  O   UNL     1     -12.858  12.840  70.533  1.00  0.00    -0.047 OA 
HETATM   41  C   UNL     1     -13.136  13.567  71.716  1.00  0.00    -0.387 C  
ENDBRANCH   3  40
TORSDOF 7
ENDMDL
MODEL      119
REMARK 921   NORMALIZED FREE ENERGY PREDICTED BY IDOCK:   -2.83 KCAL/MOL
REMARK 922        TOTAL FREE ENERGY PREDICTED BY IDOCK:   -5.86 KCAL/MOL
REMARK 923 INTER-LIGAND FREE ENERGY PREDICTED BY IDOCK:   -5.83 KCAL/MOL
REMARK 924 INTRA-LIGAND FREE ENERGY PREDICTED BY IDOCK:   -0.02 KCAL/MOL
REMARK 927      BINDING AFFINITY PREDICTED BY RF-SCORE:    0.00 PKD
ROOT
HETATM    1  C   UNL     1      -9.701  10.369  69.117  1.00  0.00    -0.220 C  
HETATM    2  O   UNL     1      -9.640   4.072  66.849  1.00  0.00    -0.190 OA 
HETATM    3  C   UNL     1      -9.916  11.554  68.201  1.00  0.00    -0.192 C  
HETATM    4  C   UNL     1      -8.499   9.556  68.453  1.00  0.00    -0.119 C  
HETATM    5  C   UNL     1      -8.796   3.507  67.865  1.00  0.00    -0.120 C  
HETATM    6  C   UNL     1      -8.837  11.817  67.465  1.00  0.00    -0.162 C  
HETATM    7  C   UNL     1      -7.723  10.818  67.630  1.00  0.00    -0.104 C  
HETATM    8  C   UNL     1      -8.837   8.051  67.886  1.00  0.00    -0.130 A  
HETATM    9  C   UNL     1      -8.510   6.945  68.710  1.00  0.00    -0.121 A  
HETATM   10  O   UNL     1      -8.346   4.484  68.837  1.00  0.00    -0.080 OA 
HETATM   11  C   UNL     1      -8.778   5.646  68.267  1.00  0.00    -0.106 A  
HETATM   12  C   UNL     1      -6.586  11.461  68.430  1.00  0.00    -0.063 C  
HETATM   13  C   UNL     1      -9.483   5.398  67.115  1.00  0.00    -0.124 A  
HETATM   14  C   UNL     1      -9.801   6.405  66.242  1.00  0.00    -0.049 A  
HETATM   15  C   UNL     1      -5.356  11.398  67.533  1.00  0.00    -0.051 C  
HETATM   16  C   UNL     1      -9.260   7.670  66.527  1.00  0.00    -0.220 A  
HETATM   17  C   UNL     1      -8.481   8.233  65.254  1.00  0.00    -0.179 C  
HETATM   18  C   UNL     1      -7.862   9.442  65.843  1.00  0.00    -0.099 C  
HETATM   19  N   UNL     1      -7.177  10.622  66.237  1.00  0.00    -0.132 NA 
HETATM   20  C   UNL     1      -5.725  10.527  66.342  1.00  0.00    -0.075 C  
ENDROOT
BRANCH   1  21
HETATM   21  O   UNL     1     -10.898   9.649  69.387  1.00  0.00    -0.224 OA 
BRANCH  21  22
HETATM   22  C   UNL     1     -11.271   9.741  70.700  1.00  0.00    -0.334 C  
HETATM   23  C   UNL     1     -11.953   8.333  72.653  1.00  0.00    -0.360 C  
HETATM   24  C   UNL     1     -11.040   8.403  71.420  1.00  0.00    -0.255 C  
HETATM   25  O   UNL     1     -11.771  10.739  71.221  1.00  0.00    -0.210 OA 
HETATM   26  H   UNL     1     -11.207   6.489  70.987  1.00  0.00     0.000 HD 
HETATM   27  C   UNL     1      -9.547   8.303  71.816  1.00  0.00    -0.274 C  
HETATM   28  O   UNL     1     -11.350   7.316  70.543  1.00  0.00    -0.274 OA 
BRANCH  23  29
HETATM   29  C   UNL     1     -13.427   8.432  72.290  1.00  0.00    -0.263 C  
HETATM   30  O   UNL     1     -14.190   9.348  72.574  1.00  0.00    -0.400 OA 
BRANCH  29  31
HETATM   31  O   UNL     1     -13.763   7.319  71.566  1.00  0.00    -0.390 OA 
HETATM   32  C   UNL     1     -14.093   6.196  72.381  1.00  0.00     0.769 C  
ENDBRANCH  29  31
ENDBRANCH  23  29
BRANCH  27  33
HETATM   33  C   UNL     1      -9.112   7.035  72.582  1.00  0.00    -0.153 C  
BRANCH  33  34
HETATM   34  C   UNL     1      -7.651   7.042  73.058  1.00  0.00    -0.088 C  
HETATM   35  C   UNL     1      -6.636   7.608  70.783  1.00  0.00    -0.038 C  
HETATM   36  O   UNL     1      -7.179   9.310  72.367  1.00  0.00    -0.206 OA 
HETATM   37  C   UNL     1      -6.705   7.965  72.265  1.00  0.00    -0.065 C  
HETATM   38  C   UNL     1      -5.300   7.911  72.878  1.00  0.00    -0.037 C  
HETATM   39  H   UNL     1      -6.596   9.880  71.879  1.00  0.00     0.000 HD 
ENDBRANCH  33  34
ENDBRANCH  27  33
ENDBRANCH  21  22
ENDBRANCH   1  21
BRANCH   3  40
HETATM   40  O   UNL     1     -11.045  12.315  68.041  1.00  0.00    -0.212 OA 
HETATM   41  C   UNL     1     -11.134  13.248  66.979  1.00  0.00    -0.282 C  
ENDBRANCH   3  40
TORSDOF 7
ENDMDL
MODEL      120
REMARK 921   NORMALIZED FREE ENERGY PREDICTED BY IDOCK:   -2.80 KCAL/MOL
REMARK 922        TOTAL FREE ENERGY PREDICTED BY IDOCK:   -5.81 KCAL/MOL
REMARK 923 INTER-LIGAND FREE ENERGY PREDICTED BY IDOCK:   -6.37 KCAL/MOL
REMARK 924 INTRA-LIGAND FREE ENERGY PREDICTED BY IDOCK:    0.56 KCAL/MOL
REMARK 927      BINDING AFFINITY PREDICTED BY RF-SCORE:    0.00 PKD
ROOT
HETATM    1  C   UNL     1      -8.036  14.511  68.013  1.00  0.00    -0.139 C  
HETATM    2  O   UNL     1      -9.293   8.220  66.108  1.00  0.00    -0.203 OA 
HETATM    3  C   UNL     1      -6.673  15.148  67.846  1.00  0.00    -0.152 C  
HETATM    4  C   UNL     1      -7.755  13.152  68.801  1.00  0.00    -0.006 C  
HETATM    5  C   UNL     1     -10.360   7.945  67.030  1.00  0.00    -0.341 C  
HETATM    6  C   UNL     1      -5.796  14.689  68.738  1.00  0.00    -0.085 C  
HETATM    7  C   UNL     1      -6.328  13.581  69.607  1.00  0.00    -0.105 C  
HETATM    8  C   UNL     1      -8.072  11.748  68.007  1.00  0.00    -0.145 A  
HETATM    9  C   UNL     1      -9.304  11.100  68.274  1.00  0.00    -0.176 A  
HETATM   10  O   UNL     1     -10.646   9.059  67.913  1.00  0.00    -0.234 OA 
HETATM   11  C   UNL     1      -9.614   9.903  67.623  1.00  0.00    -0.148 A  
HETATM   12  C   UNL     1      -6.564  14.121  71.021  1.00  0.00     0.461 C  
HETATM   13  C   UNL     1      -8.831   9.394  66.616  1.00  0.00    -0.135 A  
HETATM   14  C   UNL     1      -7.606   9.934  66.323  1.00  0.00    -0.102 A  
HETATM   15  C   UNL     1      -5.700  13.270  71.944  1.00  0.00     0.293 C  
HETATM   16  C   UNL     1      -7.148  10.946  67.185  1.00  0.00    -0.103 A  
HETATM   17  C   UNL     1      -5.693  10.587  67.728  1.00  0.00    -0.044 C  
HETATM   18  C   UNL     1      -5.515  11.666  68.726  1.00  0.00    -0.049 C  
HETATM   19  N   UNL     1      -5.179  12.610  69.732  1.00  0.00    -0.075 NA 
HETATM   20  C   UNL     1      -5.164  12.120  71.106  1.00  0.00    -0.123 C  
ENDROOT
BRANCH   1  21
HETATM   21  O   UNL     1      -8.759  14.414  66.792  1.00  0.00    -0.223 OA 
BRANCH  21  22
HETATM   22  C   UNL     1     -10.107  14.567  66.977  1.00  0.00    -0.254 C  
HETATM   23  C   UNL     1     -11.771  15.856  68.329  1.00  0.00    -0.191 C  
HETATM   24  C   UNL     1     -10.410  15.928  67.622  1.00  0.00    -0.281 C  
HETATM   25  O   UNL     1     -10.955  13.713  66.713  1.00  0.00    -0.288 OA 
HETATM   26  H   UNL     1      -9.585  17.093  68.979  1.00  0.00     0.000 HD 
HETATM   27  C   UNL     1     -10.404  17.014  66.518  1.00  0.00    -0.298 C  
HETATM   28  O   UNL     1      -9.397  16.252  68.580  1.00  0.00    -0.202 OA 
BRANCH  23  29
HETATM   29  C   UNL     1     -11.802  14.794  69.419  1.00  0.00    -0.323 C  
HETATM   30  O   UNL     1     -12.204  13.641  69.303  1.00  0.00    -0.320 OA 
BRANCH  29  31
HETATM   31  O   UNL     1     -11.283  15.340  70.562  1.00  0.00    -0.272 OA 
HETATM   32  C   UNL     1     -12.159  15.239  71.682  1.00  0.00    -0.362 C  
ENDBRANCH  29  31
ENDBRANCH  23  29
BRANCH  27  33
HETATM   33  C   UNL     1     -10.719  18.459  66.960  1.00  0.00    -0.330 C  
BRANCH  33  34
HETATM   34  C   UNL     1     -10.024  19.550  66.129  1.00  0.00    -0.526 C  
HETATM   35  C   UNL     1      -7.945  19.720  67.603  1.00  0.00    -0.325 C  
HETATM   36  O   UNL     1      -8.010  18.284  65.697  1.00  0.00    -0.494 OA 
HETATM   37  C   UNL     1      -8.484  19.541  66.187  1.00  0.00    -0.314 C  
HETATM   38  C   UNL     1      -7.928  20.643  65.276  1.00  0.00     0.705 C  
HETATM   39  H   UNL     1      -7.061  18.278  65.733  1.00  0.00     0.000 HD 
ENDBRANCH  33  34
ENDBRANCH  27  33
ENDBRANCH  21  22
ENDBRANCH   1  21
BRANCH   3  40
HETATM   40  O   UNL     1      -6.269  16.065  66.911  1.00  0.00    -0.315 OA 
HETATM   41  C   UNL     1      -5.422  17.138  67.281  1.00  0.00    -0.142 C  
ENDBRANCH   3  40
TORSDOF 7
ENDMDL
MODEL      121
REMARK 921   NORMALIZED FREE ENERGY PREDICTED BY IDOCK:   -2.77 KCAL/MOL
REMARK 922        TOTAL FREE ENERGY PREDICTED BY IDOCK:   -5.77 KCAL/MOL
REMARK 923 INTER-LIGAND FREE ENERGY PREDICTED BY IDOCK:   -5.17 KCAL/MOL
REMARK 924 INTRA-LIGAND FREE ENERGY PREDICTED BY IDOCK:   -0.61 KCAL/MOL
REMARK 927      BINDING AFFINITY PREDICTED BY RF-SCORE:    0.00 PKD
ROOT
HETATM    1  C   UNL     1      -8.223   7.611  69.808  1.00  0.00    -0.131 C  
HETATM    2  O   UNL     1     -14.409   8.502  72.204  1.00  0.00    -0.437 OA 
HETATM    3  C   UNL     1      -7.430   6.349  70.072  1.00  0.00    -0.091 C  
HETATM    4  C   UNL     1      -8.674   8.117  71.254  1.00  0.00    -0.173 C  
HETATM    5  C   UNL     1     -14.392   9.938  72.261  1.00  0.00     0.491 C  
HETATM    6  C   UNL     1      -6.966   6.305  71.321  1.00  0.00    -0.072 C  
HETATM    7  C   UNL     1      -7.434   7.441  72.190  1.00  0.00    -0.080 C  
HETATM    8  C   UNL     1     -10.285   8.117  71.578  1.00  0.00    -0.261 A  
HETATM    9  C   UNL     1     -10.987   9.341  71.446  1.00  0.00    -0.429 A  
HETATM   10  O   UNL     1     -13.129  10.507  71.833  1.00  0.00    -0.457 OA 
HETATM   11  C   UNL     1     -12.358   9.388  71.714  1.00  0.00    -0.394 A  
HETATM   12  C   UNL     1      -6.263   8.398  72.437  1.00  0.00    -0.069 C  
HETATM   13  C   UNL     1     -13.093   8.255  71.963  1.00  0.00    -0.327 A  
HETATM   14  C   UNL     1     -12.489   7.039  72.147  1.00  0.00    -0.193 A  
HETATM   15  C   UNL     1      -6.076   8.450  73.948  1.00  0.00    -0.129 C  
HETATM   16  C   UNL     1     -11.084   7.041  72.191  1.00  0.00    -0.279 A  
HETATM   17  C   UNL     1     -10.576   6.318  73.519  1.00  0.00    -0.288 C  
HETATM   18  C   UNL     1      -9.126   6.608  73.433  1.00  0.00    -0.126 C  
HETATM   19  N   UNL     1      -7.723   6.804  73.527  1.00  0.00    -0.089 NA 
HETATM   20  C   UNL     1      -7.262   7.723  74.563  1.00  0.00    -0.143 C  
ENDROOT
BRANCH   1  21
HETATM   21  O   UNL     1      -9.247   7.433  68.837  1.00  0.00    -0.143 OA 
BRANCH  21  22
HETATM   22  C   UNL     1      -9.397   8.533  68.037  1.00  0.00    -0.136 C  
HETATM   23  C   UNL     1      -8.175   9.915  66.347  1.00  0.00    -0.117 C  
HETATM   24  C   UNL     1      -8.400   8.489  66.869  1.00  0.00    -0.109 C  
HETATM   25  O   UNL     1     -10.183   9.457  68.252  1.00  0.00    -0.180 OA 
HETATM   26  H   UNL     1      -6.536   7.919  66.590  1.00  0.00     0.000 HD 
HETATM   27  C   UNL     1      -8.970   7.567  65.764  1.00  0.00    -0.077 C  
HETATM   28  O   UNL     1      -7.152   7.947  67.312  1.00  0.00    -0.079 OA 
BRANCH  23  29
HETATM   29  C   UNL     1      -7.616  10.843  67.417  1.00  0.00    -0.100 C  
HETATM   30  O   UNL     1      -8.255  11.419  68.290  1.00  0.00    -0.134 OA 
BRANCH  29  31
HETATM   31  O   UNL     1      -6.258  10.913  67.252  1.00  0.00    -0.057 OA 
HETATM   32  C   UNL     1      -5.611  11.703  68.248  1.00  0.00    -0.045 C  
ENDBRANCH  29  31
ENDBRANCH  23  29
BRANCH  27  33
HETATM   33  C   UNL     1      -8.125   7.410  64.482  1.00  0.00    -0.079 C  
BRANCH  33  34
HETATM   34  C   UNL     1      -7.328   6.099  64.394  1.00  0.00    -0.069 C  
HETATM   35  C   UNL     1      -5.373   7.066  63.067  1.00  0.00    -0.033 C  
HETATM   36  O   UNL     1      -5.330   6.954  65.451  1.00  0.00    -0.025 OA 
HETATM   37  C   UNL     1      -5.799   6.262  64.292  1.00  0.00    -0.022 C  
HETATM   38  C   UNL     1      -5.134   4.880  64.264  1.00  0.00    -0.009 C  
HETATM   39  H   UNL     1      -4.387   7.056  65.388  1.00  0.00     0.000 HD 
ENDBRANCH  33  34
ENDBRANCH  27  33
ENDBRANCH  21  22
ENDBRANCH   1  21
BRANCH   3  40
HETATM   40  O   UNL     1      -7.183   5.304  69.222  1.00  0.00    -0.055 OA 
HETATM   41  C   UNL     1      -5.876   4.772  69.102  1.00  0.00    -0.017 C  
ENDBRANCH   3  40
TORSDOF 7
ENDMDL
MODEL      122
REMARK 921   NORMALIZED FREE ENERGY PREDICTED BY IDOCK:   -2.75 KCAL/MOL
REMARK 922        TOTAL FREE ENERGY PREDICTED BY IDOCK:   -5.74 KCAL/MOL
REMARK 923 INTER-LIGAND FREE ENERGY PREDICTED BY IDOCK:   -7.22 KCAL/MOL
REMARK 924 INTRA-LIGAND FREE ENERGY PREDICTED BY IDOCK:    1.48 KCAL/MOL
REMARK 927      BINDING AFFINITY PREDICTED BY RF-SCORE:    0.00 PKD
ROOT
HETATM    1  C   UNL     1     -10.988  15.656  67.176  1.00  0.00    -0.270 C  
HETATM    2  O   UNL     1      -5.195  13.359  69.616  1.00  0.00    -0.083 OA 
HETATM    3  C   UNL     1     -11.148  16.065  65.727  1.00  0.00    -0.032 C  
HETATM    4  C   UNL     1      -9.723  16.480  67.693  1.00  0.00    -0.239 C  
HETATM    5  C   UNL     1      -5.384  13.763  70.982  1.00  0.00    -0.166 C  
HETATM    6  C   UNL     1     -10.562  17.235  65.473  1.00  0.00    -0.136 C  
HETATM    7  C   UNL     1      -9.794  17.803  66.636  1.00  0.00    -0.322 C  
HETATM    8  C   UNL     1      -8.393  15.616  68.125  1.00  0.00    -0.146 A  
HETATM    9  C   UNL     1      -8.196  15.352  69.504  1.00  0.00    -0.207 A  
HETATM   10  O   UNL     1      -6.637  14.459  71.198  1.00  0.00     0.119 OA 
HETATM   11  C   UNL     1      -7.077  14.623  69.917  1.00  0.00    -0.056 A  
HETATM   12  C   UNL     1     -10.560  19.000  67.207  1.00  0.00    -0.554 C  
HETATM   13  C   UNL     1      -6.226  14.021  69.024  1.00  0.00    -0.092 A  
HETATM   14  C   UNL     1      -6.320  14.257  67.677  1.00  0.00    -0.126 A  
HETATM   15  C   UNL     1      -9.613  20.190  67.106  1.00  0.00    -0.554 C  
HETATM   16  C   UNL     1      -7.246  15.238  67.281  1.00  0.00    -0.213 A  
HETATM   17  C   UNL     1      -6.532  16.327  66.360  1.00  0.00     0.706 C  
HETATM   18  C   UNL     1      -7.625  17.318  66.235  1.00  0.00    -0.325 C  
HETATM   19  N   UNL     1      -8.543  18.380  66.021  1.00  0.00    -0.511 NA 
HETATM   20  C   UNL     1      -8.254  19.637  66.704  1.00  0.00    -0.317 C  
ENDROOT
BRANCH   1  21
HETATM   21  O   UNL     1     -10.959  14.245  67.356  1.00  0.00    -0.284 OA 
BRANCH  21  22
HETATM   22  C   UNL     1     -10.803  13.897  68.670  1.00  0.00    -0.262 C  
HETATM   23  C   UNL     1     -11.120  11.979  70.246  1.00  0.00     0.675 C  
HETATM   24  C   UNL     1     -10.720  12.369  68.815  1.00  0.00    -0.209 C  
HETATM   25  O   UNL     1     -10.784  14.691  69.612  1.00  0.00    -0.225 OA 
HETATM   26  H   UNL     1     -11.562  10.797  67.979  1.00  0.00     0.000 HD 
HETATM   27  C   UNL     1      -9.277  11.916  68.489  1.00  0.00    -0.136 C  
HETATM   28  O   UNL     1     -11.612  11.741  67.889  1.00  0.00    -0.331 OA 
BRANCH  23  29
HETATM   29  C   UNL     1     -12.537  12.416  70.592  1.00  0.00    -0.153 C  
HETATM   30  O   UNL     1     -12.988  13.553  70.520  1.00  0.00    -0.123 OA 
BRANCH  29  31
HETATM   31  O   UNL     1     -13.240  11.308  70.985  1.00  0.00    -0.167 OA 
HETATM   32  C   UNL     1     -12.415  10.287  71.542  1.00  0.00    -0.422 C  
ENDBRANCH  29  31
ENDBRANCH  23  29
BRANCH  27  33
HETATM   33  C   UNL     1      -8.977  10.406  68.606  1.00  0.00    -0.146 C  
BRANCH  33  34
HETATM   34  C   UNL     1      -8.463   9.752  67.313  1.00  0.00    -0.125 C  
HETATM   35  C   UNL     1     -10.450   8.178  67.005  1.00  0.00    -0.396 C  
HETATM   36  O   UNL     1     -10.386  10.326  65.966  1.00  0.00    -0.237 OA 
HETATM   37  C   UNL     1      -9.555   9.231  66.359  1.00  0.00    -0.238 C  
HETATM   38  C   UNL     1      -8.903   8.655  65.096  1.00  0.00    -0.147 C  
HETATM   39  H   UNL     1     -11.060  10.006  65.377  1.00  0.00     0.000 HD 
ENDBRANCH  33  34
ENDBRANCH  27  33
ENDBRANCH  21  22
ENDBRANCH   1  21
BRANCH   3  40
HETATM   40  O   UNL     1     -11.766  15.384  64.712  1.00  0.00    -0.326 OA 
HETATM   41  C   UNL     1     -12.405  14.146  64.966  1.00  0.00    -0.440 C  
ENDBRANCH   3  40
TORSDOF 7
ENDMDL
MODEL      123
REMARK 921   NORMALIZED FREE ENERGY PREDICTED BY IDOCK:   -2.66 KCAL/MOL
REMARK 922        TOTAL FREE ENERGY PREDICTED BY IDOCK:   -5.61 KCAL/MOL
REMARK 923 INTER-LIGAND FREE ENERGY PREDICTED BY IDOCK:   -5.55 KCAL/MOL
REMARK 924 INTRA-LIGAND FREE ENERGY PREDICTED BY IDOCK:   -0.05 KCAL/MOL
REMARK 927      BINDING AFFINITY PREDICTED BY RF-SCORE:    0.00 PKD
ROOT
HETATM    1  C   UNL     1      -9.257  17.836  66.743  1.00  0.00    -0.273 C  
HETATM    2  O   UNL     1      -5.923  12.202  68.137  1.00  0.00    -0.050 OA 
HETATM    3  C   UNL     1      -8.555  19.094  66.281  1.00  0.00    -0.296 C  
HETATM    4  C   UNL     1      -8.506  17.424  68.090  1.00  0.00    -0.241 C  
HETATM    5  C   UNL     1      -6.855  11.652  69.083  1.00  0.00    -0.111 C  
HETATM    6  C   UNL     1      -7.917  19.704  67.279  1.00  0.00    -0.314 C  
HETATM    7  C   UNL     1      -7.946  18.946  68.579  1.00  0.00    -0.346 C  
HETATM    8  C   UNL     1      -7.671  16.008  68.079  1.00  0.00    -0.140 A  
HETATM    9  C   UNL     1      -8.300  14.865  68.633  1.00  0.00    -0.164 A  
HETATM   10  O   UNL     1      -7.999  12.511  69.316  1.00  0.00     0.326 OA 
HETATM   11  C   UNL     1      -7.627  13.641  68.647  1.00  0.00    -0.115 A  
HETATM   12  C   UNL     1      -8.888  19.659  69.555  1.00  0.00     0.311 C  
HETATM   13  C   UNL     1      -6.424  13.461  68.010  1.00  0.00    -0.131 A  
HETATM   14  C   UNL     1      -5.729  14.519  67.484  1.00  0.00     0.141 A  
HETATM   15  C   UNL     1      -8.040  20.016  70.770  1.00  0.00     1.641 C  
HETATM   16  C   UNL     1      -6.252  15.798  67.745  1.00  0.00    -0.175 A  
HETATM   17  C   UNL     1      -5.127  16.729  68.386  1.00  0.00    -0.114 C  
HETATM   18  C   UNL     1      -5.942  17.916  68.734  1.00  0.00    -0.192 C  
HETATM   19  N   UNL     1      -6.562  19.123  69.154  1.00  0.00    -0.291 NA 
HETATM   20  C   UNL     1      -6.702  19.316  70.593  1.00  0.00     0.570 C  
ENDROOT
BRANCH   1  21
HETATM   21  O   UNL     1      -9.351  16.845  65.726  1.00  0.00    -0.521 OA 
BRANCH  21  22
HETATM   22  C   UNL     1     -10.650  16.531  65.431  1.00  0.00    -0.276 C  
HETATM   23  C   UNL     1     -12.332  14.694  65.672  1.00  0.00    -0.151 C  
HETATM   24  C   UNL     1     -11.156  15.410  66.352  1.00  0.00    -0.230 C  
HETATM   25  O   UNL     1     -11.306  17.038  64.520  1.00  0.00    -1.035 OA 
HETATM   26  H   UNL     1     -10.420  13.773  67.164  1.00  0.00     0.000 HD 
HETATM   27  C   UNL     1     -11.578  16.031  67.705  1.00  0.00     0.092 C  
HETATM   28  O   UNL     1     -10.107  14.466  66.594  1.00  0.00    -0.262 OA 
BRANCH  23  29
HETATM   29  C   UNL     1     -11.941  14.076  64.337  1.00  0.00    -0.454 C  
HETATM   30  O   UNL     1     -12.627  14.037  63.321  1.00  0.00    -0.801 OA 
BRANCH  29  31
HETATM   31  O   UNL     1     -10.671  13.579  64.453  1.00  0.00    -0.408 OA 
HETATM   32  C   UNL     1     -10.493  12.329  63.790  1.00  0.00    -0.444 C  
ENDBRANCH  29  31
ENDBRANCH  23  29
BRANCH  27  33
HETATM   33  C   UNL     1     -12.147  15.066  68.768  1.00  0.00    -0.215 C  
BRANCH  33  34
HETATM   34  C   UNL     1     -12.655  15.749  70.048  1.00  0.00    -0.084 C  
HETATM   35  C   UNL     1     -12.861  13.607  71.424  1.00  0.00    -0.442 C  
HETATM   36  O   UNL     1     -10.881  14.940  71.477  1.00  0.00    -0.513 OA 
HETATM   37  C   UNL     1     -12.304  15.027  71.363  1.00  0.00    -0.332 C  
HETATM   38  C   UNL     1     -12.826  15.842  72.553  1.00  0.00    -0.545 C  
HETATM   39  H   UNL     1     -10.664  14.495  72.288  1.00  0.00     0.000 HD 
ENDBRANCH  33  34
ENDBRANCH  27  33
ENDBRANCH  21  22
ENDBRANCH   1  21
BRANCH   3  40
HETATM   40  O   UNL     1      -8.489  19.619  65.016  1.00  0.00     0.487 OA 
HETATM   41  C   UNL     1      -7.393  20.431  64.635  1.00  0.00     0.544 C  
ENDBRANCH   3  40
TORSDOF 7
ENDMDL
MODEL      124
REMARK 921   NORMALIZED FREE ENERGY PREDICTED BY IDOCK:   -2.54 KCAL/MOL
REMARK 922        TOTAL FREE ENERGY PREDICTED BY IDOCK:   -5.45 KCAL/MOL
REMARK 923 INTER-LIGAND FREE ENERGY PREDICTED BY IDOCK:   -4.69 KCAL/MOL
REMARK 924 INTRA-LIGAND FREE ENERGY PREDICTED BY IDOCK:   -0.76 KCAL/MOL
REMARK 927      BINDING AFFINITY PREDICTED BY RF-SCORE:    0.00 PKD
ROOT
HETATM    1  C   UNL     1      -8.157  15.173  68.333  1.00  0.00    -0.139 C  
HETATM    2  O   UNL     1      -9.641   8.944  66.385  1.00  0.00    -0.197 OA 
HETATM    3  C   UNL     1      -6.794  15.789  68.099  1.00  0.00    -0.120 C  
HETATM    4  C   UNL     1      -7.856  13.794  69.077  1.00  0.00     0.097 C  
HETATM    5  C   UNL     1     -10.657   8.670  67.364  1.00  0.00    -0.228 C  
HETATM    6  C   UNL     1      -5.876  15.297  68.930  1.00  0.00    -0.097 C  
HETATM    7  C   UNL     1      -6.377  14.181  69.807  1.00  0.00    -0.141 C  
HETATM    8  C   UNL     1      -8.245  12.412  68.277  1.00  0.00    -0.170 A  
HETATM    9  C   UNL     1      -9.471  11.781  68.603  1.00  0.00    -0.107 A  
HETATM   10  O   UNL     1     -10.870   9.771  68.283  1.00  0.00    -0.239 OA 
HETATM   11  C   UNL     1      -9.841  10.602  67.949  1.00  0.00    -0.161 A  
HETATM   12  C   UNL     1      -6.520  14.697  71.242  1.00  0.00     0.462 C  
HETATM   13  C   UNL     1      -9.128  10.100  66.889  1.00  0.00    -0.142 A  
HETATM   14  C   UNL     1      -7.912  10.624  66.534  1.00  0.00    -0.138 A  
HETATM   15  C   UNL     1      -5.620  13.812  72.096  1.00  0.00    -0.109 C  
HETATM   16  C   UNL     1      -7.386  11.610  67.387  1.00  0.00    -0.128 A  
HETATM   17  C   UNL     1      -5.908  11.215  67.837  1.00  0.00    -0.042 C  
HETATM   18  C   UNL     1      -5.653  12.270  68.844  1.00  0.00    -0.051 C  
HETATM   19  N   UNL     1      -5.242  13.188  69.846  1.00  0.00    -0.085 NA 
HETATM   20  C   UNL     1      -5.155  12.670  71.208  1.00  0.00    -0.158 C  
ENDROOT
BRANCH   1  21
HETATM   21  O   UNL     1      -8.952  15.113  67.155  1.00  0.00    -0.191 OA 
BRANCH  21  22
HETATM   22  C   UNL     1      -9.975  16.022  67.176  1.00  0.00    -0.249 C  
HETATM   23  C   UNL     1     -11.261  17.568  65.687  1.00  0.00     0.682 C  
HETATM   24  C   UNL     1     -10.563  16.203  65.767  1.00  0.00    -0.334 C  
HETATM   25  O   UNL     1     -10.340  16.648  68.172  1.00  0.00    -0.275 OA 
HETATM   26  H   UNL     1      -9.880  16.262  63.921  1.00  0.00     0.000 HD 
HETATM   27  C   UNL     1     -11.551  15.045  65.489  1.00  0.00    -0.208 C  
HETATM   28  O   UNL     1      -9.517  16.150  64.791  1.00  0.00     0.602 OA 
BRANCH  23  29
HETATM   29  C   UNL     1     -10.308  18.724  65.959  1.00  0.00    -0.422 C  
HETATM   30  O   UNL     1      -9.188  18.873  65.485  1.00  0.00    -0.094 OA 
BRANCH  29  31
HETATM   31  O   UNL     1     -10.926  19.591  66.820  1.00  0.00    -0.436 OA 
HETATM   32  C   UNL     1     -10.024  20.500  67.447  1.00  0.00    -0.385 C  
ENDBRANCH  29  31
ENDBRANCH  23  29
BRANCH  27  33
HETATM   33  C   UNL     1     -12.276  15.060  64.126  1.00  0.00    -0.234 C  
BRANCH  33  34
HETATM   34  C   UNL     1     -11.992  13.841  63.234  1.00  0.00     0.098 C  
HETATM   35  C   UNL     1     -11.115  12.343  65.108  1.00  0.00    -0.348 C  
HETATM   36  O   UNL     1     -13.411  12.309  64.453  1.00  0.00    -0.786 OA 
HETATM   37  C   UNL     1     -12.087  12.473  63.939  1.00  0.00    -0.498 C  
HETATM   38  C   UNL     1     -11.831  11.352  62.924  1.00  0.00     0.572 C  
HETATM   39  H   UNL     1     -13.469  11.466  64.887  1.00  0.00     0.000 HD 
ENDBRANCH  33  34
ENDBRANCH  27  33
ENDBRANCH  21  22
ENDBRANCH   1  21
BRANCH   3  40
HETATM   40  O   UNL     1      -6.428  16.717  67.159  1.00  0.00    -0.154 OA 
HETATM   41  C   UNL     1      -5.688  17.863  67.538  1.00  0.00    -0.138 C  
ENDBRANCH   3  40
TORSDOF 7
ENDMDL
MODEL      125
REMARK 921   NORMALIZED FREE ENERGY PREDICTED BY IDOCK:   -2.52 KCAL/MOL
REMARK 922        TOTAL FREE ENERGY PREDICTED BY IDOCK:   -5.41 KCAL/MOL
REMARK 923 INTER-LIGAND FREE ENERGY PREDICTED BY IDOCK:   -3.66 KCAL/MOL
REMARK 924 INTRA-LIGAND FREE ENERGY PREDICTED BY IDOCK:   -1.76 KCAL/MOL
REMARK 927      BINDING AFFINITY PREDICTED BY RF-SCORE:    0.00 PKD
ROOT
HETATM    1  C   UNL     1     -11.173  11.868  70.420  1.00  0.00     0.684 C  
HETATM    2  O   UNL     1      -9.176  16.168  65.695  1.00  0.00    -0.407 OA 
HETATM    3  C   UNL     1     -12.636  11.592  70.693  1.00  0.00    -0.248 C  
HETATM    4  C   UNL     1     -11.037  13.456  70.505  1.00  0.00     1.021 C  
HETATM    5  C   UNL     1      -7.916  16.532  66.282  1.00  0.00    -0.272 C  
HETATM    6  C   UNL     1     -13.219  12.598  71.345  1.00  0.00    -0.217 C  
HETATM    7  C   UNL     1     -12.330  13.796  71.544  1.00  0.00    -0.194 C  
HETATM    8  C   UNL     1     -10.629  14.246  69.123  1.00  0.00    -0.201 A  
HETATM    9  C   UNL     1      -9.271  14.608  68.943  1.00  0.00    -0.151 A  
HETATM   10  O   UNL     1      -7.672  15.877  67.552  1.00  0.00    -0.135 OA 
HETATM   11  C   UNL     1      -8.879  15.284  67.784  1.00  0.00    -0.173 A  
HETATM   12  C   UNL     1     -11.924  13.880  73.019  1.00  0.00     1.014 C  
HETATM   13  C   UNL     1      -9.738  15.489  66.733  1.00  0.00    -0.239 A  
HETATM   14  C   UNL     1     -11.075  15.207  66.837  1.00  0.00    -0.314 A  
HETATM   15  C   UNL     1     -12.416  15.235  73.512  1.00  0.00    -0.670 C  
HETATM   16  C   UNL     1     -11.532  14.821  68.110  1.00  0.00    -0.343 A  
HETATM   17  C   UNL     1     -12.760  15.737  68.553  1.00  0.00     1.311 C  
HETATM   18  C   UNL     1     -12.933  15.280  69.950  1.00  0.00     0.114 C  
HETATM   19  N   UNL     1     -13.232  14.983  71.306  1.00  0.00    -0.398 NA 
HETATM   20  C   UNL     1     -12.885  16.005  72.288  1.00  0.00    -0.377 C  
ENDROOT
BRANCH   1  21
HETATM   21  O   UNL     1     -10.700  11.240  69.234  1.00  0.00    -0.219 OA 
BRANCH  21  22
HETATM   22  C   UNL     1      -9.828  10.220  69.502  1.00  0.00    -0.220 C  
HETATM   23  C   UNL     1      -8.957   8.077  68.549  1.00  0.00    -0.133 C  
HETATM   24  C   UNL     1      -9.430   9.497  68.206  1.00  0.00    -0.133 C  
HETATM   25  O   UNL     1      -9.454   9.893  70.629  1.00  0.00    -0.103 OA 
HETATM   26  H   UNL     1     -10.310   8.971  66.524  1.00  0.00     0.000 HD 
HETATM   27  C   UNL     1      -8.316  10.310  67.505  1.00  0.00    -0.114 C  
HETATM   28  O   UNL     1     -10.556   9.418  67.325  1.00  0.00    -0.267 OA 
BRANCH  23  29
HETATM   29  C   UNL     1     -10.036   7.257  69.242  1.00  0.00    -0.170 C  
HETATM   30  O   UNL     1     -11.146   6.987  68.798  1.00  0.00    -0.144 OA 
BRANCH  29  31
HETATM   31  O   UNL     1      -9.548   6.850  70.455  1.00  0.00    -0.169 OA 
HETATM   32  C   UNL     1      -8.128   6.717  70.474  1.00  0.00    -0.117 C  
ENDBRANCH  29  31
ENDBRANCH  23  29
BRANCH  27  33
HETATM   33  C   UNL     1      -7.753   9.732  66.189  1.00  0.00    -0.104 C  
BRANCH  33  34
HETATM   34  C   UNL     1      -7.937  10.637  64.960  1.00  0.00    -0.013 C  
HETATM   35  C   UNL     1      -8.365   8.743  63.300  1.00  0.00    -0.161 C  
HETATM   36  O   UNL     1     -10.159   9.858  64.412  1.00  0.00    -0.427 OA 
HETATM   37  C   UNL     1      -8.858  10.074  63.859  1.00  0.00    -0.229 C  
HETATM   38  C   UNL     1      -8.990  11.098  62.725  1.00  0.00    -0.321 C  
HETATM   39  H   UNL     1     -10.728   9.512  63.734  1.00  0.00     0.000 HD 
ENDBRANCH  33  34
ENDBRANCH  27  33
ENDBRANCH  21  22
ENDBRANCH   1  21
BRANCH   3  40
HETATM   40  O   UNL     1     -13.379  10.498  70.335  1.00  0.00    -0.154 OA 
HETATM   41  C   UNL     1     -13.510   9.401  71.221  1.00  0.00    -0.265 C  
ENDBRANCH   3  40
TORSDOF 7
ENDMDL
MODEL      126
REMARK 921   NORMALIZED FREE ENERGY PREDICTED BY IDOCK:   -2.43 KCAL/MOL
REMARK 922        TOTAL FREE ENERGY PREDICTED BY IDOCK:   -5.29 KCAL/MOL
REMARK 923 INTER-LIGAND FREE ENERGY PREDICTED BY IDOCK:   -5.78 KCAL/MOL
REMARK 924 INTRA-LIGAND FREE ENERGY PREDICTED BY IDOCK:    0.49 KCAL/MOL
REMARK 927      BINDING AFFINITY PREDICTED BY RF-SCORE:    0.00 PKD
ROOT
HETATM    1  C   UNL     1      -9.182  10.151  66.002  1.00  0.00    -0.158 C  
HETATM    2  O   UNL     1      -9.395   4.179  69.017  1.00  0.00    -0.138 OA 
HETATM    3  C   UNL     1      -9.604  10.343  64.561  1.00  0.00    -0.309 C  
HETATM    4  C   UNL     1      -8.111   8.969  65.957  1.00  0.00    -0.111 C  
HETATM    5  C   UNL     1      -8.354   4.409  69.980  1.00  0.00    -0.062 C  
HETATM    6  C   UNL     1      -8.697   9.866  63.709  1.00  0.00    -0.226 C  
HETATM    7  C   UNL     1      -7.546   9.157  64.371  1.00  0.00    -0.115 C  
HETATM    8  C   UNL     1      -8.512   7.567  66.715  1.00  0.00    -0.124 A  
HETATM    9  C   UNL     1      -8.002   7.350  68.020  1.00  0.00    -0.119 A  
HETATM   10  O   UNL     1      -7.749   5.722  69.859  1.00  0.00    -0.083 OA 
HETATM   11  C   UNL     1      -8.315   6.171  68.701  1.00  0.00    -0.114 A  
HETATM   12  C   UNL     1      -6.292  10.032  64.269  1.00  0.00    -0.132 C  
HETATM   13  C   UNL     1      -9.225   5.265  68.214  1.00  0.00    -0.114 A  
HETATM   14  C   UNL     1      -9.734   5.376  66.947  1.00  0.00    -0.166 A  
HETATM   15  C   UNL     1      -5.260   9.197  63.521  1.00  0.00    -0.066 C  
HETATM   16  C   UNL     1      -9.182   6.387  66.140  1.00  0.00    -0.132 A  
HETATM   17  C   UNL     1      -8.682   5.772  64.757  1.00  0.00     0.030 C  
HETATM   18  C   UNL     1      -7.994   6.951  64.183  1.00  0.00    -0.078 C  
HETATM   19  N   UNL     1      -7.277   7.962  63.490  1.00  0.00    -0.082 NA 
HETATM   20  C   UNL     1      -5.830   7.793  63.405  1.00  0.00    -0.058 C  
ENDROOT
BRANCH   1  21
HETATM   21  O   UNL     1     -10.283   9.993  66.888  1.00  0.00    -0.216 OA 
BRANCH  21  22
HETATM   22  C   UNL     1     -10.078  10.628  68.084  1.00  0.00    -0.158 C  
HETATM   23  C   UNL     1     -11.253  11.260  70.200  1.00  0.00    -0.151 C  
HETATM   24  C   UNL     1     -11.123  10.179  69.117  1.00  0.00    -0.212 C  
HETATM   25  O   UNL     1      -9.212  11.479  68.289  1.00  0.00    -0.174 OA 
HETATM   26  H   UNL     1     -13.038   9.717  69.120  1.00  0.00     0.000 HD 
HETATM   27  C   UNL     1     -10.676   8.826  69.720  1.00  0.00    -0.220 C  
HETATM   28  O   UNL     1     -12.392   9.994  68.481  1.00  0.00     0.646 OA 
BRANCH  23  29
HETATM   29  C   UNL     1     -11.691  12.602  69.631  1.00  0.00    -0.303 C  
HETATM   30  O   UNL     1     -12.558  13.340  70.084  1.00  0.00    -0.184 OA 
BRANCH  29  31
HETATM   31  O   UNL     1     -10.931  12.862  68.522  1.00  0.00    -0.239 OA 
HETATM   32  C   UNL     1     -10.580  14.238  68.390  1.00  0.00    -0.253 C  
ENDBRANCH  29  31
ENDBRANCH  23  29
BRANCH  27  33
HETATM   33  C   UNL     1     -11.584   8.214  70.809  1.00  0.00    -0.249 C  
BRANCH  33  34
HETATM   34  C   UNL     1     -11.070   6.893  71.405  1.00  0.00    -0.284 C  
HETATM   35  C   UNL     1      -9.589   7.965  73.187  1.00  0.00    -0.352 C  
HETATM   36  O   UNL     1     -11.840   7.323  73.656  1.00  0.00     0.096 OA 
HETATM   37  C   UNL     1     -10.688   6.948  72.897  1.00  0.00    -0.277 C  
HETATM   38  C   UNL     1     -10.245   5.556  73.366  1.00  0.00    -0.222 C  
HETATM   39  H   UNL     1     -11.604   7.356  74.576  1.00  0.00     0.000 HD 
ENDBRANCH  33  34
ENDBRANCH  27  33
ENDBRANCH  21  22
ENDBRANCH   1  21
BRANCH   3  40
HETATM   40  O   UNL     1     -10.762  10.892  64.077  1.00  0.00    -0.353 OA 
HETATM   41  C   UNL     1     -11.264  12.098  64.625  1.00  0.00    -0.323 C  
ENDBRANCH   3  40
TORSDOF 7
ENDMDL
MODEL      127
REMARK 921   NORMALIZED FREE ENERGY PREDICTED BY IDOCK:   -2.41 KCAL/MOL
REMARK 922        TOTAL FREE ENERGY PREDICTED BY IDOCK:   -5.26 KCAL/MOL
REMARK 923 INTER-LIGAND FREE ENERGY PREDICTED BY IDOCK:   -8.17 KCAL/MOL
REMARK 924 INTRA-LIGAND FREE ENERGY PREDICTED BY IDOCK:    2.90 KCAL/MOL
REMARK 927      BINDING AFFINITY PREDICTED BY RF-SCORE:    0.00 PKD
ROOT
HETATM    1  C   UNL     1      -9.069   8.499  68.175  1.00  0.00    -0.138 C  
HETATM    2  O   UNL     1     -12.479  14.099  66.830  1.00  0.00    -0.396 OA 
HETATM    3  C   UNL     1      -8.001   8.443  69.245  1.00  0.00    -0.113 C  
HETATM    4  C   UNL     1      -8.650   9.728  67.247  1.00  0.00    -0.128 C  
HETATM    5  C   UNL     1     -12.785  13.816  65.455  1.00  0.00    -0.472 C  
HETATM    6  C   UNL     1      -6.878   9.048  68.860  1.00  0.00    -0.057 C  
HETATM    7  C   UNL     1      -6.979   9.735  67.524  1.00  0.00    -0.083 C  
HETATM    8  C   UNL     1      -9.664  11.021  67.214  1.00  0.00    -0.188 A  
HETATM    9  C   UNL     1     -10.574  11.120  66.132  1.00  0.00    -0.305 A  
HETATM   10  O   UNL     1     -12.237  12.554  65.000  1.00  0.00    -0.439 OA 
HETATM   11  C   UNL     1     -11.453  12.204  66.061  1.00  0.00    -0.370 A  
HETATM   12  C   UNL     1      -6.183   8.935  66.488  1.00  0.00    -0.061 C  
HETATM   13  C   UNL     1     -11.575  13.114  67.083  1.00  0.00    -0.361 A  
HETATM   14  C   UNL     1     -10.708  13.115  68.145  1.00  0.00    -0.258 A  
HETATM   15  C   UNL     1      -5.132   9.891  65.938  1.00  0.00    -0.036 C  
HETATM   16  C   UNL     1      -9.625  12.223  68.065  1.00  0.00    -0.206 A  
HETATM   17  C   UNL     1      -8.253  13.004  68.292  1.00  0.00    -0.150 C  
HETATM   18  C   UNL     1      -7.287  11.926  67.981  1.00  0.00    -0.100 C  
HETATM   19  N   UNL     1      -6.222  11.028  67.703  1.00  0.00    -0.051 NA 
HETATM   20  C   UNL     1      -5.469  11.273  66.477  1.00  0.00    -0.135 C  
ENDROOT
BRANCH   1  21
HETATM   21  O   UNL     1     -10.389   8.510  68.706  1.00  0.00    -0.214 OA 
BRANCH  21  22
HETATM   22  C   UNL     1     -10.471   9.228  69.869  1.00  0.00    -0.227 C  
HETATM   23  C   UNL     1     -11.910   9.531  71.893  1.00  0.00    -0.349 C  
HETATM   24  C   UNL     1     -11.373   8.507  70.883  1.00  0.00    -0.268 C  
HETATM   25  O   UNL     1      -9.940  10.323  70.059  1.00  0.00    -0.208 OA 
HETATM   26  H   UNL     1     -13.032   7.446  70.834  1.00  0.00     0.000 HD 
HETATM   27  C   UNL     1     -10.548   7.401  71.584  1.00  0.00    -0.229 C  
HETATM   28  O   UNL     1     -12.474   7.891  70.207  1.00  0.00     0.384 OA 
BRANCH  23  29
HETATM   29  C   UNL     1     -12.724  10.632  71.227  1.00  0.00    -0.433 C  
HETATM   30  O   UNL     1     -12.781  10.873  70.027  1.00  0.00    -0.263 OA 
BRANCH  29  31
HETATM   31  O   UNL     1     -13.406  11.307  72.204  1.00  0.00    -0.457 OA 
HETATM   32  C   UNL     1     -13.133  12.707  72.215  1.00  0.00    -0.261 C  
ENDBRANCH  29  31
ENDBRANCH  23  29
BRANCH  27  33
HETATM   33  C   UNL     1     -11.271   6.574  72.669  1.00  0.00    -0.284 C  
BRANCH  33  34
HETATM   34  C   UNL     1     -11.038   5.057  72.581  1.00  0.00    -0.265 C  
HETATM   35  C   UNL     1     -10.110   5.071  70.201  1.00  0.00    -0.338 C  
HETATM   36  O   UNL     1      -8.672   5.200  72.102  1.00  0.00    -0.127 OA 
HETATM   37  C   UNL     1      -9.895   4.620  71.643  1.00  0.00    -0.187 C  
HETATM   38  C   UNL     1      -9.744   3.094  71.693  1.00  0.00    -0.235 C  
HETATM   39  H   UNL     1      -7.968   4.930  71.524  1.00  0.00     0.000 HD 
ENDBRANCH  33  34
ENDBRANCH  27  33
ENDBRANCH  21  22
ENDBRANCH   1  21
BRANCH   3  40
HETATM   40  O   UNL     1      -8.077   7.895  70.499  1.00  0.00    -0.105 OA 
HETATM   41  C   UNL     1      -6.954   7.922  71.361  1.00  0.00    -0.055 C  
ENDBRANCH   3  40
TORSDOF 7
ENDMDL
MODEL      128
REMARK 921   NORMALIZED FREE ENERGY PREDICTED BY IDOCK:   -2.32 KCAL/MOL
REMARK 922        TOTAL FREE ENERGY PREDICTED BY IDOCK:   -5.14 KCAL/MOL
REMARK 923 INTER-LIGAND FREE ENERGY PREDICTED BY IDOCK:   -6.44 KCAL/MOL
REMARK 924 INTRA-LIGAND FREE ENERGY PREDICTED BY IDOCK:    1.30 KCAL/MOL
REMARK 927      BINDING AFFINITY PREDICTED BY RF-SCORE:    0.00 PKD
ROOT
HETATM    1  C   UNL     1      -7.678  11.126  67.876  1.00  0.00    -0.105 C  
HETATM    2  O   UNL     1      -9.318   5.262  65.097  1.00  0.00    -0.081 OA 
HETATM    3  C   UNL     1      -6.256  11.645  67.884  1.00  0.00    -0.050 C  
HETATM    4  C   UNL     1      -7.578   9.660  68.500  1.00  0.00    -0.080 C  
HETATM    5  C   UNL     1     -10.474   4.981  65.903  1.00  0.00    -0.186 C  
HETATM    6  C   UNL     1      -5.495  11.000  68.768  1.00  0.00    -0.040 C  
HETATM    7  C   UNL     1      -6.188   9.850  69.449  1.00  0.00    -0.044 C  
HETATM    8  C   UNL     1      -7.951   8.401  67.512  1.00  0.00    -0.106 A  
HETATM    9  C   UNL     1      -9.251   7.846  67.610  1.00  0.00    -0.147 A  
HETATM   10  O   UNL     1     -10.732   6.001  66.900  1.00  0.00    -0.286 OA 
HETATM   11  C   UNL     1      -9.611   6.772  66.792  1.00  0.00    -0.166 A  
HETATM   12  C   UNL     1      -6.487  10.234  70.902  1.00  0.00     0.082 C  
HETATM   13  C   UNL     1      -8.798   6.317  65.783  1.00  0.00    -0.111 A  
HETATM   14  C   UNL     1      -7.511   6.769  65.645  1.00  0.00    -0.082 A  
HETATM   15  C   UNL     1      -5.775   9.198  71.764  1.00  0.00    -0.073 C  
HETATM   16  C   UNL     1      -7.038   7.620  66.659  1.00  0.00    -0.079 A  
HETATM   17  C   UNL     1      -5.666   7.060  67.248  1.00  0.00    -0.024 C  
HETATM   18  C   UNL     1      -5.476   7.987  68.387  1.00  0.00    -0.032 C  
HETATM   19  N   UNL     1      -5.141   8.766  69.526  1.00  0.00    -0.030 NA 
HETATM   20  C   UNL     1      -5.276   8.112  70.824  1.00  0.00    -0.025 C  
ENDROOT
BRANCH   1  21
HETATM   21  O   UNL     1      -8.308  11.248  66.606  1.00  0.00    -0.154 OA 
BRANCH  21  22
HETATM   22  C   UNL     1      -9.557  11.799  66.701  1.00  0.00    -0.205 C  
HETATM   23  C   UNL     1     -10.896  13.407  68.072  1.00  0.00    -0.264 C  
HETATM   24  C   UNL     1      -9.505  13.116  67.490  1.00  0.00    -0.212 C  
HETATM   25  O   UNL     1     -10.587  11.286  66.262  1.00  0.00    -0.251 OA 
HETATM   26  H   UNL     1      -8.529  13.823  69.049  1.00  0.00     0.000 HD 
HETATM   27  C   UNL     1      -9.042  14.247  66.540  1.00  0.00    -0.212 C  
HETATM   28  O   UNL     1      -8.561  13.008  68.560  1.00  0.00    -0.144 OA 
BRANCH  23  29
HETATM   29  C   UNL     1     -11.375  12.308  69.008  1.00  0.00    -0.280 C  
HETATM   30  O   UNL     1     -10.975  11.150  69.041  1.00  0.00    -0.205 OA 
BRANCH  29  31
HETATM   31  O   UNL     1     -12.330  12.838  69.834  1.00  0.00    -0.195 OA 
HETATM   32  C   UNL     1     -12.621  12.013  70.960  1.00  0.00    -0.273 C  
ENDBRANCH  29  31
ENDBRANCH  23  29
BRANCH  27  33
HETATM   33  C   UNL     1      -8.952  15.667  67.139  1.00  0.00    -0.232 C  
BRANCH  33  34
HETATM   34  C   UNL     1      -9.958  16.673  66.557  1.00  0.00    -0.296 C  
HETATM   35  C   UNL     1      -9.185  18.661  67.962  1.00  0.00    -0.329 C  
HETATM   36  O   UNL     1      -8.303  18.255  65.781  1.00  0.00    -0.489 OA 
HETATM   37  C   UNL     1      -9.496  18.144  66.561  1.00  0.00    -0.304 C  
HETATM   38  C   UNL     1     -10.572  19.022  65.909  1.00  0.00    -0.466 C  
HETATM   39  H   UNL     1      -8.018  19.162  65.783  1.00  0.00     0.000 HD 
ENDBRANCH  33  34
ENDBRANCH  27  33
ENDBRANCH  21  22
ENDBRANCH   1  21
BRANCH   3  40
HETATM   40  O   UNL     1      -5.701  12.626  67.105  1.00  0.00    -0.307 OA 
HETATM   41  C   UNL     1      -5.419  13.901  67.653  1.00  0.00     0.046 C  
ENDBRANCH   3  40
TORSDOF 7
ENDMDL
MODEL      129
REMARK 921   NORMALIZED FREE ENERGY PREDICTED BY IDOCK:   -2.30 KCAL/MOL
REMARK 922        TOTAL FREE ENERGY PREDICTED BY IDOCK:   -5.10 KCAL/MOL
REMARK 923 INTER-LIGAND FREE ENERGY PREDICTED BY IDOCK:   -4.23 KCAL/MOL
REMARK 924 INTRA-LIGAND FREE ENERGY PREDICTED BY IDOCK:   -0.87 KCAL/MOL
REMARK 927      BINDING AFFINITY PREDICTED BY RF-SCORE:    0.00 PKD
ROOT
HETATM    1  C   UNL     1      -9.304   9.234  69.646  1.00  0.00    -0.179 C  
HETATM    2  O   UNL     1      -6.789   4.085  66.187  1.00  0.00    -0.052 OA 
HETATM    3  C   UNL     1     -10.153  10.305  68.996  1.00  0.00    -0.213 C  
HETATM    4  C   UNL     1      -7.977   9.175  68.761  1.00  0.00    -0.100 C  
HETATM    5  C   UNL     1      -5.644   3.832  67.017  1.00  0.00    -0.021 C  
HETATM    6  C   UNL     1      -9.422  11.141  68.259  1.00  0.00    -0.182 C  
HETATM    7  C   UNL     1      -7.970  10.757  68.155  1.00  0.00    -0.114 C  
HETATM    8  C   UNL     1      -7.691   7.785  67.933  1.00  0.00    -0.122 A  
HETATM    9  C   UNL     1      -6.792   6.849  68.501  1.00  0.00    -0.070 A  
HETATM   10  O   UNL     1      -5.538   4.753  68.132  1.00  0.00    -0.015 OA 
HETATM   11  C   UNL     1      -6.518   5.654  67.830  1.00  0.00    -0.047 A  
HETATM   12  C   UNL     1      -7.133  11.729  68.992  1.00  0.00    -0.100 C  
HETATM   13  C   UNL     1      -7.199   5.278  66.698  1.00  0.00    -0.077 A  
HETATM   14  C   UNL     1      -8.054   6.139  66.061  1.00  0.00    -0.118 A  
HETATM   15  C   UNL     1      -6.148  12.373  68.024  1.00  0.00    -0.075 C  
HETATM   16  C   UNL     1      -8.095   7.455  66.554  1.00  0.00    -0.117 A  
HETATM   17  C   UNL     1      -7.841   8.492  65.370  1.00  0.00    -0.107 C  
HETATM   18  C   UNL     1      -7.744   9.750  66.145  1.00  0.00    -0.104 C  
HETATM   19  N   UNL     1      -7.603  11.042  66.719  1.00  0.00    -0.133 NA 
HETATM   20  C   UNL     1      -6.261  11.615  66.711  1.00  0.00    -0.123 C  
ENDROOT
BRANCH   1  21
HETATM   21  O   UNL     1     -10.004   8.011  69.844  1.00  0.00    -0.185 OA 
BRANCH  21  22
HETATM   22  C   UNL     1     -10.544   7.923  71.099  1.00  0.00    -0.213 C  
HETATM   23  C   UNL     1     -10.771   6.355  73.035  1.00  0.00    -0.286 C  
HETATM   24  C   UNL     1      -9.835   6.831  71.914  1.00  0.00    -0.165 C  
HETATM   25  O   UNL     1     -11.500   8.589  71.502  1.00  0.00    -0.258 OA 
HETATM   26  H   UNL     1      -9.074   5.047  71.573  1.00  0.00     0.000 HD 
HETATM   27  C   UNL     1      -8.519   7.412  72.485  1.00  0.00    -0.131 C  
HETATM   28  O   UNL     1      -9.512   5.722  71.069  1.00  0.00    -0.161 OA 
BRANCH  23  29
HETATM   29  C   UNL     1     -12.074   5.781  72.498  1.00  0.00    -0.024 C  
HETATM   30  O   UNL     1     -12.743   6.228  71.574  1.00  0.00    -0.017 OA 
BRANCH  29  31
HETATM   31  O   UNL     1     -12.371   4.654  73.218  1.00  0.00     0.071 OA 
HETATM   32  C   UNL     1     -11.236   3.826  73.460  1.00  0.00    -0.204 C  
ENDBRANCH  29  31
ENDBRANCH  23  29
BRANCH  27  33
HETATM   33  C   UNL     1      -7.667   6.473  73.366  1.00  0.00    -0.092 C  
BRANCH  33  34
HETATM   34  C   UNL     1      -6.656   5.610  72.592  1.00  0.00    -0.067 C  
HETATM   35  C   UNL     1      -6.458   3.784  74.367  1.00  0.00    -0.039 C  
HETATM   36  O   UNL     1      -8.013   3.610  72.564  1.00  0.00    -0.070 OA 
HETATM   37  C   UNL     1      -6.712   4.100  72.896  1.00  0.00    -0.046 C  
HETATM   38  C   UNL     1      -5.691   3.361  72.022  1.00  0.00    -0.008 C  
HETATM   39  H   UNL     1      -8.048   2.679  72.751  1.00  0.00     0.000 HD 
ENDBRANCH  33  34
ENDBRANCH  27  33
ENDBRANCH  21  22
ENDBRANCH   1  21
BRANCH   3  40
HETATM   40  O   UNL     1     -11.512  10.471  69.059  1.00  0.00    -0.257 OA 
HETATM   41  C   UNL     1     -12.155  11.425  68.233  1.00  0.00    -0.009 C  
ENDBRANCH   3  40
TORSDOF 7
ENDMDL
MODEL      130
REMARK 921   NORMALIZED FREE ENERGY PREDICTED BY IDOCK:   -2.30 KCAL/MOL
REMARK 922        TOTAL FREE ENERGY PREDICTED BY IDOCK:   -5.10 KCAL/MOL
REMARK 923 INTER-LIGAND FREE ENERGY PREDICTED BY IDOCK:   -4.17 KCAL/MOL
REMARK 924 INTRA-LIGAND FREE ENERGY PREDICTED BY IDOCK:   -0.93 KCAL/MOL
REMARK 927      BINDING AFFINITY PREDICTED BY RF-SCORE:    0.00 PKD
ROOT
HETATM    1  C   UNL     1      -8.147   6.643  65.779  1.00  0.00    -0.122 C  
HETATM    2  O   UNL     1     -10.623  11.034  70.182  1.00  0.00     0.042 OA 
HETATM    3  C   UNL     1      -6.668   6.559  65.469  1.00  0.00    -0.047 C  
HETATM    4  C   UNL     1      -8.520   8.180  65.559  1.00  0.00    -0.174 C  
HETATM    5  C   UNL     1     -11.940  11.154  69.619  1.00  0.00    -0.359 C  
HETATM    6  C   UNL     1      -6.260   7.573  64.706  1.00  0.00    -0.038 C  
HETATM    7  C   UNL     1      -7.323   8.605  64.439  1.00  0.00    -0.103 C  
HETATM    8  C   UNL     1      -9.001   9.029  66.881  1.00  0.00    -0.144 A  
HETATM    9  C   UNL     1     -10.392   9.205  67.085  1.00  0.00    -0.337 A  
HETATM   10  O   UNL     1     -12.121  10.354  68.424  1.00  0.00    -0.214 OA 
HETATM   11  C   UNL     1     -10.846   9.924  68.195  1.00  0.00    -0.234 A  
HETATM   12  C   UNL     1      -7.780   8.489  62.981  1.00  0.00    -0.126 C  
HETATM   13  C   UNL     1      -9.997  10.350  69.186  1.00  0.00    -0.223 A  
HETATM   14  C   UNL     1      -8.637  10.256  69.050  1.00  0.00    -0.162 A  
HETATM   15  C   UNL     1      -7.509   9.848  62.348  1.00  0.00    -0.127 C  
HETATM   16  C   UNL     1      -8.164   9.822  67.799  1.00  0.00    -0.114 A  
HETATM   17  C   UNL     1      -7.100  10.861  67.224  1.00  0.00    -0.097 C  
HETATM   18  C   UNL     1      -6.902  10.304  65.867  1.00  0.00    -0.125 C  
HETATM   19  N   UNL     1      -6.601   9.927  64.531  1.00  0.00    -0.118 NA 
HETATM   20  C   UNL     1      -7.125  10.791  63.478  1.00  0.00     0.336 C  
ENDROOT
BRANCH   1  21
HETATM   21  O   UNL     1      -8.487   6.069  67.035  1.00  0.00    -0.109 OA 
BRANCH  21  22
HETATM   22  C   UNL     1      -8.888   4.766  66.915  1.00  0.00    -0.110 C  
HETATM   23  C   UNL     1      -8.464   2.485  67.853  1.00  0.00    -0.100 C  
HETATM   24  C   UNL     1      -8.553   3.980  68.192  1.00  0.00    -0.096 C  
HETATM   25  O   UNL     1      -9.396   4.276  65.905  1.00  0.00    -0.141 OA 
HETATM   26  H   UNL     1      -7.091   3.932  69.511  1.00  0.00     0.000 HD 
HETATM   27  C   UNL     1      -9.652   4.255  69.247  1.00  0.00    -0.261 C  
HETATM   28  O   UNL     1      -7.298   4.418  68.721  1.00  0.00    -0.055 OA 
BRANCH  23  29
HETATM   29  C   UNL     1      -7.391   2.189  66.815  1.00  0.00    -0.057 C  
HETATM   30  O   UNL     1      -6.178   2.254  66.979  1.00  0.00    -0.023 OA 
BRANCH  29  31
HETATM   31  O   UNL     1      -8.013   1.813  65.654  1.00  0.00    -0.071 OA 
HETATM   32  C   UNL     1      -7.269   2.145  64.484  1.00  0.00    -0.053 C  
ENDBRANCH  29  31
ENDBRANCH  23  29
BRANCH  27  33
HETATM   33  C   UNL     1      -9.514   3.530  70.603  1.00  0.00    -0.243 C  
BRANCH  33  34
HETATM   34  C   UNL     1      -8.641   4.260  71.636  1.00  0.00    -0.124 C  
HETATM   35  C   UNL     1      -8.457   2.298  73.260  1.00  0.00    -0.069 C  
HETATM   36  O   UNL     1      -6.812   2.680  71.572  1.00  0.00    -0.029 OA 
HETATM   37  C   UNL     1      -7.703   3.357  72.461  1.00  0.00    -0.063 C  
HETATM   38  C   UNL     1      -6.861   4.221  73.409  1.00  0.00    -0.058 C  
HETATM   39  H   UNL     1      -6.234   2.124  72.081  1.00  0.00     0.000 HD 
ENDBRANCH  33  34
ENDBRANCH  27  33
ENDBRANCH  21  22
ENDBRANCH   1  21
BRANCH   3  40
HETATM   40  O   UNL     1      -5.760   5.623  65.891  1.00  0.00    -0.013 OA 
HETATM   41  C   UNL     1      -5.206   4.699  64.973  1.00  0.00    -0.013 C  
ENDBRANCH   3  40
TORSDOF 7
ENDMDL
MODEL      131
REMARK 921   NORMALIZED FREE ENERGY PREDICTED BY IDOCK:   -2.29 KCAL/MOL
REMARK 922        TOTAL FREE ENERGY PREDICTED BY IDOCK:   -5.09 KCAL/MOL
REMARK 923 INTER-LIGAND FREE ENERGY PREDICTED BY IDOCK:   -5.28 KCAL/MOL
REMARK 924 INTRA-LIGAND FREE ENERGY PREDICTED BY IDOCK:    0.19 KCAL/MOL
REMARK 927      BINDING AFFINITY PREDICTED BY RF-SCORE:    0.00 PKD
ROOT
HETATM    1  C   UNL     1      -7.956   9.499  69.692  1.00  0.00    -0.120 C  
HETATM    2  O   UNL     1      -8.277   4.081  65.775  1.00  0.00    -0.104 OA 
HETATM    3  C   UNL     1      -6.659   9.967  70.317  1.00  0.00    -0.116 C  
HETATM    4  C   UNL     1      -8.079   7.965  70.114  1.00  0.00    -0.116 C  
HETATM    5  C   UNL     1      -9.650   3.739  66.027  1.00  0.00    -0.159 C  
HETATM    6  C   UNL     1      -6.290   9.192  71.337  1.00  0.00    -0.077 C  
HETATM    7  C   UNL     1      -7.172   7.990  71.544  1.00  0.00    -0.071 C  
HETATM    8  C   UNL     1      -8.016   6.850  68.908  1.00  0.00    -0.116 A  
HETATM    9  C   UNL     1      -9.241   6.329  68.423  1.00  0.00    -0.112 A  
HETATM   10  O   UNL     1     -10.295   4.636  66.966  1.00  0.00    -0.173 OA 
HETATM   11  C   UNL     1      -9.234   5.377  67.399  1.00  0.00    -0.111 A  
HETATM   12  C   UNL     1      -8.019   8.200  72.803  1.00  0.00    -0.209 C  
HETATM   13  C   UNL     1      -8.084   5.025  66.737  1.00  0.00    -0.108 A  
HETATM   14  C   UNL     1      -6.854   5.449  67.167  1.00  0.00    -0.063 A  
HETATM   15  C   UNL     1      -7.679   7.043  73.734  1.00  0.00    -0.117 C  
HETATM   16  C   UNL     1      -6.828   6.152  68.384  1.00  0.00    -0.074 A  
HETATM   17  C   UNL     1      -5.783   5.479  69.383  1.00  0.00    -0.012 C  
HETATM   18  C   UNL     1      -6.068   6.252  70.614  1.00  0.00    -0.034 C  
HETATM   19  N   UNL     1      -6.217   6.872  71.883  1.00  0.00    -0.038 NA 
HETATM   20  C   UNL     1      -6.834   6.067  72.932  1.00  0.00    -0.075 C  
ENDROOT
BRANCH   1  21
HETATM   21  O   UNL     1      -8.045   9.797  68.304  1.00  0.00    -0.103 OA 
BRANCH  21  22
HETATM   22  C   UNL     1      -9.124  10.588  68.014  1.00  0.00    -0.138 C  
HETATM   23  C   UNL     1      -9.908  12.328  66.397  1.00  0.00    -0.242 C  
HETATM   24  C   UNL     1      -9.079  11.045  66.548  1.00  0.00    -0.173 C  
HETATM   25  O   UNL     1      -9.985  10.929  68.827  1.00  0.00    -0.182 OA 
HETATM   26  H   UNL     1      -7.698  11.593  65.255  1.00  0.00     0.000 HD 
HETATM   27  C   UNL     1      -9.629   9.907  65.655  1.00  0.00    -0.320 C  
HETATM   28  O   UNL     1      -7.726  11.310  66.161  1.00  0.00    -0.109 OA 
BRANCH  23  29
HETATM   29  C   UNL     1      -9.387  13.462  67.267  1.00  0.00    -0.233 C  
HETATM   30  O   UNL     1      -9.928  14.546  67.457  1.00  0.00    -0.222 OA 
BRANCH  29  31
HETATM   31  O   UNL     1      -8.204  13.060  67.828  1.00  0.00    -0.141 OA 
HETATM   32  C   UNL     1      -7.258  14.118  67.966  1.00  0.00    -0.143 C  
ENDBRANCH  29  31
ENDBRANCH  23  29
BRANCH  27  33
HETATM   33  C   UNL     1      -9.694  10.181  64.137  1.00  0.00    -0.301 C  
BRANCH  33  34
HETATM   34  C   UNL     1      -8.344  10.083  63.409  1.00  0.00    -0.170 C  
HETATM   35  C   UNL     1      -7.655   7.848  64.434  1.00  0.00    -0.116 C  
HETATM   36  O   UNL     1      -8.797   7.962  62.341  1.00  0.00    -0.415 OA 
HETATM   37  C   UNL     1      -7.839   8.650  63.149  1.00  0.00    -0.153 C  
HETATM   38  C   UNL     1      -6.516   8.703  62.375  1.00  0.00    -0.095 C  
HETATM   39  H   UNL     1      -8.486   7.078  62.181  1.00  0.00     0.000 HD 
ENDBRANCH  33  34
ENDBRANCH  27  33
ENDBRANCH  21  22
ENDBRANCH   1  21
BRANCH   3  40
HETATM   40  O   UNL     1      -5.864  11.019  69.945  1.00  0.00    -0.062 OA 
HETATM   41  C   UNL     1      -5.950  12.257  70.627  1.00  0.00     0.044 C  
ENDBRANCH   3  40
TORSDOF 7
ENDMDL
MODEL      132
REMARK 921   NORMALIZED FREE ENERGY PREDICTED BY IDOCK:   -2.18 KCAL/MOL
REMARK 922        TOTAL FREE ENERGY PREDICTED BY IDOCK:   -4.94 KCAL/MOL
REMARK 923 INTER-LIGAND FREE ENERGY PREDICTED BY IDOCK:   -6.82 KCAL/MOL
REMARK 924 INTRA-LIGAND FREE ENERGY PREDICTED BY IDOCK:    1.88 KCAL/MOL
REMARK 927      BINDING AFFINITY PREDICTED BY RF-SCORE:    0.00 PKD
ROOT
HETATM    1  C   UNL     1     -10.154  13.302  69.162  1.00  0.00     0.276 C  
HETATM    2  O   UNL     1     -13.184  12.443  63.256  1.00  0.00    -0.489 OA 
HETATM    3  C   UNL     1     -10.249  14.599  69.936  1.00  0.00     0.200 C  
HETATM    4  C   UNL     1      -9.654  13.734  67.709  1.00  0.00    -0.219 C  
HETATM    5  C   UNL     1     -12.290  11.454  62.720  1.00  0.00     1.021 C  
HETATM    6  C   UNL     1      -9.497  15.558  69.397  1.00  0.00    -0.278 C  
HETATM    7  C   UNL     1      -8.837  15.164  68.102  1.00  0.00    -0.169 C  
HETATM    8  C   UNL     1     -10.691  13.485  66.457  1.00  0.00    -0.287 A  
HETATM    9  C   UNL     1     -10.505  12.325  65.665  1.00  0.00    -0.293 A  
HETATM   10  O   UNL     1     -11.199  11.131  63.617  1.00  0.00    -0.273 OA 
HETATM   11  C   UNL     1     -11.361  12.075  64.589  1.00  0.00    -0.318 A  
HETATM   12  C   UNL     1      -7.338  14.965  68.343  1.00  0.00    -0.114 C  
HETATM   13  C   UNL     1     -12.477  12.839  64.350  1.00  0.00    -0.399 A  
HETATM   14  C   UNL     1     -12.709  13.999  65.042  1.00  0.00    -0.359 A  
HETATM   15  C   UNL     1      -6.631  15.944  67.413  1.00  0.00    -0.222 C  
HETATM   16  C   UNL     1     -11.687  14.422  65.909  1.00  0.00    -0.371 A  
HETATM   17  C   UNL     1     -11.281  15.929  65.584  1.00  0.00     0.003 C  
HETATM   18  C   UNL     1     -10.102  16.076  66.467  1.00  0.00    -0.287 C  
HETATM   19  N   UNL     1      -8.947  16.391  67.231  1.00  0.00    -0.193 NA 
HETATM   20  C   UNL     1      -7.694  16.522  66.493  1.00  0.00    -0.288 C  
ENDROOT
BRANCH   1  21
HETATM   21  O   UNL     1     -11.342  12.522  69.233  1.00  0.00    -0.257 OA 
BRANCH  21  22
HETATM   22  C   UNL     1     -11.177  11.280  68.682  1.00  0.00    -0.250 C  
HETATM   23  C   UNL     1      -9.534   9.399  68.532  1.00  0.00    -0.150 C  
HETATM   24  C   UNL     1     -10.107  10.488  69.450  1.00  0.00    -0.209 C  
HETATM   25  O   UNL     1     -11.764  10.872  67.679  1.00  0.00    -0.566 OA 
HETATM   26  H   UNL     1      -8.390  10.874  70.334  1.00  0.00     0.000 HD 
HETATM   27  C   UNL     1     -10.755   9.878  70.716  1.00  0.00    -0.350 C  
HETATM   28  O   UNL     1      -9.051  11.363  69.859  1.00  0.00     1.085 OA 
BRANCH  23  29
HETATM   29  C   UNL     1      -8.893   9.975  67.278  1.00  0.00    -0.135 C  
HETATM   30  O   UNL     1      -8.015  10.829  67.233  1.00  0.00    -0.113 OA 
BRANCH  29  31
HETATM   31  O   UNL     1      -9.455   9.360  66.191  1.00  0.00    -0.187 OA 
HETATM   32  C   UNL     1     -10.344   8.301  66.542  1.00  0.00    -0.105 C  
ENDBRANCH  29  31
ENDBRANCH  23  29
BRANCH  27  33
HETATM   33  C   UNL     1      -9.846   9.013  71.616  1.00  0.00    -0.366 C  
BRANCH  33  34
HETATM   34  C   UNL     1     -10.180   7.513  71.613  1.00  0.00    -0.209 C  
HETATM   35  C   UNL     1     -10.083   7.216  74.148  1.00  0.00    -0.214 C  
HETATM   36  O   UNL     1     -12.134   7.694  73.025  1.00  0.00    -0.569 OA 
HETATM   37  C   UNL     1     -10.896   6.995  72.876  1.00  0.00    -0.301 C  
HETATM   38  C   UNL     1     -11.211   5.503  72.714  1.00  0.00    -0.358 C  
HETATM   39  H   UNL     1     -12.576   7.375  73.803  1.00  0.00     0.000 HD 
ENDBRANCH  33  34
ENDBRANCH  27  33
ENDBRANCH  21  22
ENDBRANCH   1  21
BRANCH   3  40
HETATM   40  O   UNL     1     -11.005  14.877  71.045  1.00  0.00    -0.165 OA 
HETATM   41  C   UNL     1     -12.374  14.515  71.086  1.00  0.00    -0.345 C  
ENDBRANCH   3  40
TORSDOF 7
ENDMDL
MODEL      133
REMARK 921   NORMALIZED FREE ENERGY PREDICTED BY IDOCK:   -2.15 KCAL/MOL
REMARK 922        TOTAL FREE ENERGY PREDICTED BY IDOCK:   -4.89 KCAL/MOL
REMARK 923 INTER-LIGAND FREE ENERGY PREDICTED BY IDOCK:   -7.01 KCAL/MOL
REMARK 924 INTRA-LIGAND FREE ENERGY PREDICTED BY IDOCK:    2.13 KCAL/MOL
REMARK 927      BINDING AFFINITY PREDICTED BY RF-SCORE:    0.00 PKD
ROOT
HETATM    1  C   UNL     1     -10.617   7.661  66.983  1.00  0.00    -0.336 C  
HETATM    2  O   UNL     1      -5.568  10.712  63.820  1.00  0.00    -0.146 OA 
HETATM    3  C   UNL     1     -10.446   7.019  68.344  1.00  0.00    -0.201 C  
HETATM    4  C   UNL     1      -9.465   7.019  66.085  1.00  0.00    -0.055 C  
HETATM    5  C   UNL     1      -6.033  10.515  62.475  1.00  0.00    -0.141 C  
HETATM    6  C   UNL     1      -9.780   5.868  68.270  1.00  0.00    -0.147 C  
HETATM    7  C   UNL     1      -9.261   5.545  66.895  1.00  0.00    -0.119 C  
HETATM    8  C   UNL     1      -8.291   8.031  65.538  1.00  0.00    -0.153 A  
HETATM    9  C   UNL     1      -8.404   8.522  64.214  1.00  0.00    -0.113 A  
HETATM   10  O   UNL     1      -7.279   9.776  62.408  1.00  0.00    -0.106 OA 
HETATM   11  C   UNL     1      -7.427   9.383  63.706  1.00  0.00    -0.112 A  
HETATM   12  C   UNL     1     -10.090   4.402  66.301  1.00  0.00    -0.249 C  
HETATM   13  C   UNL     1      -6.425   9.895  64.493  1.00  0.00    -0.120 A  
HETATM   14  C   UNL     1      -6.218   9.443  65.770  1.00  0.00    -0.060 A  
HETATM   15  C   UNL     1      -9.103   3.280  66.002  1.00  0.00    -0.151 C  
HETATM   16  C   UNL     1      -7.003   8.350  66.178  1.00  0.00    -0.072 A  
HETATM   17  C   UNL     1      -6.069   7.183  66.734  1.00  0.00    -0.038 C  
HETATM   18  C   UNL     1      -7.074   6.111  66.914  1.00  0.00    -0.073 C  
HETATM   19  N   UNL     1      -7.888   4.967  67.131  1.00  0.00    -0.095 NA 
HETATM   20  C   UNL     1      -7.710   3.856  66.201  1.00  0.00    -0.089 C  
ENDROOT
BRANCH   1  21
HETATM   21  O   UNL     1     -10.676   9.081  67.041  1.00  0.00    -0.242 OA 
BRANCH  21  22
HETATM   22  C   UNL     1      -9.863   9.592  68.016  1.00  0.00    -0.150 C  
HETATM   23  C   UNL     1      -9.130  11.760  69.028  1.00  0.00     0.240 C  
HETATM   24  C   UNL     1     -10.316  11.007  68.409  1.00  0.00    -0.183 C  
HETATM   25  O   UNL     1      -8.874   9.021  68.478  1.00  0.00    -0.132 OA 
HETATM   26  H   UNL     1     -11.050  12.589  67.492  1.00  0.00     0.000 HD 
HETATM   27  C   UNL     1     -11.495  10.893  69.405  1.00  0.00    -0.373 C  
HETATM   28  O   UNL     1     -10.770  11.714  67.250  1.00  0.00    -0.217 OA 
BRANCH  23  29
HETATM   29  C   UNL     1      -7.956  11.884  68.067  1.00  0.00    -0.147 C  
HETATM   30  O   UNL     1      -6.868  11.327  68.167  1.00  0.00    -0.064 OA 
BRANCH  29  31
HETATM   31  O   UNL     1      -8.327  12.718  67.046  1.00  0.00    -0.178 OA 
HETATM   32  C   UNL     1      -8.353  14.093  67.425  1.00  0.00    -0.197 C  
ENDBRANCH  29  31
ENDBRANCH  23  29
BRANCH  27  33
HETATM   33  C   UNL     1     -12.080  12.215  69.947  1.00  0.00    -0.324 C  
BRANCH  33  34
HETATM   34  C   UNL     1     -12.042  13.388  68.954  1.00  0.00    -0.289 C  
HETATM   35  C   UNL     1     -12.828  15.163  70.614  1.00  0.00    -0.440 C  
HETATM   36  O   UNL     1     -10.508  14.745  70.238  1.00  0.00    -0.469 OA 
HETATM   37  C   UNL     1     -11.776  14.771  69.580  1.00  0.00    -0.321 C  
HETATM   38  C   UNL     1     -11.715  15.833  68.474  1.00  0.00    -0.328 C  
HETATM   39  H   UNL     1     -10.343  15.598  70.623  1.00  0.00     0.000 HD 
ENDBRANCH  33  34
ENDBRANCH  27  33
ENDBRANCH  21  22
ENDBRANCH   1  21
BRANCH   3  40
HETATM   40  O   UNL     1     -10.854   7.488  69.565  1.00  0.00    -0.234 OA 
HETATM   41  C   UNL     1     -11.550   6.639  70.460  1.00  0.00    -0.390 C  
ENDBRANCH   3  40
TORSDOF 7
ENDMDL
MODEL      134
REMARK 921   NORMALIZED FREE ENERGY PREDICTED BY IDOCK:   -2.14 KCAL/MOL
REMARK 922        TOTAL FREE ENERGY PREDICTED BY IDOCK:   -4.89 KCAL/MOL
REMARK 923 INTER-LIGAND FREE ENERGY PREDICTED BY IDOCK:   -4.91 KCAL/MOL
REMARK 924 INTRA-LIGAND FREE ENERGY PREDICTED BY IDOCK:    0.02 KCAL/MOL
REMARK 927      BINDING AFFINITY PREDICTED BY RF-SCORE:    0.00 PKD
ROOT
HETATM    1  C   UNL     1      -9.565   6.226  71.114  1.00  0.00    -0.175 C  
HETATM    2  O   UNL     1      -7.250   5.983  64.839  1.00  0.00    -0.062 OA 
HETATM    3  C   UNL     1      -8.683   5.941  72.311  1.00  0.00    -0.128 C  
HETATM    4  C   UNL     1      -9.382   4.957  70.163  1.00  0.00    -0.217 C  
HETATM    5  C   UNL     1      -8.489   5.663  64.185  1.00  0.00    -0.017 C  
HETATM    6  C   UNL     1      -8.429   4.639  72.442  1.00  0.00    -0.115 C  
HETATM    7  C   UNL     1      -8.969   3.792  71.322  1.00  0.00    -0.104 C  
HETATM    8  C   UNL     1      -8.670   5.213  68.704  1.00  0.00    -0.098 A  
HETATM    9  C   UNL     1      -9.513   5.352  67.572  1.00  0.00    -0.129 A  
HETATM   10  O   UNL     1      -9.596   5.519  65.110  1.00  0.00     0.146 OA 
HETATM   11  C   UNL     1      -8.951   5.568  66.311  1.00  0.00    -0.140 A  
HETATM   12  C   UNL     1     -10.169   2.988  71.834  1.00  0.00    -0.056 C  
HETATM   13  C   UNL     1      -7.608   5.797  66.139  1.00  0.00    -0.090 A  
HETATM   14  C   UNL     1      -6.719   5.641  67.170  1.00  0.00    -0.062 A  
HETATM   15  C   UNL     1      -9.811   1.522  71.623  1.00  0.00    -0.211 C  
HETATM   16  C   UNL     1      -7.239   5.118  68.367  1.00  0.00    -0.063 A  
HETATM   17  C   UNL     1      -6.386   3.851  68.827  1.00  0.00    -0.033 C  
HETATM   18  C   UNL     1      -7.214   3.380  69.961  1.00  0.00    -0.041 C  
HETATM   19  N   UNL     1      -7.886   2.775  71.056  1.00  0.00    -0.046 NA 
HETATM   20  C   UNL     1      -8.537   1.496  70.794  1.00  0.00    -0.051 C  
ENDROOT
BRANCH   1  21
HETATM   21  O   UNL     1      -9.326   7.505  70.539  1.00  0.00    -0.160 OA 
BRANCH  21  22
HETATM   22  C   UNL     1     -10.475   8.083  70.071  1.00  0.00    -0.228 C  
HETATM   23  C   UNL     1     -11.701  10.264  70.025  1.00  0.00    -0.330 C  
HETATM   24  C   UNL     1     -10.313   9.609  69.982  1.00  0.00    -0.257 C  
HETATM   25  O   UNL     1     -11.513   7.473  69.808  1.00  0.00    -0.061 OA 
HETATM   26  H   UNL     1      -9.434  11.025  71.031  1.00  0.00     0.000 HD 
HETATM   27  C   UNL     1      -9.566   9.953  68.671  1.00  0.00    -0.159 C  
HETATM   28  O   UNL     1      -9.534  10.082  71.085  1.00  0.00     0.309 OA 
BRANCH  23  29
HETATM   29  C   UNL     1     -12.457   9.938  71.306  1.00  0.00    -0.381 C  
HETATM   30  O   UNL     1     -12.039  10.059  72.451  1.00  0.00     0.249 OA 
BRANCH  29  31
HETATM   31  O   UNL     1     -13.707   9.497  70.961  1.00  0.00    -0.265 OA 
HETATM   32  C   UNL     1     -14.194   8.464  71.815  1.00  0.00    -0.458 C  
ENDBRANCH  29  31
ENDBRANCH  23  29
BRANCH  27  33
HETATM   33  C   UNL     1      -9.326  11.450  68.378  1.00  0.00    -0.194 C  
BRANCH  33  34
HETATM   34  C   UNL     1      -9.555  11.862  66.915  1.00  0.00    -0.208 C  
HETATM   35  C   UNL     1     -10.924   9.804  66.273  1.00  0.00     0.396 C  
HETATM   36  O   UNL     1     -11.970  11.815  67.021  1.00  0.00    -0.610 OA 
HETATM   37  C   UNL     1     -10.851  11.328  66.275  1.00  0.00    -0.238 C  
HETATM   38  C   UNL     1     -10.973  11.856  64.840  1.00  0.00    -0.367 C  
HETATM   39  H   UNL     1     -12.769  11.486  66.627  1.00  0.00     0.000 HD 
ENDBRANCH  33  34
ENDBRANCH  27  33
ENDBRANCH  21  22
ENDBRANCH   1  21
BRANCH   3  40
HETATM   40  O   UNL     1      -8.132   6.830  73.196  1.00  0.00    -0.107 OA 
HETATM   41  C   UNL     1      -7.848   8.157  72.792  1.00  0.00    -0.145 C  
ENDBRANCH   3  40
TORSDOF 7
ENDMDL
MODEL      135
REMARK 921   NORMALIZED FREE ENERGY PREDICTED BY IDOCK:   -2.10 KCAL/MOL
REMARK 922        TOTAL FREE ENERGY PREDICTED BY IDOCK:   -4.83 KCAL/MOL
REMARK 923 INTER-LIGAND FREE ENERGY PREDICTED BY IDOCK:   -6.33 KCAL/MOL
REMARK 924 INTRA-LIGAND FREE ENERGY PREDICTED BY IDOCK:    1.51 KCAL/MOL
REMARK 927      BINDING AFFINITY PREDICTED BY RF-SCORE:    0.00 PKD
ROOT
HETATM    1  C   UNL     1     -10.759  15.496  67.213  1.00  0.00    -0.308 C  
HETATM    2  O   UNL     1      -5.127  13.292  70.081  1.00  0.00    -0.084 OA 
HETATM    3  C   UNL     1     -10.801  15.963  65.773  1.00  0.00    -0.254 C  
HETATM    4  C   UNL     1      -9.578  16.339  67.878  1.00  0.00    -0.227 C  
HETATM    5  C   UNL     1      -5.455  13.629  71.439  1.00  0.00    -0.216 C  
HETATM    6  C   UNL     1     -10.241  17.162  65.623  1.00  0.00    -0.162 C  
HETATM    7  C   UNL     1      -9.604  17.704  66.874  1.00  0.00    -0.286 C  
HETATM    8  C   UNL     1      -8.261  15.503  68.396  1.00  0.00    -0.145 A  
HETATM    9  C   UNL     1      -8.180  15.184  69.774  1.00  0.00     0.027 A  
HETATM   10  O   UNL     1      -6.748  14.271  71.567  1.00  0.00     0.469 OA 
HETATM   11  C   UNL     1      -7.076  14.476  70.259  1.00  0.00     0.237 A  
HETATM   12  C   UNL     1     -10.463  18.848  67.420  1.00  0.00    -0.520 C  
HETATM   13  C   UNL     1      -6.125  13.944  69.424  1.00  0.00    -0.104 A  
HETATM   14  C   UNL     1      -6.106  14.237  68.085  1.00  0.00    -0.138 A  
HETATM   15  C   UNL     1      -9.557  20.072  67.456  1.00  0.00    -0.523 C  
HETATM   16  C   UNL     1      -7.029  15.202  67.646  1.00  0.00    -0.206 A  
HETATM   17  C   UNL     1      -6.276  16.354  66.840  1.00  0.00    -0.079 C  
HETATM   18  C   UNL     1      -7.389  17.312  66.656  1.00  0.00    -0.247 C  
HETATM   19  N   UNL     1      -8.325  18.350  66.402  1.00  0.00    -0.347 NA 
HETATM   20  C   UNL     1      -8.148  19.585  67.160  1.00  0.00    -0.271 C  
ENDROOT
BRANCH   1  21
HETATM   21  O   UNL     1     -10.692  14.080  67.337  1.00  0.00    -0.278 OA 
BRANCH  21  22
HETATM   22  C   UNL     1     -11.636  13.450  66.572  1.00  0.00    -0.357 C  
HETATM   23  C   UNL     1     -11.945  11.483  65.057  1.00  0.00     0.303 C  
HETATM   24  C   UNL     1     -11.239  11.987  66.324  1.00  0.00    -0.342 C  
HETATM   25  O   UNL     1     -12.637  13.993  66.102  1.00  0.00    -0.468 OA 
HETATM   26  H   UNL     1      -9.576  10.984  65.991  1.00  0.00     0.000 HD 
HETATM   27  C   UNL     1     -11.635  11.148  67.563  1.00  0.00    -0.220 C  
HETATM   28  O   UNL     1      -9.822  11.888  66.144  1.00  0.00    -0.220 OA 
BRANCH  23  29
HETATM   29  C   UNL     1     -11.573  12.294  63.824  1.00  0.00    -0.471 C  
HETATM   30  O   UNL     1     -12.348  12.856  63.058  1.00  0.00    -0.509 OA 
BRANCH  29  31
HETATM   31  O   UNL     1     -10.207  12.309  63.720  1.00  0.00    -0.387 OA 
HETATM   32  C   UNL     1      -9.700  11.315  62.832  1.00  0.00    -0.323 C  
ENDBRANCH  29  31
ENDBRANCH  23  29
BRANCH  27  33
HETATM   33  C   UNL     1     -11.344   9.633  67.500  1.00  0.00     0.452 C  
BRANCH  33  34
HETATM   34  C   UNL     1     -10.402   9.114  68.599  1.00  0.00    -0.233 C  
HETATM   35  C   UNL     1      -8.498   8.461  67.027  1.00  0.00    -0.122 C  
HETATM   36  O   UNL     1      -8.572  10.605  68.076  1.00  0.00    -0.118 OA 
HETATM   37  C   UNL     1      -8.897   9.228  68.284  1.00  0.00    -0.129 C  
HETATM   38  C   UNL     1      -8.081   8.725  69.481  1.00  0.00    -0.105 C  
HETATM   39  H   UNL     1      -7.644  10.675  67.882  1.00  0.00     0.000 HD 
ENDBRANCH  33  34
ENDBRANCH  27  33
ENDBRANCH  21  22
ENDBRANCH   1  21
BRANCH   3  40
HETATM   40  O   UNL     1     -11.299  15.306  64.678  1.00  0.00    -0.398 OA 
HETATM   41  C   UNL     1     -12.077  16.001  63.720  1.00  0.00     0.978 C  
ENDBRANCH   3  40
TORSDOF 7
ENDMDL
MODEL      136
REMARK 921   NORMALIZED FREE ENERGY PREDICTED BY IDOCK:   -2.10 KCAL/MOL
REMARK 922        TOTAL FREE ENERGY PREDICTED BY IDOCK:   -4.82 KCAL/MOL
REMARK 923 INTER-LIGAND FREE ENERGY PREDICTED BY IDOCK:   -5.20 KCAL/MOL
REMARK 924 INTRA-LIGAND FREE ENERGY PREDICTED BY IDOCK:    0.38 KCAL/MOL
REMARK 927      BINDING AFFINITY PREDICTED BY RF-SCORE:    0.00 PKD
ROOT
HETATM    1  C   UNL     1      -7.341  12.655  67.808  1.00  0.00    -0.128 C  
HETATM    2  O   UNL     1     -13.383  12.104  64.982  1.00  0.00    -0.095 OA 
HETATM    3  C   UNL     1      -7.156  13.151  69.227  1.00  0.00     0.086 C  
HETATM    4  C   UNL     1      -8.219  13.782  67.097  1.00  0.00    -0.125 C  
HETATM    5  C   UNL     1     -12.975  12.269  63.615  1.00  0.00    -0.173 C  
HETATM    6  C   UNL     1      -7.334  14.468  69.321  1.00  0.00    -0.126 C  
HETATM    7  C   UNL     1      -7.785  15.119  68.042  1.00  0.00    -0.124 C  
HETATM    8  C   UNL     1      -9.727  13.353  66.602  1.00  0.00    -0.275 A  
HETATM    9  C   UNL     1      -9.905  13.014  65.238  1.00  0.00    -0.102 A  
HETATM   10  O   UNL     1     -11.550  12.492  63.471  1.00  0.00    -0.456 OA 
HETATM   11  C   UNL     1     -11.170  12.646  64.773  1.00  0.00    -0.302 A  
HETATM   12  C   UNL     1      -6.626  15.931  67.456  1.00  0.00    -0.212 C  
HETATM   13  C   UNL     1     -12.234  12.458  65.621  1.00  0.00    -0.250 A  
HETATM   14  C   UNL     1     -12.160  12.801  66.946  1.00  0.00    -0.267 A  
HETATM   15  C   UNL     1      -7.127  17.367  67.359  1.00  0.00    -0.186 C  
HETATM   16  C   UNL     1     -10.990  13.466  67.352  1.00  0.00    -0.287 A  
HETATM   17  C   UNL     1     -11.364  14.823  68.101  1.00  0.00    -0.324 C  
HETATM   18  C   UNL     1     -10.015  15.414  68.256  1.00  0.00    -0.214 C  
HETATM   19  N   UNL     1      -8.812  16.137  68.474  1.00  0.00    -0.191 NA 
HETATM   20  C   UNL     1      -8.617  17.334  67.663  1.00  0.00    -0.217 C  
ENDROOT
BRANCH   1  21
HETATM   21  O   UNL     1      -7.826  11.319  67.744  1.00  0.00    -0.109 OA 
BRANCH  21  22
HETATM   22  C   UNL     1      -7.797  10.821  66.469  1.00  0.00    -0.145 C  
HETATM   23  C   UNL     1      -7.582   8.674  65.203  1.00  0.00    -0.093 C  
HETATM   24  C   UNL     1      -8.159   9.328  66.466  1.00  0.00    -0.104 C  
HETATM   25  O   UNL     1      -7.474  11.465  65.469  1.00  0.00     0.337 OA 
HETATM   26  H   UNL     1      -7.829   7.766  67.620  1.00  0.00     0.000 HD 
HETATM   27  C   UNL     1      -9.699   9.190  66.521  1.00  0.00    -0.306 C  
HETATM   28  O   UNL     1      -7.606   8.689  67.621  1.00  0.00    -0.095 OA 
BRANCH  23  29
HETATM   29  C   UNL     1      -6.067   8.799  65.125  1.00  0.00    -0.059 C  
HETATM   30  O   UNL     1      -5.270   8.593  66.033  1.00  0.00    -0.030 OA 
BRANCH  29  31
HETATM   31  O   UNL     1      -5.735   9.166  63.848  1.00  0.00    -0.069 OA 
HETATM   32  C   UNL     1      -5.191  10.482  63.765  1.00  0.00    -0.163 C  
ENDBRANCH  29  31
ENDBRANCH  23  29
BRANCH  27  33
HETATM   33  C   UNL     1     -10.272   7.757  66.498  1.00  0.00    -0.195 C  
BRANCH  33  34
HETATM   34  C   UNL     1     -11.215   7.423  67.666  1.00  0.00     0.174 C  
HETATM   35  C   UNL     1      -9.378   6.705  69.289  1.00  0.00    -0.142 C  
HETATM   36  O   UNL     1     -10.199   8.947  69.244  1.00  0.00    -0.198 OA 
HETATM   37  C   UNL     1     -10.605   7.587  69.072  1.00  0.00    -0.180 C  
HETATM   38  C   UNL     1     -11.666   7.272  70.133  1.00  0.00    -0.095 C  
HETATM   39  H   UNL     1      -9.823   9.048  70.110  1.00  0.00     0.000 HD 
ENDBRANCH  33  34
ENDBRANCH  27  33
ENDBRANCH  21  22
ENDBRANCH   1  21
BRANCH   3  40
HETATM   40  O   UNL     1      -6.872  12.424  70.353  1.00  0.00     0.396 OA 
HETATM   41  C   UNL     1      -5.767  11.539  70.374  1.00  0.00    -0.155 C  
ENDBRANCH   3  40
TORSDOF 7
ENDMDL
MODEL      137
REMARK 921   NORMALIZED FREE ENERGY PREDICTED BY IDOCK:   -2.01 KCAL/MOL
REMARK 922        TOTAL FREE ENERGY PREDICTED BY IDOCK:   -4.70 KCAL/MOL
REMARK 923 INTER-LIGAND FREE ENERGY PREDICTED BY IDOCK:   -3.68 KCAL/MOL
REMARK 924 INTRA-LIGAND FREE ENERGY PREDICTED BY IDOCK:   -1.02 KCAL/MOL
REMARK 927      BINDING AFFINITY PREDICTED BY RF-SCORE:    0.00 PKD
ROOT
HETATM    1  C   UNL     1     -10.148  12.652  69.309  1.00  0.00     0.504 C  
HETATM    2  O   UNL     1      -7.499  17.423  65.433  1.00  0.00    -0.087 OA 
HETATM    3  C   UNL     1     -11.633  12.355  69.321  1.00  0.00    -0.319 C  
HETATM    4  C   UNL     1     -10.046  14.221  69.582  1.00  0.00     0.329 C  
HETATM    5  C   UNL     1      -6.349  17.717  66.244  1.00  0.00    -0.244 C  
HETATM    6  C   UNL     1     -12.321  13.288  69.978  1.00  0.00    -0.269 C  
HETATM    7  C   UNL     1     -11.489  14.455  70.439  1.00  0.00    -0.170 C  
HETATM    8  C   UNL     1      -9.440  15.153  68.371  1.00  0.00    -0.208 A  
HETATM    9  C   UNL     1      -8.074  15.526  68.444  1.00  0.00    -0.136 A  
HETATM   10  O   UNL     1      -6.296  16.929  67.459  1.00  0.00    -0.133 OA 
HETATM   11  C   UNL     1      -7.517  16.320  67.438  1.00  0.00    -0.161 A  
HETATM   12  C   UNL     1     -11.316  14.378  71.959  1.00  0.00     0.902 C  
HETATM   13  C   UNL     1      -8.206  16.640  66.293  1.00  0.00    -0.330 A  
HETATM   14  C   UNL     1      -9.539  16.354  66.160  1.00  0.00    -0.356 A  
HETATM   15  C   UNL     1     -11.895  15.675  72.511  1.00  0.00    -0.583 C  
HETATM   16  C   UNL     1     -10.182  15.836  67.297  1.00  0.00    -0.268 A  
HETATM   17  C   UNL     1     -11.475  16.705  67.640  1.00  0.00     0.262 C  
HETATM   18  C   UNL     1     -11.856  16.102  68.937  1.00  0.00    -0.156 C  
HETATM   19  N   UNL     1     -12.357  15.663  70.192  1.00  0.00    -0.384 NA 
HETATM   20  C   UNL     1     -12.178  16.574  71.318  1.00  0.00     0.570 C  
ENDROOT
BRANCH   1  21
HETATM   21  O   UNL     1      -9.491  12.152  68.150  1.00  0.00    -0.194 OA 
BRANCH  21  22
HETATM   22  C   UNL     1      -8.776  11.015  68.413  1.00  0.00    -0.150 C  
HETATM   23  C   UNL     1      -8.620   8.601  67.775  1.00  0.00    -0.136 C  
HETATM   24  C   UNL     1      -8.910  10.016  67.253  1.00  0.00    -0.135 C  
HETATM   25  O   UNL     1      -8.155  10.799  69.455  1.00  0.00    -0.131 OA 
HETATM   26  H   UNL     1     -10.321   9.441  66.005  1.00  0.00     0.000 HD 
HETATM   27  C   UNL     1      -7.921  10.419  66.133  1.00  0.00    -0.138 C  
HETATM   28  O   UNL     1     -10.238  10.059  66.722  1.00  0.00    -0.217 OA 
BRANCH  23  29
HETATM   29  C   UNL     1      -9.579   8.182  68.880  1.00  0.00    -0.153 C  
HETATM   30  O   UNL     1      -9.500   8.478  70.067  1.00  0.00    -0.161 OA 
BRANCH  29  31
HETATM   31  O   UNL     1     -10.571   7.423  68.318  1.00  0.00    -0.202 OA 
HETATM   32  C   UNL     1     -11.203   6.546  69.247  1.00  0.00    -0.328 C  
ENDBRANCH  29  31
ENDBRANCH  23  29
BRANCH  27  33
HETATM   33  C   UNL     1      -7.880   9.516  64.881  1.00  0.00    -0.119 C  
BRANCH  33  34
HETATM   34  C   UNL     1      -6.562   8.749  64.686  1.00  0.00    -0.066 C  
HETATM   35  C   UNL     1      -7.591   6.416  64.831  1.00  0.00    -0.093 C  
HETATM   36  O   UNL     1      -7.282   7.516  62.735  1.00  0.00    -0.077 OA 
HETATM   37  C   UNL     1      -6.699   7.361  64.031  1.00  0.00    -0.048 C  
HETATM   38  C   UNL     1      -5.309   6.736  63.853  1.00  0.00    -0.027 C  
HETATM   39  H   UNL     1      -7.366   6.661  62.331  1.00  0.00     0.000 HD 
ENDBRANCH  33  34
ENDBRANCH  27  33
ENDBRANCH  21  22
ENDBRANCH   1  21
BRANCH   3  40
HETATM   40  O   UNL     1     -12.298  11.309  68.738  1.00  0.00    -0.518 OA 
HETATM   41  C   UNL     1     -12.532  10.116  69.465  1.00  0.00     0.447 C  
ENDBRANCH   3  40
TORSDOF 7
ENDMDL
MODEL      138
REMARK 921   NORMALIZED FREE ENERGY PREDICTED BY IDOCK:   -2.01 KCAL/MOL
REMARK 922        TOTAL FREE ENERGY PREDICTED BY IDOCK:   -4.70 KCAL/MOL
REMARK 923 INTER-LIGAND FREE ENERGY PREDICTED BY IDOCK:   -5.74 KCAL/MOL
REMARK 924 INTRA-LIGAND FREE ENERGY PREDICTED BY IDOCK:    1.04 KCAL/MOL
REMARK 927      BINDING AFFINITY PREDICTED BY RF-SCORE:    0.00 PKD
ROOT
HETATM    1  C   UNL     1     -10.222   9.771  67.818  1.00  0.00    -0.208 C  
HETATM    2  O   UNL     1      -5.249  13.809  69.760  1.00  0.00    -0.085 OA 
HETATM    3  C   UNL     1      -9.968   8.488  67.055  1.00  0.00    -0.250 C  
HETATM    4  C   UNL     1      -9.463  10.898  66.981  1.00  0.00    -0.184 C  
HETATM    5  C   UNL     1      -5.994  15.038  69.784  1.00  0.00    -0.127 C  
HETATM    6  C   UNL     1      -9.644   8.722  65.783  1.00  0.00    -0.190 C  
HETATM    7  C   UNL     1      -9.494  10.181  65.446  1.00  0.00    -0.239 C  
HETATM    8  C   UNL     1      -8.193  11.644  67.710  1.00  0.00    -0.141 A  
HETATM    9  C   UNL     1      -8.424  12.907  68.311  1.00  0.00    -0.161 A  
HETATM   10  O   UNL     1      -7.376  14.871  69.380  1.00  0.00    -0.164 OA 
HETATM   11  C   UNL     1      -7.373  13.579  68.941  1.00  0.00    -0.045 A  
HETATM   12  C   UNL     1     -10.684  10.623  64.589  1.00  0.00    -0.031 C  
HETATM   13  C   UNL     1      -6.144  12.998  69.131  1.00  0.00    -0.095 A  
HETATM   14  C   UNL     1      -5.823  11.800  68.549  1.00  0.00    -0.049 A  
HETATM   15  C   UNL     1     -10.090  11.141  63.284  1.00  0.00    -0.426 C  
HETATM   16  C   UNL     1      -6.770  11.269  67.655  1.00  0.00    -0.073 A  
HETATM   17  C   UNL     1      -6.078  10.939  66.256  1.00  0.00    -0.137 C  
HETATM   18  C   UNL     1      -7.271  10.587  65.454  1.00  0.00    -0.077 C  
HETATM   19  N   UNL     1      -8.294  10.239  64.532  1.00  0.00    -0.166 NA 
HETATM   20  C   UNL     1      -8.585  11.212  63.484  1.00  0.00     0.178 C  
ENDROOT
BRANCH   1  21
HETATM   21  O   UNL     1      -9.904   9.668  69.201  1.00  0.00    -0.172 OA 
BRANCH  21  22
HETATM   22  C   UNL     1      -8.920   8.746  69.437  1.00  0.00    -0.145 C  
HETATM   23  C   UNL     1      -7.606   7.707  71.295  1.00  0.00    -0.080 C  
HETATM   24  C   UNL     1      -8.983   8.253  70.891  1.00  0.00    -0.151 C  
HETATM   25  O   UNL     1      -8.071   8.397  68.616  1.00  0.00    -0.118 OA 
HETATM   26  H   UNL     1      -9.371   9.031  72.658  1.00  0.00     0.000 HD 
HETATM   27  C   UNL     1     -10.077   7.164  71.001  1.00  0.00    -0.199 C  
HETATM   28  O   UNL     1      -9.333   9.336  71.759  1.00  0.00    -0.309 OA 
BRANCH  23  29
HETATM   29  C   UNL     1      -6.511   8.759  71.194  1.00  0.00    -0.061 C  
HETATM   30  O   UNL     1      -6.419   9.783  71.861  1.00  0.00    -0.288 OA 
BRANCH  29  31
HETATM   31  O   UNL     1      -5.623   8.359  70.232  1.00  0.00    -0.022 OA 
HETATM   32  C   UNL     1      -5.251   6.987  70.346  1.00  0.00    -0.023 C  
ENDBRANCH  29  31
ENDBRANCH  23  29
BRANCH  27  33
HETATM   33  C   UNL     1     -10.279   6.515  72.387  1.00  0.00    -0.204 C  
BRANCH  33  34
HETATM   34  C   UNL     1     -10.805   5.071  72.349  1.00  0.00    -0.234 C  
HETATM   35  C   UNL     1      -8.546   3.980  71.873  1.00  0.00    -0.118 C  
HETATM   36  O   UNL     1      -9.363   4.239  74.101  1.00  0.00    -0.105 OA 
HETATM   37  C   UNL     1      -9.788   3.989  72.759  1.00  0.00    -0.147 C  
HETATM   38  C   UNL     1     -10.460   2.611  72.725  1.00  0.00    -0.221 C  
HETATM   39  H   UNL     1      -8.735   3.571  74.354  1.00  0.00     0.000 HD 
ENDBRANCH  33  34
ENDBRANCH  27  33
ENDBRANCH  21  22
ENDBRANCH   1  21
BRANCH   3  40
HETATM   40  O   UNL     1     -10.005   7.199  67.517  1.00  0.00    -0.147 OA 
HETATM   41  C   UNL     1     -11.160   6.403  67.322  1.00  0.00    -0.330 C  
ENDBRANCH   3  40
TORSDOF 7
ENDMDL
MODEL      139
REMARK 921   NORMALIZED FREE ENERGY PREDICTED BY IDOCK:   -1.87 KCAL/MOL
REMARK 922        TOTAL FREE ENERGY PREDICTED BY IDOCK:   -4.51 KCAL/MOL
REMARK 923 INTER-LIGAND FREE ENERGY PREDICTED BY IDOCK:   -5.15 KCAL/MOL
REMARK 924 INTRA-LIGAND FREE ENERGY PREDICTED BY IDOCK:    0.64 KCAL/MOL
REMARK 927      BINDING AFFINITY PREDICTED BY RF-SCORE:    0.00 PKD
ROOT
HETATM    1  C   UNL     1      -7.625   7.542  69.142  1.00  0.00    -0.100 C  
HETATM    2  O   UNL     1     -12.447  11.953  70.588  1.00  0.00    -0.318 OA 
HETATM    3  C   UNL     1      -6.982   7.470  67.774  1.00  0.00    -0.080 C  
HETATM    4  C   UNL     1      -9.193   7.440  68.858  1.00  0.00    -0.142 C  
HETATM    5  C   UNL     1     -13.096  11.200  71.626  1.00  0.00    -0.424 C  
HETATM    6  C   UNL     1      -7.786   6.905  66.874  1.00  0.00    -0.099 C  
HETATM    7  C   UNL     1      -9.162   6.587  67.395  1.00  0.00    -0.121 C  
HETATM    8  C   UNL     1     -10.107   8.754  69.231  1.00  0.00    -0.206 A  
HETATM    9  C   UNL     1     -10.805   8.747  70.464  1.00  0.00    -0.268 A  
HETATM   10  O   UNL     1     -12.481   9.908  71.858  1.00  0.00    -0.384 OA 
HETATM   11  C   UNL     1     -11.596   9.842  70.821  1.00  0.00    -0.349 A  
HETATM   12  C   UNL     1      -9.295   5.071  67.569  1.00  0.00    -0.138 C  
HETATM   13  C   UNL     1     -11.614  11.001  70.085  1.00  0.00    -0.334 A  
HETATM   14  C   UNL     1     -11.002  11.079  68.861  1.00  0.00    -0.277 A  
HETATM   15  C   UNL     1     -10.465   4.649  66.688  1.00  0.00    -0.130 C  
HETATM   16  C   UNL     1     -10.470   9.881  68.354  1.00  0.00    -0.239 A  
HETATM   17  C   UNL     1     -11.032   9.610  66.886  1.00  0.00     0.028 C  
HETATM   18  C   UNL     1     -10.499   8.249  66.652  1.00  0.00    -0.147 C  
HETATM   19  N   UNL     1     -10.091   6.946  66.261  1.00  0.00     0.050 NA 
HETATM   20  C   UNL     1     -11.133   5.927  66.205  1.00  0.00     0.347 C  
ENDROOT
BRANCH   1  21
HETATM   21  O   UNL     1      -7.177   8.652  69.911  1.00  0.00    -0.049 OA 
BRANCH  21  22
HETATM   22  C   UNL     1      -6.363   8.270  70.942  1.00  0.00    -0.037 C  
HETATM   23  C   UNL     1      -6.245   8.226  73.441  1.00  0.00    -0.108 C  
HETATM   24  C   UNL     1      -7.178   8.080  72.230  1.00  0.00    -0.094 C  
HETATM   25  O   UNL     1      -5.139   8.147  70.863  1.00  0.00    -0.026 OA 
HETATM   26  H   UNL     1      -8.712   8.955  73.104  1.00  0.00     0.000 HD 
HETATM   27  C   UNL     1      -7.845   6.684  72.195  1.00  0.00    -0.097 C  
HETATM   28  O   UNL     1      -8.208   9.072  72.307  1.00  0.00    -0.354 OA 
BRANCH  23  29
HETATM   29  C   UNL     1      -5.575   9.592  73.496  1.00  0.00     0.111 C  
HETATM   30  O   UNL     1      -5.307  10.234  74.505  1.00  0.00    -0.334 OA 
BRANCH  29  31
HETATM   31  O   UNL     1      -5.300   9.983  72.213  1.00  0.00    -0.235 OA 
HETATM   32  C   UNL     1      -5.337  11.398  72.036  1.00  0.00     0.396 C  
ENDBRANCH  29  31
ENDBRANCH  23  29
BRANCH  27  33
HETATM   33  C   UNL     1      -8.693   6.286  73.423  1.00  0.00    -0.126 C  
BRANCH  33  34
HETATM   34  C   UNL     1      -8.606   4.800  73.808  1.00  0.00    -0.103 C  
HETATM   35  C   UNL     1     -11.122   4.367  73.758  1.00  0.00    -0.323 C  
HETATM   36  O   UNL     1      -9.749   3.971  71.846  1.00  0.00    -0.149 OA 
HETATM   37  C   UNL     1      -9.748   3.914  73.274  1.00  0.00    -0.113 C  
HETATM   38  C   UNL     1      -9.505   2.457  73.690  1.00  0.00    -0.105 C  
HETATM   39  H   UNL     1     -10.453   3.424  71.517  1.00  0.00     0.000 HD 
ENDBRANCH  33  34
ENDBRANCH  27  33
ENDBRANCH  21  22
ENDBRANCH   1  21
BRANCH   3  40
HETATM   40  O   UNL     1      -5.749   7.926  67.386  1.00  0.00    -0.035 OA 
HETATM   41  C   UNL     1      -5.616   8.740  66.235  1.00  0.00    -0.038 C  
ENDBRANCH   3  40
TORSDOF 7
ENDMDL
MODEL      140
REMARK 921   NORMALIZED FREE ENERGY PREDICTED BY IDOCK:   -1.66 KCAL/MOL
REMARK 922        TOTAL FREE ENERGY PREDICTED BY IDOCK:   -4.21 KCAL/MOL
REMARK 923 INTER-LIGAND FREE ENERGY PREDICTED BY IDOCK:   -6.79 KCAL/MOL
REMARK 924 INTRA-LIGAND FREE ENERGY PREDICTED BY IDOCK:    2.58 KCAL/MOL
REMARK 927      BINDING AFFINITY PREDICTED BY RF-SCORE:    0.00 PKD
ROOT
HETATM    1  C   UNL     1      -8.397   8.770  68.509  1.00  0.00    -0.129 C  
HETATM    2  O   UNL     1      -9.591   4.017  73.067  1.00  0.00    -0.122 OA 
HETATM    3  C   UNL     1      -9.141   8.830  67.192  1.00  0.00    -0.132 C  
HETATM    4  C   UNL     1      -7.818   7.284  68.581  1.00  0.00    -0.122 C  
HETATM    5  C   UNL     1      -8.296   4.013  73.690  1.00  0.00    -0.089 C  
HETATM    6  C   UNL     1      -8.724   7.892  66.342  1.00  0.00    -0.170 C  
HETATM    7  C   UNL     1      -7.715   6.939  66.926  1.00  0.00    -0.099 C  
HETATM    8  C   UNL     1      -8.400   6.312  69.771  1.00  0.00    -0.125 A  
HETATM    9  C   UNL     1      -7.625   6.170  70.949  1.00  0.00    -0.097 A  
HETATM   10  O   UNL     1      -7.371   4.949  73.080  1.00  0.00    -0.083 OA 
HETATM   11  C   UNL     1      -8.080   5.351  71.986  1.00  0.00    -0.114 A  
HETATM   12  C   UNL     1      -6.338   7.236  66.324  1.00  0.00    -0.041 C  
HETATM   13  C   UNL     1      -9.330   4.783  71.973  1.00  0.00    -0.138 A  
HETATM   14  C   UNL     1     -10.127   4.836  70.860  1.00  0.00    -0.275 A  
HETATM   15  C   UNL     1      -5.890   5.946  65.647  1.00  0.00    -0.024 C  
HETATM   16  C   UNL     1      -9.547   5.388  69.704  1.00  0.00    -0.217 A  
HETATM   17  C   UNL     1      -9.697   4.379  68.479  1.00  0.00    -0.181 C  
HETATM   18  C   UNL     1      -8.872   5.076  67.467  1.00  0.00    -0.102 C  
HETATM   19  N   UNL     1      -8.110   5.588  66.383  1.00  0.00    -0.105 NA 
HETATM   20  C   UNL     1      -6.883   4.869  66.054  1.00  0.00    -0.058 C  
ENDROOT
BRANCH   1  21
HETATM   21  O   UNL     1      -9.179   9.214  69.611  1.00  0.00    -0.154 OA 
BRANCH  21  22
HETATM   22  C   UNL     1     -10.521   9.056  69.388  1.00  0.00    -0.222 C  
HETATM   23  C   UNL     1     -12.754   9.806  70.230  1.00  0.00     0.176 C  
HETATM   24  C   UNL     1     -11.306  10.243  69.968  1.00  0.00    -0.301 C  
HETATM   25  O   UNL     1     -11.033   8.075  68.846  1.00  0.00    -0.036 OA 
HETATM   26  H   UNL     1     -11.197  11.400  71.558  1.00  0.00     0.000 HD 
HETATM   27  C   UNL     1     -11.243  11.419  68.963  1.00  0.00    -0.319 C  
HETATM   28  O   UNL     1     -10.712  10.667  71.199  1.00  0.00     0.680 OA 
BRANCH  23  29
HETATM   29  C   UNL     1     -12.842   8.648  71.214  1.00  0.00    -0.192 C  
HETATM   30  O   UNL     1     -13.531   7.641  71.097  1.00  0.00    -0.239 OA 
BRANCH  29  31
HETATM   31  O   UNL     1     -11.999   8.914  72.260  1.00  0.00    -0.355 OA 
HETATM   32  C   UNL     1     -11.359   7.749  72.776  1.00  0.00    -0.389 C  
ENDBRANCH  29  31
ENDBRANCH  23  29
BRANCH  27  33
HETATM   33  C   UNL     1     -12.001  12.707  69.350  1.00  0.00    -0.318 C  
BRANCH  33  34
HETATM   34  C   UNL     1     -12.494  12.749  70.805  1.00  0.00    -0.357 C  
HETATM   35  C   UNL     1     -11.582  15.078  71.325  1.00  0.00    -0.384 C  
HETATM   36  O   UNL     1     -13.820  14.755  70.557  1.00  0.00    -0.507 OA 
HETATM   37  C   UNL     1     -12.798  14.156  71.357  1.00  0.00    -0.355 C  
HETATM   38  C   UNL     1     -13.326  14.043  72.793  1.00  0.00    -0.603 C  
HETATM   39  H   UNL     1     -14.007  15.622  70.897  1.00  0.00     0.000 HD 
ENDBRANCH  33  34
ENDBRANCH  27  33
ENDBRANCH  21  22
ENDBRANCH   1  21
BRANCH   3  40
HETATM   40  O   UNL     1     -10.154   9.675  66.822  1.00  0.00    -0.208 OA 
HETATM   41  C   UNL     1     -10.129  10.311  65.557  1.00  0.00    -0.281 C  
ENDBRANCH   3  40
TORSDOF 7
ENDMDL
MODEL      141
REMARK 921   NORMALIZED FREE ENERGY PREDICTED BY IDOCK:   -1.50 KCAL/MOL
REMARK 922        TOTAL FREE ENERGY PREDICTED BY IDOCK:   -3.98 KCAL/MOL
REMARK 923 INTER-LIGAND FREE ENERGY PREDICTED BY IDOCK:   -6.03 KCAL/MOL
REMARK 924 INTRA-LIGAND FREE ENERGY PREDICTED BY IDOCK:    2.05 KCAL/MOL
REMARK 927      BINDING AFFINITY PREDICTED BY RF-SCORE:    0.00 PKD
ROOT
HETATM    1  C   UNL     1     -10.191   6.578  69.378  1.00  0.00    -0.183 C  
HETATM    2  O   UNL     1      -7.483   5.614  63.334  1.00  0.00    -0.056 OA 
HETATM    3  C   UNL     1      -9.402   7.158  70.532  1.00  0.00    -0.158 C  
HETATM    4  C   UNL     1      -9.310   5.352  68.860  1.00  0.00    -0.161 C  
HETATM    5  C   UNL     1      -8.329   4.532  62.910  1.00  0.00    -0.096 C  
HETATM    6  C   UNL     1      -8.545   6.274  71.043  1.00  0.00    -0.132 C  
HETATM    7  C   UNL     1      -8.482   4.973  70.289  1.00  0.00    -0.099 C  
HETATM    8  C   UNL     1      -8.687   5.467  67.343  1.00  0.00    -0.107 A  
HETATM    9  C   UNL     1      -9.375   4.808  66.294  1.00  0.00    -0.149 A  
HETATM   10  O   UNL     1      -9.298   4.144  63.916  1.00  0.00    -0.147 OA 
HETATM   11  C   UNL     1      -8.880   4.877  64.988  1.00  0.00    -0.154 A  
HETATM   12  C   UNL     1      -9.162   3.879  71.118  1.00  0.00    -0.201 C  
HETATM   13  C   UNL     1      -7.821   5.684  64.650  1.00  0.00    -0.113 A  
HETATM   14  C   UNL     1      -7.076   6.322  65.607  1.00  0.00    -0.065 A  
HETATM   15  C   UNL     1      -8.102   2.809  71.348  1.00  0.00    -0.062 C  
HETATM   16  C   UNL     1      -7.375   6.005  66.943  1.00  0.00    -0.076 A  
HETATM   17  C   UNL     1      -6.052   5.552  67.709  1.00  0.00    -0.026 C  
HETATM   18  C   UNL     1      -6.636   5.104  68.993  1.00  0.00    -0.051 C  
HETATM   19  N   UNL     1      -7.017   4.614  70.271  1.00  0.00    -0.044 NA 
HETATM   20  C   UNL     1      -6.913   3.173  70.473  1.00  0.00    -0.033 C  
ENDROOT
BRANCH   1  21
HETATM   21  O   UNL     1     -10.570   7.554  68.416  1.00  0.00    -0.193 OA 
BRANCH  21  22
HETATM   22  C   UNL     1      -9.727   8.632  68.415  1.00  0.00    -0.162 C  
HETATM   23  C   UNL     1      -9.472  10.928  67.455  1.00  0.00    -0.170 C  
HETATM   24  C   UNL     1     -10.480   9.905  67.998  1.00  0.00    -0.222 C  
HETATM   25  O   UNL     1      -8.521   8.582  68.663  1.00  0.00    -0.128 OA 
HETATM   26  H   UNL     1     -11.899  10.382  66.719  1.00  0.00     0.000 HD 
HETATM   27  C   UNL     1     -11.240  10.458  69.227  1.00  0.00    -0.304 C  
HETATM   28  O   UNL     1     -11.434   9.596  66.977  1.00  0.00     0.379 OA 
BRANCH  23  29
HETATM   29  C   UNL     1      -8.710  10.406  66.245  1.00  0.00    -0.153 C  
HETATM   30  O   UNL     1      -8.007   9.403  66.203  1.00  0.00    -0.108 OA 
BRANCH  29  31
HETATM   31  O   UNL     1      -8.957  11.245  65.191  1.00  0.00    -0.152 OA 
HETATM   32  C   UNL     1     -10.043  12.139  65.427  1.00  0.00    -0.255 C  
ENDBRANCH  29  31
ENDBRANCH  23  29
BRANCH  27  33
HETATM   33  C   UNL     1     -12.043  11.761  69.022  1.00  0.00    -0.276 C  
BRANCH  33  34
HETATM   34  C   UNL     1     -11.662  12.906  69.975  1.00  0.00    -0.284 C  
HETATM   35  C   UNL     1     -10.044  14.058  68.369  1.00  0.00    -0.236 C  
HETATM   36  O   UNL     1     -12.342  14.693  68.496  1.00  0.00    -0.585 OA 
HETATM   37  C   UNL     1     -11.250  14.223  69.290  1.00  0.00    -0.273 C  
HETATM   38  C   UNL     1     -10.949  15.285  70.355  1.00  0.00    -0.317 C  
HETATM   39  H   UNL     1     -12.089  15.505  68.074  1.00  0.00     0.000 HD 
ENDBRANCH  33  34
ENDBRANCH  27  33
ENDBRANCH  21  22
ENDBRANCH   1  21
BRANCH   3  40
HETATM   40  O   UNL     1      -9.456   8.425  71.050  1.00  0.00    -0.154 OA 
HETATM   41  C   UNL     1     -10.271   8.705  72.173  1.00  0.00    -0.323 C  
ENDBRANCH   3  40
TORSDOF 7
ENDMDL
MODEL      142
REMARK 921   NORMALIZED FREE ENERGY PREDICTED BY IDOCK:   -1.45 KCAL/MOL
REMARK 922        TOTAL FREE ENERGY PREDICTED BY IDOCK:   -3.91 KCAL/MOL
REMARK 923 INTER-LIGAND FREE ENERGY PREDICTED BY IDOCK:   -6.23 KCAL/MOL
REMARK 924 INTRA-LIGAND FREE ENERGY PREDICTED BY IDOCK:    2.32 KCAL/MOL
REMARK 927      BINDING AFFINITY PREDICTED BY RF-SCORE:    0.00 PKD
ROOT
HETATM    1  C   UNL     1      -7.261  12.682  67.627  1.00  0.00    -0.142 C  
HETATM    2  O   UNL     1     -13.378  12.490  64.915  1.00  0.00    -0.702 OA 
HETATM    3  C   UNL     1      -7.029  13.095  69.064  1.00  0.00    -0.063 C  
HETATM    4  C   UNL     1      -8.114  13.875  66.995  1.00  0.00    -0.016 C  
HETATM    5  C   UNL     1     -12.993  12.712  63.549  1.00  0.00     0.165 C  
HETATM    6  C   UNL     1      -7.158  14.411  69.231  1.00  0.00    -0.124 C  
HETATM    7  C   UNL     1      -7.613  15.144  67.998  1.00  0.00    -0.120 C  
HETATM    8  C   UNL     1      -9.647  13.525  66.514  1.00  0.00    -0.284 A  
HETATM    9  C   UNL     1      -9.865  13.264  65.138  1.00  0.00    -0.078 A  
HETATM   10  O   UNL     1     -11.564  12.893  63.385  1.00  0.00    -0.498 OA 
HETATM   11  C   UNL     1     -11.152  12.965  64.683  1.00  0.00    -0.324 A  
HETATM   12  C   UNL     1      -6.438  15.946  67.429  1.00  0.00    -0.209 C  
HETATM   13  C   UNL     1     -12.204  12.769  65.544  1.00  0.00    -0.463 A  
HETATM   14  C   UNL     1     -12.090  13.039  66.883  1.00  0.00    -0.349 A  
HETATM   15  C   UNL     1      -6.891  17.401  67.419  1.00  0.00    -0.183 C  
HETATM   16  C   UNL     1     -10.889  13.641  67.297  1.00  0.00    -0.292 A  
HETATM   17  C   UNL     1     -11.198  14.969  68.124  1.00  0.00    -0.316 C  
HETATM   18  C   UNL     1      -9.826  15.503  68.278  1.00  0.00    -0.213 C  
HETATM   19  N   UNL     1      -8.594  16.172  68.507  1.00  0.00    -0.192 NA 
HETATM   20  C   UNL     1      -8.373  17.403  67.755  1.00  0.00    -0.218 C  
ENDROOT
BRANCH   1  21
HETATM   21  O   UNL     1      -7.795  11.369  67.504  1.00  0.00    -0.116 OA 
BRANCH  21  22
HETATM   22  C   UNL     1      -8.540  11.011  68.594  1.00  0.00    -0.157 C  
HETATM   23  C   UNL     1     -10.097   9.231  69.412  1.00  0.00    -0.200 C  
HETATM   24  C   UNL     1      -8.845   9.505  68.567  1.00  0.00    -0.124 C  
HETATM   25  O   UNL     1      -8.955  11.793  69.451  1.00  0.00     0.469 OA 
HETATM   26  H   UNL     1      -9.271   8.149  67.204  1.00  0.00     0.000 HD 
HETATM   27  C   UNL     1      -7.616   8.739  69.113  1.00  0.00    -0.088 C  
HETATM   28  O   UNL     1      -9.083   9.079  67.221  1.00  0.00    -0.132 OA 
BRANCH  23  29
HETATM   29  C   UNL     1     -11.320   9.976  68.895  1.00  0.00    -0.068 C  
HETATM   30  O   UNL     1     -11.621  10.160  67.721  1.00  0.00    -0.239 OA 
BRANCH  29  31
HETATM   31  O   UNL     1     -12.050  10.397  69.975  1.00  0.00    -0.267 OA 
HETATM   32  C   UNL     1     -12.085  11.816  70.111  1.00  0.00    -0.317 C  
ENDBRANCH  29  31
ENDBRANCH  23  29
BRANCH  27  33
HETATM   33  C   UNL     1      -7.732   7.202  69.195  1.00  0.00    -0.109 C  
BRANCH  33  34
HETATM   34  C   UNL     1      -6.593   6.434  68.505  1.00  0.00    -0.055 C  
HETATM   35  C   UNL     1      -7.741   6.247  66.231  1.00  0.00    -0.099 C  
HETATM   36  O   UNL     1      -6.251   8.043  66.733  1.00  0.00    -0.051 OA 
HETATM   37  C   UNL     1      -6.478   6.654  66.984  1.00  0.00    -0.043 C  
HETATM   38  C   UNL     1      -5.275   5.873  66.441  1.00  0.00    -0.009 C  
HETATM   39  H   UNL     1      -6.180   8.179  65.796  1.00  0.00     0.000 HD 
ENDBRANCH  33  34
ENDBRANCH  27  33
ENDBRANCH  21  22
ENDBRANCH   1  21
BRANCH   3  40
HETATM   40  O   UNL     1      -6.748  12.301  70.145  1.00  0.00     0.107 OA 
HETATM   41  C   UNL     1      -5.614  11.453  70.133  1.00  0.00    -0.118 C  
ENDBRANCH   3  40
TORSDOF 7
ENDMDL
MODEL      143
REMARK 921   NORMALIZED FREE ENERGY PREDICTED BY IDOCK:   -1.34 KCAL/MOL
REMARK 922        TOTAL FREE ENERGY PREDICTED BY IDOCK:   -3.76 KCAL/MOL
REMARK 923 INTER-LIGAND FREE ENERGY PREDICTED BY IDOCK:   -5.73 KCAL/MOL
REMARK 924 INTRA-LIGAND FREE ENERGY PREDICTED BY IDOCK:    1.98 KCAL/MOL
REMARK 927      BINDING AFFINITY PREDICTED BY RF-SCORE:    0.00 PKD
ROOT
HETATM    1  C   UNL     1      -9.300   7.757  70.944  1.00  0.00    -0.153 C  
HETATM    2  O   UNL     1      -8.581   1.520  68.623  1.00  0.00    -0.053 OA 
HETATM    3  C   UNL     1      -9.424   8.058  72.423  1.00  0.00    -0.215 C  
HETATM    4  C   UNL     1     -10.423   6.659  70.658  1.00  0.00    -0.253 C  
HETATM    5  C   UNL     1      -9.164   1.726  67.325  1.00  0.00    -0.070 C  
HETATM    6  C   UNL     1     -10.625   7.729  72.899  1.00  0.00    -0.428 C  
HETATM    7  C   UNL     1     -11.513   7.038  71.899  1.00  0.00    -0.268 C  
HETATM    8  C   UNL     1      -9.911   5.167  70.199  1.00  0.00    -0.324 A  
HETATM    9  C   UNL     1      -9.922   4.860  68.815  1.00  0.00    -0.206 A  
HETATM   10  O   UNL     1      -9.637   3.082  67.125  1.00  0.00    -0.137 OA 
HETATM   11  C   UNL     1      -9.498   3.602  68.379  1.00  0.00    -0.150 A  
HETATM   12  C   UNL     1     -12.623   8.002  71.464  1.00  0.00    -0.332 C  
HETATM   13  C   UNL     1      -8.927   2.688  69.230  1.00  0.00    -0.111 A  
HETATM   14  C   UNL     1      -8.914   2.886  70.586  1.00  0.00    -0.168 A  
HETATM   15  C   UNL     1     -13.936   7.315  71.820  1.00  0.00    -0.446 C  
HETATM   16  C   UNL     1      -9.622   4.006  71.058  1.00  0.00    -0.249 A  
HETATM   17  C   UNL     1     -10.656   3.563  72.188  1.00  0.00     0.120 C  
HETATM   18  C   UNL     1     -11.388   4.835  72.383  1.00  0.00     0.166 C  
HETATM   19  N   UNL     1     -12.206   5.955  72.688  1.00  0.00    -0.048 NA 
HETATM   20  C   UNL     1     -13.591   5.893  72.232  1.00  0.00     1.001 C  
ENDROOT
BRANCH   1  21
HETATM   21  O   UNL     1      -7.971   7.439  70.550  1.00  0.00    -0.096 OA 
BRANCH  21  22
HETATM   22  C   UNL     1      -7.424   8.409  69.754  1.00  0.00    -0.072 C  
HETATM   23  C   UNL     1      -7.769   9.588  67.574  1.00  0.00    -0.095 C  
HETATM   24  C   UNL     1      -8.479   8.971  68.788  1.00  0.00    -0.131 C  
HETATM   25  O   UNL     1      -6.239   8.748  69.771  1.00  0.00    -0.034 OA 
HETATM   26  H   UNL     1      -9.995   8.267  67.747  1.00  0.00     0.000 HD 
HETATM   27  C   UNL     1      -9.331  10.021  69.539  1.00  0.00    -0.247 C  
HETATM   28  O   UNL     1      -9.343   7.920  68.344  1.00  0.00    -0.141 OA 
BRANCH  23  29
HETATM   29  C   UNL     1      -6.922   8.574  66.819  1.00  0.00    -0.073 C  
HETATM   30  O   UNL     1      -6.118   7.788  67.306  1.00  0.00    -0.046 OA 
BRANCH  29  31
HETATM   31  O   UNL     1      -7.225   8.674  65.487  1.00  0.00    -0.081 OA 
HETATM   32  C   UNL     1      -6.589   9.778  64.847  1.00  0.00    -0.108 C  
ENDBRANCH  29  31
ENDBRANCH  23  29
BRANCH  27  33
HETATM   33  C   UNL     1     -10.438  10.730  68.729  1.00  0.00    -0.221 C  
BRANCH  33  34
HETATM   34  C   UNL     1      -9.934  11.835  67.786  1.00  0.00    -0.198 C  
HETATM   35  C   UNL     1     -10.251  10.506  65.629  1.00  0.00    -0.315 C  
HETATM   36  O   UNL     1     -11.951  11.962  66.459  1.00  0.00    -0.588 OA 
HETATM   37  C   UNL     1     -10.532  11.812  66.366  1.00  0.00    -0.235 C  
HETATM   38  C   UNL     1      -9.983  12.994  65.557  1.00  0.00    -0.226 C  
HETATM   39  H   UNL     1     -12.320  11.948  65.583  1.00  0.00     0.000 HD 
ENDBRANCH  33  34
ENDBRANCH  27  33
ENDBRANCH  21  22
ENDBRANCH   1  21
BRANCH   3  40
HETATM   40  O   UNL     1      -8.479   8.572  73.270  1.00  0.00    -0.372 OA 
HETATM   41  C   UNL     1      -7.564   7.713  73.927  1.00  0.00    -0.132 C  
ENDBRANCH   3  40
TORSDOF 7
ENDMDL
MODEL      144
REMARK 921   NORMALIZED FREE ENERGY PREDICTED BY IDOCK:   -1.28 KCAL/MOL
REMARK 922        TOTAL FREE ENERGY PREDICTED BY IDOCK:   -3.67 KCAL/MOL
REMARK 923 INTER-LIGAND FREE ENERGY PREDICTED BY IDOCK:   -2.91 KCAL/MOL
REMARK 924 INTRA-LIGAND FREE ENERGY PREDICTED BY IDOCK:   -0.77 KCAL/MOL
REMARK 927      BINDING AFFINITY PREDICTED BY RF-SCORE:    0.00 PKD
ROOT
HETATM    1  C   UNL     1      -7.856  14.361  67.272  1.00  0.00    -0.163 C  
HETATM    2  O   UNL     1     -12.661  11.618  71.037  1.00  0.00    -0.356 OA 
HETATM    3  C   UNL     1      -7.163  15.650  67.661  1.00  0.00    -0.173 C  
HETATM    4  C   UNL     1      -9.413  14.709  67.317  1.00  0.00    -0.221 C  
HETATM    5  C   UNL     1     -13.360  10.926  69.990  1.00  0.00     0.733 C  
HETATM    6  C   UNL     1      -7.942  16.713  67.464  1.00  0.00    -0.186 C  
HETATM    7  C   UNL     1      -9.341  16.375  67.022  1.00  0.00    -0.228 C  
HETATM    8  C   UNL     1     -10.321  13.931  68.445  1.00  0.00    -0.249 A  
HETATM    9  C   UNL     1     -11.063  12.797  68.030  1.00  0.00    -0.284 A  
HETATM   10  O   UNL     1     -12.772  11.138  68.681  1.00  0.00    -0.035 OA 
HETATM   11  C   UNL     1     -11.851  12.107  68.955  1.00  0.00    -0.304 A  
HETATM   12  C   UNL     1      -9.502  16.742  65.544  1.00  0.00     0.310 C  
HETATM   13  C   UNL     1     -11.825  12.395  70.297  1.00  0.00    -0.232 A  
HETATM   14  C   UNL     1     -11.167  13.497  70.777  1.00  0.00     1.093 A  
HETATM   15  C   UNL     1     -10.645  17.748  65.485  1.00  0.00    -0.044 C  
HETATM   16  C   UNL     1     -10.634  14.373  69.815  1.00  0.00     0.051 A  
HETATM   17  C   UNL     1     -11.146  15.859  70.084  1.00  0.00    -0.369 C  
HETATM   18  C   UNL     1     -10.625  16.535  68.874  1.00  0.00    -0.326 C  
HETATM   19  N   UNL     1     -10.222  17.341  67.776  1.00  0.00    -0.317 NA 
HETATM   20  C   UNL     1     -11.277  17.778  66.868  1.00  0.00     0.582 C  
ENDROOT
BRANCH   1  21
HETATM   21  O   UNL     1      -7.420  13.242  68.035  1.00  0.00    -0.108 OA 
BRANCH  21  22
HETATM   22  C   UNL     1      -7.817  12.055  67.482  1.00  0.00    -0.155 C  
HETATM   23  C   UNL     1      -7.346   9.599  67.555  1.00  0.00    -0.090 C  
HETATM   24  C   UNL     1      -7.433  10.881  68.396  1.00  0.00    -0.098 C  
HETATM   25  O   UNL     1      -8.358  11.938  66.382  1.00  0.00    -0.118 OA 
HETATM   26  H   UNL     1      -5.924  10.405  69.569  1.00  0.00     0.000 HD 
HETATM   27  C   UNL     1      -8.495  10.753  69.514  1.00  0.00     0.091 C  
HETATM   28  O   UNL     1      -6.162  11.131  69.005  1.00  0.00    -0.042 OA 
BRANCH  23  29
HETATM   29  C   UNL     1      -6.309   9.701  66.446  1.00  0.00    -0.069 C  
HETATM   30  O   UNL     1      -5.355  10.469  66.407  1.00  0.00    -0.047 OA 
BRANCH  29  31
HETATM   31  O   UNL     1      -6.611   8.765  65.493  1.00  0.00    -0.065 OA 
HETATM   32  C   UNL     1      -6.630   7.432  65.999  1.00  0.00    -0.049 C  
ENDBRANCH  29  31
ENDBRANCH  23  29
BRANCH  27  33
HETATM   33  C   UNL     1      -8.304   9.605  70.528  1.00  0.00    -0.134 C  
BRANCH  33  34
HETATM   34  C   UNL     1      -9.190   8.374  70.277  1.00  0.00    -0.154 C  
HETATM   35  C   UNL     1      -8.560   7.152  72.429  1.00  0.00    -0.133 C  
HETATM   36  O   UNL     1     -10.474   8.575  72.316  1.00  0.00    -0.312 OA 
HETATM   37  C   UNL     1      -9.696   7.657  71.544  1.00  0.00    -0.165 C  
HETATM   38  C   UNL     1     -10.603   6.486  71.145  1.00  0.00    -0.271 C  
HETATM   39  H   UNL     1     -10.786   8.133  73.097  1.00  0.00     0.000 HD 
ENDBRANCH  33  34
ENDBRANCH  27  33
ENDBRANCH  21  22
ENDBRANCH   1  21
BRANCH   3  40
HETATM   40  O   UNL     1      -5.910  15.819  68.190  1.00  0.00    -0.108 OA 
HETATM   41  C   UNL     1      -5.731  16.557  69.385  1.00  0.00    -0.159 C  
ENDBRANCH   3  40
TORSDOF 7
ENDMDL
MODEL      145
REMARK 921   NORMALIZED FREE ENERGY PREDICTED BY IDOCK:   -1.24 KCAL/MOL
REMARK 922        TOTAL FREE ENERGY PREDICTED BY IDOCK:   -3.61 KCAL/MOL
REMARK 923 INTER-LIGAND FREE ENERGY PREDICTED BY IDOCK:   -6.10 KCAL/MOL
REMARK 924 INTRA-LIGAND FREE ENERGY PREDICTED BY IDOCK:    2.49 KCAL/MOL
REMARK 927      BINDING AFFINITY PREDICTED BY RF-SCORE:    0.00 PKD
ROOT
HETATM    1  C   UNL     1     -10.533   9.298  67.116  1.00  0.00    -0.249 C  
HETATM    2  O   UNL     1     -10.798  15.819  65.629  1.00  0.00    -0.334 OA 
HETATM    3  C   UNL     1      -9.484   8.725  68.045  1.00  0.00    -0.143 C  
HETATM    4  C   UNL     1      -9.704  10.109  66.020  1.00  0.00    -0.285 C  
HETATM    5  C   UNL     1     -11.422  15.700  64.340  1.00  0.00    -0.262 C  
HETATM    6  C   UNL     1      -8.289   8.653  67.461  1.00  0.00    -0.120 C  
HETATM    7  C   UNL     1      -8.241   9.259  66.084  1.00  0.00    -0.111 C  
HETATM    8  C   UNL     1      -9.913  11.739  65.978  1.00  0.00    -0.258 A  
HETATM    9  C   UNL     1     -10.807  12.267  65.014  1.00  0.00    -0.337 A  
HETATM   10  O   UNL     1     -11.671  14.325  63.955  1.00  0.00    -0.301 OA 
HETATM   11  C   UNL     1     -11.014  13.648  64.941  1.00  0.00    -0.367 A  
HETATM   12  C   UNL     1      -8.139   8.137  65.046  1.00  0.00    -0.155 C  
HETATM   13  C   UNL     1     -10.491  14.515  65.869  1.00  0.00    -0.312 A  
HETATM   14  C   UNL     1      -9.586  14.095  66.808  1.00  0.00    -0.290 A  
HETATM   15  C   UNL     1      -6.852   8.398  64.272  1.00  0.00    -0.066 C  
HETATM   16  C   UNL     1      -9.134  12.769  66.688  1.00  0.00    -0.188 A  
HETATM   17  C   UNL     1      -7.540  12.734  66.659  1.00  0.00     0.518 C  
HETATM   18  C   UNL     1      -7.318  11.304  66.345  1.00  0.00    -0.058 C  
HETATM   19  N   UNL     1      -6.916   9.979  66.031  1.00  0.00    -0.103 NA 
HETATM   20  C   UNL     1      -6.351   9.768  64.702  1.00  0.00    -0.106 C  
ENDROOT
BRANCH   1  21
HETATM   21  O   UNL     1     -11.560  10.004  67.804  1.00  0.00    -0.141 OA 
BRANCH  21  22
HETATM   22  C   UNL     1     -11.077  10.697  68.880  1.00  0.00    -0.261 C  
HETATM   23  C   UNL     1     -11.803  11.722  71.045  1.00  0.00     0.262 C  
HETATM   24  C   UNL     1     -12.016  10.541  70.087  1.00  0.00    -0.316 C  
HETATM   25  O   UNL     1     -10.061  11.394  68.870  1.00  0.00    -0.204 OA 
HETATM   26  H   UNL     1     -13.958  10.433  70.393  1.00  0.00     0.000 HD 
HETATM   27  C   UNL     1     -11.714   9.190  70.779  1.00  0.00    -0.308 C  
HETATM   28  O   UNL     1     -13.378  10.530  69.648  1.00  0.00     0.167 OA 
BRANCH  23  29
HETATM   29  C   UNL     1     -12.092  13.063  70.386  1.00  0.00    -0.314 C  
HETATM   30  O   UNL     1     -11.952  13.339  69.199  1.00  0.00    -0.309 OA 
BRANCH  29  31
HETATM   31  O   UNL     1     -12.558  13.918  71.348  1.00  0.00    -0.344 OA 
HETATM   32  C   UNL     1     -13.796  14.534  71.000  1.00  0.00    -0.126 C  
ENDBRANCH  29  31
ENDBRANCH  23  29
BRANCH  27  33
HETATM   33  C   UNL     1     -12.538   8.854  72.041  1.00  0.00    -0.460 C  
BRANCH  33  34
HETATM   34  C   UNL     1     -12.032   7.637  72.832  1.00  0.00    -0.018 C  
HETATM   35  C   UNL     1     -13.731   5.982  71.886  1.00  0.00     0.928 C  
HETATM   36  O   UNL     1     -11.575   6.259  70.899  1.00  0.00    -0.331 OA 
HETATM   37  C   UNL     1     -12.257   6.271  72.155  1.00  0.00    -0.203 C  
HETATM   38  C   UNL     1     -11.660   5.159  73.028  1.00  0.00    -0.301 C  
HETATM   39  H   UNL     1     -11.713   5.417  70.481  1.00  0.00     0.000 HD 
ENDBRANCH  33  34
ENDBRANCH  27  33
ENDBRANCH  21  22
ENDBRANCH   1  21
BRANCH   3  40
HETATM   40  O   UNL     1      -9.625   8.327  69.349  1.00  0.00    -0.168 OA 
HETATM   41  C   UNL     1      -8.485   8.156  70.171  1.00  0.00    -0.127 C  
ENDBRANCH   3  40
TORSDOF 7
ENDMDL
MODEL      146
REMARK 921   NORMALIZED FREE ENERGY PREDICTED BY IDOCK:   -1.12 KCAL/MOL
REMARK 922        TOTAL FREE ENERGY PREDICTED BY IDOCK:   -3.45 KCAL/MOL
REMARK 923 INTER-LIGAND FREE ENERGY PREDICTED BY IDOCK:   -2.73 KCAL/MOL
REMARK 924 INTRA-LIGAND FREE ENERGY PREDICTED BY IDOCK:   -0.71 KCAL/MOL
REMARK 927      BINDING AFFINITY PREDICTED BY RF-SCORE:    0.00 PKD
ROOT
HETATM    1  C   UNL     1     -11.363  11.719  70.649  1.00  0.00     0.817 C  
HETATM    2  O   UNL     1      -9.194  15.708  65.731  1.00  0.00    -0.321 OA 
HETATM    3  C   UNL     1     -12.834  11.448  70.878  1.00  0.00    -0.232 C  
HETATM    4  C   UNL     1     -11.242  13.311  70.631  1.00  0.00     1.089 C  
HETATM    5  C   UNL     1      -7.963  16.124  66.346  1.00  0.00    -0.217 C  
HETATM    6  C   UNL     1     -13.452  12.490  71.434  1.00  0.00     0.116 C  
HETATM    7  C   UNL     1     -12.582  13.708  71.588  1.00  0.00    -0.250 C  
HETATM    8  C   UNL     1     -10.780  14.010  69.217  1.00  0.00    -0.144 A  
HETATM    9  C   UNL     1      -9.418  14.372  69.072  1.00  0.00    -0.042 A  
HETATM   10  O   UNL     1      -7.770  15.559  67.667  1.00  0.00    -0.133 OA 
HETATM   11  C   UNL     1      -8.981  14.972  67.887  1.00  0.00    -0.175 A  
HETATM   12  C   UNL     1     -12.240  13.896  73.070  1.00  0.00     0.512 C  
HETATM   13  C   UNL     1      -9.795  15.096  66.788  1.00  0.00    -0.241 A  
HETATM   14  C   UNL     1     -11.134  14.808  66.854  1.00  0.00    -0.339 A  
HETATM   15  C   UNL     1     -12.763  15.276  73.448  1.00  0.00    -0.661 C  
HETATM   16  C   UNL     1     -11.642  14.505  68.129  1.00  0.00    -0.359 A  
HETATM   17  C   UNL     1     -12.895  15.436  68.456  1.00  0.00     1.371 C  
HETATM   18  C   UNL     1     -13.125  15.074  69.873  1.00  0.00     0.252 C  
HETATM   19  N   UNL     1     -13.481  14.867  71.232  1.00  0.00    -0.406 NA 
HETATM   20  C   UNL     1     -13.184  15.957  72.155  1.00  0.00    -0.335 C  
ENDROOT
BRANCH   1  21
HETATM   21  O   UNL     1     -10.835  11.017  69.530  1.00  0.00    -0.242 OA 
BRANCH  21  22
HETATM   22  C   UNL     1     -10.058   9.955  69.907  1.00  0.00    -0.257 C  
HETATM   23  C   UNL     1      -9.685   7.527  69.434  1.00  0.00    -0.164 C  
HETATM   24  C   UNL     1     -10.042   8.883  68.807  1.00  0.00    -0.200 C  
HETATM   25  O   UNL     1      -9.493   9.849  70.997  1.00  0.00     0.036 OA 
HETATM   26  H   UNL     1     -11.323   8.130  67.514  1.00  0.00     0.000 HD 
HETATM   27  C   UNL     1      -9.014   9.294  67.726  1.00  0.00    -0.131 C  
HETATM   28  O   UNL     1     -11.332   8.793  68.194  1.00  0.00     0.377 OA 
BRANCH  23  29
HETATM   29  C   UNL     1     -10.682   7.101  70.502  1.00  0.00    -0.238 C  
HETATM   30  O   UNL     1     -11.897   7.007  70.372  1.00  0.00    -0.306 OA 
BRANCH  29  31
HETATM   31  O   UNL     1      -9.985   6.818  71.646  1.00  0.00    -0.174 OA 
HETATM   32  C   UNL     1     -10.729   6.038  72.580  1.00  0.00    -0.227 C  
ENDBRANCH  29  31
ENDBRANCH  23  29
BRANCH  27  33
HETATM   33  C   UNL     1      -8.825   8.326  66.539  1.00  0.00    -0.175 C  
BRANCH  33  34
HETATM   34  C   UNL     1      -8.366   6.912  66.931  1.00  0.00    -0.114 C  
HETATM   35  C   UNL     1     -10.631   5.790  66.568  1.00  0.00    -0.294 C  
HETATM   36  O   UNL     1      -8.985   5.865  64.841  1.00  0.00    -0.366 OA 
HETATM   37  C   UNL     1      -9.138   5.759  66.259  1.00  0.00    -0.147 C  
HETATM   38  C   UNL     1      -8.543   4.416  66.700  1.00  0.00    -0.111 C  
HETATM   39  H   UNL     1      -9.460   5.154  64.427  1.00  0.00     0.000 HD 
ENDBRANCH  33  34
ENDBRANCH  27  33
ENDBRANCH  21  22
ENDBRANCH   1  21
BRANCH   3  40
HETATM   40  O   UNL     1     -13.554  10.325  70.564  1.00  0.00    -0.069 OA 
HETATM   41  C   UNL     1     -13.875   9.378  71.567  1.00  0.00    -0.231 C  
ENDBRANCH   3  40
TORSDOF 7
ENDMDL
MODEL      147
REMARK 921   NORMALIZED FREE ENERGY PREDICTED BY IDOCK:   -1.03 KCAL/MOL
REMARK 922        TOTAL FREE ENERGY PREDICTED BY IDOCK:   -3.31 KCAL/MOL
REMARK 923 INTER-LIGAND FREE ENERGY PREDICTED BY IDOCK:   -7.55 KCAL/MOL
REMARK 924 INTRA-LIGAND FREE ENERGY PREDICTED BY IDOCK:    4.23 KCAL/MOL
REMARK 927      BINDING AFFINITY PREDICTED BY RF-SCORE:    0.00 PKD
ROOT
HETATM    1  C   UNL     1      -9.060   9.162  70.196  1.00  0.00    -0.206 C  
HETATM    2  O   UNL     1      -8.131   2.706  68.691  1.00  0.00    -0.053 OA 
HETATM    3  C   UNL     1     -10.375   9.867  69.944  1.00  0.00    -0.258 C  
HETATM    4  C   UNL     1      -8.675   8.507  68.793  1.00  0.00    -0.139 C  
HETATM    5  C   UNL     1      -6.709   2.756  68.488  1.00  0.00    -0.037 C  
HETATM    6  C   UNL     1     -10.559  10.130  68.650  1.00  0.00    -0.236 C  
HETATM    7  C   UNL     1      -9.490   9.566  67.752  1.00  0.00    -0.131 C  
HETATM    8  C   UNL     1      -8.636   6.865  68.719  1.00  0.00    -0.124 A  
HETATM    9  C   UNL     1      -7.375   6.228  68.832  1.00  0.00    -0.086 A  
HETATM   10  O   UNL     1      -6.158   4.086  68.659  1.00  0.00    -0.029 OA 
HETATM   11  C   UNL     1      -7.294   4.834  68.772  1.00  0.00    -0.061 A  
HETATM   12  C   UNL     1      -8.613  10.711  67.235  1.00  0.00    -0.126 C  
HETATM   13  C   UNL     1      -8.412   4.037  68.752  1.00  0.00    -0.082 A  
HETATM   14  C   UNL     1      -9.665   4.569  68.602  1.00  0.00    -0.203 A  
HETATM   15  C   UNL     1      -8.714  10.662  65.716  1.00  0.00    -0.192 C  
HETATM   16  C   UNL     1      -9.729   5.950  68.345  1.00  0.00    -0.151 A  
HETATM   17  C   UNL     1     -10.596   6.225  67.035  1.00  0.00    -0.386 C  
HETATM   18  C   UNL     1     -10.363   7.678  66.870  1.00  0.00    -0.318 C  
HETATM   19  N   UNL     1     -10.238   9.054  66.545  1.00  0.00    -0.273 NA 
HETATM   20  C   UNL     1      -9.443   9.375  65.364  1.00  0.00    -0.253 C  
ENDROOT
BRANCH   1  21
HETATM   21  O   UNL     1      -9.101   8.296  71.325  1.00  0.00    -0.140 OA 
BRANCH  21  22
HETATM   22  C   UNL     1     -10.328   8.295  71.930  1.00  0.00    -0.255 C  
HETATM   23  C   UNL     1     -12.226   6.776  72.523  1.00  0.00     0.047 C  
HETATM   24  C   UNL     1     -10.700   6.877  72.392  1.00  0.00    -0.226 C  
HETATM   25  O   UNL     1     -11.058   9.281  72.043  1.00  0.00    -0.331 OA 
HETATM   26  H   UNL     1     -10.474   5.040  71.719  1.00  0.00     0.000 HD 
HETATM   27  C   UNL     1      -9.996   6.594  73.741  1.00  0.00    -0.297 C  
HETATM   28  O   UNL     1     -10.244   5.916  71.434  1.00  0.00    -0.198 OA 
BRANCH  23  29
HETATM   29  C   UNL     1     -12.941   7.052  71.208  1.00  0.00    -0.297 C  
HETATM   30  O   UNL     1     -12.471   6.934  70.082  1.00  0.00    -0.039 OA 
BRANCH  29  31
HETATM   31  O   UNL     1     -14.221   7.444  71.494  1.00  0.00    -0.437 OA 
HETATM   32  C   UNL     1     -14.284   8.634  72.276  1.00  0.00    -0.417 C  
ENDBRANCH  29  31
ENDBRANCH  23  29
BRANCH  27  33
HETATM   33  C   UNL     1     -10.266   5.221  74.393  1.00  0.00    -0.299 C  
BRANCH  33  34
HETATM   34  C   UNL     1      -9.100   4.224  74.295  1.00  0.00    -0.105 C  
HETATM   35  C   UNL     1     -10.556   2.133  74.123  1.00  0.00    -0.210 C  
HETATM   36  O   UNL     1      -9.771   3.271  72.177  1.00  0.00    -0.139 OA 
HETATM   37  C   UNL     1      -9.405   2.929  73.516  1.00  0.00    -0.084 C  
HETATM   38  C   UNL     1      -8.145   2.057  73.455  1.00  0.00    -0.050 C  
HETATM   39  H   UNL     1      -9.959   2.473  71.696  1.00  0.00     0.000 HD 
ENDBRANCH  33  34
ENDBRANCH  27  33
ENDBRANCH  21  22
ENDBRANCH   1  21
BRANCH   3  40
HETATM   40  O   UNL     1     -11.345  10.213  70.848  1.00  0.00    -0.332 OA 
HETATM   41  C   UNL     1     -12.215  11.299  70.583  1.00  0.00    -0.393 C  
ENDBRANCH   3  40
TORSDOF 7
ENDMDL
MODEL      148
REMARK 921   NORMALIZED FREE ENERGY PREDICTED BY IDOCK:   -0.95 KCAL/MOL
REMARK 922        TOTAL FREE ENERGY PREDICTED BY IDOCK:   -3.21 KCAL/MOL
REMARK 923 INTER-LIGAND FREE ENERGY PREDICTED BY IDOCK:   -4.09 KCAL/MOL
REMARK 924 INTRA-LIGAND FREE ENERGY PREDICTED BY IDOCK:    0.88 KCAL/MOL
REMARK 927      BINDING AFFINITY PREDICTED BY RF-SCORE:    0.00 PKD
ROOT
HETATM    1  C   UNL     1      -8.780  10.836  67.013  1.00  0.00    -0.136 C  
HETATM    2  O   UNL     1     -12.188   8.264  72.168  1.00  0.00    -0.325 OA 
HETATM    3  C   UNL     1      -8.317  12.277  66.991  1.00  0.00    -0.168 C  
HETATM    4  C   UNL     1     -10.344  10.918  67.319  1.00  0.00    -0.255 C  
HETATM    5  C   UNL     1     -12.894   7.242  71.445  1.00  0.00    -0.382 C  
HETATM    6  C   UNL     1      -9.323  13.120  66.762  1.00  0.00    -0.244 C  
HETATM    7  C   UNL     1     -10.675  12.460  66.701  1.00  0.00    -0.235 C  
HETATM    8  C   UNL     1     -10.862  10.279  68.742  1.00  0.00    -0.265 A  
HETATM    9  C   UNL     1     -11.410   8.972  68.720  1.00  0.00     0.447 A  
HETATM   10  O   UNL     1     -12.596   7.243  70.026  1.00  0.00     0.406 OA 
HETATM   11  C   UNL     1     -11.866   8.390  69.906  1.00  0.00     0.581 A  
HETATM   12  C   UNL     1     -11.159  12.444  65.247  1.00  0.00    -0.342 C  
HETATM   13  C   UNL     1     -11.672   8.980  71.131  1.00  0.00    -0.302 A  
HETATM   14  C   UNL     1     -11.188  10.257  71.240  1.00  0.00     0.017 A  
HETATM   15  C   UNL     1     -12.481  13.203  65.239  1.00  0.00    -0.550 C  
HETATM   16  C   UNL     1     -11.023  10.965  70.036  1.00  0.00    -0.221 A  
HETATM   17  C   UNL     1     -11.782  12.365  70.116  1.00  0.00    -0.266 C  
HETATM   18  C   UNL     1     -11.629  12.823  68.716  1.00  0.00    -0.312 C  
HETATM   19  N   UNL     1     -11.597  13.410  67.423  1.00  0.00    -0.333 NA 
HETATM   20  C   UNL     1     -12.859  13.443  66.692  1.00  0.00     0.611 C  
ENDROOT
BRANCH   1  21
HETATM   21  O   UNL     1      -7.995  10.012  67.868  1.00  0.00    -0.103 OA 
BRANCH  21  22
HETATM   22  C   UNL     1      -7.907   8.727  67.406  1.00  0.00    -0.098 C  
HETATM   23  C   UNL     1      -6.431   6.708  67.484  1.00  0.00    -0.045 C  
HETATM   24  C   UNL     1      -6.962   7.901  68.293  1.00  0.00    -0.073 C  
HETATM   25  O   UNL     1      -8.463   8.304  66.392  1.00  0.00    -0.112 OA 
HETATM   26  H   UNL     1      -5.276   8.198  69.267  1.00  0.00     0.000 HD 
HETATM   27  C   UNL     1      -7.740   7.433  69.546  1.00  0.00    -0.108 C  
HETATM   28  O   UNL     1      -5.860   8.709  68.719  1.00  0.00    -0.042 OA 
BRANCH  23  29
HETATM   29  C   UNL     1      -5.663   7.144  66.244  1.00  0.00    -0.031 C  
HETATM   30  O   UNL     1      -5.131   6.409  65.419  1.00  0.00    -0.013 OA 
BRANCH  29  31
HETATM   31  O   UNL     1      -5.681   8.512  66.191  1.00  0.00    -0.042 OA 
HETATM   32  C   UNL     1      -5.860   9.021  64.871  1.00  0.00    -0.063 C  
ENDBRANCH  29  31
ENDBRANCH  23  29
BRANCH  27  33
HETATM   33  C   UNL     1      -6.969   6.556  70.557  1.00  0.00    -0.064 C  
BRANCH  33  34
HETATM   34  C   UNL     1      -7.297   6.839  72.032  1.00  0.00    -0.088 C  
HETATM   35  C   UNL     1      -5.886   8.960  72.214  1.00  0.00    -0.074 C  
HETATM   36  O   UNL     1      -8.206   9.049  71.662  1.00  0.00    -0.330 OA 
HETATM   37  C   UNL     1      -7.254   8.324  72.443  1.00  0.00    -0.102 C  
HETATM   38  C   UNL     1      -7.650   8.462  73.919  1.00  0.00    -0.178 C  
HETATM   39  H   UNL     1      -8.180   9.964  71.915  1.00  0.00     0.000 HD 
ENDBRANCH  33  34
ENDBRANCH  27  33
ENDBRANCH  21  22
ENDBRANCH   1  21
BRANCH   3  40
HETATM   40  O   UNL     1      -7.056  12.771  67.200  1.00  0.00    -0.116 OA 
HETATM   41  C   UNL     1      -6.869  14.131  67.549  1.00  0.00    -0.130 C  
ENDBRANCH   3  40
TORSDOF 7
ENDMDL
MODEL      149
REMARK 921   NORMALIZED FREE ENERGY PREDICTED BY IDOCK:   -0.75 KCAL/MOL
REMARK 922        TOTAL FREE ENERGY PREDICTED BY IDOCK:   -2.92 KCAL/MOL
REMARK 923 INTER-LIGAND FREE ENERGY PREDICTED BY IDOCK:   -6.63 KCAL/MOL
REMARK 924 INTRA-LIGAND FREE ENERGY PREDICTED BY IDOCK:    3.71 KCAL/MOL
REMARK 927      BINDING AFFINITY PREDICTED BY RF-SCORE:    0.00 PKD
ROOT
HETATM    1  C   UNL     1      -9.806   5.943  68.653  1.00  0.00    -0.136 C  
HETATM    2  O   UNL     1      -9.346  11.986  65.812  1.00  0.00    -0.215 OA 
HETATM    3  C   UNL     1      -8.918   5.524  69.805  1.00  0.00    -0.125 C  
HETATM    4  C   UNL     1      -8.795   6.444  67.524  1.00  0.00    -0.111 C  
HETATM    5  C   UNL     1      -9.833  11.627  64.509  1.00  0.00    -0.224 C  
HETATM    6  C   UNL     1      -7.676   5.255  69.405  1.00  0.00    -0.080 C  
HETATM    7  C   UNL     1      -7.425   5.542  67.949  1.00  0.00    -0.080 C  
HETATM    8  C   UNL     1      -8.857   8.035  67.116  1.00  0.00    -0.138 A  
HETATM    9  C   UNL     1      -9.592   8.393  65.958  1.00  0.00    -0.196 A  
HETATM   10  O   UNL     1     -10.154  10.218  64.392  1.00  0.00    -0.324 OA 
HETATM   11  C   UNL     1      -9.670   9.734  65.573  1.00  0.00    -0.312 A  
HETATM   12  C   UNL     1      -7.306   4.217  67.189  1.00  0.00    -0.069 C  
HETATM   13  C   UNL     1      -9.180  10.750  66.356  1.00  0.00    -0.170 A  
HETATM   14  C   UNL     1      -8.423  10.491  67.469  1.00  0.00    -0.118 A  
HETATM   15  C   UNL     1      -5.925   4.225  66.547  1.00  0.00    -0.027 C  
HETATM   16  C   UNL     1      -8.076   9.146  67.687  1.00  0.00    -0.104 A  
HETATM   17  C   UNL     1      -6.497   9.011  67.867  1.00  0.00    -0.057 C  
HETATM   18  C   UNL     1      -6.365   7.536  67.889  1.00  0.00    -0.053 C  
HETATM   19  N   UNL     1      -6.046   6.152  67.913  1.00  0.00    -0.017 NA 
HETATM   20  C   UNL     1      -5.359   5.623  66.739  1.00  0.00    -0.008 C  
ENDROOT
BRANCH   1  21
HETATM   21  O   UNL     1     -10.837   6.842  69.043  1.00  0.00    -0.236 OA 
BRANCH  21  22
HETATM   22  C   UNL     1     -10.870   7.033  70.398  1.00  0.00    -0.254 C  
HETATM   23  C   UNL     1     -10.315   8.723  72.157  1.00  0.00    -0.378 C  
HETATM   24  C   UNL     1     -10.847   8.534  70.730  1.00  0.00    -0.231 C  
HETATM   25  O   UNL     1     -10.864   6.131  71.236  1.00  0.00    -0.245 OA 
HETATM   26  H   UNL     1      -9.978  10.151  70.018  1.00  0.00     0.000 HD 
HETATM   27  C   UNL     1     -12.281   9.097  70.581  1.00  0.00    -0.058 C  
HETATM   28  O   UNL     1      -9.992   9.224  69.813  1.00  0.00    -0.180 OA 
BRANCH  23  29
HETATM   29  C   UNL     1      -8.905   8.175  72.328  1.00  0.00    -0.186 C  
HETATM   30  O   UNL     1      -7.983   8.268  71.526  1.00  0.00    -0.102 OA 
BRANCH  29  31
HETATM   31  O   UNL     1      -8.831   7.567  73.553  1.00  0.00    -0.165 OA 
HETATM   32  C   UNL     1      -8.018   8.276  74.485  1.00  0.00    -0.218 C  
ENDBRANCH  29  31
ENDBRANCH  23  29
BRANCH  27  33
HETATM   33  C   UNL     1     -12.478  10.594  70.902  1.00  0.00    -0.495 C  
BRANCH  33  34
HETATM   34  C   UNL     1     -12.713  11.488  69.673  1.00  0.00     0.225 C  
HETATM   35  C   UNL     1     -11.992  13.668  70.792  1.00  0.00    -0.286 C  
HETATM   36  O   UNL     1     -10.451  12.333  69.549  1.00  0.00    -0.384 OA 
HETATM   37  C   UNL     1     -11.821  12.742  69.591  1.00  0.00    -0.317 C  
HETATM   38  C   UNL     1     -12.126  13.507  68.297  1.00  0.00    -0.295 C  
HETATM   39  H   UNL     1      -9.901  13.106  69.498  1.00  0.00     0.000 HD 
ENDBRANCH  33  34
ENDBRANCH  27  33
ENDBRANCH  21  22
ENDBRANCH   1  21
BRANCH   3  40
HETATM   40  O   UNL     1      -9.235   5.430  71.135  1.00  0.00    -0.142 OA 
HETATM   41  C   UNL     1      -8.521   4.545  71.979  1.00  0.00    -0.113 C  
ENDBRANCH   3  40
TORSDOF 7
ENDMDL
MODEL      150
REMARK 921   NORMALIZED FREE ENERGY PREDICTED BY IDOCK:   -0.70 KCAL/MOL
REMARK 922        TOTAL FREE ENERGY PREDICTED BY IDOCK:   -2.85 KCAL/MOL
REMARK 923 INTER-LIGAND FREE ENERGY PREDICTED BY IDOCK:   -4.60 KCAL/MOL
REMARK 924 INTRA-LIGAND FREE ENERGY PREDICTED BY IDOCK:    1.75 KCAL/MOL
REMARK 927      BINDING AFFINITY PREDICTED BY RF-SCORE:    0.00 PKD
ROOT
HETATM    1  C   UNL     1      -9.396   8.797  72.059  1.00  0.00    -0.252 C  
HETATM    2  O   UNL     1      -9.261   7.963  65.420  1.00  0.00     0.083 OA 
HETATM    3  C   UNL     1      -9.763   7.674  73.006  1.00  0.00    -0.244 C  
HETATM    4  C   UNL     1     -10.604   8.860  71.018  1.00  0.00    -0.315 C  
HETATM    5  C   UNL     1      -9.530   9.324  65.046  1.00  0.00    -0.049 C  
HETATM    6  C   UNL     1     -11.072   7.424  72.998  1.00  0.00    -0.390 C  
HETATM    7  C   UNL     1     -11.843   8.221  71.981  1.00  0.00    -0.347 C  
HETATM    8  C   UNL     1     -10.262   8.491  69.453  1.00  0.00    -0.211 A  
HETATM    9  C   UNL     1     -10.046   9.563  68.552  1.00  0.00    -0.198 A  
HETATM   10  O   UNL     1      -9.724  10.197  66.187  1.00  0.00    -0.192 OA 
HETATM   11  C   UNL     1      -9.755   9.296  67.211  1.00  0.00    -0.167 A  
HETATM   12  C   UNL     1     -12.669   9.291  72.703  1.00  0.00    -0.206 C  
HETATM   13  C   UNL     1      -9.525   8.022  66.753  1.00  0.00    -0.202 A  
HETATM   14  C   UNL     1      -9.752   6.927  67.546  1.00  0.00    -0.162 A  
HETATM   15  C   UNL     1     -14.121   9.021  72.329  1.00  0.00    -0.485 C  
HETATM   16  C   UNL     1     -10.346   7.175  68.795  1.00  0.00    -0.200 A  
HETATM   17  C   UNL     1     -11.645   6.267  68.974  1.00  0.00     0.059 C  
HETATM   18  C   UNL     1     -12.181   6.827  70.235  1.00  0.00    -0.038 C  
HETATM   19  N   UNL     1     -12.848   7.248  71.416  1.00  0.00    -0.382 NA 
HETATM   20  C   UNL     1     -14.104   7.968  71.232  1.00  0.00    -0.226 C  
ENDROOT
BRANCH   1  21
HETATM   21  O   UNL     1      -8.085   8.667  71.522  1.00  0.00    -0.132 OA 
BRANCH  21  22
HETATM   22  C   UNL     1      -7.758   9.712  70.701  1.00  0.00    -0.068 C  
HETATM   23  C   UNL     1      -5.799  10.793  69.582  1.00  0.00    -0.052 C  
HETATM   24  C   UNL     1      -6.411   9.452  70.009  1.00  0.00    -0.057 C  
HETATM   25  O   UNL     1      -8.423  10.741  70.574  1.00  0.00     1.005 OA 
HETATM   26  H   UNL     1      -4.684   8.632  70.484  1.00  0.00     0.000 HD 
HETATM   27  C   UNL     1      -6.649   8.525  68.792  1.00  0.00    -0.054 C  
HETATM   28  O   UNL     1      -5.517   8.793  70.912  1.00  0.00    -0.028 OA 
BRANCH  23  29
HETATM   29  C   UNL     1      -5.558  11.723  70.762  1.00  0.00    -0.115 C  
HETATM   30  O   UNL     1      -5.606  11.423  71.950  1.00  0.00    -0.253 OA 
BRANCH  29  31
HETATM   31  O   UNL     1      -5.256  12.966  70.271  1.00  0.00    -0.091 OA 
HETATM   32  C   UNL     1      -5.555  14.019  71.184  1.00  0.00    -0.212 C  
ENDBRANCH  29  31
ENDBRANCH  23  29
BRANCH  27  33
HETATM   33  C   UNL     1      -5.413   8.165  67.939  1.00  0.00    -0.034 C  
BRANCH  33  34
HETATM   34  C   UNL     1      -5.228   6.660  67.683  1.00  0.00    -0.008 C  
HETATM   35  C   UNL     1      -5.160   5.980  70.143  1.00  0.00    -0.012 C  
HETATM   36  O   UNL     1      -7.197   5.960  68.898  1.00  0.00    -0.077 OA 
HETATM   37  C   UNL     1      -5.791   5.732  68.776  1.00  0.00    -0.019 C  
HETATM   38  C   UNL     1      -5.582   4.268  68.366  1.00  0.00    -0.016 C  
HETATM   39  H   UNL     1      -7.544   5.387  69.572  1.00  0.00     0.000 HD 
ENDBRANCH  33  34
ENDBRANCH  27  33
ENDBRANCH  21  22
ENDBRANCH   1  21
BRANCH   3  40
HETATM   40  O   UNL     1      -8.935   6.919  73.795  1.00  0.00    -0.140 OA 
HETATM   41  C   UNL     1      -8.667   5.569  73.463  1.00  0.00    -0.117 C  
ENDBRANCH   3  40
TORSDOF 7
ENDMDL
MODEL      151
REMARK 921   NORMALIZED FREE ENERGY PREDICTED BY IDOCK:    0.00 KCAL/MOL
REMARK 922        TOTAL FREE ENERGY PREDICTED BY IDOCK:   -1.86 KCAL/MOL
REMARK 923 INTER-LIGAND FREE ENERGY PREDICTED BY IDOCK:   -2.37 KCAL/MOL
REMARK 924 INTRA-LIGAND FREE ENERGY PREDICTED BY IDOCK:    0.51 KCAL/MOL
REMARK 927      BINDING AFFINITY PREDICTED BY RF-SCORE:    0.00 PKD
ROOT
HETATM    1  C   UNL     1      -8.151   7.471  69.037  1.00  0.00    -0.127 C  
HETATM    2  O   UNL     1      -6.062  13.795  69.698  1.00  0.00    -0.105 OA 
HETATM    3  C   UNL     1      -7.241   6.369  68.536  1.00  0.00    -0.085 C  
HETATM    4  C   UNL     1      -8.053   8.614  67.928  1.00  0.00    -0.108 C  
HETATM    5  C   UNL     1      -7.335  14.440  69.529  1.00  0.00    -0.011 C  
HETATM    6  C   UNL     1      -7.037   6.452  67.222  1.00  0.00    -0.073 C  
HETATM    7  C   UNL     1      -7.650   7.668  66.581  1.00  0.00    -0.097 C  
HETATM    8  C   UNL     1      -7.381  10.043  68.383  1.00  0.00    -0.077 A  
HETATM    9  C   UNL     1      -8.255  11.104  68.728  1.00  0.00    -0.135 A  
HETATM   10  O   UNL     1      -8.415  13.506  69.282  1.00  0.00     0.395 OA 
HETATM   11  C   UNL     1      -7.728  12.338  69.119  1.00  0.00     0.265 A  
HETATM   12  C   UNL     1      -8.863   7.239  65.750  1.00  0.00    -0.095 C  
HETATM   13  C   UNL     1      -6.383  12.527  69.324  1.00  0.00    -0.110 A  
HETATM   14  C   UNL     1      -5.467  11.568  68.977  1.00  0.00    -0.046 A  
HETATM   15  C   UNL     1      -8.574   7.689  64.324  1.00  0.00     0.323 C  
HETATM   16  C   UNL     1      -5.968  10.448  68.291  1.00  0.00    -0.040 A  
HETATM   17  C   UNL     1      -5.153  10.224  66.939  1.00  0.00    -0.040 C  
HETATM   18  C   UNL     1      -5.960   9.146  66.325  1.00  0.00    -0.059 C  
HETATM   19  N   UNL     1      -6.620   8.132  65.581  1.00  0.00    -0.049 NA 
HETATM   20  C   UNL     1      -7.331   8.563  64.382  1.00  0.00    -0.097 C  
ENDROOT
BRANCH   1  21
HETATM   21  O   UNL     1      -7.878   7.849  70.382  1.00  0.00    -0.086 OA 
BRANCH  21  22
HETATM   22  C   UNL     1      -8.958   8.441  70.979  1.00  0.00    -0.165 C  
HETATM   23  C   UNL     1     -11.436   8.208  71.234  1.00  0.00    -0.299 C  
HETATM   24  C   UNL     1     -10.113   7.438  71.120  1.00  0.00    -0.186 C  
HETATM   25  O   UNL     1      -9.017   9.627  71.311  1.00  0.00    -0.128 OA 
HETATM   26  H   UNL     1     -10.876   5.965  70.057  1.00  0.00     0.000 HD 
HETATM   27  C   UNL     1      -9.860   6.560  72.369  1.00  0.00    -0.169 C  
HETATM   28  O   UNL     1     -10.162   6.586  69.971  1.00  0.00    -0.177 OA 
BRANCH  23  29
HETATM   29  C   UNL     1     -11.707   9.081  70.017  1.00  0.00     0.192 C  
HETATM   30  O   UNL     1     -11.239   8.932  68.893  1.00  0.00     0.105 OA 
BRANCH  29  31
HETATM   31  O   UNL     1     -12.586  10.064  70.385  1.00  0.00    -0.197 OA 
HETATM   32  C   UNL     1     -11.945  11.220  70.921  1.00  0.00    -0.214 C  
ENDBRANCH  29  31
ENDBRANCH  23  29
BRANCH  27  33
HETATM   33  C   UNL     1     -10.930   5.499  72.704  1.00  0.00    -0.320 C  
BRANCH  33  34
HETATM   34  C   UNL     1     -10.817   4.196  71.896  1.00  0.00     0.350 C  
HETATM   35  C   UNL     1      -8.724   3.334  73.080  1.00  0.00    -0.085 C  
HETATM   36  O   UNL     1     -10.913   2.715  73.805  1.00  0.00    -0.183 OA 
HETATM   37  C   UNL     1     -10.149   3.020  72.635  1.00  0.00    -0.158 C  
HETATM   38  C   UNL     1     -10.150   1.779  71.733  1.00  0.00    -0.195 C  
HETATM   39  H   UNL     1     -10.502   1.990  74.260  1.00  0.00     0.000 HD 
ENDBRANCH  33  34
ENDBRANCH  27  33
ENDBRANCH  21  22
ENDBRANCH   1  21
BRANCH   3  40
HETATM   40  O   UNL     1      -6.624   5.380  69.256  1.00  0.00    -0.043 OA 
HETATM   41  C   UNL     1      -6.583   4.054  68.759  1.00  0.00    -0.045 C  
ENDBRANCH   3  40
TORSDOF 7
ENDMDL
MODEL      152
REMARK 921   NORMALIZED FREE ENERGY PREDICTED BY IDOCK:    0.01 KCAL/MOL
REMARK 922        TOTAL FREE ENERGY PREDICTED BY IDOCK:   -1.85 KCAL/MOL
REMARK 923 INTER-LIGAND FREE ENERGY PREDICTED BY IDOCK:   -6.59 KCAL/MOL
REMARK 924 INTRA-LIGAND FREE ENERGY PREDICTED BY IDOCK:    4.74 KCAL/MOL
REMARK 927      BINDING AFFINITY PREDICTED BY RF-SCORE:    0.00 PKD
ROOT
HETATM    1  C   UNL     1     -12.280  10.486  69.338  1.00  0.00    -0.023 C  
HETATM    2  O   UNL     1      -7.261   9.702  64.980  1.00  0.00    -0.105 OA 
HETATM    3  C   UNL     1     -12.040  10.849  70.788  1.00  0.00    -0.368 C  
HETATM    4  C   UNL     1     -11.366   9.203  69.084  1.00  0.00     0.275 C  
HETATM    5  C   UNL     1      -7.918   8.788  64.087  1.00  0.00    -0.154 C  
HETATM    6  C   UNL     1     -11.576   9.815  71.489  1.00  0.00    -0.424 C  
HETATM    7  C   UNL     1     -11.294   8.590  70.661  1.00  0.00    -0.241 C  
HETATM    8  C   UNL     1     -10.128   9.366  68.016  1.00  0.00    -0.230 A  
HETATM    9  C   UNL     1     -10.330   8.903  66.692  1.00  0.00    -0.294 A  
HETATM   10  O   UNL     1      -9.262   8.448  64.512  1.00  0.00     0.420 OA 
HETATM   11  C   UNL     1      -9.303   9.019  65.751  1.00  0.00    -0.236 A  
HETATM   12  C   UNL     1     -12.360   7.529  70.955  1.00  0.00    -0.198 C  
HETATM   13  C   UNL     1      -8.141   9.701  66.017  1.00  0.00    -0.112 A  
HETATM   14  C   UNL     1      -7.848  10.144  67.281  1.00  0.00    -0.103 A  
HETATM   15  C   UNL     1     -11.605   6.308  71.467  1.00  0.00    -0.345 C  
HETATM   16  C   UNL     1      -8.735   9.753  68.299  1.00  0.00    -0.119 A  
HETATM   17  C   UNL     1      -7.932   9.058  69.489  1.00  0.00    -0.099 C  
HETATM   18  C   UNL     1      -9.061   8.581  70.319  1.00  0.00    -0.154 C  
HETATM   19  N   UNL     1     -10.008   8.037  71.226  1.00  0.00    -0.172 NA 
HETATM   20  C   UNL     1     -10.126   6.582  71.249  1.00  0.00    -0.186 C  
ENDROOT
BRANCH   1  21
HETATM   21  O   UNL     1     -12.109  11.587  68.453  1.00  0.00    -0.556 OA 
BRANCH  21  22
HETATM   22  C   UNL     1     -10.950  12.272  68.700  1.00  0.00    -0.239 C  
HETATM   23  C   UNL     1      -9.708  14.339  68.031  1.00  0.00    -0.223 C  
HETATM   24  C   UNL     1     -11.100  13.747  68.296  1.00  0.00    -0.255 C  
HETATM   25  O   UNL     1      -9.914  11.768  69.135  1.00  0.00    -0.013 OA 
HETATM   26  H   UNL     1     -11.982  14.762  66.857  1.00  0.00     0.000 HD 
HETATM   27  C   UNL     1     -11.829  14.502  69.434  1.00  0.00    -0.367 C  
HETATM   28  O   UNL     1     -11.890  13.850  67.106  1.00  0.00    -0.367 OA 
BRANCH  23  29
HETATM   29  C   UNL     1      -8.971  13.611  66.917  1.00  0.00    -0.218 C  
HETATM   30  O   UNL     1      -7.820  13.190  66.956  1.00  0.00    -0.094 OA 
BRANCH  29  31
HETATM   31  O   UNL     1      -9.823  13.487  65.852  1.00  0.00    -0.286 OA 
HETATM   32  C   UNL     1      -9.972  14.694  65.107  1.00  0.00    -0.240 C  
ENDBRANCH  29  31
ENDBRANCH  23  29
BRANCH  27  33
HETATM   33  C   UNL     1     -12.053  16.017  69.233  1.00  0.00    -0.088 C  
BRANCH  33  34
HETATM   34  C   UNL     1     -11.376  16.606  67.985  1.00  0.00    -0.052 C  
HETATM   35  C   UNL     1     -10.742  18.835  69.058  1.00  0.00     0.647 C  
HETATM   36  O   UNL     1      -9.229  16.989  69.028  1.00  0.00    -0.243 OA 
HETATM   37  C   UNL     1     -10.255  17.626  68.264  1.00  0.00    -0.374 C  
HETATM   38  C   UNL     1      -9.639  18.089  66.937  1.00  0.00    -0.295 C  
HETATM   39  H   UNL     1      -8.538  17.617  69.200  1.00  0.00     0.000 HD 
ENDBRANCH  33  34
ENDBRANCH  27  33
ENDBRANCH  21  22
ENDBRANCH   1  21
BRANCH   3  40
HETATM   40  O   UNL     1     -12.211  12.061  71.404  1.00  0.00    -0.098 OA 
HETATM   41  C   UNL     1     -13.435  12.369  72.047  1.00  0.00    -0.360 C  
ENDBRANCH   3  40
TORSDOF 7
ENDMDL
MODEL      153
REMARK 921   NORMALIZED FREE ENERGY PREDICTED BY IDOCK:    0.02 KCAL/MOL
REMARK 922        TOTAL FREE ENERGY PREDICTED BY IDOCK:   -1.83 KCAL/MOL
REMARK 923 INTER-LIGAND FREE ENERGY PREDICTED BY IDOCK:   -5.23 KCAL/MOL
REMARK 924 INTRA-LIGAND FREE ENERGY PREDICTED BY IDOCK:    3.40 KCAL/MOL
REMARK 927      BINDING AFFINITY PREDICTED BY RF-SCORE:    0.00 PKD
ROOT
HETATM    1  C   UNL     1      -9.786  10.303  67.146  1.00  0.00    -0.173 C  
HETATM    2  O   UNL     1     -10.909  15.849  70.722  1.00  0.00    -0.286 OA 
HETATM    3  C   UNL     1      -8.720  10.237  66.073  1.00  0.00    -0.150 C  
HETATM    4  C   UNL     1     -10.667  11.578  66.765  1.00  0.00    -0.311 C  
HETATM    5  C   UNL     1     -12.294  15.610  71.024  1.00  0.00    -0.428 C  
HETATM    6  C   UNL     1      -9.084  10.890  64.970  1.00  0.00    -0.209 C  
HETATM    7  C   UNL     1     -10.392  11.624  65.094  1.00  0.00    -0.279 C  
HETATM    8  C   UNL     1     -10.649  12.841  67.817  1.00  0.00    -0.231 A  
HETATM    9  C   UNL     1     -11.724  12.955  68.733  1.00  0.00    -0.363 A  
HETATM   10  O   UNL     1     -12.797  14.382  70.440  1.00  0.00    -0.350 OA 
HETATM   11  C   UNL     1     -11.751  14.015  69.644  1.00  0.00    -0.311 A  
HETATM   12  C   UNL     1     -11.460  10.888  64.279  1.00  0.00     0.765 C  
HETATM   13  C   UNL     1     -10.696  14.881  69.788  1.00  0.00    -0.204 A  
HETATM   14  C   UNL     1      -9.636  14.867  68.919  1.00  0.00    -0.215 A  
HETATM   15  C   UNL     1     -11.974  11.895  63.258  1.00  0.00    -0.441 C  
HETATM   16  C   UNL     1      -9.752  14.010  67.811  1.00  0.00    -0.228 A  
HETATM   17  C   UNL     1      -9.497  14.822  66.462  1.00  0.00    -0.316 C  
HETATM   18  C   UNL     1      -9.851  13.786  65.465  1.00  0.00    -0.163 C  
HETATM   19  N   UNL     1     -10.165  12.931  64.376  1.00  0.00    -0.350 NA 
HETATM   20  C   UNL     1     -11.382  13.244  63.634  1.00  0.00    -0.166 C  
ENDROOT
BRANCH   1  21
HETATM   21  O   UNL     1      -9.252  10.256  68.465  1.00  0.00    -0.135 OA 
BRANCH  21  22
HETATM   22  C   UNL     1      -7.988   9.732  68.491  1.00  0.00    -0.089 C  
HETATM   23  C   UNL     1      -6.605   7.993  69.641  1.00  0.00    -0.038 C  
HETATM   24  C   UNL     1      -8.003   8.320  69.098  1.00  0.00    -0.112 C  
HETATM   25  O   UNL     1      -6.972  10.327  68.129  1.00  0.00    -0.072 OA 
HETATM   26  H   UNL     1      -8.960   7.386  70.543  1.00  0.00     0.000 HD 
HETATM   27  C   UNL     1      -8.434   7.314  68.004  1.00  0.00    -0.123 C  
HETATM   28  O   UNL     1      -8.951   8.258  70.168  1.00  0.00    -0.139 OA 
BRANCH  23  29
HETATM   29  C   UNL     1      -6.158   8.971  70.718  1.00  0.00    -0.044 C  
HETATM   30  O   UNL     1      -6.638  10.076  70.947  1.00  0.00    -0.277 OA 
BRANCH  29  31
HETATM   31  O   UNL     1      -5.126   8.398  71.413  1.00  0.00    -0.029 OA 
HETATM   32  C   UNL     1      -5.513   7.915  72.698  1.00  0.00    -0.036 C  
ENDBRANCH  29  31
ENDBRANCH  23  29
BRANCH  27  33
HETATM   33  C   UNL     1      -8.484   5.824  68.407  1.00  0.00    -0.110 C  
BRANCH  33  34
HETATM   34  C   UNL     1      -8.396   4.838  67.232  1.00  0.00    -0.105 C  
HETATM   35  C   UNL     1     -10.915   4.511  66.973  1.00  0.00     1.391 C  
HETATM   36  O   UNL     1      -9.732   6.153  65.707  1.00  0.00    -0.377 OA 
HETATM   37  C   UNL     1      -9.602   4.847  66.273  1.00  0.00    -0.174 C  
HETATM   38  C   UNL     1      -9.356   3.857  65.127  1.00  0.00    -0.158 C  
HETATM   39  H   UNL     1     -10.476   6.159  65.115  1.00  0.00     0.000 HD 
ENDBRANCH  33  34
ENDBRANCH  27  33
ENDBRANCH  21  22
ENDBRANCH   1  21
BRANCH   3  40
HETATM   40  O   UNL     1      -7.488   9.640  66.130  1.00  0.00    -0.096 OA 
HETATM   41  C   UNL     1      -6.583   9.763  65.048  1.00  0.00    -0.099 C  
ENDBRANCH   3  40
TORSDOF 7
ENDMDL
MODEL      154
REMARK 921   NORMALIZED FREE ENERGY PREDICTED BY IDOCK:    0.08 KCAL/MOL
REMARK 922        TOTAL FREE ENERGY PREDICTED BY IDOCK:   -1.76 KCAL/MOL
REMARK 923 INTER-LIGAND FREE ENERGY PREDICTED BY IDOCK:   -1.80 KCAL/MOL
REMARK 924 INTRA-LIGAND FREE ENERGY PREDICTED BY IDOCK:    0.04 KCAL/MOL
REMARK 927      BINDING AFFINITY PREDICTED BY RF-SCORE:    0.00 PKD
ROOT
HETATM    1  C   UNL     1      -8.963   9.634  68.788  1.00  0.00    -0.134 C  
HETATM    2  O   UNL     1      -5.998   7.986  74.558  1.00  0.00    -0.087 OA 
HETATM    3  C   UNL     1     -10.360  10.214  68.736  1.00  0.00    -0.194 C  
HETATM    4  C   UNL     1      -9.112   8.294  69.642  1.00  0.00    -0.154 C  
HETATM    5  C   UNL     1      -5.126   6.965  74.045  1.00  0.00    -0.042 C  
HETATM    6  C   UNL     1     -11.292   9.289  68.964  1.00  0.00     0.246 C  
HETATM    7  C   UNL     1     -10.738   7.938  69.332  1.00  0.00    -0.168 C  
HETATM    8  C   UNL     1      -8.335   8.240  71.090  1.00  0.00    -0.149 A  
HETATM    9  C   UNL     1      -7.081   7.580  71.144  1.00  0.00    -0.058 A  
HETATM   10  O   UNL     1      -5.287   6.746  72.621  1.00  0.00    -0.036 OA 
HETATM   11  C   UNL     1      -6.387   7.508  72.355  1.00  0.00    -0.050 A  
HETATM   12  C   UNL     1     -10.940   6.976  68.156  1.00  0.00    -0.165 C  
HETATM   13  C   UNL     1      -6.802   8.181  73.477  1.00  0.00    -0.121 A  
HETATM   14  C   UNL     1      -8.020   8.809  73.523  1.00  0.00     0.248 A  
HETATM   15  C   UNL     1     -11.782   5.827  68.695  1.00  0.00     1.673 C  
HETATM   16  C   UNL     1      -8.861   8.618  72.413  1.00  0.00    -0.181 A  
HETATM   17  C   UNL     1     -10.289   8.092  72.891  1.00  0.00    -0.333 C  
HETATM   18  C   UNL     1     -10.908   7.795  71.580  1.00  0.00    -0.227 C  
HETATM   19  N   UNL     1     -11.651   7.436  70.424  1.00  0.00    -0.230 NA 
HETATM   20  C   UNL     1     -11.861   6.009  70.203  1.00  0.00     0.392 C  
ENDROOT
BRANCH   1  21
HETATM   21  O   UNL     1      -7.986  10.573  69.221  1.00  0.00    -0.142 OA 
BRANCH  21  22
HETATM   22  C   UNL     1      -6.882  10.579  68.413  1.00  0.00    -0.064 C  
HETATM   23  C   UNL     1      -6.100  11.333  66.159  1.00  0.00    -0.034 C  
HETATM   24  C   UNL     1      -6.994  11.688  67.355  1.00  0.00    -0.117 C  
HETATM   25  O   UNL     1      -5.951   9.774  68.487  1.00  0.00    -0.042 OA 
HETATM   26  H   UNL     1      -8.420  12.490  66.258  1.00  0.00     0.000 HD 
HETATM   27  C   UNL     1      -6.573  13.031  67.998  1.00  0.00    -0.116 C  
HETATM   28  O   UNL     1      -8.350  11.804  66.912  1.00  0.00    -0.163 OA 
BRANCH  23  29
HETATM   29  C   UNL     1      -6.494  10.014  65.511  1.00  0.00    -0.095 C  
HETATM   30  O   UNL     1      -6.688   8.948  66.084  1.00  0.00    -0.068 OA 
BRANCH  29  31
HETATM   31  O   UNL     1      -6.616  10.221  64.163  1.00  0.00    -0.129 OA 
HETATM   32  C   UNL     1      -6.626   9.013  63.406  1.00  0.00    -0.090 C  
ENDBRANCH  29  31
ENDBRANCH  23  29
BRANCH  27  33
HETATM   33  C   UNL     1      -6.589  14.276  67.085  1.00  0.00     0.560 C  
BRANCH  33  34
HETATM   34  C   UNL     1      -7.769  15.233  67.325  1.00  0.00    -0.243 C  
HETATM   35  C   UNL     1      -6.414  17.020  68.547  1.00  0.00    -0.164 C  
HETATM   36  O   UNL     1      -6.783  17.127  66.191  1.00  0.00    -0.220 OA 
HETATM   37  C   UNL     1      -7.397  16.726  67.418  1.00  0.00    -0.160 C  
HETATM   38  C   UNL     1      -8.670  17.562  67.606  1.00  0.00    -0.223 C  
HETATM   39  H   UNL     1      -6.554  18.047  66.248  1.00  0.00     0.000 HD 
ENDBRANCH  33  34
ENDBRANCH  27  33
ENDBRANCH  21  22
ENDBRANCH   1  21
BRANCH   3  40
HETATM   40  O   UNL     1     -10.737  11.514  68.521  1.00  0.00    -0.190 OA 
HETATM   41  C   UNL     1     -11.689  12.131  69.368  1.00  0.00    -0.329 C  
ENDBRANCH   3  40
TORSDOF 7
ENDMDL
MODEL      155
REMARK 921   NORMALIZED FREE ENERGY PREDICTED BY IDOCK:    0.15 KCAL/MOL
REMARK 922        TOTAL FREE ENERGY PREDICTED BY IDOCK:   -1.66 KCAL/MOL
REMARK 923 INTER-LIGAND FREE ENERGY PREDICTED BY IDOCK:   -3.80 KCAL/MOL
REMARK 924 INTRA-LIGAND FREE ENERGY PREDICTED BY IDOCK:    2.14 KCAL/MOL
REMARK 927      BINDING AFFINITY PREDICTED BY RF-SCORE:    0.00 PKD
ROOT
HETATM    1  C   UNL     1      -8.803  14.344  67.341  1.00  0.00    -0.203 C  
HETATM    2  O   UNL     1      -7.343  20.480  65.099  1.00  0.00    -0.122 OA 
HETATM    3  C   UNL     1      -9.441  14.110  68.693  1.00  0.00    -0.163 C  
HETATM    4  C   UNL     1      -7.520  15.243  67.648  1.00  0.00    -0.197 C  
HETATM    5  C   UNL     1      -6.257  20.117  64.231  1.00  0.00    -0.237 C  
HETATM    6  C   UNL     1      -8.573  14.281  69.690  1.00  0.00     0.683 C  
HETATM    7  C   UNL     1      -7.221  14.774  69.248  1.00  0.00    -0.167 C  
HETATM    8  C   UNL     1      -7.511  16.768  67.035  1.00  0.00    -0.236 A  
HETATM    9  C   UNL     1      -6.799  16.992  65.830  1.00  0.00     0.552 A  
HETATM   10  O   UNL     1      -5.967  18.697  64.248  1.00  0.00    -0.338 OA 
HETATM   11  C   UNL     1      -6.762  18.274  65.273  1.00  0.00     0.040 A  
HETATM   12  C   UNL     1      -6.207  13.633  69.371  1.00  0.00    -0.109 C  
HETATM   13  C   UNL     1      -7.514  19.309  65.772  1.00  0.00    -0.204 A  
HETATM   14  C   UNL     1      -8.198  19.190  66.954  1.00  0.00    -0.287 A  
HETATM   15  C   UNL     1      -5.127  14.133  70.323  1.00  0.00    -0.091 C  
HETATM   16  C   UNL     1      -7.984  18.005  67.680  1.00  0.00    -0.221 A  
HETATM   17  C   UNL     1      -7.551  18.349  69.175  1.00  0.00    -0.098 C  
HETATM   18  C   UNL     1      -7.210  16.994  69.665  1.00  0.00     0.249 C  
HETATM   19  N   UNL     1      -6.822  15.783  70.297  1.00  0.00     0.186 NA 
HETATM   20  C   UNL     1      -5.396  15.611  70.555  1.00  0.00    -0.157 C  
ENDROOT
BRANCH   1  21
HETATM   21  O   UNL     1      -9.719  14.835  66.370  1.00  0.00    -0.261 OA 
BRANCH  21  22
HETATM   22  C   UNL     1     -10.886  14.120  66.354  1.00  0.00    -0.304 C  
HETATM   23  C   UNL     1     -12.018  12.232  65.164  1.00  0.00    -0.395 C  
HETATM   24  C   UNL     1     -10.671  12.753  65.684  1.00  0.00    -0.273 C  
HETATM   25  O   UNL     1     -11.970  14.532  66.769  1.00  0.00    -0.397 OA 
HETATM   26  H   UNL     1      -9.628  12.041  64.172  1.00  0.00     0.000 HD 
HETATM   27  C   UNL     1     -10.051  11.785  66.720  1.00  0.00    -0.235 C  
HETATM   28  O   UNL     1      -9.761  12.885  64.587  1.00  0.00    -0.054 OA 
BRANCH  23  29
HETATM   29  C   UNL     1     -12.648  13.170  64.144  1.00  0.00    -0.184 C  
HETATM   30  O   UNL     1     -12.991  14.331  64.334  1.00  0.00    -0.503 OA 
BRANCH  29  31
HETATM   31  O   UNL     1     -12.754  12.498  62.956  1.00  0.00    -0.485 OA 
HETATM   32  C   UNL     1     -11.651  11.632  62.699  1.00  0.00     1.070 C  
ENDBRANCH  29  31
ENDBRANCH  23  29
BRANCH  27  33
HETATM   33  C   UNL     1      -9.782  10.339  66.248  1.00  0.00    -0.263 C  
BRANCH  33  34
HETATM   34  C   UNL     1      -8.294   9.968  66.135  1.00  0.00    -0.121 C  
HETATM   35  C   UNL     1      -8.503   8.719  63.917  1.00  0.00    -0.110 C  
HETATM   36  O   UNL     1      -7.937  11.037  63.996  1.00  0.00    -0.335 OA 
HETATM   37  C   UNL     1      -7.765   9.803  64.697  1.00  0.00    -0.136 C  
HETATM   38  C   UNL     1      -6.264   9.485  64.734  1.00  0.00    -0.081 C  
HETATM   39  H   UNL     1      -7.610  10.936  63.110  1.00  0.00     0.000 HD 
ENDBRANCH  33  34
ENDBRANCH  27  33
ENDBRANCH  21  22
ENDBRANCH   1  21
BRANCH   3  40
HETATM   40  O   UNL     1     -10.743  13.791  68.978  1.00  0.00    -0.240 OA 
HETATM   41  C   UNL     1     -11.062  13.075  70.158  1.00  0.00     0.628 C  
ENDBRANCH   3  40
TORSDOF 7
ENDMDL
MODEL      156
REMARK 921   NORMALIZED FREE ENERGY PREDICTED BY IDOCK:    0.97 KCAL/MOL
REMARK 922        TOTAL FREE ENERGY PREDICTED BY IDOCK:   -0.50 KCAL/MOL
REMARK 923 INTER-LIGAND FREE ENERGY PREDICTED BY IDOCK:   -2.39 KCAL/MOL
REMARK 924 INTRA-LIGAND FREE ENERGY PREDICTED BY IDOCK:    1.88 KCAL/MOL
REMARK 927      BINDING AFFINITY PREDICTED BY RF-SCORE:    0.00 PKD
ROOT
HETATM    1  C   UNL     1      -9.708   9.490  69.108  1.00  0.00    -0.178 C  
HETATM    2  O   UNL     1      -6.135  14.768  67.064  1.00  0.00    -0.092 OA 
HETATM    3  C   UNL     1     -11.022   9.106  68.461  1.00  0.00     0.052 C  
HETATM    4  C   UNL     1      -9.882  11.029  69.497  1.00  0.00     0.125 C  
HETATM    5  C   UNL     1      -5.472  15.049  68.307  1.00  0.00    -0.118 C  
HETATM    6  C   UNL     1     -12.010   9.928  68.815  1.00  0.00     0.739 C  
HETATM    7  C   UNL     1     -11.567  11.091  69.662  1.00  0.00    -0.318 C  
HETATM    8  C   UNL     1      -8.912  12.109  68.728  1.00  0.00     0.110 A  
HETATM    9  C   UNL     1      -7.749  12.554  69.405  1.00  0.00     0.612 A  
HETATM   10  O   UNL     1      -5.864  14.149  69.374  1.00  0.00    -0.084 OA 
HETATM   11  C   UNL     1      -6.896  13.475  68.790  1.00  0.00    -0.108 A  
HETATM   12  C   UNL     1     -12.049  10.875  71.100  1.00  0.00    -0.386 C  
HETATM   13  C   UNL     1      -7.062  13.864  67.484  1.00  0.00    -0.158 A  
HETATM   14  C   UNL     1      -8.179  13.515  66.770  1.00  0.00     0.183 A  
HETATM   15  C   UNL     1     -12.929  12.075  71.430  1.00  0.00    -0.362 C  
HETATM   16  C   UNL     1      -9.191  12.850  67.485  1.00  0.00    -0.192 A  
HETATM   17  C   UNL     1     -10.583  13.602  67.291  1.00  0.00    -0.267 C  
HETATM   18  C   UNL     1     -11.419  12.853  68.257  1.00  0.00    -0.311 C  
HETATM   19  N   UNL     1     -12.360  12.264  69.142  1.00  0.00     0.017 NA 
HETATM   20  C   UNL     1     -12.764  13.068  70.291  1.00  0.00     0.092 C  
ENDROOT
BRANCH   1  21
HETATM   21  O   UNL     1      -8.576   9.148  68.317  1.00  0.00    -0.127 OA 
BRANCH  21  22
HETATM   22  C   UNL     1      -7.616   8.497  69.044  1.00  0.00    -0.094 C  
HETATM   23  C   UNL     1      -7.337   6.957  70.995  1.00  0.00    -0.078 C  
HETATM   24  C   UNL     1      -8.226   7.302  69.792  1.00  0.00    -0.130 C  
HETATM   25  O   UNL     1      -6.440   8.851  69.131  1.00  0.00    -0.042 OA 
HETATM   26  H   UNL     1      -9.915   6.894  70.719  1.00  0.00     0.000 HD 
HETATM   27  C   UNL     1      -8.340   6.109  68.813  1.00  0.00    -0.111 C  
HETATM   28  O   UNL     1      -9.539   7.633  70.256  1.00  0.00    -0.171 OA 
BRANCH  23  29
HETATM   29  C   UNL     1      -7.208   8.116  71.973  1.00  0.00    -0.089 C  
HETATM   30  O   UNL     1      -8.107   8.863  72.343  1.00  0.00    -0.381 OA 
BRANCH  29  31
HETATM   31  O   UNL     1      -5.905   8.178  72.391  1.00  0.00    -0.041 OA 
HETATM   32  C   UNL     1      -5.548   9.447  72.934  1.00  0.00     0.037 C  
ENDBRANCH  29  31
ENDBRANCH  23  29
BRANCH  27  33
HETATM   33  C   UNL     1      -8.907   4.790  69.383  1.00  0.00    -0.116 C  
BRANCH  33  34
HETATM   34  C   UNL     1      -9.648   4.937  70.722  1.00  0.00    -0.251 C  
HETATM   35  C   UNL     1      -9.778   2.436  71.225  1.00  0.00    -0.201 C  
HETATM   36  O   UNL     1      -7.988   3.784  72.048  1.00  0.00    -0.069 OA 
HETATM   37  C   UNL     1      -9.385   3.815  71.746  1.00  0.00    -0.131 C  
HETATM   38  C   UNL     1     -10.143   4.116  73.045  1.00  0.00    -0.212 C  
HETATM   39  H   UNL     1      -7.825   3.093  72.680  1.00  0.00     0.000 HD 
ENDBRANCH  33  34
ENDBRANCH  27  33
ENDBRANCH  21  22
ENDBRANCH   1  21
BRANCH   3  40
HETATM   40  O   UNL     1     -11.273   8.085  67.583  1.00  0.00     0.185 OA 
HETATM   41  C   UNL     1     -10.470   7.921  66.428  1.00  0.00     0.282 C  
ENDBRANCH   3  40
TORSDOF 7
ENDMDL
MODEL      157
REMARK 921   NORMALIZED FREE ENERGY PREDICTED BY IDOCK:    1.12 KCAL/MOL
REMARK 922        TOTAL FREE ENERGY PREDICTED BY IDOCK:   -0.28 KCAL/MOL
REMARK 923 INTER-LIGAND FREE ENERGY PREDICTED BY IDOCK:   -5.50 KCAL/MOL
REMARK 924 INTRA-LIGAND FREE ENERGY PREDICTED BY IDOCK:    5.22 KCAL/MOL
REMARK 927      BINDING AFFINITY PREDICTED BY RF-SCORE:    0.00 PKD
ROOT
HETATM    1  C   UNL     1      -8.542  13.079  66.626  1.00  0.00     0.040 C  
HETATM    2  O   UNL     1     -11.117   7.454  69.180  1.00  0.00    -0.091 OA 
HETATM    3  C   UNL     1      -8.794  14.436  67.248  1.00  0.00    -0.213 C  
HETATM    4  C   UNL     1      -9.996  12.456  66.411  1.00  0.00    -0.254 C  
HETATM    5  C   UNL     1     -11.159   6.689  67.964  1.00  0.00    -0.205 C  
HETATM    6  C   UNL     1     -10.028  14.875  67.003  1.00  0.00    -0.240 C  
HETATM    7  C   UNL     1     -10.900  13.883  66.281  1.00  0.00    -0.290 C  
HETATM    8  C   UNL     1     -10.369  11.111  67.279  1.00  0.00    -0.243 A  
HETATM    9  C   UNL     1     -10.247   9.854  66.636  1.00  0.00    -0.293 A  
HETATM   10  O   UNL     1     -10.688   7.430  66.811  1.00  0.00    -0.319 OA 
HETATM   11  C   UNL     1     -10.556   8.683  67.335  1.00  0.00    -0.228 A  
HETATM   12  C   UNL     1     -11.101  14.349  64.836  1.00  0.00    -0.404 C  
HETATM   13  C   UNL     1     -10.839   8.688  68.678  1.00  0.00     0.043 A  
HETATM   14  C   UNL     1     -11.016   9.860  69.367  1.00  0.00    -0.263 A  
HETATM   15  C   UNL     1     -12.606  14.509  64.654  1.00  0.00    -0.220 C  
HETATM   16  C   UNL     1     -11.017  11.038  68.600  1.00  0.00    -0.271 A  
HETATM   17  C   UNL     1     -12.335  11.884  68.898  1.00  0.00     0.161 C  
HETATM   18  C   UNL     1     -12.202  12.941  67.869  1.00  0.00     0.024 C  
HETATM   19  N   UNL     1     -12.251  14.014  66.940  1.00  0.00    -0.426 NA 
HETATM   20  C   UNL     1     -13.264  13.922  65.893  1.00  0.00     0.327 C  
ENDROOT
BRANCH   1  21
HETATM   21  O   UNL     1      -7.604  12.297  67.357  1.00  0.00    -0.140 OA 
BRANCH  21  22
HETATM   22  C   UNL     1      -7.688  10.967  67.044  1.00  0.00    -0.134 C  
HETATM   23  C   UNL     1      -6.539   8.780  67.440  1.00  0.00    -0.058 C  
HETATM   24  C   UNL     1      -6.925  10.123  68.076  1.00  0.00    -0.082 C  
HETATM   25  O   UNL     1      -8.249  10.513  66.046  1.00  0.00    -0.139 OA 
HETATM   26  H   UNL     1      -5.265  10.286  69.124  1.00  0.00     0.000 HD 
HETATM   27  C   UNL     1      -7.827   9.922  69.318  1.00  0.00    -0.117 C  
HETATM   28  O   UNL     1      -5.737  10.808  68.486  1.00  0.00    -0.041 OA 
BRANCH  23  29
HETATM   29  C   UNL     1      -5.653   8.952  66.215  1.00  0.00    -0.045 C  
HETATM   30  O   UNL     1      -5.407   8.102  65.366  1.00  0.00    -0.031 OA 
BRANCH  29  31
HETATM   31  O   UNL     1      -5.182  10.238  66.207  1.00  0.00    -0.045 OA 
HETATM   32  C   UNL     1      -5.157  10.819  64.905  1.00  0.00    -0.135 C  
ENDBRANCH  29  31
ENDBRANCH  23  29
BRANCH  27  33
HETATM   33  C   UNL     1      -7.250   9.068  70.468  1.00  0.00    -0.081 C  
BRANCH  33  34
HETATM   34  C   UNL     1      -8.225   8.813  71.629  1.00  0.00    -0.171 C  
HETATM   35  C   UNL     1      -8.211   6.267  71.429  1.00  0.00    -0.122 C  
HETATM   36  O   UNL     1      -6.725   7.412  72.906  1.00  0.00    -0.063 OA 
HETATM   37  C   UNL     1      -8.044   7.467  72.357  1.00  0.00    -0.101 C  
HETATM   38  C   UNL     1      -9.043   7.370  73.516  1.00  0.00    -0.259 C  
HETATM   39  H   UNL     1      -6.613   6.583  73.355  1.00  0.00     0.000 HD 
ENDBRANCH  33  34
ENDBRANCH  27  33
ENDBRANCH  21  22
ENDBRANCH   1  21
BRANCH   3  40
HETATM   40  O   UNL     1      -7.946  15.194  68.013  1.00  0.00    -0.123 OA 
HETATM   41  C   UNL     1      -8.435  15.894  69.142  1.00  0.00    -0.254 C  
ENDBRANCH   3  40
TORSDOF 7
ENDMDL
MODEL      158
REMARK 921   NORMALIZED FREE ENERGY PREDICTED BY IDOCK:    1.19 KCAL/MOL
REMARK 922        TOTAL FREE ENERGY PREDICTED BY IDOCK:   -0.19 KCAL/MOL
REMARK 923 INTER-LIGAND FREE ENERGY PREDICTED BY IDOCK:   -4.01 KCAL/MOL
REMARK 924 INTRA-LIGAND FREE ENERGY PREDICTED BY IDOCK:    3.82 KCAL/MOL
REMARK 927      BINDING AFFINITY PREDICTED BY RF-SCORE:    0.00 PKD
ROOT
HETATM    1  C   UNL     1      -9.655   8.789  71.868  1.00  0.00    -0.302 C  
HETATM    2  O   UNL     1      -9.686   9.231  65.189  1.00  0.00    -0.168 OA 
HETATM    3  C   UNL     1      -9.923   7.486  72.591  1.00  0.00    -0.207 C  
HETATM    4  C   UNL     1     -10.898   8.968  70.882  1.00  0.00    -0.323 C  
HETATM    5  C   UNL     1     -10.049  10.617  65.086  1.00  0.00    -0.307 C  
HETATM    6  C   UNL     1     -11.214   7.157  72.563  1.00  0.00    -0.327 C  
HETATM    7  C   UNL     1     -12.064   8.080  71.731  1.00  0.00    -0.305 C  
HETATM    8  C   UNL     1     -10.586   8.923  69.269  1.00  0.00    -0.219 A  
HETATM    9  C   UNL     1     -10.464  10.158  68.584  1.00  0.00    -0.225 A  
HETATM   10  O   UNL     1     -10.258  11.245  66.376  1.00  0.00    -0.216 OA 
HETATM   11  C   UNL     1     -10.201  10.168  67.211  1.00  0.00    -0.222 A  
HETATM   12  C   UNL     1     -12.929   8.938  72.660  1.00  0.00    -0.334 C  
HETATM   13  C   UNL     1      -9.910   9.020  66.515  1.00  0.00    -0.268 A  
HETATM   14  C   UNL     1     -10.044   7.783  67.089  1.00  0.00    -0.328 A  
HETATM   15  C   UNL     1     -14.374   8.649  72.272  1.00  0.00    -0.486 C  
HETATM   16  C   UNL     1     -10.612   7.752  68.375  1.00  0.00    -0.157 A  
HETATM   17  C   UNL     1     -11.847   6.743  68.405  1.00  0.00     1.096 C  
HETATM   18  C   UNL     1     -12.374   7.020  69.760  1.00  0.00     0.736 C  
HETATM   19  N   UNL     1     -13.027   7.167  71.013  1.00  0.00    -0.262 NA 
HETATM   20  C   UNL     1     -14.330   7.824  70.995  1.00  0.00    -0.006 C  
ENDROOT
BRANCH   1  21
HETATM   21  O   UNL     1      -8.357   8.848  71.289  1.00  0.00    -0.169 OA 
BRANCH  21  22
HETATM   22  C   UNL     1      -8.068   7.730  70.555  1.00  0.00    -0.103 C  
HETATM   23  C   UNL     1      -6.144   6.465  69.577  1.00  0.00    -0.029 C  
HETATM   24  C   UNL     1      -6.608   7.304  70.775  1.00  0.00    -0.044 C  
HETATM   25  O   UNL     1      -8.851   7.172  69.784  1.00  0.00    -0.141 OA 
HETATM   26  H   UNL     1      -4.871   8.199  71.027  1.00  0.00     0.000 HD 
HETATM   27  C   UNL     1      -6.518   6.502  72.096  1.00  0.00    -0.054 C  
HETATM   28  O   UNL     1      -5.774   8.461  70.891  1.00  0.00    -0.032 OA 
BRANCH  23  29
HETATM   29  C   UNL     1      -6.225   7.232  68.265  1.00  0.00    -0.036 C  
HETATM   30  O   UNL     1      -5.739   8.333  68.032  1.00  0.00    -0.034 OA 
BRANCH  29  31
HETATM   31  O   UNL     1      -6.925   6.470  67.368  1.00  0.00    -0.073 OA 
HETATM   32  C   UNL     1      -7.062   5.109  67.772  1.00  0.00    -0.066 C  
ENDBRANCH  29  31
ENDBRANCH  23  29
BRANCH  27  33
HETATM   33  C   UNL     1      -5.128   5.955  72.486  1.00  0.00    -0.021 C  
BRANCH  33  34
HETATM   34  C   UNL     1      -5.148   4.868  73.573  1.00  0.00    -0.009 C  
HETATM   35  C   UNL     1      -7.326   3.773  72.809  1.00  0.00    -0.062 C  
HETATM   36  O   UNL     1      -5.202   2.995  72.045  1.00  0.00     0.000 OA 
HETATM   37  C   UNL     1      -5.861   3.559  73.181  1.00  0.00    -0.004 C  
HETATM   38  C   UNL     1      -5.760   2.552  74.334  1.00  0.00     0.000 C  
HETATM   39  H   UNL     1      -5.641   2.188  71.803  1.00  0.00     0.000 HD 
ENDBRANCH  33  34
ENDBRANCH  27  33
ENDBRANCH  21  22
ENDBRANCH   1  21
BRANCH   3  40
HETATM   40  O   UNL     1      -9.026   6.652  73.205  1.00  0.00    -0.128 OA 
HETATM   41  C   UNL     1      -8.439   7.018  74.440  1.00  0.00    -0.177 C  
ENDBRANCH   3  40
TORSDOF 7
ENDMDL
MODEL      159
REMARK 921   NORMALIZED FREE ENERGY PREDICTED BY IDOCK:    1.33 KCAL/MOL
REMARK 922        TOTAL FREE ENERGY PREDICTED BY IDOCK:    0.00 KCAL/MOL
REMARK 923 INTER-LIGAND FREE ENERGY PREDICTED BY IDOCK:   -2.95 KCAL/MOL
REMARK 924 INTRA-LIGAND FREE ENERGY PREDICTED BY IDOCK:    2.95 KCAL/MOL
REMARK 927      BINDING AFFINITY PREDICTED BY RF-SCORE:    0.00 PKD
ROOT
HETATM    1  C   UNL     1      -8.723  11.428  68.416  1.00  0.00    -0.157 C  
HETATM    2  O   UNL     1     -12.209  13.500  63.091  1.00  0.00    -0.608 OA 
HETATM    3  C   UNL     1      -7.228  11.199  68.362  1.00  0.00    -0.083 C  
HETATM    4  C   UNL     1      -9.309  10.567  67.206  1.00  0.00    -0.164 C  
HETATM    5  C   UNL     1     -13.476  12.927  63.452  1.00  0.00     2.071 C  
HETATM    6  C   UNL     1      -6.919  10.079  67.709  1.00  0.00    -0.085 C  
HETATM    7  C   UNL     1      -8.102   9.385  67.088  1.00  0.00    -0.102 C  
HETATM    8  C   UNL     1     -10.025  11.393  65.978  1.00  0.00    -0.269 A  
HETATM    9  C   UNL     1     -11.439  11.488  65.980  1.00  0.00    -0.093 A  
HETATM   10  O   UNL     1     -13.430  12.189  64.698  1.00  0.00    -0.513 OA 
HETATM   11  C   UNL     1     -12.090  12.178  64.954  1.00  0.00    -0.272 A  
HETATM   12  C   UNL     1      -8.411   8.113  67.884  1.00  0.00    -0.132 C  
HETATM   13  C   UNL     1     -11.403  12.900  64.009  1.00  0.00    -0.415 A  
HETATM   14  C   UNL     1     -10.038  12.830  63.910  1.00  0.00    -0.153 A  
HETATM   15  C   UNL     1      -8.301   6.961  66.892  1.00  0.00    -0.114 C  
HETATM   16  C   UNL     1      -9.401  11.891  64.740  1.00  0.00     0.141 A  
HETATM   17  C   UNL     1      -8.465  10.937  63.870  1.00  0.00     0.108 C  
HETATM   18  C   UNL     1      -8.070   9.951  64.901  1.00  0.00    -0.145 C  
HETATM   19  N   UNL     1      -7.603   8.909  65.746  1.00  0.00    -0.089 NA 
HETATM   20  C   UNL     1      -8.163   7.582  65.511  1.00  0.00    -0.135 C  
ENDROOT
BRANCH   1  21
HETATM   21  O   UNL     1      -9.075  12.806  68.459  1.00  0.00    -0.154 OA 
BRANCH  21  22
HETATM   22  C   UNL     1      -8.209  13.582  67.737  1.00  0.00    -0.176 C  
HETATM   23  C   UNL     1      -7.451  15.951  67.466  1.00  0.00    -0.194 C  
HETATM   24  C   UNL     1      -7.915  14.895  68.479  1.00  0.00    -0.140 C  
HETATM   25  O   UNL     1      -7.767  13.293  66.624  1.00  0.00     0.347 OA 
HETATM   26  H   UNL     1      -8.919  16.172  69.594  1.00  0.00     0.000 HD 
HETATM   27  C   UNL     1      -6.834  14.628  69.553  1.00  0.00    -0.165 C  
HETATM   28  O   UNL     1      -9.099  15.360  69.135  1.00  0.00    -0.210 OA 
BRANCH  23  29
HETATM   29  C   UNL     1      -8.498  16.230  66.397  1.00  0.00    -0.330 C  
HETATM   30  O   UNL     1      -9.556  15.631  66.237  1.00  0.00    -0.259 OA 
BRANCH  29  31
HETATM   31  O   UNL     1      -8.066  17.288  65.644  1.00  0.00    -0.454 OA 
HETATM   32  C   UNL     1      -6.647  17.423  65.625  1.00  0.00     0.266 C  
ENDBRANCH  29  31
ENDBRANCH  23  29
BRANCH  27  33
HETATM   33  C   UNL     1      -6.374  15.837  70.396  1.00  0.00     0.145 C  
BRANCH  33  34
HETATM   34  C   UNL     1      -7.018  17.176  70.001  1.00  0.00     0.752 C  
HETATM   35  C   UNL     1      -5.163  18.651  70.951  1.00  0.00    -0.272 C  
HETATM   36  O   UNL     1      -5.160  17.958  68.667  1.00  0.00    -0.147 OA 
HETATM   37  C   UNL     1      -6.031  18.329  69.738  1.00  0.00    -0.236 C  
HETATM   38  C   UNL     1      -6.805  19.581  69.307  1.00  0.00    -0.381 C  
HETATM   39  H   UNL     1      -4.551  18.669  68.504  1.00  0.00     0.000 HD 
ENDBRANCH  33  34
ENDBRANCH  27  33
ENDBRANCH  21  22
ENDBRANCH   1  21
BRANCH   3  40
HETATM   40  O   UNL     1      -6.226  11.991  68.858  1.00  0.00    -0.062 OA 
HETATM   41  C   UNL     1      -5.364  11.502  69.870  1.00  0.00    -0.070 C  
ENDBRANCH   3  40
TORSDOF 7
ENDMDL
MODEL      160
REMARK 921   NORMALIZED FREE ENERGY PREDICTED BY IDOCK:    1.79 KCAL/MOL
REMARK 922        TOTAL FREE ENERGY PREDICTED BY IDOCK:    0.65 KCAL/MOL
REMARK 923 INTER-LIGAND FREE ENERGY PREDICTED BY IDOCK:    2.03 KCAL/MOL
REMARK 924 INTRA-LIGAND FREE ENERGY PREDICTED BY IDOCK:   -1.38 KCAL/MOL
REMARK 927      BINDING AFFINITY PREDICTED BY RF-SCORE:    0.00 PKD
ROOT
HETATM    1  C   UNL     1      -9.773  12.156  68.049  1.00  0.00    -0.203 C  
HETATM    2  O   UNL     1     -13.450   8.850  72.560  1.00  0.00    -0.438 OA 
HETATM    3  C   UNL     1      -9.029  13.428  68.392  1.00  0.00    -0.136 C  
HETATM    4  C   UNL     1     -11.277  12.430  68.509  1.00  0.00    -0.321 C  
HETATM    5  C   UNL     1     -14.374   8.235  71.647  1.00  0.00    -0.467 C  
HETATM    6  C   UNL     1      -9.850  14.471  68.505  1.00  0.00    -0.231 C  
HETATM    7  C   UNL     1     -11.309  14.119  68.385  1.00  0.00    -0.287 C  
HETATM    8  C   UNL     1     -11.864  11.506  69.735  1.00  0.00    -0.429 A  
HETATM    9  C   UNL     1     -12.666  10.388  69.396  1.00  0.00     0.632 A  
HETATM   10  O   UNL     1     -14.132   8.600  70.265  1.00  0.00     1.155 OA 
HETATM   11  C   UNL     1     -13.189   9.576  70.406  1.00  0.00     0.470 A  
HETATM   12  C   UNL     1     -11.837  14.622  67.038  1.00  0.00    -0.358 C  
HETATM   13  C   UNL     1     -12.837   9.731  71.725  1.00  0.00    -0.434 A  
HETATM   14  C   UNL     1     -12.099  10.808  72.144  1.00  0.00     1.050 A  
HETATM   15  C   UNL     1     -12.977  15.579  67.367  1.00  0.00     2.965 C  
HETATM   16  C   UNL     1     -11.837  11.797  71.180  1.00  0.00     0.457 A  
HETATM   17  C   UNL     1     -12.292  13.226  71.721  1.00  0.00     0.093 C  
HETATM   18  C   UNL     1     -12.098  14.039  70.500  1.00  0.00    -0.353 C  
HETATM   19  N   UNL     1     -11.993  14.966  69.429  1.00  0.00    -0.308 NA 
HETATM   20  C   UNL     1     -13.247  15.445  68.857  1.00  0.00     2.080 C  
ENDROOT
BRANCH   1  21
HETATM   21  O   UNL     1      -9.143  10.987  68.560  1.00  0.00    -0.160 OA 
BRANCH  21  22
HETATM   22  C   UNL     1      -9.339   9.900  67.751  1.00  0.00    -0.140 C  
HETATM   23  C   UNL     1      -8.554   7.552  67.389  1.00  0.00    -0.118 C  
HETATM   24  C   UNL     1      -8.868   8.616  68.451  1.00  0.00    -0.142 C  
HETATM   25  O   UNL     1      -9.782   9.949  66.602  1.00  0.00    -0.178 OA 
HETATM   26  H   UNL     1      -7.395   8.088  69.648  1.00  0.00     0.000 HD 
HETATM   27  C   UNL     1      -9.979   8.140  69.417  1.00  0.00    -0.188 C  
HETATM   28  O   UNL     1      -7.687   8.881  69.215  1.00  0.00    -0.090 OA 
BRANCH  23  29
HETATM   29  C   UNL     1      -7.464   7.998  66.425  1.00  0.00    -0.087 C  
HETATM   30  O   UNL     1      -7.566   8.109  65.209  1.00  0.00    -0.085 OA 
BRANCH  29  31
HETATM   31  O   UNL     1      -6.339   8.277  67.154  1.00  0.00    -0.054 OA 
HETATM   32  C   UNL     1      -5.429   9.140  66.476  1.00  0.00    -0.042 C  
ENDBRANCH  29  31
ENDBRANCH  23  29
BRANCH  27  33
HETATM   33  C   UNL     1      -9.710   6.838  70.202  1.00  0.00    -0.175 C  
BRANCH  33  34
HETATM   34  C   UNL     1     -10.814   6.450  71.199  1.00  0.00    -0.308 C  
HETATM   35  C   UNL     1      -9.992   4.063  71.587  1.00  0.00    -0.232 C  
HETATM   36  O   UNL     1      -9.319   5.862  73.005  1.00  0.00    -0.141 OA 
HETATM   37  C   UNL     1     -10.420   5.377  72.233  1.00  0.00    -0.219 C  
HETATM   38  C   UNL     1     -11.594   5.128  73.189  1.00  0.00    -0.281 C  
HETATM   39  H   UNL     1      -9.076   5.201  73.643  1.00  0.00     0.000 HD 
ENDBRANCH  33  34
ENDBRANCH  27  33
ENDBRANCH  21  22
ENDBRANCH   1  21
BRANCH   3  40
HETATM   40  O   UNL     1      -7.687  13.598  68.614  1.00  0.00    -0.131 OA 
HETATM   41  C   UNL     1      -6.772  13.543  67.534  1.00  0.00    -0.131 C  
ENDBRANCH   3  40
TORSDOF 7
ENDMDL
MODEL      161
REMARK 921   NORMALIZED FREE ENERGY PREDICTED BY IDOCK:    2.45 KCAL/MOL
REMARK 922        TOTAL FREE ENERGY PREDICTED BY IDOCK:    1.58 KCAL/MOL
REMARK 923 INTER-LIGAND FREE ENERGY PREDICTED BY IDOCK:   -6.82 KCAL/MOL
REMARK 924 INTRA-LIGAND FREE ENERGY PREDICTED BY IDOCK:    8.41 KCAL/MOL
REMARK 927      BINDING AFFINITY PREDICTED BY RF-SCORE:    0.00 PKD
ROOT
HETATM    1  C   UNL     1     -10.010   8.248  69.051  1.00  0.00    -0.189 C  
HETATM    2  O   UNL     1      -5.185   8.381  64.414  1.00  0.00    -0.039 OA 
HETATM    3  C   UNL     1     -10.072   9.254  70.180  1.00  0.00    -0.213 C  
HETATM    4  C   UNL     1      -8.534   7.646  69.125  1.00  0.00    -0.138 C  
HETATM    5  C   UNL     1      -5.196   6.984  64.080  1.00  0.00    -0.028 C  
HETATM    6  C   UNL     1      -9.151   9.013  71.113  1.00  0.00    -0.316 C  
HETATM    7  C   UNL     1      -8.209   7.891  70.770  1.00  0.00    -0.110 C  
HETATM    8  C   UNL     1      -7.537   7.949  67.853  1.00  0.00    -0.109 A  
HETATM    9  C   UNL     1      -7.395   6.939  66.869  1.00  0.00    -0.082 A  
HETATM   10  O   UNL     1      -6.155   6.223  64.857  1.00  0.00    -0.028 OA 
HETATM   11  C   UNL     1      -6.557   7.153  65.771  1.00  0.00    -0.052 A  
HETATM   12  C   UNL     1      -8.536   6.676  71.645  1.00  0.00    -0.123 C  
HETATM   13  C   UNL     1      -5.968   8.369  65.527  1.00  0.00    -0.045 A  
HETATM   14  C   UNL     1      -6.020   9.385  66.446  1.00  0.00    -0.059 A  
HETATM   15  C   UNL     1      -7.262   6.364  72.420  1.00  0.00    -0.083 C  
HETATM   16  C   UNL     1      -6.596   9.070  67.690  1.00  0.00    -0.061 A  
HETATM   17  C   UNL     1      -5.598   9.462  68.870  1.00  0.00    -0.036 C  
HETATM   18  C   UNL     1      -6.320   8.879  70.024  1.00  0.00    -0.037 C  
HETATM   19  N   UNL     1      -6.857   8.371  71.236  1.00  0.00    -0.058 NA 
HETATM   20  C   UNL     1      -6.164   7.232  71.828  1.00  0.00    -0.037 C  
ENDROOT
BRANCH   1  21
HETATM   21  O   UNL     1     -10.427   8.785  67.802  1.00  0.00    -0.235 OA 
BRANCH  21  22
HETATM   22  C   UNL     1      -9.621   9.810  67.386  1.00  0.00    -0.155 C  
HETATM   23  C   UNL     1      -9.700  12.033  66.241  1.00  0.00    -0.251 C  
HETATM   24  C   UNL     1     -10.436  11.101  67.215  1.00  0.00    -0.226 C  
HETATM   25  O   UNL     1      -8.420   9.702  67.132  1.00  0.00    -0.129 OA 
HETATM   26  H   UNL     1     -12.235  11.593  66.580  1.00  0.00     0.000 HD 
HETATM   27  C   UNL     1     -10.617  11.762  68.602  1.00  0.00    -0.250 C  
HETATM   28  O   UNL     1     -11.731  10.796  66.686  1.00  0.00     0.022 OA 
BRANCH  23  29
HETATM   29  C   UNL     1      -9.508  11.404  64.869  1.00  0.00    -0.171 C  
HETATM   30  O   UNL     1      -8.463  10.958  64.410  1.00  0.00    -0.056 OA 
BRANCH  29  31
HETATM   31  O   UNL     1     -10.719  11.403  64.228  1.00  0.00    -0.323 OA 
HETATM   32  C   UNL     1     -11.145  12.704  63.828  1.00  0.00    -0.453 C  
ENDBRANCH  29  31
ENDBRANCH  23  29
BRANCH  27  33
HETATM   33  C   UNL     1     -11.391  13.098  68.643  1.00  0.00    -0.327 C  
BRANCH  33  34
HETATM   34  C   UNL     1     -12.014  13.437  70.007  1.00  0.00    -0.407 C  
HETATM   35  C   UNL     1     -10.812  15.672  70.297  1.00  0.00    -0.366 C  
HETATM   36  O   UNL     1     -12.985  15.540  69.316  1.00  0.00    -0.221 OA 
HETATM   37  C   UNL     1     -12.152  14.941  70.312  1.00  0.00    -0.325 C  
HETATM   38  C   UNL     1     -12.832  15.130  71.674  1.00  0.00    -0.439 C  
HETATM   39  H   UNL     1     -13.070  16.468  69.504  1.00  0.00     0.000 HD 
ENDBRANCH  33  34
ENDBRANCH  27  33
ENDBRANCH  21  22
ENDBRANCH   1  21
BRANCH   3  40
HETATM   40  O   UNL     1     -10.904  10.335  70.314  1.00  0.00    -0.288 OA 
HETATM   41  C   UNL     1     -12.139  10.206  70.996  1.00  0.00    -0.377 C  
ENDBRANCH   3  40
TORSDOF 7
ENDMDL
MODEL      162
REMARK 921   NORMALIZED FREE ENERGY PREDICTED BY IDOCK:    2.46 KCAL/MOL
REMARK 922        TOTAL FREE ENERGY PREDICTED BY IDOCK:    1.60 KCAL/MOL
REMARK 923 INTER-LIGAND FREE ENERGY PREDICTED BY IDOCK:    0.90 KCAL/MOL
REMARK 924 INTRA-LIGAND FREE ENERGY PREDICTED BY IDOCK:    0.69 KCAL/MOL
REMARK 927      BINDING AFFINITY PREDICTED BY RF-SCORE:    0.00 PKD
ROOT
HETATM    1  C   UNL     1      -7.593  15.869  67.177  1.00  0.00    -0.220 C  
HETATM    2  O   UNL     1     -10.783  20.951  70.142  1.00  0.00     0.747 OA 
HETATM    3  C   UNL     1      -6.138  15.558  67.455  1.00  0.00    -0.089 C  
HETATM    4  C   UNL     1      -7.607  17.413  66.774  1.00  0.00    -0.263 C  
HETATM    5  C   UNL     1     -11.761  21.192  69.117  1.00  0.00     3.511 C  
HETATM    6  C   UNL     1      -5.321  16.431  66.867  1.00  0.00     0.078 C  
HETATM    7  C   UNL     1      -6.029  17.566  66.177  1.00  0.00    -0.194 C  
HETATM    8  C   UNL     1      -8.399  18.442  67.782  1.00  0.00    -0.273 A  
HETATM    9  C   UNL     1      -9.720  18.821  67.436  1.00  0.00    -0.340 A  
HETATM   10  O   UNL     1     -11.613  20.313  67.974  1.00  0.00     1.114 OA 
HETATM   11  C   UNL     1     -10.431  19.696  68.262  1.00  0.00    -0.329 A  
HETATM   12  C   UNL     1      -5.927  17.374  64.661  1.00  0.00     2.601 C  
HETATM   13  C   UNL     1      -9.952  20.097  69.485  1.00  0.00     0.128 A  
HETATM   14  C   UNL     1      -8.671  19.810  69.879  1.00  0.00     0.853 A  
HETATM   15  C   UNL     1      -5.228  18.618  64.127  1.00  0.00    -0.156 C  
HETATM   16  C   UNL     1      -7.846  19.199  68.918  1.00  0.00    -0.351 A  
HETATM   17  C   UNL     1      -6.493  20.027  68.752  1.00  0.00    -0.349 C  
HETATM   18  C   UNL     1      -5.899  19.321  67.593  1.00  0.00    -0.192 C  
HETATM   19  N   UNL     1      -5.191  18.782  66.487  1.00  0.00    -0.138 NA 
HETATM   20  C   UNL     1      -5.143  19.604  65.282  1.00  0.00    -0.158 C  
ENDROOT
BRANCH   1  21
HETATM   21  O   UNL     1      -8.459  15.467  68.231  1.00  0.00    -0.151 OA 
BRANCH  21  22
HETATM   22  C   UNL     1      -9.081  14.278  67.963  1.00  0.00    -0.191 C  
HETATM   23  C   UNL     1     -11.340  13.296  67.523  1.00  0.00    -0.329 C  
HETATM   24  C   UNL     1     -10.443  14.521  67.294  1.00  0.00    -0.266 C  
HETATM   25  O   UNL     1      -8.637  13.169  68.263  1.00  0.00    -0.173 OA 
HETATM   26  H   UNL     1     -11.910  15.826  67.451  1.00  0.00     0.000 HD 
HETATM   27  C   UNL     1     -10.216  14.782  65.785  1.00  0.00    -0.359 C  
HETATM   28  O   UNL     1     -11.068  15.676  67.864  1.00  0.00    -0.312 OA 
BRANCH  23  29
HETATM   29  C   UNL     1     -11.576  13.018  69.001  1.00  0.00    -0.318 C  
HETATM   30  O   UNL     1     -11.817  13.848  69.870  1.00  0.00    -0.293 OA 
BRANCH  29  31
HETATM   31  O   UNL     1     -11.492  11.666  69.198  1.00  0.00    -0.248 OA 
HETATM   32  C   UNL     1     -11.559  11.293  70.573  1.00  0.00    -0.133 C  
ENDBRANCH  29  31
ENDBRANCH  23  29
BRANCH  27  33
HETATM   33  C   UNL     1     -11.474  15.022  64.923  1.00  0.00    -0.399 C  
BRANCH  33  34
HETATM   34  C   UNL     1     -11.716  13.965  63.833  1.00  0.00    -0.241 C  
HETATM   35  C   UNL     1     -10.889  11.977  65.207  1.00  0.00    -0.340 C  
HETATM   36  O   UNL     1     -13.197  12.585  65.154  1.00  0.00    -0.573 OA 
HETATM   37  C   UNL     1     -12.016  12.544  64.349  1.00  0.00    -0.404 C  
HETATM   38  C   UNL     1     -12.286  11.611  63.161  1.00  0.00    -0.150 C  
HETATM   39  H   UNL     1     -13.383  11.709  65.473  1.00  0.00     0.000 HD 
ENDBRANCH  33  34
ENDBRANCH  27  33
ENDBRANCH  21  22
ENDBRANCH   1  21
BRANCH   3  40
HETATM   40  O   UNL     1      -5.612  14.554  68.226  1.00  0.00    -0.101 OA 
HETATM   41  C   UNL     1      -5.433  14.740  69.618  1.00  0.00    -0.094 C  
ENDBRANCH   3  40
TORSDOF 7
ENDMDL
MODEL      163
REMARK 921   NORMALIZED FREE ENERGY PREDICTED BY IDOCK:    2.62 KCAL/MOL
REMARK 922        TOTAL FREE ENERGY PREDICTED BY IDOCK:    1.82 KCAL/MOL
REMARK 923 INTER-LIGAND FREE ENERGY PREDICTED BY IDOCK:   -2.32 KCAL/MOL
REMARK 924 INTRA-LIGAND FREE ENERGY PREDICTED BY IDOCK:    4.14 KCAL/MOL
REMARK 927      BINDING AFFINITY PREDICTED BY RF-SCORE:    0.00 PKD
ROOT
HETATM    1  C   UNL     1      -9.962  15.611  67.869  1.00  0.00    -0.223 C  
HETATM    2  O   UNL     1      -5.147  12.816  71.585  1.00  0.00    -0.206 OA 
HETATM    3  C   UNL     1      -9.782  15.888  66.392  1.00  0.00    -0.287 C  
HETATM    4  C   UNL     1      -8.706  16.306  68.568  1.00  0.00    -0.211 C  
HETATM    5  C   UNL     1      -5.526  13.379  72.852  1.00  0.00     0.227 C  
HETATM    6  C   UNL     1      -8.989  16.937  66.175  1.00  0.00    -0.271 C  
HETATM    7  C   UNL     1      -8.376  17.511  67.424  1.00  0.00    -0.211 C  
HETATM    8  C   UNL     1      -7.628  15.320  69.321  1.00  0.00    -0.213 A  
HETATM    9  C   UNL     1      -7.736  15.173  70.726  1.00  0.00     1.539 A  
HETATM   10  O   UNL     1      -6.677  14.257  72.761  1.00  0.00     0.835 OA 
HETATM   11  C   UNL     1      -6.839  14.346  71.409  1.00  0.00     1.366 A  
HETATM   12  C   UNL     1      -9.044  18.853  67.739  1.00  0.00    -0.322 C  
HETATM   13  C   UNL     1      -5.936  13.547  70.751  1.00  0.00    -0.108 A  
HETATM   14  C   UNL     1      -5.739  13.656  69.399  1.00  0.00    -0.092 A  
HETATM   15  C   UNL     1      -7.925  19.887  67.743  1.00  0.00    -0.326 C  
HETATM   16  C   UNL     1      -6.414  14.707  68.754  1.00  0.00    -0.088 A  
HETATM   17  C   UNL     1      -5.382  15.589  67.918  1.00  0.00    -0.139 C  
HETATM   18  C   UNL     1      -6.268  16.701  67.503  1.00  0.00    -0.160 C  
HETATM   19  N   UNL     1      -6.958  17.849  67.032  1.00  0.00    -0.177 NA 
HETATM   20  C   UNL     1      -6.616  19.119  67.664  1.00  0.00    -0.206 C  
ENDROOT
BRANCH   1  21
HETATM   21  O   UNL     1     -10.182  14.235  68.155  1.00  0.00    -0.222 OA 
BRANCH  21  22
HETATM   22  C   UNL     1      -9.614  13.416  67.217  1.00  0.00    -0.234 C  
HETATM   23  C   UNL     1      -8.607  11.142  66.945  1.00  0.00    -0.148 C  
HETATM   24  C   UNL     1      -9.700  11.948  67.662  1.00  0.00    -0.185 C  
HETATM   25  O   UNL     1      -9.063  13.804  66.186  1.00  0.00    -0.077 OA 
HETATM   26  H   UNL     1      -9.556  10.946  69.352  1.00  0.00     0.000 HD 
HETATM   27  C   UNL     1     -11.111  11.409  67.327  1.00  0.00    -0.363 C  
HETATM   28  O   UNL     1      -9.503  11.853  69.077  1.00  0.00     0.036 OA 
BRANCH  23  29
HETATM   29  C   UNL     1      -7.208  11.655  67.258  1.00  0.00    -0.137 C  
HETATM   30  O   UNL     1      -6.501  12.339  66.527  1.00  0.00     0.052 OA 
BRANCH  29  31
HETATM   31  O   UNL     1      -6.872  11.233  68.517  1.00  0.00    -0.063 OA 
HETATM   32  C   UNL     1      -5.676  10.458  68.550  1.00  0.00    -0.037 C  
ENDBRANCH  29  31
ENDBRANCH  23  29
BRANCH  27  33
HETATM   33  C   UNL     1     -11.393   9.931  67.671  1.00  0.00     0.171 C  
BRANCH  33  34
HETATM   34  C   UNL     1     -10.695   8.914  66.754  1.00  0.00    -0.098 C  
HETATM   35  C   UNL     1      -9.527   7.629  68.626  1.00  0.00    -0.151 C  
HETATM   36  O   UNL     1     -11.656   6.951  67.787  1.00  0.00    -0.482 OA 
HETATM   37  C   UNL     1     -10.415   7.538  67.389  1.00  0.00    -0.297 C  
HETATM   38  C   UNL     1      -9.767   6.614  66.350  1.00  0.00    -0.128 C  
HETATM   39  H   UNL     1     -11.484   6.103  68.178  1.00  0.00     0.000 HD 
ENDBRANCH  33  34
ENDBRANCH  27  33
ENDBRANCH  21  22
ENDBRANCH   1  21
BRANCH   3  40
HETATM   40  O   UNL     1     -10.295  15.196  65.326  1.00  0.00    -0.360 OA 
HETATM   41  C   UNL     1     -11.279  15.787  64.497  1.00  0.00    -0.322 C  
ENDBRANCH   3  40
TORSDOF 7
ENDMDL
MODEL      164
REMARK 921   NORMALIZED FREE ENERGY PREDICTED BY IDOCK:    2.80 KCAL/MOL
REMARK 922        TOTAL FREE ENERGY PREDICTED BY IDOCK:    2.09 KCAL/MOL
REMARK 923 INTER-LIGAND FREE ENERGY PREDICTED BY IDOCK:    0.55 KCAL/MOL
REMARK 924 INTRA-LIGAND FREE ENERGY PREDICTED BY IDOCK:    1.54 KCAL/MOL
REMARK 927      BINDING AFFINITY PREDICTED BY RF-SCORE:    0.00 PKD
ROOT
HETATM    1  C   UNL     1      -9.514  14.344  68.533  1.00  0.00    -0.212 C  
HETATM    2  O   UNL     1      -6.294  19.535  65.797  1.00  0.00    -0.191 OA 
HETATM    3  C   UNL     1     -11.022  14.215  68.487  1.00  0.00    -0.254 C  
HETATM    4  C   UNL     1      -9.249  15.794  69.146  1.00  0.00    -0.256 C  
HETATM    5  C   UNL     1      -5.135  19.516  66.646  1.00  0.00    -0.160 C  
HETATM    6  C   UNL     1     -11.618  15.049  69.338  1.00  0.00    -0.337 C  
HETATM    7  C   UNL     1     -10.674  15.988  70.041  1.00  0.00    -0.328 C  
HETATM    8  C   UNL     1      -8.523  16.898  68.169  1.00  0.00    -0.217 A  
HETATM    9  C   UNL     1      -7.127  17.095  68.315  1.00  0.00    -0.197 A  
HETATM   10  O   UNL     1      -5.190  18.478  67.656  1.00  0.00    -0.157 OA 
HETATM   11  C   UNL     1      -6.469  18.026  67.507  1.00  0.00    -0.172 A  
HETATM   12  C   UNL     1     -10.539  15.559  71.506  1.00  0.00     0.494 C  
HETATM   13  C   UNL     1      -7.098  18.664  66.466  1.00  0.00    -0.220 A  
HETATM   14  C   UNL     1      -8.452  18.562  66.279  1.00  0.00    -0.227 A  
HETATM   15  C   UNL     1     -10.986  16.757  72.335  1.00  0.00     1.829 C  
HETATM   16  C   UNL     1      -9.168  17.878  67.277  1.00  0.00    -0.254 A  
HETATM   17  C   UNL     1     -10.366  18.786  67.811  1.00  0.00    -0.467 C  
HETATM   18  C   UNL     1     -10.834  17.956  68.944  1.00  0.00     0.373 C  
HETATM   19  N   UNL     1     -11.403  17.309  70.073  1.00  0.00     0.929 NA 
HETATM   20  C   UNL     1     -11.149  17.922  71.372  1.00  0.00     2.703 C  
ENDROOT
BRANCH   1  21
HETATM   21  O   UNL     1      -8.892  14.044  67.289  1.00  0.00    -0.197 OA 
BRANCH  21  22
HETATM   22  C   UNL     1      -7.569  13.725  67.437  1.00  0.00    -0.137 C  
HETATM   23  C   UNL     1      -6.069  11.922  68.308  1.00  0.00    -0.050 C  
HETATM   24  C   UNL     1      -7.396  12.206  67.591  1.00  0.00    -0.122 C  
HETATM   25  O   UNL     1      -6.650  14.543  67.494  1.00  0.00    -0.227 OA 
HETATM   26  H   UNL     1      -8.367  10.728  68.459  1.00  0.00     0.000 HD 
HETATM   27  C   UNL     1      -7.430  11.558  66.186  1.00  0.00     0.208 C  
HETATM   28  O   UNL     1      -8.473  11.667  68.364  1.00  0.00    -0.151 OA 
BRANCH  23  29
HETATM   29  C   UNL     1      -6.011  12.552  69.693  1.00  0.00    -0.123 C  
HETATM   30  O   UNL     1      -6.582  12.153  70.701  1.00  0.00     0.168 OA 
BRANCH  29  31
HETATM   31  O   UNL     1      -5.188  13.645  69.629  1.00  0.00    -0.084 OA 
HETATM   32  C   UNL     1      -5.511  14.648  70.589  1.00  0.00    -0.141 C  
ENDBRANCH  29  31
ENDBRANCH  23  29
BRANCH  27  33
HETATM   33  C   UNL     1      -7.242  10.026  66.120  1.00  0.00    -0.109 C  
BRANCH  33  34
HETATM   34  C   UNL     1      -6.966   9.355  67.476  1.00  0.00    -0.077 C  
HETATM   35  C   UNL     1      -8.696   7.495  67.205  1.00  0.00    -0.121 C  
HETATM   36  O   UNL     1      -6.416   7.184  66.566  1.00  0.00    -0.048 OA 
HETATM   37  C   UNL     1      -7.245   7.840  67.529  1.00  0.00    -0.091 C  
HETATM   38  C   UNL     1      -6.879   7.298  68.916  1.00  0.00    -0.072 C  
HETATM   39  H   UNL     1      -6.588   6.250  66.599  1.00  0.00     0.000 HD 
ENDBRANCH  33  34
ENDBRANCH  27  33
ENDBRANCH  21  22
ENDBRANCH   1  21
BRANCH   3  40
HETATM   40  O   UNL     1     -11.785  13.403  67.691  1.00  0.00    -0.318 OA 
HETATM   41  C   UNL     1     -12.183  13.834  66.402  1.00  0.00    -0.436 C  
ENDBRANCH   3  40
TORSDOF 7
ENDMDL
MODEL      165
REMARK 921   NORMALIZED FREE ENERGY PREDICTED BY IDOCK:    2.83 KCAL/MOL
REMARK 922        TOTAL FREE ENERGY PREDICTED BY IDOCK:    2.12 KCAL/MOL
REMARK 923 INTER-LIGAND FREE ENERGY PREDICTED BY IDOCK:   -4.91 KCAL/MOL
REMARK 924 INTRA-LIGAND FREE ENERGY PREDICTED BY IDOCK:    7.03 KCAL/MOL
REMARK 927      BINDING AFFINITY PREDICTED BY RF-SCORE:    0.00 PKD
ROOT
HETATM    1  C   UNL     1     -10.252   9.571  65.705  1.00  0.00    -0.037 C  
HETATM    2  O   UNL     1      -9.009   7.561  71.967  1.00  0.00    -0.122 OA 
HETATM    3  C   UNL     1      -9.231  10.329  64.884  1.00  0.00    -0.227 C  
HETATM    4  C   UNL     1     -10.373  10.399  67.065  1.00  0.00    -0.295 C  
HETATM    5  C   UNL     1     -10.365   7.549  72.442  1.00  0.00    -0.228 C  
HETATM    6  C   UNL     1      -9.114  11.596  65.280  1.00  0.00     0.041 C  
HETATM    7  C   UNL     1      -9.922  11.933  66.505  1.00  0.00    -0.202 C  
HETATM    8  C   UNL     1      -9.878   9.651  68.442  1.00  0.00    -0.170 A  
HETATM    9  C   UNL     1     -10.867   9.055  69.264  1.00  0.00    -0.131 A  
HETATM   10  O   UNL     1     -11.321   7.973  71.437  1.00  0.00    -0.247 OA 
HETATM   11  C   UNL     1     -10.491   8.411  70.446  1.00  0.00    -0.214 A  
HETATM   12  C   UNL     1     -11.111  12.808  66.096  1.00  0.00    -0.322 C  
HETATM   13  C   UNL     1      -9.175   8.202  70.778  1.00  0.00    -0.150 A  
HETATM   14  C   UNL     1      -8.158   8.778  70.062  1.00  0.00    -0.111 A  
HETATM   15  C   UNL     1     -10.967  14.104  66.885  1.00  0.00    -0.302 C  
HETATM   16  C   UNL     1      -8.540   9.685  69.058  1.00  0.00    -0.133 A  
HETATM   17  C   UNL     1      -7.780  11.073  69.256  1.00  0.00    -0.071 C  
HETATM   18  C   UNL     1      -8.467  11.893  68.232  1.00  0.00    -0.161 C  
HETATM   19  N   UNL     1      -9.023  12.829  67.321  1.00  0.00    -0.191 NA 
HETATM   20  C   UNL     1      -9.853  13.882  67.895  1.00  0.00    -0.228 C  
ENDROOT
BRANCH   1  21
HETATM   21  O   UNL     1      -9.958   8.184  65.816  1.00  0.00     0.194 OA 
BRANCH  21  22
HETATM   22  C   UNL     1      -8.633   7.918  65.601  1.00  0.00    -0.138 C  
HETATM   23  C   UNL     1      -6.713   6.613  66.536  1.00  0.00    -0.056 C  
HETATM   24  C   UNL     1      -8.229   6.605  66.289  1.00  0.00    -0.120 C  
HETATM   25  O   UNL     1      -7.858   8.654  64.988  1.00  0.00    -0.104 OA 
HETATM   26  H   UNL     1      -8.660   5.668  67.967  1.00  0.00     0.000 HD 
HETATM   27  C   UNL     1      -8.648   5.421  65.384  1.00  0.00    -0.150 C  
HETATM   28  O   UNL     1      -8.909   6.479  67.542  1.00  0.00    -0.114 OA 
BRANCH  23  29
HETATM   29  C   UNL     1      -6.277   7.771  67.422  1.00  0.00    -0.054 C  
HETATM   30  O   UNL     1      -6.188   7.761  68.645  1.00  0.00    -0.034 OA 
BRANCH  29  31
HETATM   31  O   UNL     1      -5.977   8.836  66.616  1.00  0.00    -0.051 OA 
HETATM   32  C   UNL     1      -5.283   8.464  65.427  1.00  0.00    -0.035 C  
ENDBRANCH  29  31
ENDBRANCH  23  29
BRANCH  27  33
HETATM   33  C   UNL     1      -8.301   4.003  65.887  1.00  0.00    -0.109 C  
BRANCH  33  34
HETATM   34  C   UNL     1      -6.966   3.446  65.367  1.00  0.00    -0.057 C  
HETATM   35  C   UNL     1      -7.819   2.848  63.035  1.00  0.00    -0.068 C  
HETATM   36  O   UNL     1      -6.787   4.954  63.486  1.00  0.00    -0.040 OA 
HETATM   37  C   UNL     1      -6.747   3.571  63.847  1.00  0.00    -0.043 C  
HETATM   38  C   UNL     1      -5.361   3.026  63.480  1.00  0.00    -0.009 C  
HETATM   39  H   UNL     1      -6.652   5.031  62.548  1.00  0.00     0.000 HD 
ENDBRANCH  33  34
ENDBRANCH  27  33
ENDBRANCH  21  22
ENDBRANCH   1  21
BRANCH   3  40
HETATM   40  O   UNL     1      -8.445   9.866  63.861  1.00  0.00    -0.152 OA 
HETATM   41  C   UNL     1      -8.941   9.838  62.535  1.00  0.00    -0.268 C  
ENDBRANCH   3  40
TORSDOF 7
ENDMDL
MODEL      166
REMARK 921   NORMALIZED FREE ENERGY PREDICTED BY IDOCK:    3.31 KCAL/MOL
REMARK 922        TOTAL FREE ENERGY PREDICTED BY IDOCK:    2.79 KCAL/MOL
REMARK 923 INTER-LIGAND FREE ENERGY PREDICTED BY IDOCK:   -2.75 KCAL/MOL
REMARK 924 INTRA-LIGAND FREE ENERGY PREDICTED BY IDOCK:    5.55 KCAL/MOL
REMARK 927      BINDING AFFINITY PREDICTED BY RF-SCORE:    0.00 PKD
ROOT
HETATM    1  C   UNL     1     -10.441   7.392  66.920  1.00  0.00    -0.309 C  
HETATM    2  O   UNL     1      -5.197  10.093  63.757  1.00  0.00    -0.086 OA 
HETATM    3  C   UNL     1     -10.430   7.114  68.407  1.00  0.00    -0.197 C  
HETATM    4  C   UNL     1      -9.129   6.674  66.363  1.00  0.00    -0.172 C  
HETATM    5  C   UNL     1      -5.444   9.536  62.456  1.00  0.00    -0.084 C  
HETATM    6  C   UNL     1      -9.684   6.052  68.710  1.00  0.00    -0.156 C  
HETATM    7  C   UNL     1      -8.948   5.464  67.535  1.00  0.00    -0.108 C  
HETATM    8  C   UNL     1      -7.957   7.639  65.733  1.00  0.00    -0.116 A  
HETATM    9  C   UNL     1      -7.907   7.786  64.325  1.00  0.00    -0.138 A  
HETATM   10  O   UNL     1      -6.614   8.680  62.420  1.00  0.00    -0.095 OA 
HETATM   11  C   UNL     1      -6.925   8.595  63.746  1.00  0.00    -0.087 A  
HETATM   12  C   UNL     1      -9.603   4.134  67.148  1.00  0.00    -0.229 C  
HETATM   13  C   UNL     1      -6.086   9.378  64.499  1.00  0.00    -0.077 A  
HETATM   14  C   UNL     1      -6.040   9.268  65.864  1.00  0.00    -0.055 A  
HETATM   15  C   UNL     1      -8.509   3.080  67.266  1.00  0.00    -0.103 C  
HETATM   16  C   UNL     1      -6.801   8.230  66.431  1.00  0.00    -0.066 A  
HETATM   17  C   UNL     1      -5.884   7.330  67.375  1.00  0.00    -0.030 C  
HETATM   18  C   UNL     1      -6.831   6.236  67.689  1.00  0.00    -0.069 C  
HETATM   19  N   UNL     1      -7.589   5.101  68.081  1.00  0.00    -0.079 NA 
HETATM   20  C   UNL     1      -7.203   3.824  67.489  1.00  0.00    -0.063 C  
ENDROOT
BRANCH   1  21
HETATM   21  O   UNL     1     -10.603   8.772  66.612  1.00  0.00    -0.226 OA 
BRANCH  21  22
HETATM   22  C   UNL     1     -10.353   9.574  67.692  1.00  0.00    -0.244 C  
HETATM   23  C   UNL     1      -9.472  11.836  68.299  1.00  0.00    -0.193 C  
HETATM   24  C   UNL     1     -10.289  11.048  67.265  1.00  0.00    -0.211 C  
HETATM   25  O   UNL     1     -10.154   9.168  68.839  1.00  0.00    -0.185 OA 
HETATM   26  H   UNL     1      -9.620  12.070  65.720  1.00  0.00     0.000 HD 
HETATM   27  C   UNL     1     -11.732  11.595  67.150  1.00  0.00    -0.215 C  
HETATM   28  O   UNL     1      -9.659  11.159  65.984  1.00  0.00    -0.202 OA 
BRANCH  23  29
HETATM   29  C   UNL     1      -8.048  11.315  68.432  1.00  0.00    -0.143 C  
HETATM   30  O   UNL     1      -7.671  10.164  68.243  1.00  0.00    -0.086 OA 
BRANCH  29  31
HETATM   31  O   UNL     1      -7.242  12.364  68.785  1.00  0.00    -0.106 OA 
HETATM   32  C   UNL     1      -6.838  13.162  67.674  1.00  0.00    -0.158 C  
ENDBRANCH  29  31
ENDBRANCH  23  29
BRANCH  27  33
HETATM   33  C   UNL     1     -11.885  13.080  66.756  1.00  0.00    -0.451 C  
BRANCH  33  34
HETATM   34  C   UNL     1     -11.848  13.350  65.243  1.00  0.00    -0.373 C  
HETATM   35  C   UNL     1     -13.392  15.384  65.300  1.00  0.00     1.804 C  
HETATM   36  O   UNL     1     -11.019  15.614  65.418  1.00  0.00    -0.350 OA 
HETATM   37  C   UNL     1     -12.054  14.821  64.831  1.00  0.00    -0.333 C  
HETATM   38  C   UNL     1     -11.941  14.949  63.307  1.00  0.00     1.537 C  
HETATM   39  H   UNL     1     -11.145  16.521  65.164  1.00  0.00     0.000 HD 
ENDBRANCH  33  34
ENDBRANCH  27  33
ENDBRANCH  21  22
ENDBRANCH   1  21
BRANCH   3  40
HETATM   40  O   UNL     1     -11.044   7.817  69.411  1.00  0.00    -0.108 OA 
HETATM   41  C   UNL     1     -11.840   7.145  70.370  1.00  0.00    -0.191 C  
ENDBRANCH   3  40
TORSDOF 7
ENDMDL
MODEL      167
REMARK 921   NORMALIZED FREE ENERGY PREDICTED BY IDOCK:    3.33 KCAL/MOL
REMARK 922        TOTAL FREE ENERGY PREDICTED BY IDOCK:    2.82 KCAL/MOL
REMARK 923 INTER-LIGAND FREE ENERGY PREDICTED BY IDOCK:   -7.84 KCAL/MOL
REMARK 924 INTRA-LIGAND FREE ENERGY PREDICTED BY IDOCK:   10.66 KCAL/MOL
REMARK 927      BINDING AFFINITY PREDICTED BY RF-SCORE:    0.00 PKD
ROOT
HETATM    1  C   UNL     1      -7.684   9.186  68.676  1.00  0.00    -0.092 C  
HETATM    2  O   UNL     1     -12.240   5.809  72.230  1.00  0.00    -0.188 OA 
HETATM    3  C   UNL     1      -7.889   9.524  67.215  1.00  0.00    -0.098 C  
HETATM    4  C   UNL     1      -7.917   7.610  68.764  1.00  0.00    -0.126 C  
HETATM    5  C   UNL     1     -11.345   5.223  73.189  1.00  0.00    -0.291 C  
HETATM    6  C   UNL     1      -7.730   8.459  66.430  1.00  0.00    -0.094 C  
HETATM    7  C   UNL     1      -7.506   7.173  67.180  1.00  0.00    -0.098 C  
HETATM    8  C   UNL     1      -9.207   7.092  69.642  1.00  0.00    -0.146 A  
HETATM    9  C   UNL     1      -8.972   6.660  70.971  1.00  0.00    -0.146 A  
HETATM   10  O   UNL     1      -9.958   5.576  72.959  1.00  0.00    -0.170 OA 
HETATM   11  C   UNL     1     -10.039   6.209  71.753  1.00  0.00    -0.185 A  
HETATM   12  C   UNL     1      -6.042   6.749  67.023  1.00  0.00    -0.032 C  
HETATM   13  C   UNL     1     -11.343   6.303  71.333  1.00  0.00    -0.296 A  
HETATM   14  C   UNL     1     -11.656   6.671  70.051  1.00  0.00    -0.423 A  
HETATM   15  C   UNL     1      -6.073   5.368  66.378  1.00  0.00    -0.030 C  
HETATM   16  C   UNL     1     -10.574   6.822  69.165  1.00  0.00    -0.261 A  
HETATM   17  C   UNL     1     -10.812   5.943  67.856  1.00  0.00    -0.323 C  
HETATM   18  C   UNL     1      -9.500   6.112  67.190  1.00  0.00    -0.119 C  
HETATM   19  N   UNL     1      -8.307   6.144  66.420  1.00  0.00    -0.116 NA 
HETATM   20  C   UNL     1      -7.524   4.914  66.382  1.00  0.00    -0.087 C  
ENDROOT
BRANCH   1  21
HETATM   21  O   UNL     1      -8.453  10.004  69.550  1.00  0.00    -0.150 OA 
BRANCH  21  22
HETATM   22  C   UNL     1      -9.736   9.548  69.686  1.00  0.00    -0.200 C  
HETATM   23  C   UNL     1     -12.117  10.299  69.510  1.00  0.00    -0.025 C  
HETATM   24  C   UNL     1     -10.711  10.448  68.910  1.00  0.00    -0.224 C  
HETATM   25  O   UNL     1     -10.071   8.585  70.376  1.00  0.00    -0.184 OA 
HETATM   26  H   UNL     1     -10.902  12.371  68.529  1.00  0.00     0.000 HD 
HETATM   27  C   UNL     1     -10.687  10.035  67.418  1.00  0.00    -0.336 C  
HETATM   28  O   UNL     1     -10.299  11.815  69.008  1.00  0.00    -0.167 OA 
BRANCH  23  29
HETATM   29  C   UNL     1     -12.165  10.697  70.978  1.00  0.00    -0.393 C  
HETATM   30  O   UNL     1     -12.036   9.951  71.942  1.00  0.00    -0.331 OA 
BRANCH  29  31
HETATM   31  O   UNL     1     -12.363  12.050  71.046  1.00  0.00    -0.346 OA 
HETATM   32  C   UNL     1     -13.358  12.426  71.996  1.00  0.00    -0.407 C  
ENDBRANCH  29  31
ENDBRANCH  23  29
BRANCH  27  33
HETATM   33  C   UNL     1     -11.628  10.806  66.467  1.00  0.00     0.739 C  
BRANCH  33  34
HETATM   34  C   UNL     1     -11.244  12.277  66.237  1.00  0.00    -0.367 C  
HETATM   35  C   UNL     1     -11.289  12.165  63.686  1.00  0.00    -0.545 C  
HETATM   36  O   UNL     1     -13.204  12.842  64.940  1.00  0.00    -0.782 OA 
HETATM   37  C   UNL     1     -11.775  12.900  64.932  1.00  0.00    -0.348 C  
HETATM   38  C   UNL     1     -11.362  14.375  64.860  1.00  0.00    -0.380 C  
HETATM   39  H   UNL     1     -13.532  13.226  64.136  1.00  0.00     0.000 HD 
ENDBRANCH  33  34
ENDBRANCH  27  33
ENDBRANCH  21  22
ENDBRANCH   1  21
BRANCH   3  40
HETATM   40  O   UNL     1      -8.230  10.729  66.658  1.00  0.00    -0.129 OA 
HETATM   41  C   UNL     1      -8.108  10.931  65.261  1.00  0.00     0.060 C  
ENDBRANCH   3  40
TORSDOF 7
ENDMDL
MODEL      168
REMARK 921   NORMALIZED FREE ENERGY PREDICTED BY IDOCK:    3.43 KCAL/MOL
REMARK 922        TOTAL FREE ENERGY PREDICTED BY IDOCK:    2.96 KCAL/MOL
REMARK 923 INTER-LIGAND FREE ENERGY PREDICTED BY IDOCK:   -4.33 KCAL/MOL
REMARK 924 INTRA-LIGAND FREE ENERGY PREDICTED BY IDOCK:    7.29 KCAL/MOL
REMARK 927      BINDING AFFINITY PREDICTED BY RF-SCORE:    0.00 PKD
ROOT
HETATM    1  C   UNL     1      -9.500   6.591  72.551  1.00  0.00    -0.144 C  
HETATM    2  O   UNL     1      -9.016   5.073  66.050  1.00  0.00    -0.127 OA 
HETATM    3  C   UNL     1      -8.518   6.067  73.577  1.00  0.00    -0.119 C  
HETATM    4  C   UNL     1     -10.019   5.290  71.786  1.00  0.00    -0.245 C  
HETATM    5  C   UNL     1     -10.405   5.211  65.713  1.00  0.00    -0.049 C  
HETATM    6  C   UNL     1      -8.723   4.779  73.850  1.00  0.00    -0.105 C  
HETATM    7  C   UNL     1      -9.784   4.133  73.001  1.00  0.00    -0.129 C  
HETATM    8  C   UNL     1      -9.639   5.158  70.192  1.00  0.00    -0.247 A  
HETATM    9  C   UNL     1     -10.622   5.536  69.244  1.00  0.00    -0.325 A  
HETATM   10  O   UNL     1     -11.232   5.563  66.851  1.00  0.00     0.053 OA 
HETATM   11  C   UNL     1     -10.342   5.438  67.878  1.00  0.00    -0.160 A  
HETATM   12  C   UNL     1     -11.030   3.886  73.857  1.00  0.00    -0.285 C  
HETATM   13  C   UNL     1      -9.091   5.124  67.408  1.00  0.00    -0.113 A  
HETATM   14  C   UNL     1      -8.096   4.706  68.253  1.00  0.00    -0.084 A  
HETATM   15  C   UNL     1     -11.284   2.384  73.803  1.00  0.00    -0.297 C  
HETATM   16  C   UNL     1      -8.463   4.501  69.594  1.00  0.00    -0.087 A  
HETATM   17  C   UNL     1      -8.036   3.037  70.061  1.00  0.00    -0.059 C  
HETATM   18  C   UNL     1      -8.678   2.993  71.395  1.00  0.00    -0.073 C  
HETATM   19  N   UNL     1      -9.236   2.764  72.681  1.00  0.00    -0.086 NA 
HETATM   20  C   UNL     1     -10.344   1.818  72.750  1.00  0.00    -0.142 C  
ENDROOT
BRANCH   1  21
HETATM   21  O   UNL     1      -8.965   7.641  71.754  1.00  0.00    -0.117 OA 
BRANCH  21  22
HETATM   22  C   UNL     1      -7.597   7.615  71.716  1.00  0.00    -0.085 C  
HETATM   23  C   UNL     1      -5.670   7.855  70.139  1.00  0.00    -0.023 C  
HETATM   24  C   UNL     1      -7.078   8.363  70.478  1.00  0.00    -0.038 C  
HETATM   25  O   UNL     1      -6.882   7.029  72.530  1.00  0.00    -0.064 OA 
HETATM   26  H   UNL     1      -7.625   8.587  68.599  1.00  0.00     0.000 HD 
HETATM   27  C   UNL     1      -7.075   9.881  70.780  1.00  0.00     0.019 C  
HETATM   28  O   UNL     1      -7.945   8.125  69.364  1.00  0.00    -0.110 OA 
BRANCH  23  29
HETATM   29  C   UNL     1      -5.647   6.363  69.840  1.00  0.00    -0.014 C  
HETATM   30  O   UNL     1      -5.962   5.459  70.606  1.00  0.00    -0.020 OA 
BRANCH  29  31
HETATM   31  O   UNL     1      -5.228   6.194  68.547  1.00  0.00    -0.006 OA 
HETATM   32  C   UNL     1      -5.135   7.418  67.822  1.00  0.00    -0.021 C  
ENDBRANCH  29  31
ENDBRANCH  23  29
BRANCH  27  33
HETATM   33  C   UNL     1      -6.556  10.812  69.664  1.00  0.00    -0.114 C  
BRANCH  33  34
HETATM   34  C   UNL     1      -7.654  11.564  68.893  1.00  0.00    -0.102 C  
HETATM   35  C   UNL     1      -6.454  11.543  66.639  1.00  0.00    -0.090 C  
HETATM   36  O   UNL     1      -8.016   9.839  67.238  1.00  0.00    -0.105 OA 
HETATM   37  C   UNL     1      -7.746  11.235  67.390  1.00  0.00    -0.128 C  
HETATM   38  C   UNL     1      -8.910  12.013  66.764  1.00  0.00    -0.198 C  
HETATM   39  H   UNL     1      -8.073   9.636  66.311  1.00  0.00     0.000 HD 
ENDBRANCH  33  34
ENDBRANCH  27  33
ENDBRANCH  21  22
ENDBRANCH   1  21
BRANCH   3  40
HETATM   40  O   UNL     1      -7.488   6.733  74.190  1.00  0.00    -0.096 OA 
HETATM   41  C   UNL     1      -7.510   8.145  74.291  1.00  0.00    -0.200 C  
ENDBRANCH   3  40
TORSDOF 7
ENDMDL
MODEL      169
REMARK 921   NORMALIZED FREE ENERGY PREDICTED BY IDOCK:    3.94 KCAL/MOL
REMARK 922        TOTAL FREE ENERGY PREDICTED BY IDOCK:    3.69 KCAL/MOL
REMARK 923 INTER-LIGAND FREE ENERGY PREDICTED BY IDOCK:   -6.02 KCAL/MOL
REMARK 924 INTRA-LIGAND FREE ENERGY PREDICTED BY IDOCK:    9.70 KCAL/MOL
REMARK 927      BINDING AFFINITY PREDICTED BY RF-SCORE:    0.00 PKD
ROOT
HETATM    1  C   UNL     1      -6.455  10.523  67.088  1.00  0.00    -0.073 C  
HETATM    2  O   UNL     1     -11.945  14.331  67.479  1.00  0.00    -0.389 OA 
HETATM    3  C   UNL     1      -6.520   9.011  67.089  1.00  0.00    -0.061 C  
HETATM    4  C   UNL     1      -7.276  10.965  68.383  1.00  0.00    -0.087 C  
HETATM    5  C   UNL     1     -11.341  15.484  68.086  1.00  0.00    -0.345 C  
HETATM    6  C   UNL     1      -6.786   8.524  68.301  1.00  0.00    -0.065 C  
HETATM    7  C   UNL     1      -7.071   9.579  69.336  1.00  0.00    -0.055 C  
HETATM    8  C   UNL     1      -8.662  11.813  68.136  1.00  0.00    -0.168 A  
HETATM    9  C   UNL     1      -8.606  13.224  68.265  1.00  0.00    -0.169 A  
HETATM   10  O   UNL     1      -9.925  15.310  68.348  1.00  0.00    -0.213 OA 
HETATM   11  C   UNL     1      -9.762  13.985  68.066  1.00  0.00    -0.221 A  
HETATM   12  C   UNL     1      -5.883   9.670  70.300  1.00  0.00    -0.051 C  
HETATM   13  C   UNL     1     -10.931  13.432  67.606  1.00  0.00    -0.259 A  
HETATM   14  C   UNL     1     -11.083  12.074  67.493  1.00  0.00    -0.331 A  
HETATM   15  C   UNL     1      -6.446   9.377  71.685  1.00  0.00     0.089 C  
HETATM   16  C   UNL     1     -10.030  11.287  67.991  1.00  0.00    -0.191 A  
HETATM   17  C   UNL     1     -10.593  10.211  69.025  1.00  0.00    -0.245 C  
HETATM   18  C   UNL     1      -9.320   9.653  69.536  1.00  0.00    -0.200 C  
HETATM   19  N   UNL     1      -8.209   9.016  70.151  1.00  0.00    -0.121 NA 
HETATM   20  C   UNL     1      -7.960   9.351  71.549  1.00  0.00     0.488 C  
ENDROOT
BRANCH   1  21
HETATM   21  O   UNL     1      -6.846  11.097  65.846  1.00  0.00    -0.028 OA 
BRANCH  21  22
HETATM   22  C   UNL     1      -8.207  11.153  65.711  1.00  0.00    -0.004 C  
HETATM   23  C   UNL     1     -10.085  10.227  64.341  1.00  0.00    -0.242 C  
HETATM   24  C   UNL     1      -8.727   9.905  64.980  1.00  0.00    -0.174 C  
HETATM   25  O   UNL     1      -8.912  12.095  66.075  1.00  0.00    -0.122 OA 
HETATM   26  H   UNL     1      -8.126   8.747  63.505  1.00  0.00     0.000 HD 
HETATM   27  C   UNL     1      -8.842   8.745  65.999  1.00  0.00    -0.210 C  
HETATM   28  O   UNL     1      -7.805   9.518  63.956  1.00  0.00    -0.117 OA 
BRANCH  23  29
HETATM   29  C   UNL     1      -9.998  11.367  63.336  1.00  0.00    -0.402 C  
HETATM   30  O   UNL     1      -9.187  11.475  62.423  1.00  0.00    -0.241 OA 
BRANCH  29  31
HETATM   31  O   UNL     1     -11.001  12.256  63.613  1.00  0.00    -0.399 OA 
HETATM   32  C   UNL     1     -12.279  11.638  63.752  1.00  0.00    -0.208 C  
ENDBRANCH  29  31
ENDBRANCH  23  29
BRANCH  27  33
HETATM   33  C   UNL     1      -9.379   7.399  65.465  1.00  0.00     0.392 C  
BRANCH  33  34
HETATM   34  C   UNL     1      -8.871   6.161  66.221  1.00  0.00    -0.150 C  
HETATM   35  C   UNL     1     -10.681   6.193  68.023  1.00  0.00    -0.370 C  
HETATM   36  O   UNL     1     -10.925   4.899  66.031  1.00  0.00    -0.622 OA 
HETATM   37  C   UNL     1      -9.952   5.359  66.973  1.00  0.00    -0.179 C  
HETATM   38  C   UNL     1      -9.315   4.131  67.634  1.00  0.00    -0.208 C  
HETATM   39  H   UNL     1     -11.591   4.405  66.494  1.00  0.00     0.000 HD 
ENDBRANCH  33  34
ENDBRANCH  27  33
ENDBRANCH  21  22
ENDBRANCH   1  21
BRANCH   3  40
HETATM   40  O   UNL     1      -6.373   8.150  66.033  1.00  0.00    -0.045 OA 
HETATM   41  C   UNL     1      -5.507   7.034  66.134  1.00  0.00    -0.023 C  
ENDBRANCH   3  40
TORSDOF 7
ENDMDL
MODEL      170
REMARK 921   NORMALIZED FREE ENERGY PREDICTED BY IDOCK:    4.05 KCAL/MOL
REMARK 922        TOTAL FREE ENERGY PREDICTED BY IDOCK:    3.84 KCAL/MOL
REMARK 923 INTER-LIGAND FREE ENERGY PREDICTED BY IDOCK:   -6.34 KCAL/MOL
REMARK 924 INTRA-LIGAND FREE ENERGY PREDICTED BY IDOCK:   10.18 KCAL/MOL
REMARK 927      BINDING AFFINITY PREDICTED BY RF-SCORE:    0.00 PKD
ROOT
HETATM    1  C   UNL     1      -6.677   8.446  69.703  1.00  0.00    -0.037 C  
HETATM    2  O   UNL     1     -11.877  11.593  66.901  1.00  0.00    -0.577 OA 
HETATM    3  C   UNL     1      -6.672   6.951  69.940  1.00  0.00    -0.049 C  
HETATM    4  C   UNL     1      -8.024   8.960  70.389  1.00  0.00    -0.120 C  
HETATM    5  C   UNL     1     -11.673  12.882  67.502  1.00  0.00    -0.367 C  
HETATM    6  C   UNL     1      -7.449   6.606  70.966  1.00  0.00    -0.084 C  
HETATM    7  C   UNL     1      -8.227   7.751  71.558  1.00  0.00    -0.105 C  
HETATM    8  C   UNL     1      -9.172   9.596  69.399  1.00  0.00    -0.196 A  
HETATM    9  C   UNL     1      -9.242  11.007  69.289  1.00  0.00     0.063 A  
HETATM   10  O   UNL     1     -10.536  12.914  68.401  1.00  0.00    -0.241 OA 
HETATM   11  C   UNL     1     -10.204  11.592  68.460  1.00  0.00    -0.210 A  
HETATM   12  C   UNL     1      -7.627   8.113  72.921  1.00  0.00    -0.181 C  
HETATM   13  C   UNL     1     -11.001  10.847  67.627  1.00  0.00    -0.293 A  
HETATM   14  C   UNL     1     -11.026   9.478  67.698  1.00  0.00    -0.150 A  
HETATM   15  C   UNL     1      -8.756   7.946  73.932  1.00  0.00    -0.332 C  
HETATM   16  C   UNL     1     -10.293   8.896  68.747  1.00  0.00    -0.232 A  
HETATM   17  C   UNL     1     -11.225   7.912  69.587  1.00  0.00     0.064 C  
HETATM   18  C   UNL     1     -10.312   7.584  70.706  1.00  0.00    -0.203 C  
HETATM   19  N   UNL     1      -9.588   7.173  71.857  1.00  0.00    -0.150 NA 
HETATM   20  C   UNL     1     -10.031   7.722  73.134  1.00  0.00    -0.311 C  
ENDROOT
BRANCH   1  21
HETATM   21  O   UNL     1      -6.472   8.795  68.339  1.00  0.00    -0.054 OA 
BRANCH  21  22
HETATM   22  C   UNL     1      -7.635   8.769  67.619  1.00  0.00    -0.097 C  
HETATM   23  C   UNL     1      -8.720   7.621  65.678  1.00  0.00    -0.119 C  
HETATM   24  C   UNL     1      -7.779   7.431  66.876  1.00  0.00    -0.110 C  
HETATM   25  O   UNL     1      -8.431   9.705  67.535  1.00  0.00    -0.124 OA 
HETATM   26  H   UNL     1      -6.588   6.167  65.946  1.00  0.00     0.000 HD 
HETATM   27  C   UNL     1      -8.326   6.371  67.863  1.00  0.00    -0.118 C  
HETATM   28  O   UNL     1      -6.500   6.994  66.406  1.00  0.00    -0.048 OA 
BRANCH  23  29
HETATM   29  C   UNL     1      -8.204   8.661  64.694  1.00  0.00    -0.165 C  
HETATM   30  O   UNL     1      -7.092   8.692  64.180  1.00  0.00    -0.087 OA 
BRANCH  29  31
HETATM   31  O   UNL     1      -9.209   9.561  64.460  1.00  0.00    -0.238 OA 
HETATM   32  C   UNL     1      -9.188  10.096  63.138  1.00  0.00    -0.289 C  
ENDBRANCH  29  31
ENDBRANCH  23  29
BRANCH  27  33
HETATM   33  C   UNL     1      -8.570   4.955  67.299  1.00  0.00    -0.104 C  
BRANCH  33  34
HETATM   34  C   UNL     1      -9.707   4.862  66.268  1.00  0.00    -0.200 C  
HETATM   35  C   UNL     1      -8.268   3.934  64.372  1.00  0.00    -0.090 C  
HETATM   36  O   UNL     1      -9.467   2.493  65.851  1.00  0.00    -0.355 OA 
HETATM   37  C   UNL     1      -9.539   3.764  65.200  1.00  0.00    -0.177 C  
HETATM   38  C   UNL     1     -10.763   3.753  64.275  1.00  0.00    -0.216 C  
HETATM   39  H   UNL     1      -9.364   1.816  65.192  1.00  0.00     0.000 HD 
ENDBRANCH  33  34
ENDBRANCH  27  33
ENDBRANCH  21  22
ENDBRANCH   1  21
BRANCH   3  40
HETATM   40  O   UNL     1      -6.015   5.978  69.233  1.00  0.00    -0.025 OA 
HETATM   41  C   UNL     1      -5.770   4.711  69.817  1.00  0.00    -0.016 C  
ENDBRANCH   3  40
TORSDOF 7
ENDMDL
MODEL      171
REMARK 921   NORMALIZED FREE ENERGY PREDICTED BY IDOCK:    4.08 KCAL/MOL
REMARK 922        TOTAL FREE ENERGY PREDICTED BY IDOCK:    3.88 KCAL/MOL
REMARK 923 INTER-LIGAND FREE ENERGY PREDICTED BY IDOCK:   -2.75 KCAL/MOL
REMARK 924 INTRA-LIGAND FREE ENERGY PREDICTED BY IDOCK:    6.64 KCAL/MOL
REMARK 927      BINDING AFFINITY PREDICTED BY RF-SCORE:    0.00 PKD
ROOT
HETATM    1  C   UNL     1      -8.969   6.443  67.914  1.00  0.00    -0.114 C  
HETATM    2  O   UNL     1      -7.452  11.261  63.523  1.00  0.00     0.708 OA 
HETATM    3  C   UNL     1      -7.992   5.982  68.975  1.00  0.00    -0.104 C  
HETATM    4  C   UNL     1      -8.160   6.329  66.542  1.00  0.00    -0.110 C  
HETATM    5  C   UNL     1      -8.324  10.839  62.461  1.00  0.00    -0.214 C  
HETATM    6  C   UNL     1      -7.021   5.227  68.463  1.00  0.00    -0.057 C  
HETATM    7  C   UNL     1      -7.058   5.113  66.963  1.00  0.00    -0.069 C  
HETATM    8  C   UNL     1      -7.848   7.728  65.739  1.00  0.00    -0.104 A  
HETATM    9  C   UNL     1      -8.703   8.079  64.664  1.00  0.00     0.188 A  
HETATM   10  O   UNL     1      -9.064   9.635  62.781  1.00  0.00    -0.262 OA 
HETATM   11  C   UNL     1      -8.473   9.259  63.952  1.00  0.00    -0.190 A  
HETATM   12  C   UNL     1      -7.524   3.705  66.577  1.00  0.00    -0.077 C  
HETATM   13  C   UNL     1      -7.531  10.178  64.343  1.00  0.00    -0.123 A  
HETATM   14  C   UNL     1      -6.637   9.901  65.345  1.00  0.00    -0.099 A  
HETATM   15  C   UNL     1      -6.400   3.108  65.738  1.00  0.00    -0.032 C  
HETATM   16  C   UNL     1      -6.660   8.591  65.855  1.00  0.00    -0.053 A  
HETATM   17  C   UNL     1      -5.197   7.958  65.803  1.00  0.00    -0.028 C  
HETATM   18  C   UNL     1      -5.504   6.564  66.198  1.00  0.00    -0.014 C  
HETATM   19  N   UNL     1      -5.612   5.190  66.539  1.00  0.00    -0.016 NA 
HETATM   20  C   UNL     1      -5.418   4.233  65.454  1.00  0.00    -0.013 C  
ENDROOT
BRANCH   1  21
HETATM   21  O   UNL     1      -9.562   7.701  68.212  1.00  0.00    -0.150 OA 
BRANCH  21  22
HETATM   22  C   UNL     1      -8.890   8.366  69.202  1.00  0.00    -0.142 C  
HETATM   23  C   UNL     1      -7.417  10.352  69.584  1.00  0.00    -0.160 C  
HETATM   24  C   UNL     1      -8.611   9.818  68.780  1.00  0.00    -0.127 C  
HETATM   25  O   UNL     1      -8.515   7.860  70.260  1.00  0.00    -0.125 OA 
HETATM   26  H   UNL     1      -8.128  10.766  67.123  1.00  0.00     0.000 HD 
HETATM   27  C   UNL     1      -9.884  10.661  69.030  1.00  0.00    -0.218 C  
HETATM   28  O   UNL     1      -8.301   9.870  67.384  1.00  0.00    -0.117 OA 
BRANCH  23  29
HETATM   29  C   UNL     1      -6.152   9.537  69.356  1.00  0.00    -0.036 C  
HETATM   30  O   UNL     1      -6.005   8.340  69.579  1.00  0.00    -0.032 OA 
BRANCH  29  31
HETATM   31  O   UNL     1      -5.197  10.369  68.835  1.00  0.00    -0.042 OA 
HETATM   32  C   UNL     1      -5.201  11.667  69.425  1.00  0.00    -0.052 C  
ENDBRANCH  29  31
ENDBRANCH  23  29
BRANCH  27  33
HETATM   33  C   UNL     1      -9.800  12.166  68.696  1.00  0.00    -0.110 C  
BRANCH  33  34
HETATM   34  C   UNL     1      -9.787  12.490  67.193  1.00  0.00    -0.210 C  
HETATM   35  C   UNL     1     -11.871  11.130  66.614  1.00  0.00     0.756 C  
HETATM   36  O   UNL     1     -12.002  13.457  67.132  1.00  0.00    -0.375 OA 
HETATM   37  C   UNL     1     -11.167  12.480  66.506  1.00  0.00    -0.307 C  
HETATM   38  C   UNL     1     -11.009  12.867  65.030  1.00  0.00    -0.324 C  
HETATM   39  H   UNL     1     -12.852  13.451  66.708  1.00  0.00     0.000 HD 
ENDBRANCH  33  34
ENDBRANCH  27  33
ENDBRANCH  21  22
ENDBRANCH   1  21
BRANCH   3  40
HETATM   40  O   UNL     1      -7.990   6.269  70.315  1.00  0.00    -0.107 OA 
HETATM   41  C   UNL     1      -7.486   5.330  71.247  1.00  0.00    -0.091 C  
ENDBRANCH   3  40
TORSDOF 7
ENDMDL
MODEL      172
REMARK 921   NORMALIZED FREE ENERGY PREDICTED BY IDOCK:    4.11 KCAL/MOL
REMARK 922        TOTAL FREE ENERGY PREDICTED BY IDOCK:    3.92 KCAL/MOL
REMARK 923 INTER-LIGAND FREE ENERGY PREDICTED BY IDOCK:    2.42 KCAL/MOL
REMARK 924 INTRA-LIGAND FREE ENERGY PREDICTED BY IDOCK:    1.50 KCAL/MOL
REMARK 927      BINDING AFFINITY PREDICTED BY RF-SCORE:    0.00 PKD
ROOT
HETATM    1  C   UNL     1     -10.293  10.701  69.838  1.00  0.00    -0.026 C  
HETATM    2  O   UNL     1      -7.546   6.657  65.266  1.00  0.00    -0.077 OA 
HETATM    3  C   UNL     1     -11.315  11.756  69.471  1.00  0.00    -0.248 C  
HETATM    4  C   UNL     1      -9.056  10.981  68.868  1.00  0.00    -0.132 C  
HETATM    5  C   UNL     1      -6.307   6.403  65.949  1.00  0.00    -0.039 C  
HETATM    6  C   UNL     1     -10.754  12.802  68.865  1.00  0.00    -0.199 C  
HETATM    7  C   UNL     1      -9.285  12.635  68.586  1.00  0.00     0.034 C  
HETATM    8  C   UNL     1      -8.694   9.818  67.764  1.00  0.00    -0.129 A  
HETATM    9  C   UNL     1      -7.646   8.915  68.073  1.00  0.00    -0.093 A  
HETATM   10  O   UNL     1      -6.203   7.106  67.213  1.00  0.00    -0.041 OA 
HETATM   11  C   UNL     1      -7.302   7.913  67.163  1.00  0.00    -0.091 A  
HETATM   12  C   UNL     1      -8.488  13.533  69.538  1.00  0.00     1.145 C  
HETATM   13  C   UNL     1      -8.039   7.670  66.030  1.00  0.00    -0.118 A  
HETATM   14  C   UNL     1      -9.041   8.518  65.635  1.00  0.00    -0.189 A  
HETATM   15  C   UNL     1      -7.676  14.468  68.650  1.00  0.00    -0.137 C  
HETATM   16  C   UNL     1      -9.184   9.702  66.380  1.00  0.00    -0.205 A  
HETATM   17  C   UNL     1      -9.160  10.966  65.408  1.00  0.00    -0.218 C  
HETATM   18  C   UNL     1      -9.134  12.059  66.407  1.00  0.00    -0.193 C  
HETATM   19  N   UNL     1      -9.087  13.228  67.213  1.00  0.00    -0.212 NA 
HETATM   20  C   UNL     1      -7.825  13.960  67.225  1.00  0.00    -0.114 C  
ENDROOT
BRANCH   1  21
HETATM   21  O   UNL     1     -10.829   9.383  69.839  1.00  0.00    -0.224 OA 
BRANCH  21  22
HETATM   22  C   UNL     1     -10.541   8.710  70.995  1.00  0.00    -0.221 C  
HETATM   23  C   UNL     1     -10.130   6.405  71.877  1.00  0.00    -0.204 C  
HETATM   24  C   UNL     1      -9.915   7.343  70.680  1.00  0.00    -0.186 C  
HETATM   25  O   UNL     1     -10.795   9.119  72.129  1.00  0.00    -0.297 OA 
HETATM   26  H   UNL     1     -10.150   5.931  69.327  1.00  0.00     0.000 HD 
HETATM   27  C   UNL     1      -8.410   7.542  70.381  1.00  0.00    -0.128 C  
HETATM   28  O   UNL     1     -10.536   6.777  69.522  1.00  0.00    -0.207 OA 
BRANCH  23  29
HETATM   29  C   UNL     1     -11.604   6.195  72.193  1.00  0.00    -0.317 C  
HETATM   30  O   UNL     1     -12.520   6.116  71.382  1.00  0.00     0.047 OA 
BRANCH  29  31
HETATM   31  O   UNL     1     -11.738   6.089  73.551  1.00  0.00     0.447 OA 
HETATM   32  C   UNL     1     -10.609   6.584  74.268  1.00  0.00    -0.010 C  
ENDBRANCH  29  31
ENDBRANCH  23  29
BRANCH  27  33
HETATM   33  C   UNL     1      -7.588   6.273  70.067  1.00  0.00    -0.096 C  
BRANCH  33  34
HETATM   34  C   UNL     1      -8.407   4.973  70.023  1.00  0.00    -0.084 C  
HETATM   35  C   UNL     1      -8.469   4.788  67.476  1.00  0.00    -0.104 C  
HETATM   36  O   UNL     1      -6.780   3.701  68.766  1.00  0.00    -0.043 OA 
HETATM   37  C   UNL     1      -8.158   4.080  68.791  1.00  0.00    -0.071 C  
HETATM   38  C   UNL     1      -8.998   2.801  68.905  1.00  0.00    -0.179 C  
HETATM   39  H   UNL     1      -6.626   3.150  68.007  1.00  0.00     0.000 HD 
ENDBRANCH  33  34
ENDBRANCH  27  33
ENDBRANCH  21  22
ENDBRANCH   1  21
BRANCH   3  40
HETATM   40  O   UNL     1     -12.671  11.732  69.661  1.00  0.00     0.111 OA 
HETATM   41  C   UNL     1     -13.532  11.312  68.617  1.00  0.00     5.471 C  
ENDBRANCH   3  40
TORSDOF 7
ENDMDL
MODEL      173
REMARK 921   NORMALIZED FREE ENERGY PREDICTED BY IDOCK:    4.14 KCAL/MOL
REMARK 922        TOTAL FREE ENERGY PREDICTED BY IDOCK:    3.96 KCAL/MOL
REMARK 923 INTER-LIGAND FREE ENERGY PREDICTED BY IDOCK:   -7.16 KCAL/MOL
REMARK 924 INTRA-LIGAND FREE ENERGY PREDICTED BY IDOCK:   11.12 KCAL/MOL
REMARK 927      BINDING AFFINITY PREDICTED BY RF-SCORE:    0.00 PKD
ROOT
HETATM    1  C   UNL     1     -10.879  10.447  65.994  1.00  0.00     0.117 C  
HETATM    2  O   UNL     1      -9.764  16.929  67.237  1.00  0.00    -0.243 OA 
HETATM    3  C   UNL     1     -10.088   9.349  66.671  1.00  0.00    -0.262 C  
HETATM    4  C   UNL     1      -9.775  11.412  65.363  1.00  0.00    -0.265 C  
HETATM    5  C   UNL     1     -10.215  17.450  65.976  1.00  0.00    -0.300 C  
HETATM    6  C   UNL     1      -8.856   9.244  66.176  1.00  0.00    -0.183 C  
HETATM    7  C   UNL     1      -8.510  10.303  65.163  1.00  0.00    -0.168 C  
HETATM    8  C   UNL     1      -9.681  12.937  65.968  1.00  0.00    -0.228 A  
HETATM    9  C   UNL     1     -10.324  13.975  65.249  1.00  0.00    -0.403 A  
HETATM   10  O   UNL     1     -10.650  16.416  65.058  1.00  0.00    -0.651 OA 
HETATM   11  C   UNL     1     -10.268  15.288  65.725  1.00  0.00    -0.349 A  
HETATM   12  C   UNL     1      -8.469   9.668  63.769  1.00  0.00    -0.190 C  
HETATM   13  C   UNL     1      -9.731  15.599  66.950  1.00  0.00    -0.230 A  
HETATM   14  C   UNL     1      -9.055  14.665  67.691  1.00  0.00    -0.193 A  
HETATM   15  C   UNL     1      -7.062   9.916  63.238  1.00  0.00    -0.124 C  
HETATM   16  C   UNL     1      -8.835  13.421  67.074  1.00  0.00    -0.217 A  
HETATM   17  C   UNL     1      -7.285  13.051  67.122  1.00  0.00     0.047 C  
HETATM   18  C   UNL     1      -7.281  11.838  66.273  1.00  0.00     0.342 C  
HETATM   19  N   UNL     1      -7.083  10.679  65.477  1.00  0.00    -0.096 NA 
HETATM   20  C   UNL     1      -6.388  10.872  64.209  1.00  0.00     0.490 C  
ENDROOT
BRANCH   1  21
HETATM   21  O   UNL     1     -11.848  11.044  66.848  1.00  0.00    -0.237 OA 
BRANCH  21  22
HETATM   22  C   UNL     1     -11.299  11.999  67.662  1.00  0.00    -0.307 C  
HETATM   23  C   UNL     1     -10.802  12.482  70.066  1.00  0.00     0.837 C  
HETATM   24  C   UNL     1     -10.862  11.380  68.998  1.00  0.00    -0.219 C  
HETATM   25  O   UNL     1     -11.216  13.196  67.384  1.00  0.00    -0.266 OA 
HETATM   26  H   UNL     1     -11.533   9.998  70.232  1.00  0.00     0.000 HD 
HETATM   27  C   UNL     1      -9.483  10.704  68.805  1.00  0.00    -0.186 C  
HETATM   28  O   UNL     1     -11.803  10.381  69.406  1.00  0.00    -0.211 OA 
BRANCH  23  29
HETATM   29  C   UNL     1     -12.147  13.163  70.272  1.00  0.00    -0.328 C  
HETATM   30  O   UNL     1     -12.629  14.053  69.581  1.00  0.00    -0.253 OA 
BRANCH  29  31
HETATM   31  O   UNL     1     -12.748  12.597  71.365  1.00  0.00    -0.349 OA 
HETATM   32  C   UNL     1     -13.325  13.555  72.249  1.00  0.00    -0.531 C  
ENDBRANCH  29  31
ENDBRANCH  23  29
BRANCH  27  33
HETATM   33  C   UNL     1      -8.851  10.042  70.049  1.00  0.00    -0.117 C  
BRANCH  33  34
HETATM   34  C   UNL     1      -9.856   9.380  71.005  1.00  0.00    -0.317 C  
HETATM   35  C   UNL     1      -8.706   7.101  71.059  1.00  0.00    -0.141 C  
HETATM   36  O   UNL     1      -8.232   8.777  72.691  1.00  0.00    -0.403 OA 
HETATM   37  C   UNL     1      -9.285   8.248  71.881  1.00  0.00    -0.208 C  
HETATM   38  C   UNL     1     -10.380   7.718  72.815  1.00  0.00    -0.374 C  
HETATM   39  H   UNL     1      -7.880   8.080  73.231  1.00  0.00     0.000 HD 
ENDBRANCH  33  34
ENDBRANCH  27  33
ENDBRANCH  21  22
ENDBRANCH   1  21
BRANCH   3  40
HETATM   40  O   UNL     1     -10.477   8.525  67.696  1.00  0.00    -0.244 OA 
HETATM   41  C   UNL     1     -10.216   7.135  67.633  1.00  0.00    -0.198 C  
ENDBRANCH   3  40
TORSDOF 7
ENDMDL
MODEL      174
REMARK 921   NORMALIZED FREE ENERGY PREDICTED BY IDOCK:    4.19 KCAL/MOL
REMARK 922        TOTAL FREE ENERGY PREDICTED BY IDOCK:    4.05 KCAL/MOL
REMARK 923 INTER-LIGAND FREE ENERGY PREDICTED BY IDOCK:   -5.84 KCAL/MOL
REMARK 924 INTRA-LIGAND FREE ENERGY PREDICTED BY IDOCK:    9.89 KCAL/MOL
REMARK 927      BINDING AFFINITY PREDICTED BY RF-SCORE:    0.00 PKD
ROOT
HETATM    1  C   UNL     1      -8.071   8.754  70.555  1.00  0.00    -0.124 C  
HETATM    2  O   UNL     1     -10.415  10.627  64.572  1.00  0.00    -0.345 OA 
HETATM    3  C   UNL     1      -7.842   7.301  70.913  1.00  0.00    -0.094 C  
HETATM    4  C   UNL     1      -9.583   8.812  70.046  1.00  0.00    -0.177 C  
HETATM    5  C   UNL     1     -11.035  11.857  64.981  1.00  0.00    -0.312 C  
HETATM    6  C   UNL     1      -8.986   6.659  71.147  1.00  0.00    -0.145 C  
HETATM    7  C   UNL     1     -10.217   7.485  70.887  1.00  0.00    -0.192 C  
HETATM    8  C   UNL     1      -9.826   9.206  68.469  1.00  0.00    -0.178 A  
HETATM    9  C   UNL     1     -10.165  10.549  68.167  1.00  0.00    -0.187 A  
HETATM   10  O   UNL     1     -10.910  12.109  66.404  1.00  0.00    -0.251 OA 
HETATM   11  C   UNL     1     -10.384  10.928  66.840  1.00  0.00    -0.238 A  
HETATM   12  C   UNL     1     -10.861   7.860  72.226  1.00  0.00    -0.353 C  
HETATM   13  C   UNL     1     -10.141  10.079  65.788  1.00  0.00    -0.250 A  
HETATM   14  C   UNL     1      -9.850   8.756  65.991  1.00  0.00    -0.234 A  
HETATM   15  C   UNL     1     -12.275   7.295  72.183  1.00  0.00    -0.260 C  
HETATM   16  C   UNL     1      -9.938   8.295  67.316  1.00  0.00    -0.289 A  
HETATM   17  C   UNL     1     -10.889   7.017  67.390  1.00  0.00    -0.371 C  
HETATM   18  C   UNL     1     -10.973   6.841  68.858  1.00  0.00    -0.218 C  
HETATM   19  N   UNL     1     -11.183   6.532  70.228  1.00  0.00    -0.343 NA 
HETATM   20  C   UNL     1     -12.513   6.812  70.761  1.00  0.00    -0.155 C  
ENDROOT
BRANCH   1  21
HETATM   21  O   UNL     1      -7.075   9.278  69.685  1.00  0.00    -0.056 OA 
BRANCH  21  22
HETATM   22  C   UNL     1      -7.342   9.003  68.371  1.00  0.00    -0.078 C  
HETATM   23  C   UNL     1      -6.373   7.862  66.366  1.00  0.00    -0.046 C  
HETATM   24  C   UNL     1      -6.513   7.800  67.894  1.00  0.00    -0.051 C  
HETATM   25  O   UNL     1      -8.099   9.660  67.655  1.00  0.00    -0.112 OA 
HETATM   26  H   UNL     1      -4.699   7.093  68.193  1.00  0.00     0.000 HD 
HETATM   27  C   UNL     1      -7.221   6.499  68.345  1.00  0.00    -0.085 C  
HETATM   28  O   UNL     1      -5.212   7.836  68.488  1.00  0.00    -0.025 OA 
BRANCH  23  29
HETATM   29  C   UNL     1      -5.681   9.134  65.898  1.00  0.00    -0.050 C  
HETATM   30  O   UNL     1      -5.186  10.000  66.610  1.00  0.00    -0.039 OA 
BRANCH  29  31
HETATM   31  O   UNL     1      -5.687   9.143  64.529  1.00  0.00    -0.062 OA 
HETATM   32  C   UNL     1      -5.260  10.384  63.973  1.00  0.00    -0.146 C  
ENDBRANCH  29  31
ENDBRANCH  23  29
BRANCH  27  33
HETATM   33  C   UNL     1      -6.558   5.167  67.935  1.00  0.00    -0.050 C  
BRANCH  33  34
HETATM   34  C   UNL     1      -7.469   3.934  68.050  1.00  0.00    -0.066 C  
HETATM   35  C   UNL     1      -5.811   2.503  69.364  1.00  0.00    -0.023 C  
HETATM   36  O   UNL     1      -7.452   3.842  70.466  1.00  0.00    -0.041 OA 
HETATM   37  C   UNL     1      -7.232   3.054  69.293  1.00  0.00    -0.045 C  
HETATM   38  C   UNL     1      -8.240   1.897  69.304  1.00  0.00    -0.064 C  
HETATM   39  H   UNL     1      -7.306   3.299  71.232  1.00  0.00     0.000 HD 
ENDBRANCH  33  34
ENDBRANCH  27  33
ENDBRANCH  21  22
ENDBRANCH   1  21
BRANCH   3  40
HETATM   40  O   UNL     1      -6.656   6.618  70.986  1.00  0.00    -0.051 OA 
HETATM   41  C   UNL     1      -5.666   7.002  71.923  1.00  0.00    -0.037 C  
ENDBRANCH   3  40
TORSDOF 7
ENDMDL
MODEL      175
REMARK 921   NORMALIZED FREE ENERGY PREDICTED BY IDOCK:    4.51 KCAL/MOL
REMARK 922        TOTAL FREE ENERGY PREDICTED BY IDOCK:    4.48 KCAL/MOL
REMARK 923 INTER-LIGAND FREE ENERGY PREDICTED BY IDOCK:   -7.38 KCAL/MOL
REMARK 924 INTRA-LIGAND FREE ENERGY PREDICTED BY IDOCK:   11.86 KCAL/MOL
REMARK 927      BINDING AFFINITY PREDICTED BY RF-SCORE:    0.00 PKD
ROOT
HETATM    1  C   UNL     1     -12.531  14.461  69.511  1.00  0.00    -0.125 C  
HETATM    2  O   UNL     1     -10.191  12.755  63.477  1.00  0.00    -0.367 OA 
HETATM    3  C   UNL     1     -11.657  14.455  70.747  1.00  0.00    -0.167 C  
HETATM    4  C   UNL     1     -12.353  13.005  68.882  1.00  0.00     0.116 C  
HETATM    5  C   UNL     1     -11.429  12.300  62.908  1.00  0.00     0.307 C  
HETATM    6  C   UNL     1     -11.412  13.218  71.178  1.00  0.00     1.429 C  
HETATM    7  C   UNL     1     -11.954  12.137  70.281  1.00  0.00    -0.305 C  
HETATM    8  C   UNL     1     -11.634  12.910  67.407  1.00  0.00    -0.414 A  
HETATM    9  C   UNL     1     -12.470  12.789  66.269  1.00  0.00     0.095 A  
HETATM   10  O   UNL     1     -12.542  12.381  63.834  1.00  0.00    -0.614 OA 
HETATM   11  C   UNL     1     -11.901  12.703  64.995  1.00  0.00    -0.395 A  
HETATM   12  C   UNL     1     -13.161  11.481  70.959  1.00  0.00     0.082 C  
HETATM   13  C   UNL     1     -10.556  12.878  64.782  1.00  0.00    -0.342 A  
HETATM   14  C   UNL     1      -9.673  12.960  65.827  1.00  0.00    -0.155 A  
HETATM   15  C   UNL     1     -12.813  10.004  71.095  1.00  0.00    -0.480 C  
HETATM   16  C   UNL     1     -10.202  12.731  67.109  1.00  0.00    -0.235 A  
HETATM   17  C   UNL     1      -9.360  11.601  67.856  1.00  0.00    -0.174 C  
HETATM   18  C   UNL     1     -10.196  11.410  69.063  1.00  0.00    -0.117 C  
HETATM   19  N   UNL     1     -10.878  11.080  70.264  1.00  0.00     0.080 NA 
HETATM   20  C   UNL     1     -11.536   9.778  70.302  1.00  0.00    -0.220 C  
ENDROOT
BRANCH   1  21
HETATM   21  O   UNL     1     -12.280  15.570  68.657  1.00  0.00    -0.178 OA 
BRANCH  21  22
HETATM   22  C   UNL     1     -11.345  15.283  67.700  1.00  0.00    -0.312 C  
HETATM   23  C   UNL     1      -9.231  16.163  66.691  1.00  0.00    -0.273 C  
HETATM   24  C   UNL     1     -10.029  16.019  67.995  1.00  0.00    -0.229 C  
HETATM   25  O   UNL     1     -11.545  14.576  66.711  1.00  0.00    -0.357 OA 
HETATM   26  H   UNL     1      -9.492  17.776  68.706  1.00  0.00     0.000 HD 
HETATM   27  C   UNL     1      -9.238  15.218  69.056  1.00  0.00    -0.223 C  
HETATM   28  O   UNL     1     -10.305  17.321  68.523  1.00  0.00    -0.326 OA 
BRANCH  23  29
HETATM   29  C   UNL     1      -9.990  16.947  65.630  1.00  0.00    -0.099 C  
HETATM   30  O   UNL     1     -10.729  16.484  64.768  1.00  0.00    -0.719 OA 
BRANCH  29  31
HETATM   31  O   UNL     1      -9.721  18.277  65.810  1.00  0.00    -0.494 OA 
HETATM   32  C   UNL     1     -10.887  19.098  65.767  1.00  0.00    -0.205 C  
ENDBRANCH  29  31
ENDBRANCH  23  29
BRANCH  27  33
HETATM   33  C   UNL     1      -7.862  15.780  69.473  1.00  0.00    -0.151 C  
BRANCH  33  34
HETATM   34  C   UNL     1      -7.646  17.264  69.133  1.00  0.00    -0.103 C  
HETATM   35  C   UNL     1      -5.455  17.512  70.420  1.00  0.00    -0.253 C  
HETATM   36  O   UNL     1      -5.483  16.966  68.096  1.00  0.00    -0.114 OA 
HETATM   37  C   UNL     1      -6.176  17.723  69.092  1.00  0.00    -0.230 C  
HETATM   38  C   UNL     1      -6.109  19.203  68.693  1.00  0.00    -0.243 C  
HETATM   39  H   UNL     1      -4.576  17.249  68.071  1.00  0.00     0.000 HD 
ENDBRANCH  33  34
ENDBRANCH  27  33
ENDBRANCH  21  22
ENDBRANCH   1  21
BRANCH   3  40
HETATM   40  O   UNL     1     -11.103  15.522  71.405  1.00  0.00    -0.357 OA 
HETATM   41  C   UNL     1     -11.879  16.282  72.313  1.00  0.00    -0.511 C  
ENDBRANCH   3  40
TORSDOF 7
ENDMDL
MODEL      176
REMARK 921   NORMALIZED FREE ENERGY PREDICTED BY IDOCK:    4.54 KCAL/MOL
REMARK 922        TOTAL FREE ENERGY PREDICTED BY IDOCK:    4.54 KCAL/MOL
REMARK 923 INTER-LIGAND FREE ENERGY PREDICTED BY IDOCK:    0.52 KCAL/MOL
REMARK 924 INTRA-LIGAND FREE ENERGY PREDICTED BY IDOCK:    4.02 KCAL/MOL
REMARK 927      BINDING AFFINITY PREDICTED BY RF-SCORE:    0.00 PKD
ROOT
HETATM    1  C   UNL     1     -10.187  11.918  68.064  1.00  0.00    -0.192 C  
HETATM    2  O   UNL     1      -5.863  16.728  66.344  1.00  0.00    -0.314 OA 
HETATM    3  C   UNL     1     -11.530  11.759  67.383  1.00  0.00    -0.305 C  
HETATM    4  C   UNL     1     -10.148  13.443  68.533  1.00  0.00    -0.208 C  
HETATM    5  C   UNL     1      -5.190  16.847  67.608  1.00  0.00    -0.128 C  
HETATM    6  C   UNL     1     -12.397  12.694  67.769  1.00  0.00     0.350 C  
HETATM    7  C   UNL     1     -11.810  13.737  68.682  1.00  0.00    -0.374 C  
HETATM    8  C   UNL     1      -9.020  14.412  67.833  1.00  0.00    -0.186 A  
HETATM    9  C   UNL     1      -7.819  14.650  68.546  1.00  0.00    -0.133 A  
HETATM   10  O   UNL     1      -5.726  15.960  68.622  1.00  0.00    -0.099 OA 
HETATM   11  C   UNL     1      -6.832  15.470  67.991  1.00  0.00    -0.136 A  
HETATM   12  C   UNL     1     -12.345  13.520  70.101  1.00  0.00    -0.345 C  
HETATM   13  C   UNL     1      -6.916  15.945  66.705  1.00  0.00     0.093 A  
HETATM   14  C   UNL     1      -8.058  15.796  65.962  1.00  0.00     0.590 A  
HETATM   15  C   UNL     1     -13.051  14.814  70.484  1.00  0.00    -0.275 C  
HETATM   16  C   UNL     1      -9.167  15.247  66.628  1.00  0.00    -0.302 A  
HETATM   17  C   UNL     1     -10.435  16.200  66.459  1.00  0.00    -0.298 C  
HETATM   18  C   UNL     1     -11.386  15.530  67.374  1.00  0.00    -0.203 C  
HETATM   19  N   UNL     1     -12.418  15.037  68.216  1.00  0.00     0.248 NA 
HETATM   20  C   UNL     1     -12.725  15.830  69.402  1.00  0.00     0.491 C  
ENDROOT
BRANCH   1  21
HETATM   21  O   UNL     1      -9.101  11.457  67.269  1.00  0.00    -0.158 OA 
BRANCH  21  22
HETATM   22  C   UNL     1      -8.729  10.181  67.594  1.00  0.00    -0.121 C  
HETATM   23  C   UNL     1      -7.670   8.850  69.428  1.00  0.00    -0.093 C  
HETATM   24  C   UNL     1      -8.603  10.028  69.117  1.00  0.00    -0.158 C  
HETATM   25  O   UNL     1      -8.477   9.293  66.778  1.00  0.00    -0.124 OA 
HETATM   26  H   UNL     1      -7.980  11.130  70.627  1.00  0.00     0.000 HD 
HETATM   27  C   UNL     1     -10.014   9.804  69.712  1.00  0.00    -0.265 C  
HETATM   28  O   UNL     1      -8.057  11.224  69.685  1.00  0.00     0.247 OA 
BRANCH  23  29
HETATM   29  C   UNL     1      -6.275   9.047  68.851  1.00  0.00    -0.044 C  
HETATM   30  O   UNL     1      -5.237   8.541  69.263  1.00  0.00    -0.030 OA 
BRANCH  29  31
HETATM   31  O   UNL     1      -6.375   9.879  67.769  1.00  0.00    -0.055 OA 
HETATM   32  C   UNL     1      -5.595  11.066  67.898  1.00  0.00    -0.042 C  
ENDBRANCH  29  31
ENDBRANCH  23  29
BRANCH  27  33
HETATM   33  C   UNL     1     -10.102   9.597  71.240  1.00  0.00    -0.026 C  
BRANCH  33  34
HETATM   34  C   UNL     1     -10.918   8.369  71.675  1.00  0.00    -0.345 C  
HETATM   35  C   UNL     1      -8.984   7.166  72.832  1.00  0.00    -0.156 C  
HETATM   36  O   UNL     1     -10.465   8.599  74.039  1.00  0.00     1.987 OA 
HETATM   37  C   UNL     1     -10.420   7.668  72.954  1.00  0.00    -0.336 C  
HETATM   38  C   UNL     1     -11.352   6.499  73.296  1.00  0.00     0.100 C  
HETATM   39  H   UNL     1     -10.158   8.167  74.827  1.00  0.00     0.000 HD 
ENDBRANCH  33  34
ENDBRANCH  27  33
ENDBRANCH  21  22
ENDBRANCH   1  21
BRANCH   3  40
HETATM   40  O   UNL     1     -11.907  10.830  66.449  1.00  0.00     0.375 OA 
HETATM   41  C   UNL     1     -11.336   9.534  66.458  1.00  0.00     1.496 C  
ENDBRANCH   3  40
TORSDOF 7
ENDMDL
MODEL      177
REMARK 921   NORMALIZED FREE ENERGY PREDICTED BY IDOCK:    4.62 KCAL/MOL
REMARK 922        TOTAL FREE ENERGY PREDICTED BY IDOCK:    4.64 KCAL/MOL
REMARK 923 INTER-LIGAND FREE ENERGY PREDICTED BY IDOCK:    0.30 KCAL/MOL
REMARK 924 INTRA-LIGAND FREE ENERGY PREDICTED BY IDOCK:    4.34 KCAL/MOL
REMARK 927      BINDING AFFINITY PREDICTED BY RF-SCORE:    0.00 PKD
ROOT
HETATM    1  C   UNL     1      -9.574   8.813  67.654  1.00  0.00    -0.144 C  
HETATM    2  O   UNL     1     -11.906  14.129  70.986  1.00  0.00    -0.301 OA 
HETATM    3  C   UNL     1      -8.169   8.766  67.093  1.00  0.00    -0.104 C  
HETATM    4  C   UNL     1     -10.196  10.164  67.074  1.00  0.00    -0.290 C  
HETATM    5  C   UNL     1     -13.300  13.951  70.687  1.00  0.00     0.134 C  
HETATM    6  C   UNL     1      -8.042   9.520  66.003  1.00  0.00    -0.111 C  
HETATM    7  C   UNL     1      -9.271  10.320  65.663  1.00  0.00    -0.184 C  
HETATM    8  C   UNL     1     -10.572  11.341  68.159  1.00  0.00    -0.225 A  
HETATM    9  C   UNL     1     -11.922  11.449  68.576  1.00  0.00    -0.295 A  
HETATM   10  O   UNL     1     -13.556  12.804  69.839  1.00  0.00     1.932 OA 
HETATM   11  C   UNL     1     -12.287  12.437  69.495  1.00  0.00     0.059 A  
HETATM   12  C   UNL     1      -9.938   9.713  64.425  1.00  0.00     0.520 C  
HETATM   13  C   UNL     1     -11.359  13.225  70.129  1.00  0.00     0.174 A  
HETATM   14  C   UNL     1     -10.039  13.213  69.757  1.00  0.00     1.425 A  
HETATM   15  C   UNL     1      -9.974  10.824  63.382  1.00  0.00    -0.385 C  
HETATM   16  C   UNL     1      -9.720  12.451  68.620  1.00  0.00    -0.064 A  
HETATM   17  C   UNL     1      -8.925  13.346  67.566  1.00  0.00    -0.207 C  
HETATM   18  C   UNL     1      -8.872  12.411  66.419  1.00  0.00    -0.046 C  
HETATM   19  N   UNL     1      -8.743  11.662  65.220  1.00  0.00     0.211 NA 
HETATM   20  C   UNL     1      -9.550  12.103  64.087  1.00  0.00     0.045 C  
ENDROOT
BRANCH   1  21
HETATM   21  O   UNL     1      -9.618   8.634  69.064  1.00  0.00    -0.159 OA 
BRANCH  21  22
HETATM   22  C   UNL     1      -8.461   8.089  69.551  1.00  0.00    -0.131 C  
HETATM   23  C   UNL     1      -7.612   6.156  70.894  1.00  0.00    -0.097 C  
HETATM   24  C   UNL     1      -8.657   6.596  69.859  1.00  0.00    -0.140 C  
HETATM   25  O   UNL     1      -7.422   8.716  69.763  1.00  0.00    -0.058 OA 
HETATM   26  H   UNL     1     -10.090   5.453  70.582  1.00  0.00     0.000 HD 
HETATM   27  C   UNL     1      -8.521   5.795  68.543  1.00  0.00    -0.110 C  
HETATM   28  O   UNL     1      -9.968   6.376  70.391  1.00  0.00    -0.180 OA 
BRANCH  23  29
HETATM   29  C   UNL     1      -7.725   6.933  72.199  1.00  0.00    -0.093 C  
HETATM   30  O   UNL     1      -8.241   8.034  72.351  1.00  0.00    -0.120 OA 
BRANCH  29  31
HETATM   31  O   UNL     1      -7.161   6.178  73.193  1.00  0.00    -0.083 OA 
HETATM   32  C   UNL     1      -5.812   6.540  73.478  1.00  0.00    -0.054 C  
ENDBRANCH  29  31
ENDBRANCH  23  29
BRANCH  27  33
HETATM   33  C   UNL     1      -8.658   4.260  68.644  1.00  0.00    -0.111 C  
BRANCH  33  34
HETATM   34  C   UNL     1      -8.203   3.492  67.392  1.00  0.00    -0.090 C  
HETATM   35  C   UNL     1      -8.290   5.493  65.808  1.00  0.00    -0.129 C  
HETATM   36  O   UNL     1      -6.278   4.881  66.938  1.00  0.00    -0.030 OA 
HETATM   37  C   UNL     1      -7.454   4.332  66.340  1.00  0.00    -0.085 C  
HETATM   38  C   UNL     1      -7.017   3.431  65.178  1.00  0.00    -0.053 C  
HETATM   39  H   UNL     1      -5.816   5.399  66.290  1.00  0.00     0.000 HD 
ENDBRANCH  33  34
ENDBRANCH  27  33
ENDBRANCH  21  22
ENDBRANCH   1  21
BRANCH   3  40
HETATM   40  O   UNL     1      -7.079   8.093  67.580  1.00  0.00    -0.082 OA 
HETATM   41  C   UNL     1      -5.781   8.390  67.098  1.00  0.00    -0.039 C  
ENDBRANCH   3  40
TORSDOF 7
ENDMDL
MODEL      178
REMARK 921   NORMALIZED FREE ENERGY PREDICTED BY IDOCK:    4.62 KCAL/MOL
REMARK 922        TOTAL FREE ENERGY PREDICTED BY IDOCK:    4.65 KCAL/MOL
REMARK 923 INTER-LIGAND FREE ENERGY PREDICTED BY IDOCK:    5.75 KCAL/MOL
REMARK 924 INTRA-LIGAND FREE ENERGY PREDICTED BY IDOCK:   -1.10 KCAL/MOL
REMARK 927      BINDING AFFINITY PREDICTED BY RF-SCORE:    0.00 PKD
ROOT
HETATM    1  C   UNL     1     -10.936  12.986  68.456  1.00  0.00    -0.263 C  
HETATM    2  O   UNL     1     -13.086   7.842  72.160  1.00  0.00    -0.233 OA 
HETATM    3  C   UNL     1     -10.143  14.131  69.049  1.00  0.00    -0.088 C  
HETATM    4  C   UNL     1     -12.244  12.884  69.365  1.00  0.00    -0.145 C  
HETATM    5  C   UNL     1     -14.225   7.488  71.359  1.00  0.00    -0.388 C  
HETATM    6  C   UNL     1     -10.913  14.951  69.764  1.00  0.00    -0.280 C  
HETATM    7  C   UNL     1     -12.337  14.486  69.908  1.00  0.00    -0.298 C  
HETATM    8  C   UNL     1     -12.433  11.515  70.253  1.00  0.00    -0.284 A  
HETATM    9  C   UNL     1     -13.282  10.504  69.737  1.00  0.00     0.729 A  
HETATM   10  O   UNL     1     -14.403   8.354  70.211  1.00  0.00     1.189 OA 
HETATM   11  C   UNL     1     -13.475   9.323  70.460  1.00  0.00     0.566 A  
HETATM   12  C   UNL     1     -13.243  15.372  69.046  1.00  0.00     1.788 C  
HETATM   13  C   UNL     1     -12.756   9.035  71.594  1.00  0.00    -0.358 A  
HETATM   14  C   UNL     1     -11.945   9.971  72.182  1.00  0.00     0.350 A  
HETATM   15  C   UNL     1     -14.252  15.995  70.004  1.00  0.00     3.451 C  
HETATM   16  C   UNL     1     -11.991  11.265  71.636  1.00  0.00     0.609 A  
HETATM   17  C   UNL     1     -12.290  12.334  72.782  1.00  0.00     3.159 C  
HETATM   18  C   UNL     1     -12.474  13.551  71.959  1.00  0.00     0.051 C  
HETATM   19  N   UNL     1     -12.700  14.807  71.337  1.00  0.00    -0.308 NA 
HETATM   20  C   UNL     1     -14.074  15.299  71.344  1.00  0.00    -0.495 C  
ENDROOT
BRANCH   1  21
HETATM   21  O   UNL     1     -10.166  11.800  68.295  1.00  0.00    -0.192 OA 
BRANCH  21  22
HETATM   22  C   UNL     1     -10.552  11.079  67.198  1.00  0.00    -0.250 C  
HETATM   23  C   UNL     1      -9.658   9.517  65.459  1.00  0.00    -0.349 C  
HETATM   24  C   UNL     1      -9.566   9.929  66.935  1.00  0.00    -0.179 C  
HETATM   25  O   UNL     1     -11.522  11.346  66.487  1.00  0.00    -0.384 OA 
HETATM   26  H   UNL     1      -7.622   9.645  67.061  1.00  0.00     0.000 HD 
HETATM   27  C   UNL     1      -9.918   8.751  67.875  1.00  0.00    -0.231 C  
HETATM   28  O   UNL     1      -8.231  10.355  67.223  1.00  0.00    -0.120 OA 
BRANCH  23  29
HETATM   29  C   UNL     1      -9.319  10.662  64.515  1.00  0.00    -0.243 C  
HETATM   30  O   UNL     1      -8.551  11.591  64.740  1.00  0.00     0.294 OA 
BRANCH  29  31
HETATM   31  O   UNL     1     -10.009  10.469  63.348  1.00  0.00    -0.307 OA 
HETATM   32  C   UNL     1      -9.311   9.652  62.410  1.00  0.00    -0.110 C  
ENDBRANCH  29  31
ENDBRANCH  23  29
BRANCH  27  33
HETATM   33  C   UNL     1      -9.056   7.476  67.746  1.00  0.00    -0.130 C  
BRANCH  33  34
HETATM   34  C   UNL     1      -9.785   6.170  68.100  1.00  0.00    -0.125 C  
HETATM   35  C   UNL     1      -7.722   4.947  68.978  1.00  0.00    -0.072 C  
HETATM   36  O   UNL     1      -9.165   6.168  70.436  1.00  0.00    -0.151 OA 
HETATM   37  C   UNL     1      -9.164   5.362  69.256  1.00  0.00    -0.116 C  
HETATM   38  C   UNL     1     -10.019   4.118  69.532  1.00  0.00    -0.058 C  
HETATM   39  H   UNL     1      -8.783   5.670  71.149  1.00  0.00     0.000 HD 
ENDBRANCH  33  34
ENDBRANCH  27  33
ENDBRANCH  21  22
ENDBRANCH   1  21
BRANCH   3  40
HETATM   40  O   UNL     1      -8.798  14.376  68.956  1.00  0.00    -0.114 OA 
HETATM   41  C   UNL     1      -8.086  14.018  67.785  1.00  0.00    -0.167 C  
ENDBRANCH   3  40
TORSDOF 7
ENDMDL
MODEL      179
REMARK 921   NORMALIZED FREE ENERGY PREDICTED BY IDOCK:    4.80 KCAL/MOL
REMARK 922        TOTAL FREE ENERGY PREDICTED BY IDOCK:    4.90 KCAL/MOL
REMARK 923 INTER-LIGAND FREE ENERGY PREDICTED BY IDOCK:   -0.96 KCAL/MOL
REMARK 924 INTRA-LIGAND FREE ENERGY PREDICTED BY IDOCK:    5.86 KCAL/MOL
REMARK 927      BINDING AFFINITY PREDICTED BY RF-SCORE:    0.00 PKD
ROOT
HETATM    1  C   UNL     1      -9.510  11.667  68.890  1.00  0.00     0.028 C  
HETATM    2  O   UNL     1     -12.483   6.463  71.869  1.00  0.00    -0.337 OA 
HETATM    3  C   UNL     1      -9.019  11.605  67.459  1.00  0.00    -0.165 C  
HETATM    4  C   UNL     1      -8.840  10.406  69.603  1.00  0.00    -0.049 C  
HETATM    5  C   UNL     1     -12.127   6.784  73.224  1.00  0.00     1.229 C  
HETATM    6  C   UNL     1      -7.902  10.887  67.347  1.00  0.00    -0.113 C  
HETATM    7  C   UNL     1      -7.469  10.221  68.626  1.00  0.00    -0.086 C  
HETATM    8  C   UNL     1      -9.852   9.227  70.141  1.00  0.00    -0.250 A  
HETATM    9  C   UNL     1     -10.199   9.229  71.515  1.00  0.00    -0.338 A  
HETATM   10  O   UNL     1     -11.321   7.984  73.329  1.00  0.00    -0.270 OA 
HETATM   11  C   UNL     1     -11.055   8.244  72.016  1.00  0.00    -0.311 A  
HETATM   12  C   UNL     1      -6.230  10.939  69.170  1.00  0.00    -0.047 C  
HETATM   13  C   UNL     1     -11.695   7.346  71.198  1.00  0.00    -0.294 A  
HETATM   14  C   UNL     1     -11.387   7.249  69.866  1.00  0.00    -0.145 A  
HETATM   15  C   UNL     1      -5.137   9.880  69.254  1.00  0.00    -0.036 C  
HETATM   16  C   UNL     1     -10.301   8.023  69.420  1.00  0.00    -0.217 A  
HETATM   17  C   UNL     1      -9.247   7.101  68.658  1.00  0.00    -0.135 C  
HETATM   18  C   UNL     1      -8.147   8.073  68.461  1.00  0.00    -0.125 C  
HETATM   19  N   UNL     1      -6.990   8.855  68.201  1.00  0.00    -0.076 NA 
HETATM   20  C   UNL     1      -5.802   8.539  68.987  1.00  0.00    -0.039 C  
ENDROOT
BRANCH   1  21
HETATM   21  O   UNL     1     -10.923  11.792  68.988  1.00  0.00    -0.221 OA 
BRANCH  21  22
HETATM   22  C   UNL     1     -11.314  13.088  69.188  1.00  0.00    -0.273 C  
HETATM   23  C   UNL     1     -10.396  15.367  69.660  1.00  0.00    -0.283 C  
HETATM   24  C   UNL     1     -10.149  14.050  68.910  1.00  0.00    -0.126 C  
HETATM   25  O   UNL     1     -12.428  13.434  69.586  1.00  0.00    -0.184 OA 
HETATM   26  H   UNL     1      -8.200  14.068  69.192  1.00  0.00     0.000 HD 
HETATM   27  C   UNL     1     -10.048  14.280  67.383  1.00  0.00    -0.247 C  
HETATM   28  O   UNL     1      -8.920  13.473  69.363  1.00  0.00     0.623 OA 
BRANCH  23  29
HETATM   29  C   UNL     1     -10.501  15.167  71.165  1.00  0.00     0.484 C  
HETATM   30  O   UNL     1      -9.818  14.415  71.851  1.00  0.00     3.744 OA 
BRANCH  29  31
HETATM   31  O   UNL     1     -11.489  15.990  71.636  1.00  0.00    -0.417 OA 
HETATM   32  C   UNL     1     -12.399  15.331  72.514  1.00  0.00    -0.369 C  
ENDBRANCH  29  31
ENDBRANCH  23  29
BRANCH  27  33
HETATM   33  C   UNL     1      -8.948  15.247  66.895  1.00  0.00    -0.274 C  
BRANCH  33  34
HETATM   34  C   UNL     1      -8.237  16.027  68.013  1.00  0.00    -0.151 C  
HETATM   35  C   UNL     1      -7.115  17.729  66.474  1.00  0.00    -0.275 C  
HETATM   36  O   UNL     1      -9.231  18.167  67.491  1.00  0.00    -0.255 OA 
HETATM   37  C   UNL     1      -7.978  17.516  67.715  1.00  0.00    -0.208 C  
HETATM   38  C   UNL     1      -7.313  18.176  68.930  1.00  0.00    -0.253 C  
HETATM   39  H   UNL     1      -9.071  19.086  67.307  1.00  0.00     0.000 HD 
ENDBRANCH  33  34
ENDBRANCH  27  33
ENDBRANCH  21  22
ENDBRANCH   1  21
BRANCH   3  40
HETATM   40  O   UNL     1      -9.587  12.151  66.338  1.00  0.00    -0.224 OA 
HETATM   41  C   UNL     1     -10.641  11.481  65.672  1.00  0.00    -0.274 C  
ENDBRANCH   3  40
TORSDOF 7
ENDMDL
MODEL      180
REMARK 921   NORMALIZED FREE ENERGY PREDICTED BY IDOCK:    4.84 KCAL/MOL
REMARK 922        TOTAL FREE ENERGY PREDICTED BY IDOCK:    4.95 KCAL/MOL
REMARK 923 INTER-LIGAND FREE ENERGY PREDICTED BY IDOCK:   -5.43 KCAL/MOL
REMARK 924 INTRA-LIGAND FREE ENERGY PREDICTED BY IDOCK:   10.38 KCAL/MOL
REMARK 927      BINDING AFFINITY PREDICTED BY RF-SCORE:    0.00 PKD
ROOT
HETATM    1  C   UNL     1      -6.349   9.652  68.000  1.00  0.00    -0.056 C  
HETATM    2  O   UNL     1     -12.077  12.506  66.037  1.00  0.00    -0.557 OA 
HETATM    3  C   UNL     1      -6.192   8.151  68.106  1.00  0.00    -0.050 C  
HETATM    4  C   UNL     1      -7.649   9.986  68.864  1.00  0.00    -0.086 C  
HETATM    5  C   UNL     1     -11.915  13.759  66.722  1.00  0.00    -0.426 C  
HETATM    6  C   UNL     1      -6.817   7.659  69.176  1.00  0.00    -0.053 C  
HETATM    7  C   UNL     1      -7.617   8.679  69.941  1.00  0.00    -0.071 C  
HETATM    8  C   UNL     1      -8.950  10.586  68.058  1.00  0.00    -0.135 A  
HETATM    9  C   UNL     1      -9.150  11.989  68.077  1.00  0.00    -0.188 A  
HETATM   10  O   UNL     1     -10.691  13.829  67.495  1.00  0.00    -0.253 OA 
HETATM   11  C   UNL     1     -10.245  12.543  67.407  1.00  0.00    -0.213 A  
HETATM   12  C   UNL     1      -6.900   8.991  71.259  1.00  0.00    -0.088 C  
HETATM   13  C   UNL     1     -11.065  11.792  66.601  1.00  0.00    -0.310 A  
HETATM   14  C   UNL     1     -10.967  10.425  66.558  1.00  0.00    -0.016 A  
HETATM   15  C   UNL     1      -7.890   8.645  72.365  1.00  0.00    -0.041 C  
HETATM   16  C   UNL     1     -10.074   9.836  67.471  1.00  0.00    -0.246 A  
HETATM   17  C   UNL     1     -10.820   8.709  68.318  1.00  0.00    -0.005 C  
HETATM   18  C   UNL     1      -9.763   8.384  69.302  1.00  0.00    -0.177 C  
HETATM   19  N   UNL     1      -8.882   7.957  70.331  1.00  0.00    -0.141 NA 
HETATM   20  C   UNL     1      -9.223   8.365  71.690  1.00  0.00    -0.206 C  
ENDROOT
BRANCH   1  21
HETATM   21  O   UNL     1      -6.328  10.120  66.656  1.00  0.00    -0.067 OA 
BRANCH  21  22
HETATM   22  C   UNL     1      -7.544   9.984  66.044  1.00  0.00    -0.111 C  
HETATM   23  C   UNL     1      -8.643   8.898  64.076  1.00  0.00    -0.122 C  
HETATM   24  C   UNL     1      -7.561   8.732  65.153  1.00  0.00    -0.096 C  
HETATM   25  O   UNL     1      -8.478  10.781  66.148  1.00  0.00    -0.156 OA 
HETATM   26  H   UNL     1      -6.298   7.792  63.969  1.00  0.00     0.000 HD 
HETATM   27  C   UNL     1      -7.832   7.494  66.041  1.00  0.00    -0.101 C  
HETATM   28  O   UNL     1      -6.288   8.566  64.520  1.00  0.00    -0.065 OA 
BRANCH  23  29
HETATM   29  C   UNL     1      -8.399  10.111  63.190  1.00  0.00    -0.171 C  
HETATM   30  O   UNL     1      -7.314  10.621  62.932  1.00  0.00    -0.097 OA 
BRANCH  29  31
HETATM   31  O   UNL     1      -9.608  10.535  62.706  1.00  0.00    -0.306 OA 
HETATM   32  C   UNL     1      -9.938  11.864  63.104  1.00  0.00    -0.294 C  
ENDBRANCH  29  31
ENDBRANCH  23  29
BRANCH  27  33
HETATM   33  C   UNL     1      -7.917   6.129  65.326  1.00  0.00    -0.115 C  
BRANCH  33  34
HETATM   34  C   UNL     1      -8.386   4.966  66.216  1.00  0.00    -0.111 C  
HETATM   35  C   UNL     1      -7.685   3.107  64.612  1.00  0.00    -0.077 C  
HETATM   36  O   UNL     1      -6.233   3.873  66.345  1.00  0.00    -0.030 OA 
HETATM   37  C   UNL     1      -7.611   3.646  66.037  1.00  0.00    -0.081 C  
HETATM   38  C   UNL     1      -8.149   2.597  67.018  1.00  0.00    -0.076 C  
HETATM   39  H   UNL     1      -5.756   3.059  66.236  1.00  0.00     0.000 HD 
ENDBRANCH  33  34
ENDBRANCH  27  33
ENDBRANCH  21  22
ENDBRANCH   1  21
BRANCH   3  40
HETATM   40  O   UNL     1      -5.539   7.299  67.254  1.00  0.00    -0.026 OA 
HETATM   41  C   UNL     1      -5.152   6.009  67.691  1.00  0.00    -0.004 C  
ENDBRANCH   3  40
TORSDOF 7
ENDMDL
MODEL      181
REMARK 921   NORMALIZED FREE ENERGY PREDICTED BY IDOCK:    5.06 KCAL/MOL
REMARK 922        TOTAL FREE ENERGY PREDICTED BY IDOCK:    5.27 KCAL/MOL
REMARK 923 INTER-LIGAND FREE ENERGY PREDICTED BY IDOCK:   -1.42 KCAL/MOL
REMARK 924 INTRA-LIGAND FREE ENERGY PREDICTED BY IDOCK:    6.69 KCAL/MOL
REMARK 927      BINDING AFFINITY PREDICTED BY RF-SCORE:    0.00 PKD
ROOT
HETATM    1  C   UNL     1     -11.123   6.055  70.412  1.00  0.00    -0.329 C  
HETATM    2  O   UNL     1      -6.199   9.877  72.850  1.00  0.00     0.092 OA 
HETATM    3  C   UNL     1     -12.355   5.713  71.222  1.00  0.00     1.478 C  
HETATM    4  C   UNL     1      -9.897   5.634  71.343  1.00  0.00    -0.221 C  
HETATM    5  C   UNL     1      -5.126   9.345  72.056  1.00  0.00    -0.072 C  
HETATM    6  C   UNL     1     -12.097   4.804  72.161  1.00  0.00     1.377 C  
HETATM    7  C   UNL     1     -10.644   4.428  72.269  1.00  0.00    -0.071 C  
HETATM    8  C   UNL     1      -8.913   6.839  71.875  1.00  0.00    -0.135 A  
HETATM    9  C   UNL     1      -7.700   7.060  71.176  1.00  0.00    -0.091 A  
HETATM   10  O   UNL     1      -5.553   8.280  71.169  1.00  0.00    -0.033 OA 
HETATM   11  C   UNL     1      -6.832   8.072  71.595  1.00  0.00    -0.057 A  
HETATM   12  C   UNL     1     -10.447   3.016  71.708  1.00  0.00     0.332 C  
HETATM   13  C   UNL     1      -7.174   8.967  72.579  1.00  0.00     0.385 A  
HETATM   14  C   UNL     1      -8.308   8.803  73.331  1.00  0.00     0.329 A  
HETATM   15  C   UNL     1      -9.861   2.191  72.847  1.00  0.00    -0.165 C  
HETATM   16  C   UNL     1      -9.024   7.610  73.125  1.00  0.00    -0.244 A  
HETATM   17  C   UNL     1      -9.255   6.863  74.515  1.00  0.00    -0.224 C  
HETATM   18  C   UNL     1      -9.838   5.591  74.031  1.00  0.00    -0.187 C  
HETATM   19  N   UNL     1     -10.389   4.312  73.752  1.00  0.00    -0.166 NA 
HETATM   20  C   UNL     1      -9.511   3.165  73.961  1.00  0.00    -0.088 C  
ENDROOT
BRANCH   1  21
HETATM   21  O   UNL     1     -11.133   7.389  69.919  1.00  0.00    -0.251 OA 
BRANCH  21  22
HETATM   22  C   UNL     1      -9.922   7.755  69.396  1.00  0.00    -0.188 C  
HETATM   23  C   UNL     1      -8.806   8.319  67.229  1.00  0.00    -0.137 C  
HETATM   24  C   UNL     1     -10.108   8.440  68.034  1.00  0.00    -0.199 C  
HETATM   25  O   UNL     1      -8.831   7.521  69.919  1.00  0.00    -0.140 OA 
HETATM   26  H   UNL     1     -11.285   8.231  66.468  1.00  0.00     0.000 HD 
HETATM   27  C   UNL     1     -10.491   9.921  68.270  1.00  0.00    -0.246 C  
HETATM   28  O   UNL     1     -11.169   7.808  67.310  1.00  0.00     0.041 OA 
BRANCH  23  29
HETATM   29  C   UNL     1      -8.407   6.870  66.985  1.00  0.00    -0.121 C  
HETATM   30  O   UNL     1      -9.145   5.893  67.027  1.00  0.00    -0.115 OA 
BRANCH  29  31
HETATM   31  O   UNL     1      -7.071   6.841  66.688  1.00  0.00    -0.068 OA 
HETATM   32  C   UNL     1      -6.621   8.008  66.004  1.00  0.00    -0.046 C  
ENDBRANCH  29  31
ENDBRANCH  23  29
BRANCH  27  33
HETATM   33  C   UNL     1     -10.697  10.796  67.015  1.00  0.00    -0.320 C  
BRANCH  33  34
HETATM   34  C   UNL     1     -11.021  12.270  67.308  1.00  0.00    -0.301 C  
HETATM   35  C   UNL     1     -10.349  13.149  65.006  1.00  0.00    -0.346 C  
HETATM   36  O   UNL     1     -12.603  12.536  65.499  1.00  0.00    -0.642 OA 
HETATM   37  C   UNL     1     -11.430  13.110  66.082  1.00  0.00    -0.330 C  
HETATM   38  C   UNL     1     -11.773  14.537  66.527  1.00  0.00    -0.380 C  
HETATM   39  H   UNL     1     -12.856  13.054  64.744  1.00  0.00     0.000 HD 
ENDBRANCH  33  34
ENDBRANCH  27  33
ENDBRANCH  21  22
ENDBRANCH   1  21
BRANCH   3  40
HETATM   40  O   UNL     1     -13.618   6.234  71.114  1.00  0.00     0.726 OA 
HETATM   41  C   UNL     1     -13.985   7.381  71.858  1.00  0.00    -0.270 C  
ENDBRANCH   3  40
TORSDOF 7
ENDMDL
MODEL      182
REMARK 921   NORMALIZED FREE ENERGY PREDICTED BY IDOCK:    5.77 KCAL/MOL
REMARK 922        TOTAL FREE ENERGY PREDICTED BY IDOCK:    6.26 KCAL/MOL
REMARK 923 INTER-LIGAND FREE ENERGY PREDICTED BY IDOCK:   -4.86 KCAL/MOL
REMARK 924 INTRA-LIGAND FREE ENERGY PREDICTED BY IDOCK:   11.12 KCAL/MOL
REMARK 927      BINDING AFFINITY PREDICTED BY RF-SCORE:    0.00 PKD
ROOT
HETATM    1  C   UNL     1     -11.899  11.371  67.723  1.00  0.00    -0.120 C  
HETATM    2  O   UNL     1      -5.484   9.774  68.772  1.00  0.00    -0.037 OA 
HETATM    3  C   UNL     1     -12.308  12.655  67.032  1.00  0.00     0.326 C  
HETATM    4  C   UNL     1     -10.931  11.837  68.904  1.00  0.00    -0.288 C  
HETATM    5  C   UNL     1      -5.675   8.948  69.931  1.00  0.00    -0.028 C  
HETATM    6  C   UNL     1     -12.160  13.715  67.825  1.00  0.00    -0.325 C  
HETATM    7  C   UNL     1     -11.521  13.405  69.153  1.00  0.00    -0.300 C  
HETATM    8  C   UNL     1      -9.361  11.361  68.816  1.00  0.00    -0.115 A  
HETATM    9  C   UNL     1      -8.969  10.229  69.572  1.00  0.00    -0.176 A  
HETATM   10  O   UNL     1      -7.063   8.859  70.341  1.00  0.00    -0.043 OA 
HETATM   11  C   UNL     1      -7.642   9.790  69.529  1.00  0.00    -0.114 A  
HETATM   12  C   UNL     1     -12.584  13.492  70.253  1.00  0.00    -0.221 C  
HETATM   13  C   UNL     1      -6.722  10.329  68.664  1.00  0.00    -0.053 A  
HETATM   14  C   UNL     1      -7.005  11.450  67.929  1.00  0.00    -0.073 A  
HETATM   15  C   UNL     1     -12.088  14.551  71.231  1.00  0.00    -0.419 C  
HETATM   16  C   UNL     1      -8.231  12.082  68.203  1.00  0.00    -0.163 A  
HETATM   17  C   UNL     1      -7.993  13.626  68.521  1.00  0.00    -0.127 C  
HETATM   18  C   UNL     1      -9.356  14.015  68.949  1.00  0.00     0.031 C  
HETATM   19  N   UNL     1     -10.585  14.562  69.404  1.00  0.00    -0.201 NA 
HETATM   20  C   UNL     1     -10.664  14.894  70.823  1.00  0.00     0.121 C  
ENDROOT
BRANCH   1  21
HETATM   21  O   UNL     1     -11.395  10.391  66.823  1.00  0.00    -0.094 OA 
BRANCH  21  22
HETATM   22  C   UNL     1     -10.090  10.623  66.485  1.00  0.00    -0.223 C  
HETATM   23  C   UNL     1      -8.664  11.438  64.597  1.00  0.00     0.359 C  
HETATM   24  C   UNL     1     -10.005  11.623  65.321  1.00  0.00    -0.255 C  
HETATM   25  O   UNL     1      -9.119  10.069  67.003  1.00  0.00    -0.141 OA 
HETATM   26  H   UNL     1     -11.022  12.009  63.679  1.00  0.00     0.000 HD 
HETATM   27  C   UNL     1     -10.149  13.057  65.887  1.00  0.00    -0.291 C  
HETATM   28  O   UNL     1     -11.074  11.391  64.399  1.00  0.00    -0.329 OA 
BRANCH  23  29
HETATM   29  C   UNL     1      -8.498  10.034  64.033  1.00  0.00    -0.177 C  
HETATM   30  O   UNL     1      -9.253   9.467  63.252  1.00  0.00    -0.205 OA 
BRANCH  29  31
HETATM   31  O   UNL     1      -7.339   9.507  64.537  1.00  0.00    -0.105 OA 
HETATM   32  C   UNL     1      -7.015   8.232  63.987  1.00  0.00    -0.075 C  
ENDBRANCH  29  31
ENDBRANCH  23  29
BRANCH  27  33
HETATM   33  C   UNL     1     -10.061  14.218  64.873  1.00  0.00    -0.267 C  
BRANCH  33  34
HETATM   34  C   UNL     1      -9.297  15.453  65.377  1.00  0.00     0.140 C  
HETATM   35  C   UNL     1     -11.105  17.149  64.766  1.00  0.00     0.393 C  
HETATM   36  O   UNL     1     -10.995  16.171  66.941  1.00  0.00    -0.237 OA 
HETATM   37  C   UNL     1     -10.178  16.622  65.857  1.00  0.00    -0.340 C  
HETATM   38  C   UNL     1      -9.288  17.759  66.377  1.00  0.00    -0.264 C  
HETATM   39  H   UNL     1     -11.538  16.892  67.237  1.00  0.00     0.000 HD 
ENDBRANCH  33  34
ENDBRANCH  27  33
ENDBRANCH  21  22
ENDBRANCH   1  21
BRANCH   3  40
HETATM   40  O   UNL     1     -12.756  12.827  65.749  1.00  0.00    -0.493 OA 
HETATM   41  C   UNL     1     -13.247  14.086  65.326  1.00  0.00     0.062 C  
ENDBRANCH   3  40
TORSDOF 7
ENDMDL
MODEL      183
REMARK 921   NORMALIZED FREE ENERGY PREDICTED BY IDOCK:    6.00 KCAL/MOL
REMARK 922        TOTAL FREE ENERGY PREDICTED BY IDOCK:    6.59 KCAL/MOL
REMARK 923 INTER-LIGAND FREE ENERGY PREDICTED BY IDOCK:    6.88 KCAL/MOL
REMARK 924 INTRA-LIGAND FREE ENERGY PREDICTED BY IDOCK:   -0.29 KCAL/MOL
REMARK 927      BINDING AFFINITY PREDICTED BY RF-SCORE:    0.00 PKD
ROOT
HETATM    1  C   UNL     1      -8.998  17.017  67.228  1.00  0.00    -0.215 C  
HETATM    2  O   UNL     1      -5.154  14.353  72.017  1.00  0.00    -0.145 OA 
HETATM    3  C   UNL     1      -8.538  18.184  66.381  1.00  0.00    -0.229 C  
HETATM    4  C   UNL     1      -8.794  17.504  68.734  1.00  0.00    -0.215 C  
HETATM    5  C   UNL     1      -6.207  13.848  72.854  1.00  0.00     1.214 C  
HETATM    6  C   UNL     1      -8.565  19.331  67.058  1.00  0.00    -0.307 C  
HETATM    7  C   UNL     1      -8.924  19.178  68.511  1.00  0.00    -0.363 C  
HETATM    8  C   UNL     1      -7.681  16.699  69.637  1.00  0.00     0.388 A  
HETATM    9  C   UNL     1      -8.147  15.693  70.520  1.00  0.00     1.615 A  
HETATM   10  O   UNL     1      -7.531  14.143  72.341  1.00  0.00     3.205 OA 
HETATM   11  C   UNL     1      -7.236  14.984  71.308  1.00  0.00     1.852 A  
HETATM   12  C   UNL     1     -10.341  19.716  68.737  1.00  0.00    -0.345 C  
HETATM   13  C   UNL     1      -5.878  15.123  71.159  1.00  0.00     0.160 A  
HETATM   14  C   UNL     1      -5.343  16.099  70.358  1.00  0.00    -0.178 A  
HETATM   15  C   UNL     1     -10.207  20.827  69.771  1.00  0.00     0.750 C  
HETATM   16  C   UNL     1      -6.252  17.018  69.807  1.00  0.00    -0.198 A  
HETATM   17  C   UNL     1      -5.796  18.509  70.143  1.00  0.00    -0.199 C  
HETATM   18  C   UNL     1      -6.969  19.259  69.640  1.00  0.00    -0.135 C  
HETATM   19  N   UNL     1      -8.009  20.136  69.233  1.00  0.00     0.209 NA 
HETATM   20  C   UNL     1      -8.782  20.767  70.298  1.00  0.00     2.600 C  
ENDROOT
BRANCH   1  21
HETATM   21  O   UNL     1      -8.388  15.785  66.858  1.00  0.00    -0.202 OA 
BRANCH  21  22
HETATM   22  C   UNL     1      -9.295  14.890  66.359  1.00  0.00    -0.297 C  
HETATM   23  C   UNL     1     -10.749  12.974  67.049  1.00  0.00    -0.270 C  
HETATM   24  C   UNL     1     -10.174  14.329  67.488  1.00  0.00    -0.240 C  
HETATM   25  O   UNL     1      -9.364  14.542  65.180  1.00  0.00     0.273 OA 
HETATM   26  H   UNL     1      -9.933  13.799  69.370  1.00  0.00     0.000 HD 
HETATM   27  C   UNL     1     -11.298  15.347  67.797  1.00  0.00    -0.308 C  
HETATM   28  O   UNL     1      -9.391  14.146  68.672  1.00  0.00    -0.201 OA 
BRANCH  23  29
HETATM   29  C   UNL     1      -9.662  11.956  66.738  1.00  0.00    -0.204 C  
HETATM   30  O   UNL     1      -8.516  11.954  67.174  1.00  0.00    -0.160 OA 
BRANCH  29  31
HETATM   31  O   UNL     1     -10.188  11.016  65.892  1.00  0.00    -0.239 OA 
HETATM   32  C   UNL     1     -10.184   9.700  66.440  1.00  0.00    -0.217 C  
ENDBRANCH  29  31
ENDBRANCH  23  29
BRANCH  27  33
HETATM   33  C   UNL     1     -12.313  14.954  68.891  1.00  0.00    -0.032 C  
BRANCH  33  34
HETATM   34  C   UNL     1     -12.172  15.735  70.207  1.00  0.00    -0.367 C  
HETATM   35  C   UNL     1     -14.376  14.938  71.224  1.00  0.00    -0.460 C  
HETATM   36  O   UNL     1     -12.319  13.805  71.655  1.00  0.00    -0.269 OA 
HETATM   37  C   UNL     1     -12.872  15.103  71.426  1.00  0.00    -0.385 C  
HETATM   38  C   UNL     1     -12.607  15.957  72.673  1.00  0.00    -0.562 C  
HETATM   39  H   UNL     1     -12.751  13.414  72.406  1.00  0.00     0.000 HD 
ENDBRANCH  33  34
ENDBRANCH  27  33
ENDBRANCH  21  22
ENDBRANCH   1  21
BRANCH   3  40
HETATM   40  O   UNL     1      -8.097  18.174  65.083  1.00  0.00     0.681 OA 
HETATM   41  C   UNL     1      -6.799  18.643  64.766  1.00  0.00     0.876 C  
ENDBRANCH   3  40
TORSDOF 7
ENDMDL
MODEL      184
REMARK 921   NORMALIZED FREE ENERGY PREDICTED BY IDOCK:    6.01 KCAL/MOL
REMARK 922        TOTAL FREE ENERGY PREDICTED BY IDOCK:    6.60 KCAL/MOL
REMARK 923 INTER-LIGAND FREE ENERGY PREDICTED BY IDOCK:   -3.84 KCAL/MOL
REMARK 924 INTRA-LIGAND FREE ENERGY PREDICTED BY IDOCK:   10.44 KCAL/MOL
REMARK 927      BINDING AFFINITY PREDICTED BY RF-SCORE:    0.00 PKD
ROOT
HETATM    1  C   UNL     1     -12.127  13.004  69.488  1.00  0.00    -0.230 C  
HETATM    2  O   UNL     1      -7.873   9.991  65.289  1.00  0.00    -0.126 OA 
HETATM    3  C   UNL     1     -11.846  13.127  70.970  1.00  0.00     0.422 C  
HETATM    4  C   UNL     1     -11.965  11.447  69.173  1.00  0.00    -0.395 C  
HETATM    5  C   UNL     1      -8.832   9.576  64.303  1.00  0.00    -0.213 C  
HETATM    6  C   UNL     1     -12.017  11.970  71.608  1.00  0.00     1.114 C  
HETATM    7  C   UNL     1     -12.327  10.810  70.700  1.00  0.00    -0.372 C  
HETATM    8  C   UNL     1     -10.737  11.010  68.172  1.00  0.00    -0.246 A  
HETATM    9  C   UNL     1     -11.046  10.775  66.809  1.00  0.00    -0.153 A  
HETATM   10  O   UNL     1     -10.192   9.943  64.646  1.00  0.00    -0.090 OA 
HETATM   11  C   UNL     1     -10.033  10.399  65.922  1.00  0.00    -0.255 A  
HETATM   12  C   UNL     1     -13.799  10.421  70.868  1.00  0.00     0.612 C  
HETATM   13  C   UNL     1      -8.710  10.387  66.287  1.00  0.00    -0.153 A  
HETATM   14  C   UNL     1      -8.327  10.562  67.592  1.00  0.00    -0.114 A  
HETATM   15  C   UNL     1     -13.799   8.964  71.315  1.00  0.00    -0.231 C  
HETATM   16  C   UNL     1      -9.363  10.627  68.540  1.00  0.00    -0.170 A  
HETATM   17  C   UNL     1      -9.108   9.567  69.704  1.00  0.00    -0.207 C  
HETATM   18  C   UNL     1     -10.381   9.689  70.449  1.00  0.00    -0.291 C  
HETATM   19  N   UNL     1     -11.538   9.657  71.273  1.00  0.00    -0.365 NA 
HETATM   20  C   UNL     1     -12.371   8.463  71.179  1.00  0.00    -0.200 C  
ENDROOT
BRANCH   1  21
HETATM   21  O   UNL     1     -11.362  13.906  68.698  1.00  0.00    -0.245 OA 
BRANCH  21  22
HETATM   22  C   UNL     1     -10.899  13.322  67.550  1.00  0.00    -0.263 C  
HETATM   23  C   UNL     1      -9.771  13.868  65.385  1.00  0.00    -0.096 C  
HETATM   24  C   UNL     1      -9.846  14.217  66.878  1.00  0.00    -0.263 C  
HETATM   25  O   UNL     1     -11.307  12.255  67.090  1.00  0.00    -0.293 OA 
HETATM   26  H   UNL     1      -9.560  16.147  66.607  1.00  0.00     0.000 HD 
HETATM   27  C   UNL     1      -8.485  13.995  67.580  1.00  0.00    -0.193 C  
HETATM   28  O   UNL     1     -10.211  15.594  67.022  1.00  0.00    -0.262 OA 
BRANCH  23  29
HETATM   29  C   UNL     1     -11.099  14.077  64.672  1.00  0.00    -0.382 C  
HETATM   30  O   UNL     1     -12.110  13.395  64.798  1.00  0.00    -0.371 OA 
BRANCH  29  31
HETATM   31  O   UNL     1     -10.983  15.179  63.868  1.00  0.00     0.524 OA 
HETATM   32  C   UNL     1     -12.066  16.096  64.011  1.00  0.00     0.629 C  
ENDBRANCH  29  31
ENDBRANCH  23  29
BRANCH  27  33
HETATM   33  C   UNL     1      -7.279  14.788  67.030  1.00  0.00     0.261 C  
BRANCH  33  34
HETATM   34  C   UNL     1      -6.705  15.836  67.996  1.00  0.00    -0.144 C  
HETATM   35  C   UNL     1      -6.598  17.735  66.292  1.00  0.00    -0.297 C  
HETATM   36  O   UNL     1      -8.494  17.437  67.712  1.00  0.00    -0.216 OA 
HETATM   37  C   UNL     1      -7.072  17.298  67.675  1.00  0.00    -0.164 C  
HETATM   38  C   UNL     1      -6.478  18.224  68.744  1.00  0.00    -0.228 C  
HETATM   39  H   UNL     1      -8.720  18.338  67.514  1.00  0.00     0.000 HD 
ENDBRANCH  33  34
ENDBRANCH  27  33
ENDBRANCH  21  22
ENDBRANCH   1  21
BRANCH   3  40
HETATM   40  O   UNL     1     -11.431  14.230  71.670  1.00  0.00     0.155 OA 
HETATM   41  C   UNL     1     -12.351  14.965  72.456  1.00  0.00    -0.332 C  
ENDBRANCH   3  40
TORSDOF 7
ENDMDL
MODEL      185
REMARK 921   NORMALIZED FREE ENERGY PREDICTED BY IDOCK:    6.04 KCAL/MOL
REMARK 922        TOTAL FREE ENERGY PREDICTED BY IDOCK:    6.64 KCAL/MOL
REMARK 923 INTER-LIGAND FREE ENERGY PREDICTED BY IDOCK:   -5.17 KCAL/MOL
REMARK 924 INTRA-LIGAND FREE ENERGY PREDICTED BY IDOCK:   11.82 KCAL/MOL
REMARK 927      BINDING AFFINITY PREDICTED BY RF-SCORE:    0.00 PKD
ROOT
HETATM    1  C   UNL     1      -9.517  11.674  68.924  1.00  0.00     0.028 C  
HETATM    2  O   UNL     1     -12.139   6.252  71.844  1.00  0.00    -0.334 OA 
HETATM    3  C   UNL     1      -9.184  11.714  67.448  1.00  0.00    -0.168 C  
HETATM    4  C   UNL     1      -8.772  10.374  69.473  1.00  0.00    -0.102 C  
HETATM    5  C   UNL     1     -11.640   6.484  73.171  1.00  0.00     0.282 C  
HETATM    6  C   UNL     1      -8.084  11.015  67.167  1.00  0.00    -0.134 C  
HETATM    7  C   UNL     1      -7.514  10.269  68.344  1.00  0.00    -0.090 C  
HETATM    8  C   UNL     1      -9.716   9.152  70.035  1.00  0.00    -0.217 A  
HETATM    9  C   UNL     1      -9.914   9.058  71.435  1.00  0.00    -0.388 A  
HETATM   10  O   UNL     1     -10.830   7.682  73.271  1.00  0.00    -0.394 OA 
HETATM   11  C   UNL     1     -10.707   8.032  71.958  1.00  0.00    -0.258 A  
HETATM   12  C   UNL     1      -6.224  10.960  68.799  1.00  0.00    -0.044 C  
HETATM   13  C   UNL     1     -11.430   7.186  71.153  1.00  0.00    -0.290 A  
HETATM   14  C   UNL     1     -11.267   7.182  69.793  1.00  0.00    -0.206 A  
HETATM   15  C   UNL     1      -5.127   9.909  68.692  1.00  0.00    -0.032 C  
HETATM   16  C   UNL     1     -10.238   7.995  69.286  1.00  0.00    -0.214 A  
HETATM   17  C   UNL     1      -9.270   7.137  68.354  1.00  0.00    -0.133 C  
HETATM   18  C   UNL     1      -8.201   8.130  68.106  1.00  0.00    -0.129 C  
HETATM   19  N   UNL     1      -7.081   8.939  67.778  1.00  0.00    -0.079 NA 
HETATM   20  C   UNL     1      -5.814   8.583  68.408  1.00  0.00    -0.041 C  
ENDROOT
BRANCH   1  21
HETATM   21  O   UNL     1     -10.912  11.778  69.183  1.00  0.00    -0.232 OA 
BRANCH  21  22
HETATM   22  C   UNL     1     -11.275  13.044  69.554  1.00  0.00    -0.077 C  
HETATM   23  C   UNL     1     -10.985  15.442  68.901  1.00  0.00    -0.261 C  
HETATM   24  C   UNL     1     -11.143  14.012  68.367  1.00  0.00    -0.253 C  
HETATM   25  O   UNL     1     -11.610  13.375  70.692  1.00  0.00    -0.058 OA 
HETATM   26  H   UNL     1      -9.911  14.269  66.852  1.00  0.00     0.000 HD 
HETATM   27  C   UNL     1     -12.399  13.877  67.474  1.00  0.00    -0.113 C  
HETATM   28  O   UNL     1      -9.993  13.671  67.586  1.00  0.00    -0.231 OA 
BRANCH  23  29
HETATM   29  C   UNL     1      -9.756  15.600  69.785  1.00  0.00    -0.228 C  
HETATM   30  O   UNL     1      -9.672  15.319  70.976  1.00  0.00     0.828 OA 
BRANCH  29  31
HETATM   31  O   UNL     1      -8.739  16.097  69.015  1.00  0.00    -0.235 OA 
HETATM   32  C   UNL     1      -8.453  15.293  67.873  1.00  0.00    -0.148 C  
ENDBRANCH  29  31
ENDBRANCH  23  29
BRANCH  27  33
HETATM   33  C   UNL     1     -12.474  14.793  66.233  1.00  0.00     0.173 C  
BRANCH  33  34
HETATM   34  C   UNL     1     -13.105  14.142  64.992  1.00  0.00     0.044 C  
HETATM   35  C   UNL     1     -10.929  13.181  64.063  1.00  0.00    -0.377 C  
HETATM   36  O   UNL     1     -12.354  11.897  65.484  1.00  0.00    -0.352 OA 
HETATM   37  C   UNL     1     -12.374  12.894  64.459  1.00  0.00    -0.417 C  
HETATM   38  C   UNL     1     -13.138  12.324  63.258  1.00  0.00     0.104 C  
HETATM   39  H   UNL     1     -11.904  11.128  65.155  1.00  0.00     0.000 HD 
ENDBRANCH  33  34
ENDBRANCH  27  33
ENDBRANCH  21  22
ENDBRANCH   1  21
BRANCH   3  40
HETATM   40  O   UNL     1      -9.871  12.329  66.435  1.00  0.00    -0.219 OA 
HETATM   41  C   UNL     1      -9.666  11.936  65.090  1.00  0.00    -0.176 C  
ENDBRANCH   3  40
TORSDOF 7
ENDMDL
MODEL      186
REMARK 921   NORMALIZED FREE ENERGY PREDICTED BY IDOCK:    6.50 KCAL/MOL
REMARK 922        TOTAL FREE ENERGY PREDICTED BY IDOCK:    7.29 KCAL/MOL
REMARK 923 INTER-LIGAND FREE ENERGY PREDICTED BY IDOCK:   -4.49 KCAL/MOL
REMARK 924 INTRA-LIGAND FREE ENERGY PREDICTED BY IDOCK:   11.78 KCAL/MOL
REMARK 927      BINDING AFFINITY PREDICTED BY RF-SCORE:    0.00 PKD
ROOT
HETATM    1  C   UNL     1     -12.528  13.320  67.089  1.00  0.00     0.108 C  
HETATM    2  O   UNL     1      -8.603   8.463  69.500  1.00  0.00    -0.126 OA 
HETATM    3  C   UNL     1     -11.977  14.663  66.659  1.00  0.00    -0.275 C  
HETATM    4  C   UNL     1     -11.985  13.117  68.577  1.00  0.00    -0.324 C  
HETATM    5  C   UNL     1      -9.589   7.798  70.306  1.00  0.00    -0.175 C  
HETATM    6  C   UNL     1     -11.653  15.426  67.703  1.00  0.00    -0.202 C  
HETATM    7  C   UNL     1     -11.797  14.738  69.034  1.00  0.00    -0.302 C  
HETATM    8  C   UNL     1     -10.934  11.879  68.827  1.00  0.00    -0.280 A  
HETATM    9  C   UNL     1     -11.451  10.668  69.351  1.00  0.00    -0.356 A  
HETATM   10  O   UNL     1     -10.886   8.443  70.263  1.00  0.00    -0.236 OA 
HETATM   11  C   UNL     1     -10.593   9.589  69.582  1.00  0.00    -0.228 A  
HETATM   12  C   UNL     1     -13.014  15.312  69.766  1.00  0.00     0.191 C  
HETATM   13  C   UNL     1      -9.279   9.602  69.185  1.00  0.00    -0.168 A  
HETATM   14  C   UNL     1      -8.689  10.744  68.708  1.00  0.00    -0.163 A  
HETATM   15  C   UNL     1     -12.485  15.874  71.080  1.00  0.00    -0.387 C  
HETATM   16  C   UNL     1      -9.462  11.916  68.768  1.00  0.00    -0.002 A  
HETATM   17  C   UNL     1      -8.656  13.067  69.522  1.00  0.00     1.505 C  
HETATM   18  C   UNL     1      -9.712  14.099  69.624  1.00  0.00     0.674 C  
HETATM   19  N   UNL     1     -10.597  15.191  69.829  1.00  0.00    -0.259 NA 
HETATM   20  C   UNL     1     -11.038  15.423  71.200  1.00  0.00    -0.312 C  
ENDROOT
BRANCH   1  21
HETATM   21  O   UNL     1     -12.257  12.282  66.155  1.00  0.00    -0.647 OA 
BRANCH  21  22
HETATM   22  C   UNL     1     -11.016  11.735  66.337  1.00  0.00    -0.294 C  
HETATM   23  C   UNL     1      -8.718  11.704  65.348  1.00  0.00     0.253 C  
HETATM   24  C   UNL     1      -9.946  12.581  65.630  1.00  0.00    -0.245 C  
HETATM   25  O   UNL     1     -10.792  10.683  66.938  1.00  0.00    -0.255 OA 
HETATM   26  H   UNL     1      -9.798  13.607  63.955  1.00  0.00     0.000 HD 
HETATM   27  C   UNL     1      -9.586  13.784  66.535  1.00  0.00    -0.295 C  
HETATM   28  O   UNL     1     -10.459  13.084  64.392  1.00  0.00    -0.378 OA 
BRANCH  23  29
HETATM   29  C   UNL     1      -9.048  10.512  64.460  1.00  0.00    -0.222 C  
HETATM   30  O   UNL     1      -9.473  10.553  63.312  1.00  0.00    -0.270 OA 
BRANCH  29  31
HETATM   31  O   UNL     1      -8.769   9.369  65.161  1.00  0.00    -0.158 OA 
HETATM   32  C   UNL     1      -7.905   8.477  64.462  1.00  0.00    -0.138 C  
ENDBRANCH  29  31
ENDBRANCH  23  29
BRANCH  27  33
HETATM   33  C   UNL     1      -8.498  14.748  66.013  1.00  0.00     0.855 C  
BRANCH  33  34
HETATM   34  C   UNL     1      -7.545  15.285  67.093  1.00  0.00    -0.224 C  
HETATM   35  C   UNL     1      -7.102  17.530  65.959  1.00  0.00    -0.299 C  
HETATM   36  O   UNL     1      -8.830  17.273  67.586  1.00  0.00    -0.216 OA 
HETATM   37  C   UNL     1      -7.518  16.819  67.243  1.00  0.00    -0.171 C  
HETATM   38  C   UNL     1      -6.569  17.207  68.384  1.00  0.00    -0.164 C  
HETATM   39  H   UNL     1      -8.813  18.218  67.679  1.00  0.00     0.000 HD 
ENDBRANCH  33  34
ENDBRANCH  27  33
ENDBRANCH  21  22
ENDBRANCH   1  21
BRANCH   3  40
HETATM   40  O   UNL     1     -11.764  15.130  65.388  1.00  0.00    -0.236 OA 
HETATM   41  C   UNL     1     -11.228  16.425  65.183  1.00  0.00    -0.067 C  
ENDBRANCH   3  40
TORSDOF 7
ENDMDL
MODEL      187
REMARK 921   NORMALIZED FREE ENERGY PREDICTED BY IDOCK:    6.94 KCAL/MOL
REMARK 922        TOTAL FREE ENERGY PREDICTED BY IDOCK:    7.91 KCAL/MOL
REMARK 923 INTER-LIGAND FREE ENERGY PREDICTED BY IDOCK:    1.99 KCAL/MOL
REMARK 924 INTRA-LIGAND FREE ENERGY PREDICTED BY IDOCK:    5.92 KCAL/MOL
REMARK 927      BINDING AFFINITY PREDICTED BY RF-SCORE:    0.00 PKD
ROOT
HETATM    1  C   UNL     1     -10.529   7.439  66.891  1.00  0.00    -0.309 C  
HETATM    2  O   UNL     1      -5.239  11.514  67.346  1.00  0.00    -0.046 OA 
HETATM    3  C   UNL     1     -10.760   6.304  67.867  1.00  0.00    -0.305 C  
HETATM    4  C   UNL     1      -9.044   7.214  66.352  1.00  0.00    -0.189 C  
HETATM    5  C   UNL     1      -5.150  11.874  65.957  1.00  0.00     0.659 C  
HETATM    6  C   UNL     1      -9.936   5.280  67.643  1.00  0.00    -0.202 C  
HETATM    7  C   UNL     1      -8.912   5.540  66.570  1.00  0.00    -0.123 C  
HETATM    8  C   UNL     1      -7.930   8.363  66.729  1.00  0.00    -0.098 A  
HETATM    9  C   UNL     1      -7.636   9.345  65.750  1.00  0.00    -0.099 A  
HETATM   10  O   UNL     1      -6.152  11.222  65.137  1.00  0.00     0.213 OA 
HETATM   11  C   UNL     1      -6.693  10.340  66.026  1.00  0.00    -0.114 A  
HETATM   12  C   UNL     1      -9.277   4.730  65.322  1.00  0.00    -0.155 C  
HETATM   13  C   UNL     1      -6.137  10.494  67.272  1.00  0.00    -0.054 A  
HETATM   14  C   UNL     1      -6.336   9.567  68.262  1.00  0.00    -0.053 A  
HETATM   15  C   UNL     1      -8.082   3.825  65.046  1.00  0.00    -0.093 C  
HETATM   16  C   UNL     1      -7.028   8.400  67.893  1.00  0.00    -0.078 A  
HETATM   17  C   UNL     1      -6.184   7.110  68.299  1.00  0.00    -0.035 C  
HETATM   18  C   UNL     1      -7.000   6.054  67.658  1.00  0.00    -0.069 C  
HETATM   19  N   UNL     1      -7.643   4.918  67.098  1.00  0.00    -0.086 NA 
HETATM   20  C   UNL     1      -6.966   4.275  65.976  1.00  0.00    -0.066 C  
ENDROOT
BRANCH   1  21
HETATM   21  O   UNL     1     -10.832   8.715  67.441  1.00  0.00    -0.211 OA 
BRANCH  21  22
HETATM   22  C   UNL     1     -11.177   8.639  68.763  1.00  0.00     0.452 C  
HETATM   23  C   UNL     1     -10.547   9.535  71.013  1.00  0.00    -0.392 C  
HETATM   24  C   UNL     1     -10.676   9.878  69.522  1.00  0.00    -0.242 C  
HETATM   25  O   UNL     1     -11.760   7.687  69.284  1.00  0.00     0.514 OA 
HETATM   26  H   UNL     1      -9.088  11.042  69.487  1.00  0.00     0.000 HD 
HETATM   27  C   UNL     1     -11.675  11.038  69.294  1.00  0.00    -0.397 C  
HETATM   28  O   UNL     1      -9.397  10.276  69.018  1.00  0.00    -0.169 OA 
BRANCH  23  29
HETATM   29  C   UNL     1      -9.571   8.394  71.263  1.00  0.00    -0.185 C  
HETATM   30  O   UNL     1      -9.270   7.505  70.475  1.00  0.00    -0.156 OA 
BRANCH  29  31
HETATM   31  O   UNL     1      -9.063   8.538  72.526  1.00  0.00    -0.244 OA 
HETATM   32  C   UNL     1      -8.052   9.540  72.615  1.00  0.00     2.253 C  
ENDBRANCH  29  31
ENDBRANCH  23  29
BRANCH  27  33
HETATM   33  C   UNL     1     -11.365  12.375  70.001  1.00  0.00     0.024 C  
BRANCH  33  34
HETATM   34  C   UNL     1     -10.190  13.162  69.399  1.00  0.00     0.521 C  
HETATM   35  C   UNL     1     -11.611  15.043  68.416  1.00  0.00    -0.352 C  
HETATM   36  O   UNL     1     -10.638  15.218  70.589  1.00  0.00    -0.484 OA 
HETATM   37  C   UNL     1     -10.408  14.684  69.283  1.00  0.00    -0.173 C  
HETATM   38  C   UNL     1      -9.144  15.343  68.717  1.00  0.00    -0.207 C  
HETATM   39  H   UNL     1     -10.772  16.156  70.518  1.00  0.00     0.000 HD 
ENDBRANCH  33  34
ENDBRANCH  27  33
ENDBRANCH  21  22
ENDBRANCH   1  21
BRANCH   3  40
HETATM   40  O   UNL     1     -11.650   6.241  68.906  1.00  0.00    -0.227 OA 
HETATM   41  C   UNL     1     -11.633   5.139  69.796  1.00  0.00     2.968 C  
ENDBRANCH   3  40
TORSDOF 7
ENDMDL
MODEL      188
REMARK 921   NORMALIZED FREE ENERGY PREDICTED BY IDOCK:    7.13 KCAL/MOL
REMARK 922        TOTAL FREE ENERGY PREDICTED BY IDOCK:    8.18 KCAL/MOL
REMARK 923 INTER-LIGAND FREE ENERGY PREDICTED BY IDOCK:    6.43 KCAL/MOL
REMARK 924 INTRA-LIGAND FREE ENERGY PREDICTED BY IDOCK:    1.76 KCAL/MOL
REMARK 927      BINDING AFFINITY PREDICTED BY RF-SCORE:    0.00 PKD
ROOT
HETATM    1  C   UNL     1     -10.930  12.989  68.456  1.00  0.00    -0.263 C  
HETATM    2  O   UNL     1     -13.078   7.865  72.187  1.00  0.00    -0.261 OA 
HETATM    3  C   UNL     1     -10.146  14.143  69.044  1.00  0.00    -0.088 C  
HETATM    4  C   UNL     1     -12.243  12.889  69.358  1.00  0.00    -0.145 C  
HETATM    5  C   UNL     1     -14.212   7.499  71.383  1.00  0.00    -0.388 C  
HETATM    6  C   UNL     1     -10.924  14.965  69.748  1.00  0.00    -0.280 C  
HETATM    7  C   UNL     1     -12.347  14.495  69.887  1.00  0.00    -0.298 C  
HETATM    8  C   UNL     1     -12.432  11.525  70.255  1.00  0.00    -0.284 A  
HETATM    9  C   UNL     1     -13.273  10.507  69.743  1.00  0.00     0.729 A  
HETATM   10  O   UNL     1     -14.387   8.356  70.226  1.00  0.00     1.189 OA 
HETATM   11  C   UNL     1     -13.464   9.331  70.474  1.00  0.00     0.566 A  
HETATM   12  C   UNL     1     -13.252  15.370  69.014  1.00  0.00     1.788 C  
HETATM   13  C   UNL     1     -12.751   9.055  71.614  1.00  0.00    -0.358 A  
HETATM   14  C   UNL     1     -11.948   9.999  72.199  1.00  0.00     0.350 A  
HETATM   15  C   UNL     1     -14.269  15.995  69.961  1.00  0.00     3.451 C  
HETATM   16  C   UNL     1     -11.996  11.289  71.643  1.00  0.00     0.609 A  
HETATM   17  C   UNL     1     -12.307  12.365  72.778  1.00  0.00     2.944 C  
HETATM   18  C   UNL     1     -12.492  13.575  71.945  1.00  0.00    -0.004 C  
HETATM   19  N   UNL     1     -12.720  14.825  71.312  1.00  0.00    -0.313 NA 
HETATM   20  C   UNL     1     -14.096  15.311  71.307  1.00  0.00    -0.429 C  
ENDROOT
BRANCH   1  21
HETATM   21  O   UNL     1     -10.154  11.806  68.309  1.00  0.00    -0.186 OA 
BRANCH  21  22
HETATM   22  C   UNL     1      -8.966  12.044  67.672  1.00  0.00    -0.172 C  
HETATM   23  C   UNL     1      -6.505  11.657  67.895  1.00  0.00    -0.061 C  
HETATM   24  C   UNL     1      -7.893  11.052  68.146  1.00  0.00    -0.116 C  
HETATM   25  O   UNL     1      -8.769  12.958  66.870  1.00  0.00    -0.209 OA 
HETATM   26  H   UNL     1      -7.386  10.182  69.839  1.00  0.00     0.000 HD 
HETATM   27  C   UNL     1      -8.076   9.719  67.381  1.00  0.00    -0.114 C  
HETATM   28  O   UNL     1      -8.049  10.795  69.546  1.00  0.00    -0.104 OA 
BRANCH  23  29
HETATM   29  C   UNL     1      -6.302  12.971  68.636  1.00  0.00    -0.083 C  
HETATM   30  O   UNL     1      -6.074  14.065  68.134  1.00  0.00    -0.104 OA 
BRANCH  29  31
HETATM   31  O   UNL     1      -6.435  12.728  69.978  1.00  0.00    -0.042 OA 
HETATM   32  C   UNL     1      -5.278  13.085  70.731  1.00  0.00    -0.148 C  
ENDBRANCH  29  31
ENDBRANCH  23  29
BRANCH  27  33
HETATM   33  C   UNL     1      -7.069   8.591  67.695  1.00  0.00    -0.080 C  
BRANCH  33  34
HETATM   34  C   UNL     1      -7.667   7.175  67.679  1.00  0.00    -0.112 C  
HETATM   35  C   UNL     1      -5.977   6.159  69.303  1.00  0.00    -0.024 C  
HETATM   36  O   UNL     1      -8.059   7.048  70.061  1.00  0.00    -0.123 OA 
HETATM   37  C   UNL     1      -7.453   6.356  68.967  1.00  0.00    -0.095 C  
HETATM   38  C   UNL     1      -8.142   4.992  68.830  1.00  0.00    -0.084 C  
HETATM   39  H   UNL     1      -7.928   6.543  70.856  1.00  0.00     0.000 HD 
ENDBRANCH  33  34
ENDBRANCH  27  33
ENDBRANCH  21  22
ENDBRANCH   1  21
BRANCH   3  40
HETATM   40  O   UNL     1      -8.802  14.393  68.957  1.00  0.00    -0.114 OA 
HETATM   41  C   UNL     1      -8.241  15.521  69.604  1.00  0.00    -0.117 C  
ENDBRANCH   3  40
TORSDOF 7
ENDMDL
MODEL      189
REMARK 921   NORMALIZED FREE ENERGY PREDICTED BY IDOCK:    7.14 KCAL/MOL
REMARK 922        TOTAL FREE ENERGY PREDICTED BY IDOCK:    8.19 KCAL/MOL
REMARK 923 INTER-LIGAND FREE ENERGY PREDICTED BY IDOCK:   -1.61 KCAL/MOL
REMARK 924 INTRA-LIGAND FREE ENERGY PREDICTED BY IDOCK:    9.81 KCAL/MOL
REMARK 927      BINDING AFFINITY PREDICTED BY RF-SCORE:    0.00 PKD
ROOT
HETATM    1  C   UNL     1      -8.345   5.439  71.781  1.00  0.00    -0.119 C  
HETATM    2  O   UNL     1      -9.110   9.211  66.305  1.00  0.00    -0.155 OA 
HETATM    3  C   UNL     1      -7.245   4.406  71.902  1.00  0.00    -0.063 C  
HETATM    4  C   UNL     1      -9.089   5.082  70.415  1.00  0.00    -0.172 C  
HETATM    5  C   UNL     1     -10.522   9.449  66.427  1.00  0.00    -0.095 C  
HETATM    6  C   UNL     1      -7.501   3.320  71.174  1.00  0.00    -0.040 C  
HETATM    7  C   UNL     1      -8.741   3.426  70.327  1.00  0.00    -0.068 C  
HETATM    8  C   UNL     1      -9.001   6.188  69.203  1.00  0.00    -0.126 A  
HETATM    9  C   UNL     1     -10.100   7.066  69.027  1.00  0.00    -0.182 A  
HETATM   10  O   UNL     1     -11.110   8.792  67.578  1.00  0.00     0.008 OA 
HETATM   11  C   UNL     1     -10.069   8.021  68.008  1.00  0.00    -0.194 A  
HETATM   12  C   UNL     1      -9.836   2.538  70.928  1.00  0.00    -0.015 C  
HETATM   13  C   UNL     1      -8.946   8.245  67.249  1.00  0.00    -0.137 A  
HETATM   14  C   UNL     1      -7.856   7.417  67.327  1.00  0.00    -0.114 A  
HETATM   15  C   UNL     1     -10.213   1.544  69.836  1.00  0.00     0.614 C  
HETATM   16  C   UNL     1      -8.002   6.268  68.123  1.00  0.00    -0.108 A  
HETATM   17  C   UNL     1      -7.618   4.967  67.284  1.00  0.00    -0.091 C  
HETATM   18  C   UNL     1      -8.022   3.913  68.242  1.00  0.00    -0.076 C  
HETATM   19  N   UNL     1      -8.366   2.775  69.019  1.00  0.00    -0.058 NA 
HETATM   20  C   UNL     1      -9.517   2.002  68.564  1.00  0.00    -0.157 C  
ENDROOT
BRANCH   1  21
HETATM   21  O   UNL     1      -7.874   6.773  71.931  1.00  0.00    -0.096 OA 
BRANCH  21  22
HETATM   22  C   UNL     1      -6.591   6.922  71.478  1.00  0.00    -0.049 C  
HETATM   23  C   UNL     1      -5.195   8.338  69.960  1.00  0.00    -0.023 C  
HETATM   24  C   UNL     1      -6.369   8.347  70.949  1.00  0.00    -0.038 C  
HETATM   25  O   UNL     1      -5.747   6.025  71.449  1.00  0.00    -0.021 OA 
HETATM   26  H   UNL     1      -7.409   9.690  69.951  1.00  0.00     0.000 HD 
HETATM   27  C   UNL     1      -6.090   9.285  72.149  1.00  0.00     0.070 C  
HETATM   28  O   UNL     1      -7.546   8.809  70.278  1.00  0.00    -0.061 OA 
BRANCH  23  29
HETATM   29  C   UNL     1      -5.445   7.421  68.771  1.00  0.00    -0.022 C  
HETATM   30  O   UNL     1      -5.349   6.199  68.759  1.00  0.00    -0.007 OA 
BRANCH  29  31
HETATM   31  O   UNL     1      -5.819   8.196  67.706  1.00  0.00    -0.040 OA 
HETATM   32  C   UNL     1      -5.156   7.843  66.494  1.00  0.00    -0.024 C  
ENDBRANCH  29  31
ENDBRANCH  23  29
BRANCH  27  33
HETATM   33  C   UNL     1      -5.810  10.768  71.824  1.00  0.00     0.609 C  
BRANCH  33  34
HETATM   34  C   UNL     1      -5.361  11.034  70.378  1.00  0.00    -0.092 C  
HETATM   35  C   UNL     1      -7.714  11.226  69.403  1.00  0.00     0.083 C  
HETATM   36  O   UNL     1      -6.511  13.148  70.149  1.00  0.00    -0.357 OA 
HETATM   37  C   UNL     1      -6.338  11.872  69.529  1.00  0.00    -0.122 C  
HETATM   38  C   UNL     1      -5.741  12.101  68.134  1.00  0.00    -0.053 C  
HETATM   39  H   UNL     1      -7.113  13.665  69.626  1.00  0.00     0.000 HD 
ENDBRANCH  33  34
ENDBRANCH  27  33
ENDBRANCH  21  22
ENDBRANCH   1  21
BRANCH   3  40
HETATM   40  O   UNL     1      -6.076   4.484  72.613  1.00  0.00    -0.015 OA 
HETATM   41  C   UNL     1      -5.928   3.768  73.826  1.00  0.00    -0.004 C  
ENDBRANCH   3  40
TORSDOF 7
ENDMDL
MODEL      190
REMARK 921   NORMALIZED FREE ENERGY PREDICTED BY IDOCK:    7.63 KCAL/MOL
REMARK 922        TOTAL FREE ENERGY PREDICTED BY IDOCK:    8.89 KCAL/MOL
REMARK 923 INTER-LIGAND FREE ENERGY PREDICTED BY IDOCK:   -1.97 KCAL/MOL
REMARK 924 INTRA-LIGAND FREE ENERGY PREDICTED BY IDOCK:   10.86 KCAL/MOL
REMARK 927      BINDING AFFINITY PREDICTED BY RF-SCORE:    0.00 PKD
ROOT
HETATM    1  C   UNL     1      -5.449  10.490  68.922  1.00  0.00    -0.041 C  
HETATM    2  O   UNL     1     -10.657   9.891  64.761  1.00  0.00     0.397 OA 
HETATM    3  C   UNL     1      -5.626  10.728  70.406  1.00  0.00    -0.092 C  
HETATM    4  C   UNL     1      -6.308  11.639  68.222  1.00  0.00    -0.050 C  
HETATM    5  C   UNL     1     -10.004  10.346  63.564  1.00  0.00    -0.102 C  
HETATM    6  C   UNL     1      -5.995  11.981  70.669  1.00  0.00     0.032 C  
HETATM    7  C   UNL     1      -6.260  12.812  69.442  1.00  0.00    -0.112 C  
HETATM    8  C   UNL     1      -7.611  11.165  67.339  1.00  0.00    -0.113 A  
HETATM    9  C   UNL     1      -7.459  11.070  65.934  1.00  0.00     0.019 A  
HETATM   10  O   UNL     1      -8.623  10.729  63.782  1.00  0.00    -0.137 OA 
HETATM   11  C   UNL     1      -8.542  10.674  65.143  1.00  0.00    -0.167 A  
HETATM   12  C   UNL     1      -5.126  13.828  69.270  1.00  0.00    -0.081 C  
HETATM   13  C   UNL     1      -9.721  10.229  65.689  1.00  0.00    -0.247 A  
HETATM   14  C   UNL     1      -9.966  10.325  67.034  1.00  0.00    -0.249 A  
HETATM   15  C   UNL     1      -5.787  15.201  69.296  1.00  0.00    -0.097 C  
HETATM   16  C   UNL     1      -9.004  11.013  67.795  1.00  0.00    -0.140 A  
HETATM   17  C   UNL     1      -9.702  12.165  68.648  1.00  0.00    -0.090 C  
HETATM   18  C   UNL     1      -8.505  12.844  69.195  1.00  0.00     0.655 C  
HETATM   19  N   UNL     1      -7.482  13.627  69.791  1.00  0.00     0.518 NA 
HETATM   20  C   UNL     1      -7.288  14.968  69.248  1.00  0.00    -0.184 C  
ENDROOT
BRANCH   1  21
HETATM   21  O   UNL     1      -5.726   9.149  68.536  1.00  0.00    -0.041 OA 
BRANCH  21  22
HETATM   22  C   UNL     1      -6.509   9.086  67.416  1.00  0.00    -0.064 C  
HETATM   23  C   UNL     1      -7.665   7.451  65.916  1.00  0.00    -0.093 C  
HETATM   24  C   UNL     1      -7.276   7.755  67.369  1.00  0.00    -0.091 C  
HETATM   25  O   UNL     1      -6.554   9.950  66.539  1.00  0.00    -0.069 OA 
HETATM   26  H   UNL     1      -6.923   5.874  67.838  1.00  0.00     0.000 HD 
HETATM   27  C   UNL     1      -8.524   7.868  68.277  1.00  0.00    -0.124 C  
HETATM   28  O   UNL     1      -6.449   6.697  67.866  1.00  0.00    -0.051 OA 
BRANCH  23  29
HETATM   29  C   UNL     1      -6.453   7.336  65.002  1.00  0.00    -0.037 C  
HETATM   30  O   UNL     1      -5.319   7.006  65.331  1.00  0.00    -0.026 OA 
BRANCH  29  31
HETATM   31  O   UNL     1      -6.848   7.649  63.729  1.00  0.00    -0.056 OA 
HETATM   32  C   UNL     1      -6.466   6.670  62.765  1.00  0.00    -0.039 C  
ENDBRANCH  29  31
ENDBRANCH  23  29
BRANCH  27  33
HETATM   33  C   UNL     1      -9.451   6.636  68.345  1.00  0.00    -0.125 C  
BRANCH  33  34
HETATM   34  C   UNL     1      -9.664   6.070  69.759  1.00  0.00    -0.194 C  
HETATM   35  C   UNL     1      -9.443   3.614  69.097  1.00  0.00    -0.235 C  
HETATM   36  O   UNL     1      -7.566   4.874  69.864  1.00  0.00    -0.055 OA 
HETATM   37  C   UNL     1      -8.976   4.720  70.039  1.00  0.00    -0.095 C  
HETATM   38  C   UNL     1      -9.230   4.305  71.494  1.00  0.00    -0.190 C  
HETATM   39  H   UNL     1      -7.142   4.041  70.036  1.00  0.00     0.000 HD 
ENDBRANCH  33  34
ENDBRANCH  27  33
ENDBRANCH  21  22
ENDBRANCH   1  21
BRANCH   3  40
HETATM   40  O   UNL     1      -5.483   9.835  71.436  1.00  0.00    -0.067 OA 
HETATM   41  C   UNL     1      -6.013   8.527  71.327  1.00  0.00    -0.040 C  
ENDBRANCH   3  40
TORSDOF 7
ENDMDL
MODEL      191
REMARK 921   NORMALIZED FREE ENERGY PREDICTED BY IDOCK:    7.65 KCAL/MOL
REMARK 922        TOTAL FREE ENERGY PREDICTED BY IDOCK:    8.91 KCAL/MOL
REMARK 923 INTER-LIGAND FREE ENERGY PREDICTED BY IDOCK:   -3.15 KCAL/MOL
REMARK 924 INTRA-LIGAND FREE ENERGY PREDICTED BY IDOCK:   12.07 KCAL/MOL
REMARK 927      BINDING AFFINITY PREDICTED BY RF-SCORE:    0.00 PKD
ROOT
HETATM    1  C   UNL     1     -10.642   9.469  68.463  1.00  0.00    -0.212 C  
HETATM    2  O   UNL     1     -11.545  14.005  63.625  1.00  0.00    -0.046 OA 
HETATM    3  C   UNL     1      -9.302   9.264  69.137  1.00  0.00    -0.157 C  
HETATM    4  C   UNL     1     -10.334   9.342  66.902  1.00  0.00    -0.316 C  
HETATM    5  C   UNL     1     -12.636  13.357  62.951  1.00  0.00     0.774 C  
HETATM    6  C   UNL     1      -8.443   8.615  68.351  1.00  0.00    -0.131 C  
HETATM    7  C   UNL     1      -8.962   8.351  66.962  1.00  0.00    -0.142 C  
HETATM    8  C   UNL     1     -10.557  10.687  65.984  1.00  0.00    -0.195 A  
HETATM    9  C   UNL     1     -11.770  10.800  65.259  1.00  0.00     1.467 A  
HETATM   10  O   UNL     1     -13.006  12.093  63.557  1.00  0.00    -0.794 OA 
HETATM   11  C   UNL     1     -12.001  11.926  64.464  1.00  0.00    -0.196 A  
HETATM   12  C   UNL     1      -9.279   6.858  66.821  1.00  0.00    -0.177 C  
HETATM   13  C   UNL     1     -11.155  13.008  64.466  1.00  0.00    -0.351 A  
HETATM   14  C   UNL     1      -9.944  12.967  65.105  1.00  0.00    -0.175 A  
HETATM   15  C   UNL     1      -8.417   6.355  65.669  1.00  0.00    -0.147 C  
HETATM   16  C   UNL     1      -9.567  11.724  65.644  1.00  0.00    -0.240 A  
HETATM   17  C   UNL     1      -8.120  11.313  65.114  1.00  0.00     0.459 C  
HETATM   18  C   UNL     1      -8.031   9.934  65.647  1.00  0.00    -0.130 C  
HETATM   19  N   UNL     1      -7.778   8.599  66.060  1.00  0.00    -0.099 NA 
HETATM   20  C   UNL     1      -7.798   7.580  65.015  1.00  0.00    -0.127 C  
ENDROOT
BRANCH   1  21
HETATM   21  O   UNL     1     -11.309  10.648  68.897  1.00  0.00    -0.249 OA 
BRANCH  21  22
HETATM   22  C   UNL     1     -11.110  11.698  68.042  1.00  0.00    -0.242 C  
HETATM   23  C   UNL     1     -10.407  14.098  68.008  1.00  0.00    -0.231 C  
HETATM   24  C   UNL     1     -10.169  12.735  68.673  1.00  0.00    -0.152 C  
HETATM   25  O   UNL     1     -11.651  11.821  66.942  1.00  0.00    -0.491 OA 
HETATM   26  H   UNL     1      -9.851  13.486  70.466  1.00  0.00     0.000 HD 
HETATM   27  C   UNL     1      -8.708  12.261  68.485  1.00  0.00    -0.071 C  
HETATM   28  O   UNL     1     -10.432  12.844  70.076  1.00  0.00     1.006 OA 
BRANCH  23  29
HETATM   29  C   UNL     1     -11.839  14.586  68.178  1.00  0.00    -0.313 C  
HETATM   30  O   UNL     1     -12.751  14.471  67.367  1.00  0.00     0.247 OA 
BRANCH  29  31
HETATM   31  O   UNL     1     -11.947  15.166  69.414  1.00  0.00    -0.313 OA 
HETATM   32  C   UNL     1     -11.148  16.340  69.555  1.00  0.00    -0.330 C  
ENDBRANCH  29  31
ENDBRANCH  23  29
BRANCH  27  33
HETATM   33  C   UNL     1      -7.599  13.187  69.028  1.00  0.00     0.133 C  
BRANCH  33  34
HETATM   34  C   UNL     1      -7.937  14.686  68.987  1.00  0.00    -0.122 C  
HETATM   35  C   UNL     1      -5.552  15.482  68.538  1.00  0.00    -0.101 C  
HETATM   36  O   UNL     1      -7.086  15.068  66.756  1.00  0.00    -0.273 OA 
HETATM   37  C   UNL     1      -7.013  15.545  68.102  1.00  0.00    -0.122 C  
HETATM   38  C   UNL     1      -7.496  17.001  68.114  1.00  0.00    -0.195 C  
HETATM   39  H   UNL     1      -6.517  15.597  66.211  1.00  0.00     0.000 HD 
ENDBRANCH  33  34
ENDBRANCH  27  33
ENDBRANCH  21  22
ENDBRANCH   1  21
BRANCH   3  40
HETATM   40  O   UNL     1      -8.900   9.678  70.379  1.00  0.00    -0.235 OA 
HETATM   41  C   UNL     1      -8.243   8.779  71.255  1.00  0.00    -0.167 C  
ENDBRANCH   3  40
TORSDOF 7
ENDMDL
MODEL      192
REMARK 921   NORMALIZED FREE ENERGY PREDICTED BY IDOCK:    7.75 KCAL/MOL
REMARK 922        TOTAL FREE ENERGY PREDICTED BY IDOCK:    9.06 KCAL/MOL
REMARK 923 INTER-LIGAND FREE ENERGY PREDICTED BY IDOCK:   -2.69 KCAL/MOL
REMARK 924 INTRA-LIGAND FREE ENERGY PREDICTED BY IDOCK:   11.74 KCAL/MOL
REMARK 927      BINDING AFFINITY PREDICTED BY RF-SCORE:    0.00 PKD
ROOT
HETATM    1  C   UNL     1     -10.161   9.467  69.202  1.00  0.00    -0.201 C  
HETATM    2  O   UNL     1      -8.956  11.787  63.040  1.00  0.00    -0.167 OA 
HETATM    3  C   UNL     1      -9.092   8.789  70.032  1.00  0.00    -0.160 C  
HETATM    4  C   UNL     1     -10.162   8.675  67.816  1.00  0.00    -0.282 C  
HETATM    5  C   UNL     1     -10.294  11.680  62.526  1.00  0.00     0.810 C  
HETATM    6  C   UNL     1      -8.839   7.553  69.603  1.00  0.00    -0.141 C  
HETATM    7  C   UNL     1      -9.576   7.177  68.345  1.00  0.00    -0.137 C  
HETATM    8  C   UNL     1      -9.707   9.512  66.476  1.00  0.00    -0.284 A  
HETATM    9  C   UNL     1     -10.728  10.032  65.642  1.00  0.00     0.283 A  
HETATM   10  O   UNL     1     -11.229  11.132  63.489  1.00  0.00    -0.253 OA 
HETATM   11  C   UNL     1     -10.387  10.747  64.491  1.00  0.00    -0.331 A  
HETATM   12  C   UNL     1     -10.682   6.175  68.693  1.00  0.00    -0.370 C  
HETATM   13  C   UNL     1      -9.090  11.096  64.205  1.00  0.00    -0.039 A  
HETATM   14  C   UNL     1      -8.040  10.601  64.934  1.00  0.00    -0.022 A  
HETATM   15  C   UNL     1     -10.388   4.926  67.872  1.00  0.00    -0.050 C  
HETATM   16  C   UNL     1      -8.356   9.630  65.900  1.00  0.00    -0.124 A  
HETATM   17  C   UNL     1      -7.456   8.331  65.686  1.00  0.00    -0.081 C  
HETATM   18  C   UNL     1      -8.085   7.415  66.664  1.00  0.00    -0.123 C  
HETATM   19  N   UNL     1      -8.570   6.400  67.532  1.00  0.00    -0.115 NA 
HETATM   20  C   UNL     1      -9.274   5.288  66.902  1.00  0.00    -0.121 C  
ENDROOT
BRANCH   1  21
HETATM   21  O   UNL     1     -10.005  10.880  69.139  1.00  0.00    -0.210 OA 
BRANCH  21  22
HETATM   22  C   UNL     1      -8.697  11.261  69.275  1.00  0.00     0.259 C  
HETATM   23  C   UNL     1      -6.766  12.159  67.962  1.00  0.00    -0.073 C  
HETATM   24  C   UNL     1      -8.291  12.206  68.133  1.00  0.00    -0.170 C  
HETATM   25  O   UNL     1      -7.936  10.861  70.157  1.00  0.00     0.325 OA 
HETATM   26  H   UNL     1      -8.664  12.379  66.207  1.00  0.00     0.000 HD 
HETATM   27  C   UNL     1      -8.778  13.635  68.475  1.00  0.00    -0.102 C  
HETATM   28  O   UNL     1      -8.915  11.795  66.913  1.00  0.00    -0.182 OA 
BRANCH  23  29
HETATM   29  C   UNL     1      -6.263  10.762  67.627  1.00  0.00    -0.052 C  
HETATM   30  O   UNL     1      -6.758   9.701  67.990  1.00  0.00    -0.061 OA 
BRANCH  29  31
HETATM   31  O   UNL     1      -5.160  10.887  66.825  1.00  0.00    -0.045 OA 
HETATM   32  C   UNL     1      -5.480  11.209  65.474  1.00  0.00     0.069 C  
ENDBRANCH  29  31
ENDBRANCH  23  29
BRANCH  27  33
HETATM   33  C   UNL     1      -8.440  14.748  67.459  1.00  0.00    -0.204 C  
BRANCH  33  34
HETATM   34  C   UNL     1      -9.661  15.485  66.886  1.00  0.00    -0.243 C  
HETATM   35  C   UNL     1     -10.364  16.579  69.084  1.00  0.00    -0.316 C  
HETATM   36  O   UNL     1      -8.937  17.699  67.532  1.00  0.00    -0.233 OA 
HETATM   37  C   UNL     1     -10.040  16.793  67.608  1.00  0.00    -0.275 C  
HETATM   38  C   UNL     1     -11.236  17.443  66.902  1.00  0.00     0.534 C  
HETATM   39  H   UNL     1      -9.169  18.505  67.977  1.00  0.00     0.000 HD 
ENDBRANCH  33  34
ENDBRANCH  27  33
ENDBRANCH  21  22
ENDBRANCH   1  21
BRANCH   3  40
HETATM   40  O   UNL     1      -8.385   9.295  71.090  1.00  0.00    -0.291 OA 
HETATM   41  C   UNL     1      -8.827   9.073  72.417  1.00  0.00     0.491 C  
ENDBRANCH   3  40
TORSDOF 7
ENDMDL
MODEL      193
REMARK 921   NORMALIZED FREE ENERGY PREDICTED BY IDOCK:    7.97 KCAL/MOL
REMARK 922        TOTAL FREE ENERGY PREDICTED BY IDOCK:    9.37 KCAL/MOL
REMARK 923 INTER-LIGAND FREE ENERGY PREDICTED BY IDOCK:    8.61 KCAL/MOL
REMARK 924 INTRA-LIGAND FREE ENERGY PREDICTED BY IDOCK:    0.76 KCAL/MOL
REMARK 927      BINDING AFFINITY PREDICTED BY RF-SCORE:    0.00 PKD
ROOT
HETATM    1  C   UNL     1      -9.584  16.540  68.623  1.00  0.00    -0.241 C  
HETATM    2  O   UNL     1      -6.489  20.019  63.814  1.00  0.00    -0.206 OA 
HETATM    3  C   UNL     1     -11.071  16.666  68.879  1.00  0.00    -0.247 C  
HETATM    4  C   UNL     1      -9.037  18.039  68.666  1.00  0.00    -0.276 C  
HETATM    5  C   UNL     1      -5.183  20.058  64.412  1.00  0.00    -0.165 C  
HETATM    6  C   UNL     1     -11.375  17.809  69.493  1.00  0.00     1.973 C  
HETATM    7  C   UNL     1     -10.205  18.739  69.674  1.00  0.00     0.555 C  
HETATM    8  C   UNL     1      -8.424  18.652  67.269  1.00  0.00    -0.275 A  
HETATM    9  C   UNL     1      -7.017  18.640  67.102  1.00  0.00    -0.211 A  
HETATM   10  O   UNL     1      -5.130  19.402  65.703  1.00  0.00    -0.151 OA 
HETATM   11  C   UNL     1      -6.452  19.154  65.932  1.00  0.00    -0.225 A  
HETATM   12  C   UNL     1      -9.804  18.758  71.152  1.00  0.00     3.569 C  
HETATM   13  C   UNL     1      -7.218  19.543  64.861  1.00  0.00     0.578 A  
HETATM   14  C   UNL     1      -8.583  19.625  64.951  1.00  0.00     2.279 A  
HETATM   15  C   UNL     1      -9.928  20.210  71.600  1.00  0.00     2.753 C  
HETATM   16  C   UNL     1      -9.136  19.411  66.226  1.00  0.00    -0.380 A  
HETATM   17  C   UNL     1     -10.085  20.630  66.623  1.00  0.00    -0.163 C  
HETATM   18  C   UNL     1     -10.383  20.278  68.030  1.00  0.00    -0.242 C  
HETATM   19  N   UNL     1     -10.762  20.112  69.389  1.00  0.00     0.397 NA 
HETATM   20  C   UNL     1     -10.167  21.037  70.347  1.00  0.00     2.068 C  
ENDROOT
BRANCH   1  21
HETATM   21  O   UNL     1      -9.282  15.774  67.462  1.00  0.00    -0.201 OA 
BRANCH  21  22
HETATM   22  C   UNL     1      -7.997  15.302  67.476  1.00  0.00    -0.176 C  
HETATM   23  C   UNL     1      -6.549  13.576  68.563  1.00  0.00    -0.089 C  
HETATM   24  C   UNL     1      -7.957  13.867  68.024  1.00  0.00    -0.154 C  
HETATM   25  O   UNL     1      -7.005  15.954  67.146  1.00  0.00    -0.198 OA 
HETATM   26  H   UNL     1      -8.882  12.836  69.423  1.00  0.00     0.000 HD 
HETATM   27  C   UNL     1      -8.340  12.890  66.886  1.00  0.00    -0.047 C  
HETATM   28  O   UNL     1      -8.907  13.722  69.084  1.00  0.00     0.194 OA 
BRANCH  23  29
HETATM   29  C   UNL     1      -6.149  14.526  69.683  1.00  0.00    -0.118 C  
HETATM   30  O   UNL     1      -5.734  15.673  69.554  1.00  0.00    -0.110 OA 
BRANCH  29  31
HETATM   31  O   UNL     1      -6.349  13.886  70.877  1.00  0.00    -0.073 OA 
HETATM   32  C   UNL     1      -5.364  12.893  71.154  1.00  0.00    -0.176 C  
ENDBRANCH  29  31
ENDBRANCH  23  29
BRANCH  27  33
HETATM   33  C   UNL     1      -8.330  11.385  67.228  1.00  0.00    -0.149 C  
BRANCH  33  34
HETATM   34  C   UNL     1      -9.343  10.965  68.306  1.00  0.00    -0.168 C  
HETATM   35  C   UNL     1      -8.354   8.645  68.708  1.00  0.00    -0.121 C  
HETATM   36  O   UNL     1      -7.704  10.526  70.027  1.00  0.00    -0.341 OA 
HETATM   37  C   UNL     1      -8.820   9.952  69.343  1.00  0.00    -0.187 C  
HETATM   38  C   UNL     1      -9.914   9.665  70.379  1.00  0.00    -0.330 C  
HETATM   39  H   UNL     1      -7.381   9.901  70.666  1.00  0.00     0.000 HD 
ENDBRANCH  33  34
ENDBRANCH  27  33
ENDBRANCH  21  22
ENDBRANCH   1  21
BRANCH   3  40
HETATM   40  O   UNL     1     -12.071  15.794  68.539  1.00  0.00    -0.233 OA 
HETATM   41  C   UNL     1     -12.531  14.833  69.473  1.00  0.00    -0.100 C  
ENDBRANCH   3  40
TORSDOF 7
ENDMDL
MODEL      194
REMARK 921   NORMALIZED FREE ENERGY PREDICTED BY IDOCK:    8.35 KCAL/MOL
REMARK 922        TOTAL FREE ENERGY PREDICTED BY IDOCK:    9.90 KCAL/MOL
REMARK 923 INTER-LIGAND FREE ENERGY PREDICTED BY IDOCK:    1.25 KCAL/MOL
REMARK 924 INTRA-LIGAND FREE ENERGY PREDICTED BY IDOCK:    8.64 KCAL/MOL
REMARK 927      BINDING AFFINITY PREDICTED BY RF-SCORE:    0.00 PKD
ROOT
HETATM    1  C   UNL     1     -10.705  14.277  69.455  1.00  0.00    -0.065 C  
HETATM    2  O   UNL     1     -12.530  12.994  63.145  1.00  0.00    -0.660 OA 
HETATM    3  C   UNL     1     -11.246  15.462  70.226  1.00  0.00    -0.309 C  
HETATM    4  C   UNL     1     -10.133  14.900  68.102  1.00  0.00    -0.222 C  
HETATM    5  C   UNL     1     -11.341  12.298  62.735  1.00  0.00     0.732 C  
HETATM    6  C   UNL     1     -10.701  16.609  69.823  1.00  0.00    -0.254 C  
HETATM    7  C   UNL     1      -9.783  16.468  68.637  1.00  0.00    -0.247 C  
HETATM    8  C   UNL     1     -10.879  14.463  66.704  1.00  0.00    -0.304 A  
HETATM    9  C   UNL     1     -10.286  13.434  65.931  1.00  0.00    -0.302 A  
HETATM   10  O   UNL     1     -10.343  12.216  63.783  1.00  0.00    -0.369 OA 
HETATM   11  C   UNL     1     -10.884  13.033  64.733  1.00  0.00    -0.337 A  
HETATM   12  C   UNL     1      -8.334  16.647  69.101  1.00  0.00    -0.115 C  
HETATM   13  C   UNL     1     -12.114  13.498  64.339  1.00  0.00    -0.420 A  
HETATM   14  C   UNL     1     -12.738  14.520  65.005  1.00  0.00    -0.153 A  
HETATM   15  C   UNL     1      -7.782  17.823  68.304  1.00  0.00    -0.266 C  
HETATM   16  C   UNL     1     -11.996  15.143  66.025  1.00  0.00     0.188 A  
HETATM   17  C   UNL     1     -11.956  16.719  65.789  1.00  0.00     2.336 C  
HETATM   18  C   UNL     1     -10.994  17.114  66.843  1.00  0.00     0.128 C  
HETATM   19  N   UNL     1     -10.083  17.672  67.779  1.00  0.00    -0.321 NA 
HETATM   20  C   UNL     1      -8.817  18.159  67.242  1.00  0.00    -0.251 C  
ENDROOT
BRANCH   1  21
HETATM   21  O   UNL     1     -11.646  13.216  69.333  1.00  0.00    -0.280 OA 
BRANCH  21  22
HETATM   22  C   UNL     1     -11.074  11.992  69.552  1.00  0.00    -0.073 C  
HETATM   23  C   UNL     1      -9.284  10.475  68.684  1.00  0.00    -0.172 C  
HETATM   24  C   UNL     1      -9.664  11.939  68.944  1.00  0.00     0.058 C  
HETATM   25  O   UNL     1     -11.631  11.046  70.112  1.00  0.00    -0.296 OA 
HETATM   26  H   UNL     1      -8.767  12.627  67.331  1.00  0.00     0.000 HD 
HETATM   27  C   UNL     1      -8.675  12.615  69.924  1.00  0.00     2.956 C  
HETATM   28  O   UNL     1      -9.639  12.659  67.707  1.00  0.00    -0.185 OA 
BRANCH  23  29
HETATM   29  C   UNL     1     -10.245   9.788  67.723  1.00  0.00    -0.208 C  
HETATM   30  O   UNL     1     -10.737  10.273  66.711  1.00  0.00    -0.217 OA 
BRANCH  29  31
HETATM   31  O   UNL     1     -10.458   8.512  68.174  1.00  0.00    -0.217 OA 
HETATM   32  C   UNL     1     -11.596   7.890  67.582  1.00  0.00     1.716 C  
ENDBRANCH  29  31
ENDBRANCH  23  29
BRANCH  27  33
HETATM   33  C   UNL     1      -7.189  12.640  69.507  1.00  0.00     0.376 C  
BRANCH  33  34
HETATM   34  C   UNL     1      -6.280  11.697  70.313  1.00  0.00    -0.068 C  
HETATM   35  C   UNL     1      -7.641   9.581  69.873  1.00  0.00    -0.123 C  
HETATM   36  O   UNL     1      -5.801  10.194  68.481  1.00  0.00    -0.042 OA 
HETATM   37  C   UNL     1      -6.262  10.232  69.834  1.00  0.00    -0.070 C  
HETATM   38  C   UNL     1      -5.280   9.423  70.691  1.00  0.00    -0.032 C  
HETATM   39  H   UNL     1      -5.789   9.291  68.186  1.00  0.00     0.000 HD 
ENDBRANCH  33  34
ENDBRANCH  27  33
ENDBRANCH  21  22
ENDBRANCH   1  21
BRANCH   3  40
HETATM   40  O   UNL     1     -12.199  15.476  71.211  1.00  0.00    -0.323 OA 
HETATM   41  C   UNL     1     -12.640  14.264  71.796  1.00  0.00    -0.337 C  
ENDBRANCH   3  40
TORSDOF 7
ENDMDL
MODEL      195
REMARK 921   NORMALIZED FREE ENERGY PREDICTED BY IDOCK:    8.35 KCAL/MOL
REMARK 922        TOTAL FREE ENERGY PREDICTED BY IDOCK:    9.91 KCAL/MOL
REMARK 923 INTER-LIGAND FREE ENERGY PREDICTED BY IDOCK:   -1.17 KCAL/MOL
REMARK 924 INTRA-LIGAND FREE ENERGY PREDICTED BY IDOCK:   11.08 KCAL/MOL
REMARK 927      BINDING AFFINITY PREDICTED BY RF-SCORE:    0.00 PKD
ROOT
HETATM    1  C   UNL     1      -8.302  11.802  68.826  1.00  0.00    -0.009 C  
HETATM    2  O   UNL     1     -10.580   6.327  71.930  1.00  0.00    -0.209 OA 
HETATM    3  C   UNL     1      -8.725  12.166  67.419  1.00  0.00    -0.177 C  
HETATM    4  C   UNL     1      -7.779  10.298  68.715  1.00  0.00    -0.096 C  
HETATM    5  C   UNL     1      -9.461   6.120  72.807  1.00  0.00    -0.151 C  
HETATM    6  C   UNL     1      -8.140  11.391  66.507  1.00  0.00    -0.141 C  
HETATM    7  C   UNL     1      -7.307  10.280  67.088  1.00  0.00    -0.091 C  
HETATM    8  C   UNL     1      -8.633   9.148  69.522  1.00  0.00    -0.138 A  
HETATM    9  C   UNL     1      -8.148   8.729  70.786  1.00  0.00    -0.156 A  
HETATM   10  O   UNL     1      -8.407   7.098  72.622  1.00  0.00    -0.107 OA 
HETATM   11  C   UNL     1      -8.841   7.751  71.506  1.00  0.00    -0.129 A  
HETATM   12  C   UNL     1      -5.824  10.603  66.879  1.00  0.00    -0.062 C  
HETATM   13  C   UNL     1     -10.064   7.276  71.102  1.00  0.00    -0.186 A  
HETATM   14  C   UNL     1     -10.586   7.598  69.876  1.00  0.00    -0.237 A  
HETATM   15  C   UNL     1      -5.255   9.447  66.066  1.00  0.00    -0.036 C  
HETATM   16  C   UNL     1      -9.749   8.330  69.016  1.00  0.00    -0.167 A  
HETATM   17  C   UNL     1      -9.632   7.593  67.606  1.00  0.00    -0.175 C  
HETATM   18  C   UNL     1      -8.586   8.422  66.966  1.00  0.00    -0.122 C  
HETATM   19  N   UNL     1      -7.589   9.089  66.206  1.00  0.00    -0.091 NA 
HETATM   20  C   UNL     1      -6.331   8.374  66.013  1.00  0.00    -0.053 C  
ENDROOT
BRANCH   1  21
HETATM   21  O   UNL     1      -9.308  12.068  69.796  1.00  0.00     1.419 OA 
BRANCH  21  22
HETATM   22  C   UNL     1     -10.299  11.124  69.782  1.00  0.00     0.267 C  
HETATM   23  C   UNL     1     -12.740  10.846  69.311  1.00  0.00     0.472 C  
HETATM   24  C   UNL     1     -11.460  11.576  68.882  1.00  0.00    -0.289 C  
HETATM   25  O   UNL     1     -10.289  10.083  70.440  1.00  0.00    -0.282 OA 
HETATM   26  H   UNL     1     -12.374  13.268  68.455  1.00  0.00     0.000 HD 
HETATM   27  C   UNL     1     -11.097  11.265  67.410  1.00  0.00    -0.358 C  
HETATM   28  O   UNL     1     -11.657  12.988  69.011  1.00  0.00    -0.278 OA 
BRANCH  23  29
HETATM   29  C   UNL     1     -13.117  11.135  70.757  1.00  0.00     0.002 C  
HETATM   30  O   UNL     1     -13.398  10.309  71.617  1.00  0.00    -0.384 OA 
BRANCH  29  31
HETATM   31  O   UNL     1     -13.072  12.491  70.946  1.00  0.00    -0.059 OA 
HETATM   32  C   UNL     1     -12.607  12.862  72.242  1.00  0.00     0.279 C  
ENDBRANCH  29  31
ENDBRANCH  23  29
BRANCH  27  33
HETATM   33  C   UNL     1     -12.153  11.621  66.342  1.00  0.00     0.683 C  
BRANCH  33  34
HETATM   34  C   UNL     1     -11.696  12.663  65.309  1.00  0.00    -0.417 C  
HETATM   35  C   UNL     1     -11.385  11.011  63.387  1.00  0.00     0.449 C  
HETATM   36  O   UNL     1     -13.436  12.193  63.698  1.00  0.00    -0.474 OA 
HETATM   37  C   UNL     1     -12.019  12.322  63.841  1.00  0.00    -0.491 C  
HETATM   38  C   UNL     1     -11.555  13.467  62.932  1.00  0.00     1.249 C  
HETATM   39  H   UNL     1     -13.636  11.982  62.793  1.00  0.00     0.000 HD 
ENDBRANCH  33  34
ENDBRANCH  27  33
ENDBRANCH  21  22
ENDBRANCH   1  21
BRANCH   3  40
HETATM   40  O   UNL     1      -9.613  13.130  67.018  1.00  0.00    -0.226 OA 
HETATM   41  C   UNL     1      -9.145  14.372  66.525  1.00  0.00    -0.205 C  
ENDBRANCH   3  40
TORSDOF 7
ENDMDL
MODEL      196
REMARK 921   NORMALIZED FREE ENERGY PREDICTED BY IDOCK:    8.37 KCAL/MOL
REMARK 922        TOTAL FREE ENERGY PREDICTED BY IDOCK:    9.93 KCAL/MOL
REMARK 923 INTER-LIGAND FREE ENERGY PREDICTED BY IDOCK:    8.46 KCAL/MOL
REMARK 924 INTRA-LIGAND FREE ENERGY PREDICTED BY IDOCK:    1.47 KCAL/MOL
REMARK 927      BINDING AFFINITY PREDICTED BY RF-SCORE:    0.00 PKD
ROOT
HETATM    1  C   UNL     1      -9.688  16.069  68.110  1.00  0.00    -0.217 C  
HETATM    2  O   UNL     1      -6.398  19.871  63.691  1.00  0.00    -0.253 OA 
HETATM    3  C   UNL     1     -11.193  16.127  68.261  1.00  0.00    -0.343 C  
HETATM    4  C   UNL     1      -9.207  17.585  68.255  1.00  0.00    -0.277 C  
HETATM    5  C   UNL     1      -5.141  19.934  64.385  1.00  0.00    -0.158 C  
HETATM    6  C   UNL     1     -11.587  17.230  68.898  1.00  0.00     1.082 C  
HETATM    7  C   UNL     1     -10.472  18.194  69.202  1.00  0.00     0.131 C  
HETATM    8  C   UNL     1      -8.521  18.281  66.934  1.00  0.00    -0.267 A  
HETATM    9  C   UNL     1      -7.106  18.330  66.872  1.00  0.00    -0.218 A  
HETATM   10  O   UNL     1      -5.155  19.223  65.648  1.00  0.00    -0.147 OA 
HETATM   11  C   UNL     1      -6.479  18.915  65.768  1.00  0.00    -0.243 A  
HETATM   12  C   UNL     1     -10.180  18.164  70.706  1.00  0.00     2.511 C  
HETATM   13  C   UNL     1      -7.181  19.323  64.660  1.00  0.00     1.351 A  
HETATM   14  C   UNL     1      -8.551  19.349  64.653  1.00  0.00     3.913 A  
HETATM   15  C   UNL     1     -10.395  19.588  71.203  1.00  0.00     2.361 C  
HETATM   16  C   UNL     1      -9.186  19.058  65.874  1.00  0.00     0.105 A  
HETATM   17  C   UNL     1     -10.210  20.222  66.250  1.00  0.00    -0.447 C  
HETATM   18  C   UNL     1     -10.595  19.797  67.615  1.00  0.00    -0.391 C  
HETATM   19  N   UNL     1     -11.063  19.557  68.934  1.00  0.00     1.205 NA 
HETATM   20  C   UNL     1     -10.578  20.461  69.971  1.00  0.00     0.988 C  
ENDROOT
BRANCH   1  21
HETATM   21  O   UNL     1      -9.272  15.367  66.945  1.00  0.00    -0.208 OA 
BRANCH  21  22
HETATM   22  C   UNL     1      -7.951  15.014  67.000  1.00  0.00    -0.162 C  
HETATM   23  C   UNL     1      -6.387  13.424  68.134  1.00  0.00    -0.114 C  
HETATM   24  C   UNL     1      -7.797  13.588  67.550  1.00  0.00    -0.178 C  
HETATM   25  O   UNL     1      -7.012  15.754  66.701  1.00  0.00    -0.177 OA 
HETATM   26  H   UNL     1      -8.669  12.473  68.920  1.00  0.00     0.000 HD 
HETATM   27  C   UNL     1      -8.054  12.582  66.401  1.00  0.00     0.423 C  
HETATM   28  O   UNL     1      -8.764  13.354  68.579  1.00  0.00    -0.157 OA 
BRANCH  23  29
HETATM   29  C   UNL     1      -6.111  14.405  69.265  1.00  0.00    -0.105 C  
HETATM   30  O   UNL     1      -6.521  14.324  70.418  1.00  0.00    -0.155 OA 
BRANCH  29  31
HETATM   31  O   UNL     1      -5.300  15.396  68.780  1.00  0.00    -0.091 OA 
HETATM   32  C   UNL     1      -5.530  16.661  69.397  1.00  0.00    -0.145 C  
ENDBRANCH  29  31
ENDBRANCH  23  29
BRANCH  27  33
HETATM   33  C   UNL     1      -7.918  11.083  66.744  1.00  0.00    -0.152 C  
BRANCH  33  34
HETATM   34  C   UNL     1      -6.555  10.465  66.394  1.00  0.00    -0.099 C  
HETATM   35  C   UNL     1      -7.492   8.315  65.384  1.00  0.00    -0.085 C  
HETATM   36  O   UNL     1      -6.998  10.218  64.030  1.00  0.00    -0.214 OA 
HETATM   37  C   UNL     1      -6.557   9.505  65.188  1.00  0.00    -0.083 C  
HETATM   38  C   UNL     1      -5.131   9.007  64.924  1.00  0.00    -0.037 C  
HETATM   39  H   UNL     1      -7.000   9.626  63.287  1.00  0.00     0.000 HD 
ENDBRANCH  33  34
ENDBRANCH  27  33
ENDBRANCH  21  22
ENDBRANCH   1  21
BRANCH   3  40
HETATM   40  O   UNL     1     -12.130  15.234  67.812  1.00  0.00    -0.103 OA 
HETATM   41  C   UNL     1     -11.838  13.849  67.776  1.00  0.00    -0.380 C  
ENDBRANCH   3  40
TORSDOF 7
ENDMDL
MODEL      197
REMARK 921   NORMALIZED FREE ENERGY PREDICTED BY IDOCK:    9.23 KCAL/MOL
REMARK 922        TOTAL FREE ENERGY PREDICTED BY IDOCK:   11.14 KCAL/MOL
REMARK 923 INTER-LIGAND FREE ENERGY PREDICTED BY IDOCK:    0.99 KCAL/MOL
REMARK 924 INTRA-LIGAND FREE ENERGY PREDICTED BY IDOCK:   10.15 KCAL/MOL
REMARK 927      BINDING AFFINITY PREDICTED BY RF-SCORE:    0.00 PKD
ROOT
HETATM    1  C   UNL     1     -10.659  10.991  68.532  1.00  0.00    -0.190 C  
HETATM    2  O   UNL     1      -5.420  15.073  69.361  1.00  0.00    -0.091 OA 
HETATM    3  C   UNL     1     -10.710   9.959  67.425  1.00  0.00    -0.260 C  
HETATM    4  C   UNL     1     -10.334  12.366  67.789  1.00  0.00    -0.222 C  
HETATM    5  C   UNL     1      -6.117  16.160  69.991  1.00  0.00    -0.142 C  
HETATM    6  C   UNL     1     -10.940  10.515  66.236  1.00  0.00     0.031 C  
HETATM    7  C   UNL     1     -10.973  12.019  66.258  1.00  0.00    -0.299 C  
HETATM    8  C   UNL     1      -8.894  13.080  68.134  1.00  0.00    -0.194 A  
HETATM    9  C   UNL     1      -8.889  14.133  69.082  1.00  0.00     0.231 A  
HETATM   10  O   UNL     1      -7.540  15.917  70.129  1.00  0.00     0.312 OA 
HETATM   11  C   UNL     1      -7.687  14.771  69.404  1.00  0.00    -0.104 A  
HETATM   12  C   UNL     1     -12.419  12.492  66.079  1.00  0.00     0.151 C  
HETATM   13  C   UNL     1      -6.475  14.321  68.943  1.00  0.00    -0.092 A  
HETATM   14  C   UNL     1      -6.393  13.337  67.992  1.00  0.00    -0.128 A  
HETATM   15  C   UNL     1     -12.422  13.364  64.829  1.00  0.00    -0.416 C  
HETATM   16  C   UNL     1      -7.610  12.909  67.433  1.00  0.00    -0.150 A  
HETATM   17  C   UNL     1      -7.542  12.997  65.842  1.00  0.00     3.049 C  
HETATM   18  C   UNL     1      -8.951  12.690  65.506  1.00  0.00     0.650 C  
HETATM   19  N   UNL     1     -10.253  12.435  64.999  1.00  0.00    -0.286 NA 
HETATM   20  C   UNL     1     -10.968  13.577  64.438  1.00  0.00    -0.384 C  
ENDROOT
BRANCH   1  21
HETATM   21  O   UNL     1      -9.802  10.616  69.604  1.00  0.00    -0.158 OA 
BRANCH  21  22
HETATM   22  C   UNL     1      -8.480  10.685  69.255  1.00  0.00    -0.091 C  
HETATM   23  C   UNL     1      -6.307   9.478  69.541  1.00  0.00    -0.040 C  
HETATM   24  C   UNL     1      -7.822   9.301  69.365  1.00  0.00    -0.083 C  
HETATM   25  O   UNL     1      -7.887  11.720  68.948  1.00  0.00    -0.105 OA 
HETATM   26  H   UNL     1      -7.942   7.742  70.563  1.00  0.00     0.000 HD 
HETATM   27  C   UNL     1      -8.152   8.491  68.088  1.00  0.00    -0.119 C  
HETATM   28  O   UNL     1      -8.349   8.598  70.495  1.00  0.00    -0.117 OA 
BRANCH  23  29
HETATM   29  C   UNL     1      -5.958  10.274  70.791  1.00  0.00    -0.086 C  
HETATM   30  O   UNL     1      -6.128  11.475  70.963  1.00  0.00    -0.342 OA 
BRANCH  29  31
HETATM   31  O   UNL     1      -5.430   9.409  71.712  1.00  0.00    -0.066 OA 
HETATM   32  C   UNL     1      -6.349   9.059  72.745  1.00  0.00     0.133 C  
ENDBRANCH  29  31
ENDBRANCH  23  29
BRANCH  27  33
HETATM   33  C   UNL     1      -7.554   7.071  67.989  1.00  0.00    -0.111 C  
BRANCH  33  34
HETATM   34  C   UNL     1      -8.589   5.935  68.023  1.00  0.00    -0.113 C  
HETATM   35  C   UNL     1      -7.534   4.562  66.146  1.00  0.00    -0.085 C  
HETATM   36  O   UNL     1      -6.997   4.164  68.437  1.00  0.00    -0.050 OA 
HETATM   37  C   UNL     1      -8.068   4.555  67.575  1.00  0.00    -0.100 C  
HETATM   38  C   UNL     1      -9.187   3.515  67.708  1.00  0.00    -0.229 C  
HETATM   39  H   UNL     1      -6.675   3.314  68.162  1.00  0.00     0.000 HD 
ENDBRANCH  33  34
ENDBRANCH  27  33
ENDBRANCH  21  22
ENDBRANCH   1  21
BRANCH   3  40
HETATM   40  O   UNL     1     -10.527   8.604  67.514  1.00  0.00    -0.255 OA 
HETATM   41  C   UNL     1     -11.634   7.743  67.710  1.00  0.00     1.539 C  
ENDBRANCH   3  40
TORSDOF 7
ENDMDL
MODEL      198
REMARK 921   NORMALIZED FREE ENERGY PREDICTED BY IDOCK:    9.25 KCAL/MOL
REMARK 922        TOTAL FREE ENERGY PREDICTED BY IDOCK:   11.17 KCAL/MOL
REMARK 923 INTER-LIGAND FREE ENERGY PREDICTED BY IDOCK:   -2.24 KCAL/MOL
REMARK 924 INTRA-LIGAND FREE ENERGY PREDICTED BY IDOCK:   13.41 KCAL/MOL
REMARK 927      BINDING AFFINITY PREDICTED BY RF-SCORE:    0.00 PKD
ROOT
HETATM    1  C   UNL     1      -5.699  10.684  69.072  1.00  0.00    -0.040 C  
HETATM    2  O   UNL     1      -9.329  10.176  63.471  1.00  0.00    -0.268 OA 
HETATM    3  C   UNL     1      -6.315  11.071  70.399  1.00  0.00    -0.060 C  
HETATM    4  C   UNL     1      -6.152  11.836  68.064  1.00  0.00    -0.049 C  
HETATM    5  C   UNL     1      -8.279  10.461  62.531  1.00  0.00    -0.173 C  
HETATM    6  C   UNL     1      -6.604  12.370  70.454  1.00  0.00     0.701 C  
HETATM    7  C   UNL     1      -6.365  13.107  69.163  1.00  0.00    -0.104 C  
HETATM    8  C   UNL     1      -7.148  11.403  66.830  1.00  0.00    -0.142 A  
HETATM    9  C   UNL     1      -6.564  11.167  65.560  1.00  0.00     0.328 A  
HETATM   10  O   UNL     1      -7.007  10.737  63.169  1.00  0.00     0.033 OA 
HETATM   11  C   UNL     1      -7.374  10.799  64.482  1.00  0.00     0.337 A  
HETATM   12  C   UNL     1      -5.128  13.998  69.316  1.00  0.00    -0.078 C  
HETATM   13  C   UNL     1      -8.708  10.512  64.634  1.00  0.00    -0.183 A  
HETATM   14  C   UNL     1      -9.359  10.752  65.816  1.00  0.00    -0.235 A  
HETATM   15  C   UNL     1      -5.600  15.421  69.045  1.00  0.00    -0.098 C  
HETATM   16  C   UNL     1      -8.621  11.417  66.810  1.00  0.00    -0.166 A  
HETATM   17  C   UNL     1      -9.420  12.700  67.320  1.00  0.00    -0.199 C  
HETATM   18  C   UNL     1      -8.393  13.316  68.190  1.00  0.00    -0.161 C  
HETATM   19  N   UNL     1      -7.532  14.056  69.044  1.00  0.00    -0.098 NA 
HETATM   20  C   UNL     1      -7.023  15.319  68.520  1.00  0.00    -0.113 C  
ENDROOT
BRANCH   1  21
HETATM   21  O   UNL     1      -5.989   9.343  68.693  1.00  0.00    -0.043 OA 
BRANCH  21  22
HETATM   22  C   UNL     1      -6.607   9.274  67.474  1.00  0.00    -0.064 C  
HETATM   23  C   UNL     1      -8.014   7.756  66.068  1.00  0.00    -0.108 C  
HETATM   24  C   UNL     1      -7.734   8.230  67.501  1.00  0.00    -0.099 C  
HETATM   25  O   UNL     1      -6.274   9.918  66.478  1.00  0.00    -0.065 OA 
HETATM   26  H   UNL     1      -8.040   6.463  68.317  1.00  0.00     0.000 HD 
HETATM   27  C   UNL     1      -8.990   8.871  68.139  1.00  0.00    -0.137 C  
HETATM   28  O   UNL     1      -7.343   7.109  68.300  1.00  0.00    -0.094 OA 
BRANCH  23  29
HETATM   29  C   UNL     1      -6.792   7.122  65.418  1.00  0.00    -0.052 C  
HETATM   30  O   UNL     1      -5.932   7.699  64.761  1.00  0.00    -0.037 OA 
BRANCH  29  31
HETATM   31  O   UNL     1      -6.801   5.784  65.707  1.00  0.00    -0.057 OA 
HETATM   32  C   UNL     1      -5.504   5.257  65.975  1.00  0.00    -0.013 C  
ENDBRANCH  29  31
ENDBRANCH  23  29
BRANCH  27  33
HETATM   33  C   UNL     1     -10.253   7.988  68.233  1.00  0.00    -0.243 C  
BRANCH  33  34
HETATM   34  C   UNL     1     -11.460   8.663  68.904  1.00  0.00     0.788 C  
HETATM   35  C   UNL     1     -11.239   7.441  71.136  1.00  0.00    -0.279 C  
HETATM   36  O   UNL     1     -10.226   9.572  70.773  1.00  0.00    -0.275 OA 
HETATM   37  C   UNL     1     -11.375   8.791  70.437  1.00  0.00    -0.192 C  
HETATM   38  C   UNL     1     -12.616   9.525  70.962  1.00  0.00    -0.331 C  
HETATM   39  H   UNL     1     -10.173   9.652  71.718  1.00  0.00     0.000 HD 
ENDBRANCH  33  34
ENDBRANCH  27  33
ENDBRANCH  21  22
ENDBRANCH   1  21
BRANCH   3  40
HETATM   40  O   UNL     1      -6.613  10.266  71.468  1.00  0.00    -0.099 OA 
HETATM   41  C   UNL     1      -6.398   8.868  71.392  1.00  0.00    -0.073 C  
ENDBRANCH   3  40
TORSDOF 7
ENDMDL
MODEL      199
REMARK 921   NORMALIZED FREE ENERGY PREDICTED BY IDOCK:    9.64 KCAL/MOL
REMARK 922        TOTAL FREE ENERGY PREDICTED BY IDOCK:   11.72 KCAL/MOL
REMARK 923 INTER-LIGAND FREE ENERGY PREDICTED BY IDOCK:    8.43 KCAL/MOL
REMARK 924 INTRA-LIGAND FREE ENERGY PREDICTED BY IDOCK:    3.29 KCAL/MOL
REMARK 927      BINDING AFFINITY PREDICTED BY RF-SCORE:    0.00 PKD
ROOT
HETATM    1  C   UNL     1      -8.215   8.279  69.229  1.00  0.00    -0.118 C  
HETATM    2  O   UNL     1     -11.675  13.974  69.863  1.00  0.00    -0.281 OA 
HETATM    3  C   UNL     1      -7.587   7.859  67.917  1.00  0.00    -0.109 C  
HETATM    4  C   UNL     1      -9.744   8.566  68.873  1.00  0.00    -0.172 C  
HETATM    5  C   UNL     1     -12.527  13.565  70.946  1.00  0.00    -0.369 C  
HETATM    6  C   UNL     1      -8.497   7.417  67.049  1.00  0.00    -0.118 C  
HETATM    7  C   UNL     1      -9.918   7.552  67.527  1.00  0.00    -0.174 C  
HETATM    8  C   UNL     1     -10.272  10.115  69.033  1.00  0.00    -0.221 A  
HETATM    9  C   UNL     1     -10.970  10.457  70.218  1.00  0.00    -0.353 A  
HETATM   10  O   UNL     1     -12.293  12.198  71.366  1.00  0.00    -0.182 OA 
HETATM   11  C   UNL     1     -11.439  11.761  70.395  1.00  0.00     0.163 A  
HETATM   12  C   UNL     1     -10.464   6.164  67.874  1.00  0.00    -0.286 C  
HETATM   13  C   UNL     1     -11.124  12.776  69.525  1.00  0.00     0.022 A  
HETATM   14  C   UNL     1     -10.489  12.526  68.337  1.00  0.00    -0.250 A  
HETATM   15  C   UNL     1     -11.686   5.961  66.987  1.00  0.00     1.471 C  
HETATM   16  C   UNL     1     -10.294  11.173  68.008  1.00  0.00    -0.208 A  
HETATM   17  C   UNL     1     -10.879  10.873  66.554  1.00  0.00    -0.234 C  
HETATM   18  C   UNL     1     -10.734   9.400  66.516  1.00  0.00     0.058 C  
HETATM   19  N   UNL     1     -10.689   7.996  66.308  1.00  0.00     0.683 NA 
HETATM   20  C   UNL     1     -11.970   7.296  66.317  1.00  0.00     5.384 C  
ENDROOT
BRANCH   1  21
HETATM   21  O   UNL     1      -7.497   9.319  69.882  1.00  0.00    -0.068 OA 
BRANCH  21  22
HETATM   22  C   UNL     1      -6.848   8.873  71.001  1.00  0.00    -0.081 C  
HETATM   23  C   UNL     1      -6.932   8.991  73.499  1.00  0.00     0.353 C  
HETATM   24  C   UNL     1      -7.781   8.927  72.221  1.00  0.00     0.228 C  
HETATM   25  O   UNL     1      -5.666   8.527  71.039  1.00  0.00    -0.032 OA 
HETATM   26  H   UNL     1      -9.188  10.124  72.904  1.00  0.00     0.000 HD 
HETATM   27  C   UNL     1      -8.689   7.675  72.208  1.00  0.00    -0.160 C  
HETATM   28  O   UNL     1      -8.612  10.090  72.150  1.00  0.00     2.444 OA 
BRANCH  23  29
HETATM   29  C   UNL     1      -6.027  10.214  73.535  1.00  0.00     1.063 C  
HETATM   30  O   UNL     1      -5.633  10.802  74.536  1.00  0.00    -0.270 OA 
BRANCH  29  31
HETATM   31  O   UNL     1      -5.707  10.544  72.245  1.00  0.00    -0.186 OA 
HETATM   32  C   UNL     1      -6.138  11.852  71.876  1.00  0.00     2.183 C  
ENDBRANCH  29  31
ENDBRANCH  23  29
BRANCH  27  33
HETATM   33  C   UNL     1      -9.687   7.525  73.376  1.00  0.00    -0.346 C  
BRANCH  33  34
HETATM   34  C   UNL     1     -11.008   8.290  73.194  1.00  0.00     0.184 C  
HETATM   35  C   UNL     1     -11.413   7.545  70.785  1.00  0.00    -0.305 C  
HETATM   36  O   UNL     1     -12.339   6.351  72.633  1.00  0.00    -0.506 OA 
HETATM   37  C   UNL     1     -11.997   7.666  72.189  1.00  0.00    -0.302 C  
HETATM   38  C   UNL     1     -13.283   8.501  72.147  1.00  0.00    -0.384 C  
HETATM   39  H   UNL     1     -12.949   5.967  72.014  1.00  0.00     0.000 HD 
ENDBRANCH  33  34
ENDBRANCH  27  33
ENDBRANCH  21  22
ENDBRANCH   1  21
BRANCH   3  40
HETATM   40  O   UNL     1      -6.269   7.912  67.547  1.00  0.00    -0.048 OA 
HETATM   41  C   UNL     1      -5.900   8.457  66.293  1.00  0.00    -0.044 C  
ENDBRANCH   3  40
TORSDOF 7
ENDMDL
MODEL      200
REMARK 921   NORMALIZED FREE ENERGY PREDICTED BY IDOCK:   10.44 KCAL/MOL
REMARK 922        TOTAL FREE ENERGY PREDICTED BY IDOCK:   12.84 KCAL/MOL
REMARK 923 INTER-LIGAND FREE ENERGY PREDICTED BY IDOCK:   -1.43 KCAL/MOL
REMARK 924 INTRA-LIGAND FREE ENERGY PREDICTED BY IDOCK:   14.28 KCAL/MOL
REMARK 927      BINDING AFFINITY PREDICTED BY RF-SCORE:    0.00 PKD
ROOT
HETATM    1  C   UNL     1      -7.476  14.576  68.165  1.00  0.00    -0.126 C  
HETATM    2  O   UNL     1     -10.496   9.291  65.382  1.00  0.00     0.505 OA 
HETATM    3  C   UNL     1      -8.083  15.333  69.326  1.00  0.00    -0.236 C  
HETATM    4  C   UNL     1      -8.623  14.548  67.055  1.00  0.00    -0.241 C  
HETATM    5  C   UNL     1      -9.925   9.408  64.069  1.00  0.00     1.534 C  
HETATM    6  C   UNL     1      -9.101  16.102  68.941  1.00  0.00    -0.246 C  
HETATM    7  C   UNL     1      -9.474  15.946  67.491  1.00  0.00    -0.219 C  
HETATM    8  C   UNL     1      -9.245  13.079  66.660  1.00  0.00    -0.222 A  
HETATM    9  C   UNL     1      -8.751  12.443  65.494  1.00  0.00     0.808 A  
HETATM   10  O   UNL     1      -9.040  10.549  63.936  1.00  0.00    -0.198 OA 
HETATM   11  C   UNL     1      -9.254  11.194  65.119  1.00  0.00    -0.189 A  
HETATM   12  C   UNL     1      -9.034  17.195  66.723  1.00  0.00    -0.263 C  
HETATM   13  C   UNL     1     -10.114  10.482  65.918  1.00  0.00    -0.260 A  
HETATM   14  C   UNL     1     -10.672  11.038  67.039  1.00  0.00    -0.319 A  
HETATM   15  C   UNL     1     -10.300  17.772  66.100  1.00  0.00    -0.340 C  
HETATM   16  C   UNL     1     -10.414  12.404  67.251  1.00  0.00    -0.237 A  
HETATM   17  C   UNL     1     -11.784  13.196  67.452  1.00  0.00    -0.419 C  
HETATM   18  C   UNL     1     -11.280  14.588  67.464  1.00  0.00    -0.321 C  
HETATM   19  N   UNL     1     -10.983  15.976  67.481  1.00  0.00    -0.300 NA 
HETATM   20  C   UNL     1     -11.401  16.745  66.312  1.00  0.00     0.734 C  
ENDROOT
BRANCH   1  21
HETATM   21  O   UNL     1      -6.915  13.326  68.547  1.00  0.00    -0.088 OA 
BRANCH  21  22
HETATM   22  C   UNL     1      -7.330  12.305  67.735  1.00  0.00    -0.118 C  
HETATM   23  C   UNL     1      -7.399   9.807  67.599  1.00  0.00    -0.090 C  
HETATM   24  C   UNL     1      -7.507  11.011  68.546  1.00  0.00    -0.106 C  
HETATM   25  O   UNL     1      -7.488  12.394  66.517  1.00  0.00     0.210 OA 
HETATM   26  H   UNL     1      -6.596  10.117  70.046  1.00  0.00     0.000 HD 
HETATM   27  C   UNL     1      -8.883  11.053  69.253  1.00  0.00     0.090 C  
HETATM   28  O   UNL     1      -6.486  10.917  69.545  1.00  0.00    -0.069 OA 
BRANCH  23  29
HETATM   29  C   UNL     1      -6.054   9.746  66.889  1.00  0.00    -0.063 C  
HETATM   30  O   UNL     1      -5.377   8.743  66.693  1.00  0.00    -0.037 OA 
BRANCH  29  31
HETATM   31  O   UNL     1      -5.729  11.013  66.483  1.00  0.00    -0.088 OA 
HETATM   32  C   UNL     1      -5.144  11.054  65.183  1.00  0.00    -0.018 C  
ENDBRANCH  29  31
ENDBRANCH  23  29
BRANCH  27  33
HETATM   33  C   UNL     1      -9.267   9.822  70.102  1.00  0.00    -0.253 C  
BRANCH  33  34
HETATM   34  C   UNL     1      -9.702   8.592  69.289  1.00  0.00    -0.173 C  
HETATM   35  C   UNL     1     -10.397   7.179  71.299  1.00  0.00    -0.209 C  
HETATM   36  O   UNL     1     -11.970   8.535  70.122  1.00  0.00    -0.426 OA 
HETATM   37  C   UNL     1     -10.804   7.730  69.936  1.00  0.00    -0.226 C  
HETATM   38  C   UNL     1     -11.171   6.574  68.996  1.00  0.00    -0.354 C  
HETATM   39  H   UNL     1     -12.650   8.004  70.521  1.00  0.00     0.000 HD 
ENDBRANCH  33  34
ENDBRANCH  27  33
ENDBRANCH  21  22
ENDBRANCH   1  21
BRANCH   3  40
HETATM   40  O   UNL     1      -7.734  15.287  70.650  1.00  0.00     0.722 OA 
HETATM   41  C   UNL     1      -6.382  15.098  71.027  1.00  0.00     0.416 C  
ENDBRANCH   3  40
TORSDOF 7
ENDMDL
MODEL      201
REMARK 921   NORMALIZED FREE ENERGY PREDICTED BY IDOCK:   11.18 KCAL/MOL
REMARK 922        TOTAL FREE ENERGY PREDICTED BY IDOCK:   13.89 KCAL/MOL
REMARK 923 INTER-LIGAND FREE ENERGY PREDICTED BY IDOCK:   10.84 KCAL/MOL
REMARK 924 INTRA-LIGAND FREE ENERGY PREDICTED BY IDOCK:    3.05 KCAL/MOL
REMARK 927      BINDING AFFINITY PREDICTED BY RF-SCORE:    0.00 PKD
ROOT
HETATM    1  C   UNL     1      -8.124  16.565  66.827  1.00  0.00    -0.251 C  
HETATM    2  O   UNL     1      -5.135  14.809  72.553  1.00  0.00    -0.197 OA 
HETATM    3  C   UNL     1      -7.657  17.747  66.004  1.00  0.00    -0.220 C  
HETATM    4  C   UNL     1      -8.344  17.156  68.294  1.00  0.00    -0.232 C  
HETATM    5  C   UNL     1      -6.266  14.182  73.179  1.00  0.00     0.931 C  
HETATM    6  C   UNL     1      -8.007  18.908  66.556  1.00  0.00    -0.289 C  
HETATM    7  C   UNL     1      -8.664  18.773  67.904  1.00  0.00    -0.296 C  
HETATM    8  C   UNL     1      -7.363  16.589  69.484  1.00  0.00    -0.001 A  
HETATM    9  C   UNL     1      -7.866  15.567  70.327  1.00  0.00     0.767 A  
HETATM   10  O   UNL     1      -7.465  14.232  72.365  1.00  0.00     2.916 OA 
HETATM   11  C   UNL     1      -7.067  15.057  71.353  1.00  0.00     1.846 A  
HETATM   12  C   UNL     1     -10.158  19.085  67.767  1.00  0.00    -0.453 C  
HETATM   13  C   UNL     1      -5.746  15.406  71.493  1.00  0.00     0.387 A  
HETATM   14  C   UNL     1      -5.191  16.413  70.748  1.00  0.00    -0.172 A  
HETATM   15  C   UNL     1     -10.429  20.254  68.706  1.00  0.00    -0.055 C  
HETATM   16  C   UNL     1      -6.074  17.144  69.934  1.00  0.00    -0.189 A  
HETATM   17  C   UNL     1      -5.930  18.704  70.231  1.00  0.00    -0.117 C  
HETATM   18  C   UNL     1      -7.054  19.227  69.422  1.00  0.00    -0.245 C  
HETATM   19  N   UNL     1      -8.090  19.902  68.723  1.00  0.00    -0.172 NA 
HETATM   20  C   UNL     1      -9.170  20.453  69.535  1.00  0.00     0.969 C  
ENDROOT
BRANCH   1  21
HETATM   21  O   UNL     1      -7.272  15.432  66.707  1.00  0.00    -0.137 OA 
BRANCH  21  22
HETATM   22  C   UNL     1      -7.954  14.314  66.311  1.00  0.00     1.505 C  
HETATM   23  C   UNL     1      -9.251  12.378  67.221  1.00  0.00    -0.187 C  
HETATM   24  C   UNL     1      -8.941  13.870  67.402  1.00  0.00    -0.210 C  
HETATM   25  O   UNL     1      -7.767  13.714  65.251  1.00  0.00     4.948 OA 
HETATM   26  H   UNL     1      -8.974  13.804  69.370  1.00  0.00     0.000 HD 
HETATM   27  C   UNL     1     -10.222  14.732  67.293  1.00  0.00    -0.241 C  
HETATM   28  O   UNL     1      -8.364  14.078  68.696  1.00  0.00    -0.153 OA 
BRANCH  23  29
HETATM   29  C   UNL     1      -8.005  11.509  67.322  1.00  0.00    -0.153 C  
HETATM   30  O   UNL     1      -7.288  11.150  66.395  1.00  0.00    -0.143 OA 
BRANCH  29  31
HETATM   31  O   UNL     1      -7.804  11.206  68.642  1.00  0.00    -0.123 OA 
HETATM   32  C   UNL     1      -6.435  10.967  68.962  1.00  0.00    -0.056 C  
ENDBRANCH  29  31
ENDBRANCH  23  29
BRANCH  27  33
HETATM   33  C   UNL     1     -11.358  14.421  68.291  1.00  0.00    -0.311 C  
BRANCH  33  34
HETATM   34  C   UNL     1     -11.953  13.009  68.166  1.00  0.00    -0.322 C  
HETATM   35  C   UNL     1     -10.548  11.964  70.025  1.00  0.00     1.000 C  
HETATM   36  O   UNL     1     -12.718  12.861  70.454  1.00  0.00    -0.106 OA 
HETATM   37  C   UNL     1     -11.950  12.175  69.462  1.00  0.00    -0.275 C  
HETATM   38  C   UNL     1     -12.616  10.818  69.203  1.00  0.00     0.444 C  
HETATM   39  H   UNL     1     -12.717  12.347  71.254  1.00  0.00     0.000 HD 
ENDBRANCH  33  34
ENDBRANCH  27  33
ENDBRANCH  21  22
ENDBRANCH   1  21
BRANCH   3  40
HETATM   40  O   UNL     1      -6.934  17.743  64.840  1.00  0.00     0.518 OA 
HETATM   41  C   UNL     1      -5.795  18.573  64.703  1.00  0.00    -0.081 C  
ENDBRANCH   3  40
TORSDOF 7
ENDMDL
MODEL      202
REMARK 921   NORMALIZED FREE ENERGY PREDICTED BY IDOCK:   11.25 KCAL/MOL
REMARK 922        TOTAL FREE ENERGY PREDICTED BY IDOCK:   13.99 KCAL/MOL
REMARK 923 INTER-LIGAND FREE ENERGY PREDICTED BY IDOCK:    9.08 KCAL/MOL
REMARK 924 INTRA-LIGAND FREE ENERGY PREDICTED BY IDOCK:    4.90 KCAL/MOL
REMARK 927      BINDING AFFINITY PREDICTED BY RF-SCORE:    0.00 PKD
ROOT
HETATM    1  C   UNL     1     -10.923  13.208  68.406  1.00  0.00    -0.262 C  
HETATM    2  O   UNL     1     -12.533   8.055  72.363  1.00  0.00    -0.291 OA 
HETATM    3  C   UNL     1     -10.196  14.429  68.928  1.00  0.00    -0.213 C  
HETATM    4  C   UNL     1     -12.183  13.043  69.372  1.00  0.00    -0.167 C  
HETATM    5  C   UNL     1     -13.674   7.589  71.623  1.00  0.00    -0.377 C  
HETATM    6  C   UNL     1     -10.997  15.215  69.647  1.00  0.00    -0.291 C  
HETATM    7  C   UNL     1     -12.376  14.652  69.865  1.00  0.00    -0.294 C  
HETATM    8  C   UNL     1     -12.234  11.695  70.311  1.00  0.00    -0.401 A  
HETATM    9  C   UNL     1     -13.024  10.607  69.865  1.00  0.00     0.175 A  
HETATM   10  O   UNL     1     -13.961   8.399  70.455  1.00  0.00     0.931 OA 
HETATM   11  C   UNL     1     -13.099   9.442  70.634  1.00  0.00     0.204 A  
HETATM   12  C   UNL     1     -13.379  15.437  69.014  1.00  0.00     2.235 C  
HETATM   13  C   UNL     1     -12.317   9.248  71.746  1.00  0.00    -0.379 A  
HETATM   14  C   UNL     1     -11.557  10.262  72.268  1.00  0.00     1.794 A  
HETATM   15  C   UNL     1     -14.393  16.017  69.992  1.00  0.00     3.661 C  
HETATM   16  C   UNL     1     -11.721  11.529  71.682  1.00  0.00     1.624 A  
HETATM   17  C   UNL     1     -12.055  12.613  72.804  1.00  0.00     3.525 C  
HETATM   18  C   UNL     1     -12.362  13.783  71.950  1.00  0.00     0.005 C  
HETATM   19  N   UNL     1     -12.706  14.996  71.297  1.00  0.00    -0.319 NA 
HETATM   20  C   UNL     1     -14.111  15.385  71.345  1.00  0.00    -0.435 C  
ENDROOT
BRANCH   1  21
HETATM   21  O   UNL     1     -10.073  12.077  68.253  1.00  0.00    -0.192 OA 
BRANCH  21  22
HETATM   22  C   UNL     1      -8.794  12.435  67.924  1.00  0.00    -0.180 C  
HETATM   23  C   UNL     1      -6.411  11.760  68.281  1.00  0.00    -0.050 C  
HETATM   24  C   UNL     1      -7.842  11.239  68.086  1.00  0.00    -0.127 C  
HETATM   25  O   UNL     1      -8.443  13.569  67.595  1.00  0.00    -0.158 OA 
HETATM   26  H   UNL     1      -7.633   9.725  69.328  1.00  0.00     0.000 HD 
HETATM   27  C   UNL     1      -7.951  10.344  66.828  1.00  0.00    -0.117 C  
HETATM   28  O   UNL     1      -8.221  10.464  69.228  1.00  0.00    -0.144 OA 
BRANCH  23  29
HETATM   29  C   UNL     1      -6.278  12.645  69.511  1.00  0.00    -0.121 C  
HETATM   30  O   UNL     1      -5.977  13.833  69.527  1.00  0.00    -0.094 OA 
BRANCH  29  31
HETATM   31  O   UNL     1      -6.574  11.889  70.614  1.00  0.00     0.080 OA 
HETATM   32  C   UNL     1      -5.430  11.582  71.408  1.00  0.00     0.121 C  
ENDBRANCH  29  31
ENDBRANCH  23  29
BRANCH  27  33
HETATM   33  C   UNL     1      -7.046   9.094  66.781  1.00  0.00    -0.082 C  
BRANCH  33  34
HETATM   34  C   UNL     1      -6.489   8.757  65.389  1.00  0.00    -0.067 C  
HETATM   35  C   UNL     1      -8.308   7.072  64.778  1.00  0.00     0.018 C  
HETATM   36  O   UNL     1      -8.484   9.374  64.171  1.00  0.00    -0.167 OA 
HETATM   37  C   UNL     1      -7.538   8.317  64.349  1.00  0.00    -0.113 C  
HETATM   38  C   UNL     1      -6.851   8.064  63.001  1.00  0.00    -0.085 C  
HETATM   39  H   UNL     1      -9.130   9.103  63.530  1.00  0.00     0.000 HD 
ENDBRANCH  33  34
ENDBRANCH  27  33
ENDBRANCH  21  22
ENDBRANCH   1  21
BRANCH   3  40
HETATM   40  O   UNL     1      -8.878  14.769  68.771  1.00  0.00    -0.175 OA 
HETATM   41  C   UNL     1      -8.227  15.574  69.738  1.00  0.00     0.011 C  
ENDBRANCH   3  40
TORSDOF 7
ENDMDL
MODEL      203
REMARK 921   NORMALIZED FREE ENERGY PREDICTED BY IDOCK:   11.67 KCAL/MOL
REMARK 922        TOTAL FREE ENERGY PREDICTED BY IDOCK:   14.58 KCAL/MOL
REMARK 923 INTER-LIGAND FREE ENERGY PREDICTED BY IDOCK:   10.18 KCAL/MOL
REMARK 924 INTRA-LIGAND FREE ENERGY PREDICTED BY IDOCK:    4.40 KCAL/MOL
REMARK 927      BINDING AFFINITY PREDICTED BY RF-SCORE:    0.00 PKD
ROOT
HETATM    1  C   UNL     1      -9.151   8.981  69.654  1.00  0.00    -0.154 C  
HETATM    2  O   UNL     1      -5.995   7.054  64.075  1.00  0.00    -0.035 OA 
HETATM    3  C   UNL     1      -8.834   8.383  71.008  1.00  0.00    -0.161 C  
HETATM    4  C   UNL     1      -9.452   7.725  68.716  1.00  0.00    -0.149 C  
HETATM    5  C   UNL     1      -7.041   7.366  63.141  1.00  0.00    -0.070 C  
HETATM    6  C   UNL     1      -9.330   7.153  71.137  1.00  0.00    -0.157 C  
HETATM    7  C   UNL     1      -9.972   6.615  69.886  1.00  0.00    -0.171 C  
HETATM    8  C   UNL     1      -8.413   7.454  67.472  1.00  0.00    -0.116 A  
HETATM    9  C   UNL     1      -8.788   7.912  66.184  1.00  0.00    -0.197 A  
HETATM   10  O   UNL     1      -8.232   7.891  63.778  1.00  0.00    -0.114 OA 
HETATM   11  C   UNL     1      -7.937   7.701  65.097  1.00  0.00    -0.130 A  
HETATM   12  C   UNL     1     -11.492   6.591  70.074  1.00  0.00    -0.476 C  
HETATM   13  C   UNL     1      -6.671   7.189  65.248  1.00  0.00    -0.047 A  
HETATM   14  C   UNL     1      -6.244   6.685  66.449  1.00  0.00    -0.041 A  
HETATM   15  C   UNL     1     -11.914   5.139  69.887  1.00  0.00     4.808 C  
HETATM   16  C   UNL     1      -7.208   6.606  67.469  1.00  0.00    -0.090 A  
HETATM   17  C   UNL     1      -7.263   5.125  68.058  1.00  0.00    -0.067 C  
HETATM   18  C   UNL     1      -8.440   5.245  68.949  1.00  0.00    -0.091 C  
HETATM   19  N   UNL     1      -9.549   5.168  69.832  1.00  0.00    -0.159 NA 
HETATM   20  C   UNL     1     -10.695   4.390  69.372  1.00  0.00     1.478 C  
ENDROOT
BRANCH   1  21
HETATM   21  O   UNL     1      -8.162   9.900  69.205  1.00  0.00    -0.114 OA 
BRANCH  21  22
HETATM   22  C   UNL     1      -8.174  11.063  69.927  1.00  0.00     0.847 C  
HETATM   23  C   UNL     1      -7.483  13.464  69.797  1.00  0.00     0.821 C  
HETATM   24  C   UNL     1      -8.035  12.277  68.995  1.00  0.00     0.242 C  
HETATM   25  O   UNL     1      -8.234  11.127  71.156  1.00  0.00     4.104 OA 
HETATM   26  H   UNL     1      -7.047  12.721  67.350  1.00  0.00     0.000 HD 
HETATM   27  C   UNL     1      -9.422  12.599  68.389  1.00  0.00    -0.163 C  
HETATM   28  O   UNL     1      -7.134  11.971  67.926  1.00  0.00    -0.082 OA 
BRANCH  23  29
HETATM   29  C   UNL     1      -6.119  13.170  70.405  1.00  0.00    -0.049 C  
HETATM   30  O   UNL     1      -5.689  13.592  71.473  1.00  0.00    -0.277 OA 
BRANCH  29  31
HETATM   31  O   UNL     1      -5.448  12.329  69.559  1.00  0.00    -0.067 OA 
HETATM   32  C   UNL     1      -5.366  10.990  70.045  1.00  0.00    -0.056 C  
ENDBRANCH  29  31
ENDBRANCH  23  29
BRANCH  27  33
HETATM   33  C   UNL     1      -9.502  13.814  67.440  1.00  0.00    -0.224 C  
BRANCH  33  34
HETATM   34  C   UNL     1      -9.490  15.181  68.143  1.00  0.00    -0.201 C  
HETATM   35  C   UNL     1      -9.356  16.575  66.008  1.00  0.00    -0.302 C  
HETATM   36  O   UNL     1     -11.451  16.049  67.026  1.00  0.00     0.047 OA 
HETATM   37  C   UNL     1     -10.085  16.346  67.329  1.00  0.00    -0.270 C  
HETATM   38  C   UNL     1     -10.055  17.629  68.169  1.00  0.00    -0.347 C  
HETATM   39  H   UNL     1     -11.818  16.767  66.524  1.00  0.00     0.000 HD 
ENDBRANCH  33  34
ENDBRANCH  27  33
ENDBRANCH  21  22
ENDBRANCH   1  21
BRANCH   3  40
HETATM   40  O   UNL     1      -8.109   8.931  72.034  1.00  0.00    -0.355 OA 
HETATM   41  C   UNL     1      -8.765   9.423  73.188  1.00  0.00     2.765 C  
ENDBRANCH   3  40
TORSDOF 7
ENDMDL
MODEL      204
REMARK 921   NORMALIZED FREE ENERGY PREDICTED BY IDOCK:   11.76 KCAL/MOL
REMARK 922        TOTAL FREE ENERGY PREDICTED BY IDOCK:   14.71 KCAL/MOL
REMARK 923 INTER-LIGAND FREE ENERGY PREDICTED BY IDOCK:    5.36 KCAL/MOL
REMARK 924 INTRA-LIGAND FREE ENERGY PREDICTED BY IDOCK:    9.35 KCAL/MOL
REMARK 927      BINDING AFFINITY PREDICTED BY RF-SCORE:    0.00 PKD
ROOT
HETATM    1  C   UNL     1      -9.527  13.636  69.767  1.00  0.00     1.659 C  
HETATM    2  O   UNL     1     -10.849  18.340  65.193  1.00  0.00    -0.656 OA 
HETATM    3  C   UNL     1     -10.460  12.470  70.017  1.00  0.00     1.625 C  
HETATM    4  C   UNL     1     -10.452  14.930  69.900  1.00  0.00    -0.108 C  
HETATM    5  C   UNL     1     -10.119  19.417  65.803  1.00  0.00    -0.194 C  
HETATM    6  C   UNL     1     -11.547  12.839  70.693  1.00  0.00     0.438 C  
HETATM    7  C   UNL     1     -11.645  14.321  70.937  1.00  0.00    -0.084 C  
HETATM    8  C   UNL     1     -10.670  15.836  68.547  1.00  0.00    -0.274 A  
HETATM    9  C   UNL     1      -9.872  16.998  68.392  1.00  0.00    -0.283 A  
HETATM   10  O   UNL     1      -9.494  19.039  67.055  1.00  0.00    -0.302 OA 
HETATM   11  C   UNL     1     -10.026  17.799  67.257  1.00  0.00    -0.324 A  
HETATM   12  C   UNL     1     -11.373  14.605  72.417  1.00  0.00     0.509 C  
HETATM   13  C   UNL     1     -10.825  17.430  66.204  1.00  0.00     0.040 A  
HETATM   14  C   UNL     1     -11.660  16.345  66.287  1.00  0.00     0.959 A  
HETATM   15  C   UNL     1     -12.620  15.303  72.946  1.00  0.00    -0.512 C  
HETATM   16  C   UNL     1     -11.742  15.718  67.542  1.00  0.00     0.151 A  
HETATM   17  C   UNL     1     -13.265  15.606  68.000  1.00  0.00     3.675 C  
HETATM   18  C   UNL     1     -13.084  15.106  69.382  1.00  0.00     0.836 C  
HETATM   19  N   UNL     1     -13.104  14.646  70.726  1.00  0.00    -0.355 NA 
HETATM   20  C   UNL     1     -13.490  15.621  71.741  1.00  0.00    -0.436 C  
ENDROOT
BRANCH   1  21
HETATM   21  O   UNL     1      -8.775  13.500  68.567  1.00  0.00    -0.160 OA 
BRANCH  21  22
HETATM   22  C   UNL     1      -9.046  12.325  67.919  1.00  0.00    -0.190 C  
HETATM   23  C   UNL     1     -10.662  11.297  66.309  1.00  0.00    -0.312 C  
HETATM   24  C   UNL     1      -9.909  12.584  66.674  1.00  0.00    -0.241 C  
HETATM   25  O   UNL     1      -8.693  11.210  68.306  1.00  0.00    -0.138 OA 
HETATM   26  H   UNL     1     -11.390  13.783  66.175  1.00  0.00     0.000 HD 
HETATM   27  C   UNL     1      -8.990  13.049  65.519  1.00  0.00     0.849 C  
HETATM   28  O   UNL     1     -10.857  13.623  66.944  1.00  0.00    -0.280 OA 
BRANCH  23  29
HETATM   29  C   UNL     1     -11.572  10.819  67.431  1.00  0.00     0.160 C  
HETATM   30  O   UNL     1     -12.207  11.524  68.207  1.00  0.00    -0.561 OA 
BRANCH  29  31
HETATM   31  O   UNL     1     -11.580   9.449  67.419  1.00  0.00     0.697 OA 
HETATM   32  C   UNL     1     -10.273   8.879  67.443  1.00  0.00    -0.249 C  
ENDBRANCH  29  31
ENDBRANCH  23  29
BRANCH  27  33
HETATM   33  C   UNL     1      -9.666  13.335  64.162  1.00  0.00     0.767 C  
BRANCH  33  34
HETATM   34  C   UNL     1     -10.671  12.264  63.707  1.00  0.00    -0.494 C  
HETATM   35  C   UNL     1     -12.728  13.382  64.726  1.00  0.00    -0.310 C  
HETATM   36  O   UNL     1     -12.090  13.772  62.459  1.00  0.00    -0.281 OA 
HETATM   37  C   UNL     1     -12.109  12.766  63.475  1.00  0.00    -0.559 C  
HETATM   38  C   UNL     1     -12.985  11.609  62.978  1.00  0.00     0.402 C  
HETATM   39  H   UNL     1     -12.976  14.082  62.316  1.00  0.00     0.000 HD 
ENDBRANCH  33  34
ENDBRANCH  27  33
ENDBRANCH  21  22
ENDBRANCH   1  21
BRANCH   3  40
HETATM   40  O   UNL     1     -10.321  11.166  69.619  1.00  0.00    -0.073 OA 
HETATM   41  C   UNL     1     -10.404  10.117  70.566  1.00  0.00    -0.040 C  
ENDBRANCH   3  40
TORSDOF 7
ENDMDL
MODEL      205
REMARK 921   NORMALIZED FREE ENERGY PREDICTED BY IDOCK:   11.89 KCAL/MOL
REMARK 922        TOTAL FREE ENERGY PREDICTED BY IDOCK:   14.89 KCAL/MOL
REMARK 923 INTER-LIGAND FREE ENERGY PREDICTED BY IDOCK:    7.05 KCAL/MOL
REMARK 924 INTRA-LIGAND FREE ENERGY PREDICTED BY IDOCK:    7.84 KCAL/MOL
REMARK 927      BINDING AFFINITY PREDICTED BY RF-SCORE:    0.00 PKD
ROOT
HETATM    1  C   UNL     1      -9.450  14.355  66.753  1.00  0.00    -0.267 C  
HETATM    2  O   UNL     1     -14.041  13.784  71.590  1.00  0.00    -0.287 OA 
HETATM    3  C   UNL     1      -9.733  13.954  65.321  1.00  0.00    -0.012 C  
HETATM    4  C   UNL     1      -9.838  13.071  67.617  1.00  0.00    -0.212 C  
HETATM    5  C   UNL     1     -13.139  13.635  72.699  1.00  0.00    -0.352 C  
HETATM    6  C   UNL     1      -9.747  12.631  65.168  1.00  0.00    -0.018 C  
HETATM    7  C   UNL     1      -9.600  11.863  66.454  1.00  0.00    -0.225 C  
HETATM    8  C   UNL     1     -11.102  13.224  68.657  1.00  0.00    -0.301 A  
HETATM    9  C   UNL     1     -10.810  13.475  70.021  1.00  0.00     0.563 A  
HETATM   10  O   UNL     1     -11.745  13.646  72.301  1.00  0.00     1.132 OA 
HETATM   11  C   UNL     1     -11.854  13.609  70.941  1.00  0.00     0.003 A  
HETATM   12  C   UNL     1      -8.205  11.232  66.505  1.00  0.00    -0.165 C  
HETATM   13  C   UNL     1     -13.170  13.652  70.552  1.00  0.00     0.231 A  
HETATM   14  C   UNL     1     -13.542  13.378  69.261  1.00  0.00     4.046 A  
HETATM   15  C   UNL     1      -8.430   9.730  66.634  1.00  0.00    -0.126 C  
HETATM   16  C   UNL     1     -12.524  12.933  68.401  1.00  0.00     0.486 A  
HETATM   17  C   UNL     1     -12.953  11.563  67.706  1.00  0.00     4.266 C  
HETATM   18  C   UNL     1     -11.687  11.212  67.023  1.00  0.00     0.318 C  
HETATM   19  N   UNL     1     -10.561  10.707  66.320  1.00  0.00    -0.201 NA 
HETATM   20  C   UNL     1      -9.915   9.528  66.887  1.00  0.00    -0.216 C  
ENDROOT
BRANCH   1  21
HETATM   21  O   UNL     1     -10.059  15.589  67.116  1.00  0.00    -0.246 OA 
BRANCH  21  22
HETATM   22  C   UNL     1      -9.239  16.359  67.896  1.00  0.00    -0.202 C  
HETATM   23  C   UNL     1      -6.976  17.426  67.912  1.00  0.00    -0.181 C  
HETATM   24  C   UNL     1      -8.181  17.063  67.033  1.00  0.00    -0.204 C  
HETATM   25  O   UNL     1      -9.304  16.435  69.124  1.00  0.00    -0.256 OA 
HETATM   26  H   UNL     1      -7.098  16.630  65.446  1.00  0.00     0.000 HD 
HETATM   27  C   UNL     1      -8.817  18.324  66.398  1.00  0.00    -0.256 C  
HETATM   28  O   UNL     1      -7.752  16.194  65.980  1.00  0.00     0.074 OA 
BRANCH  23  29
HETATM   29  C   UNL     1      -6.334  16.202  68.549  1.00  0.00    -0.116 C  
HETATM   30  O   UNL     1      -5.526  15.444  68.024  1.00  0.00    -0.112 OA 
BRANCH  29  31
HETATM   31  O   UNL     1      -6.800  16.096  69.832  1.00  0.00    -0.137 OA 
HETATM   32  C   UNL     1      -6.191  15.036  70.566  1.00  0.00    -0.049 C  
ENDBRANCH  29  31
ENDBRANCH  23  29
BRANCH  27  33
HETATM   33  C   UNL     1      -7.903  19.194  65.509  1.00  0.00     0.328 C  
BRANCH  33  34
HETATM   34  C   UNL     1      -6.853  20.013  66.278  1.00  0.00    -0.251 C  
HETATM   35  C   UNL     1      -8.443  20.839  68.097  1.00  0.00     0.344 C  
HETATM   36  O   UNL     1      -7.137  18.862  68.384  1.00  0.00    -0.250 OA 
HETATM   37  C   UNL     1      -7.111  20.162  67.790  1.00  0.00    -0.295 C  
HETATM   38  C   UNL     1      -5.965  20.953  68.432  1.00  0.00    -0.386 C  
HETATM   39  H   UNL     1      -7.296  18.953  69.317  1.00  0.00     0.000 HD 
ENDBRANCH  33  34
ENDBRANCH  27  33
ENDBRANCH  21  22
ENDBRANCH   1  21
BRANCH   3  40
HETATM   40  O   UNL     1      -9.989  14.762  64.244  1.00  0.00     0.396 OA 
HETATM   41  C   UNL     1     -10.971  15.778  64.330  1.00  0.00     0.193 C  
ENDBRANCH   3  40
TORSDOF 7
ENDMDL
MODEL      206
REMARK 921   NORMALIZED FREE ENERGY PREDICTED BY IDOCK:   13.29 KCAL/MOL
REMARK 922        TOTAL FREE ENERGY PREDICTED BY IDOCK:   16.86 KCAL/MOL
REMARK 923 INTER-LIGAND FREE ENERGY PREDICTED BY IDOCK:   10.96 KCAL/MOL
REMARK 924 INTRA-LIGAND FREE ENERGY PREDICTED BY IDOCK:    5.90 KCAL/MOL
REMARK 927      BINDING AFFINITY PREDICTED BY RF-SCORE:    0.00 PKD
ROOT
HETATM    1  C   UNL     1     -11.574  12.736  69.482  1.00  0.00    -0.276 C  
HETATM    2  O   UNL     1      -5.472  10.981  67.364  1.00  0.00    -0.043 OA 
HETATM    3  C   UNL     1     -11.947  12.743  70.949  1.00  0.00     0.146 C  
HETATM    4  C   UNL     1     -10.987  11.275  69.220  1.00  0.00    -0.297 C  
HETATM    5  C   UNL     1      -5.844  10.518  66.056  1.00  0.00    -0.106 C  
HETATM    6  C   UNL     1     -12.123  11.511  71.424  1.00  0.00     0.118 C  
HETATM    7  C   UNL     1     -11.798  10.421  70.438  1.00  0.00    -0.328 C  
HETATM    8  C   UNL     1      -9.398  11.169  68.812  1.00  0.00    -0.156 A  
HETATM    9  C   UNL     1      -9.075  11.035  67.439  1.00  0.00    -0.143 A  
HETATM   10  O   UNL     1      -7.270  10.605  65.809  1.00  0.00    -0.144 OA 
HETATM   11  C   UNL     1      -7.737  10.939  67.047  1.00  0.00    -0.129 A  
HETATM   12  C   UNL     1     -13.100   9.769  69.963  1.00  0.00     0.719 C  
HETATM   13  C   UNL     1      -6.701  11.115  67.931  1.00  0.00    -0.063 A  
HETATM   14  C   UNL     1      -6.924  11.209  69.280  1.00  0.00    -0.118 A  
HETATM   15  C   UNL     1     -12.987   8.293  70.328  1.00  0.00     1.310 C  
HETATM   16  C   UNL     1      -8.244  10.990  69.711  1.00  0.00     0.580 A  
HETATM   17  C   UNL     1      -8.273   9.869  70.844  1.00  0.00     0.668 C  
HETATM   18  C   UNL     1      -9.734   9.687  70.992  1.00  0.00     0.019 C  
HETATM   19  N   UNL     1     -11.093   9.366  71.255  1.00  0.00    -0.348 NA 
HETATM   20  C   UNL     1     -11.556   8.063  70.788  1.00  0.00    -0.242 C  
ENDROOT
BRANCH   1  21
HETATM   21  O   UNL     1     -10.754  13.838  69.110  1.00  0.00    -0.215 OA 
BRANCH  21  22
HETATM   22  C   UNL     1     -11.401  14.699  68.264  1.00  0.00    -0.297 C  
HETATM   23  C   UNL     1     -11.169  15.804  66.031  1.00  0.00     0.018 C  
HETATM   24  C   UNL     1     -10.897  14.517  66.824  1.00  0.00    -0.305 C  
HETATM   25  O   UNL     1     -12.231  15.539  68.615  1.00  0.00    -0.178 OA 
HETATM   26  H   UNL     1      -9.178  14.142  65.937  1.00  0.00     0.000 HD 
HETATM   27  C   UNL     1     -11.620  13.302  66.194  1.00  0.00    -0.385 C  
HETATM   28  O   UNL     1      -9.490  14.255  66.828  1.00  0.00    -0.253 OA 
BRANCH  23  29
HETATM   29  C   UNL     1     -10.469  17.014  66.633  1.00  0.00    -0.253 C  
HETATM   30  O   UNL     1      -9.523  17.625  66.150  1.00  0.00    -0.441 OA 
BRANCH  29  31
HETATM   31  O   UNL     1     -11.093  17.325  67.811  1.00  0.00    -0.257 OA 
HETATM   32  C   UNL     1     -12.514  17.219  67.741  1.00  0.00     3.487 C  
ENDBRANCH  29  31
ENDBRANCH  23  29
BRANCH  27  33
HETATM   33  C   UNL     1     -11.272  12.967  64.728  1.00  0.00    -0.336 C  
BRANCH  33  34
HETATM   34  C   UNL     1     -11.582  11.520  64.310  1.00  0.00    -0.219 C  
HETATM   35  C   UNL     1      -9.304  11.059  63.251  1.00  0.00    -0.319 C  
HETATM   36  O   UNL     1      -9.755  10.515  65.532  1.00  0.00    -0.208 OA 
HETATM   37  C   UNL     1     -10.363  10.580  64.240  1.00  0.00    -0.138 C  
HETATM   38  C   UNL     1     -10.825   9.166  63.862  1.00  0.00     7.192 C  
HETATM   39  H   UNL     1      -9.003   9.935  65.489  1.00  0.00     0.000 HD 
ENDBRANCH  33  34
ENDBRANCH  27  33
ENDBRANCH  21  22
ENDBRANCH   1  21
BRANCH   3  40
HETATM   40  O   UNL     1     -12.083  13.817  71.789  1.00  0.00    -0.070 OA 
HETATM   41  C   UNL     1     -11.057  14.139  72.710  1.00  0.00     2.971 C  
ENDBRANCH   3  40
TORSDOF 7
ENDMDL
MODEL      207
REMARK 921   NORMALIZED FREE ENERGY PREDICTED BY IDOCK:   16.25 KCAL/MOL
REMARK 922        TOTAL FREE ENERGY PREDICTED BY IDOCK:   21.04 KCAL/MOL
REMARK 923 INTER-LIGAND FREE ENERGY PREDICTED BY IDOCK:   16.29 KCAL/MOL
REMARK 924 INTRA-LIGAND FREE ENERGY PREDICTED BY IDOCK:    4.75 KCAL/MOL
REMARK 927      BINDING AFFINITY PREDICTED BY RF-SCORE:    0.00 PKD
ROOT
HETATM    1  C   UNL     1     -11.479  13.169  68.279  1.00  0.00    -0.314 C  
HETATM    2  O   UNL     1      -5.147  13.127  70.450  1.00  0.00    -0.087 OA 
HETATM    3  C   UNL     1     -12.013  14.257  67.373  1.00  0.00    -0.391 C  
HETATM    4  C   UNL     1     -10.839  13.949  69.516  1.00  0.00    -0.045 C  
HETATM    5  C   UNL     1      -5.363  12.397  71.669  1.00  0.00     0.086 C  
HETATM    6  C   UNL     1     -12.219  15.397  68.032  1.00  0.00     0.350 C  
HETATM    7  C   UNL     1     -11.765  15.367  69.467  1.00  0.00    -0.346 C  
HETATM    8  C   UNL     1      -9.214  13.823  69.721  1.00  0.00     1.587 A  
HETATM    9  C   UNL     1      -8.737  12.883  70.669  1.00  0.00     7.392 A  
HETATM   10  O   UNL     1      -6.754  12.047  71.881  1.00  0.00     3.342 OA 
HETATM   11  C   UNL     1      -7.362  12.744  70.878  1.00  0.00     4.483 A  
HETATM   12  C   UNL     1     -12.995  15.326  70.381  1.00  0.00    -0.307 C  
HETATM   13  C   UNL     1      -6.435  13.384  70.092  1.00  0.00     0.098 A  
HETATM   14  C   UNL     1      -6.808  14.338  69.181  1.00  0.00    -0.120 A  
HETATM   15  C   UNL     1     -12.895  16.558  71.271  1.00  0.00     1.881 C  
HETATM   16  C   UNL     1      -8.164  14.709  69.189  1.00  0.00    -0.068 A  
HETATM   17  C   UNL     1      -8.298  16.292  69.331  1.00  0.00    -0.027 C  
HETATM   18  C   UNL     1      -9.764  16.413  69.502  1.00  0.00    -0.080 C  
HETATM   19  N   UNL     1     -11.137  16.719  69.697  1.00  0.00    -0.150 NA 
HETATM   20  C   UNL     1     -11.521  17.163  71.033  1.00  0.00     1.305 C  
ENDROOT
BRANCH   1  21
HETATM   21  O   UNL     1     -10.643  12.239  67.600  1.00  0.00    -0.209 OA 
BRANCH  21  22
HETATM   22  C   UNL     1     -11.290  11.631  66.558  1.00  0.00    -0.263 C  
HETATM   23  C   UNL     1     -10.890  10.088  64.629  1.00  0.00     1.709 C  
HETATM   24  C   UNL     1     -10.504  10.399  66.082  1.00  0.00    -0.154 C  
HETATM   25  O   UNL     1     -12.328  12.042  66.038  1.00  0.00    -0.462 OA 
HETATM   26  H   UNL     1      -8.612   9.899  65.856  1.00  0.00     0.000 HD 
HETATM   27  C   UNL     1     -10.827   9.211  67.020  1.00  0.00    -0.056 C  
HETATM   28  O   UNL     1      -9.098  10.660  66.150  1.00  0.00    -0.160 OA 
BRANCH  23  29
HETATM   29  C   UNL     1     -10.584  11.243  63.687  1.00  0.00    -0.388 C  
HETATM   30  O   UNL     1     -10.717  12.437  63.928  1.00  0.00    -0.357 OA 
BRANCH  29  31
HETATM   31  O   UNL     1     -10.110  10.721  62.513  1.00  0.00    -0.070 OA 
HETATM   32  C   UNL     1      -8.750  10.300  62.594  1.00  0.00    -0.212 C  
ENDBRANCH  29  31
ENDBRANCH  23  29
BRANCH  27  33
HETATM   33  C   UNL     1     -10.154   7.861  66.692  1.00  0.00    -0.310 C  
BRANCH  33  34
HETATM   34  C   UNL     1      -9.940   6.939  67.904  1.00  0.00    -0.174 C  
HETATM   35  C   UNL     1      -8.366   5.311  66.722  1.00  0.00    -0.108 C  
HETATM   36  O   UNL     1      -7.534   7.171  67.967  1.00  0.00    -0.094 OA 
HETATM   37  C   UNL     1      -8.586   6.203  67.941  1.00  0.00    -0.114 C  
HETATM   38  C   UNL     1      -8.491   5.366  69.222  1.00  0.00    -0.099 C  
HETATM   39  H   UNL     1      -6.700   6.718  67.990  1.00  0.00     0.000 HD 
ENDBRANCH  33  34
ENDBRANCH  27  33
ENDBRANCH  21  22
ENDBRANCH   1  21
BRANCH   3  40
HETATM   40  O   UNL     1     -12.262  14.200  66.027  1.00  0.00    -0.419 OA 
HETATM   41  C   UNL     1     -11.204  14.352  65.098  1.00  0.00    -0.359 C  
ENDBRANCH   3  40
TORSDOF 7
ENDMDL
MODEL      208
REMARK 921   NORMALIZED FREE ENERGY PREDICTED BY IDOCK:   16.43 KCAL/MOL
REMARK 922        TOTAL FREE ENERGY PREDICTED BY IDOCK:   21.28 KCAL/MOL
REMARK 923 INTER-LIGAND FREE ENERGY PREDICTED BY IDOCK:    9.21 KCAL/MOL
REMARK 924 INTRA-LIGAND FREE ENERGY PREDICTED BY IDOCK:   12.07 KCAL/MOL
REMARK 927      BINDING AFFINITY PREDICTED BY RF-SCORE:    0.00 PKD
ROOT
HETATM    1  C   UNL     1      -7.699  13.457  70.150  1.00  0.00     2.044 C  
HETATM    2  O   UNL     1     -12.371  13.709  65.364  1.00  0.00    -0.417 OA 
HETATM    3  C   UNL     1      -6.279  13.013  69.868  1.00  0.00    -0.089 C  
HETATM    4  C   UNL     1      -8.613  12.279  69.580  1.00  0.00     1.821 C  
HETATM    5  C   UNL     1     -13.522  13.517  66.203  1.00  0.00     2.058 C  
HETATM    6  C   UNL     1      -6.195  11.694  69.700  1.00  0.00    -0.127 C  
HETATM    7  C   UNL     1      -7.525  10.988  69.710  1.00  0.00     0.135 C  
HETATM    8  C   UNL     1      -9.592  12.639  68.310  1.00  0.00    -0.208 A  
HETATM    9  C   UNL     1     -10.952  12.930  68.584  1.00  0.00    -0.295 A  
HETATM   10  O   UNL     1     -13.180  13.340  67.601  1.00  0.00     1.828 OA 
HETATM   11  C   UNL     1     -11.821  13.239  67.534  1.00  0.00    -0.358 A  
HETATM   12  C   UNL     1      -7.664  10.199  71.016  1.00  0.00     1.213 C  
HETATM   13  C   UNL     1     -11.378  13.416  66.246  1.00  0.00    -0.306 A  
HETATM   14  C   UNL     1     -10.089  13.116  65.888  1.00  0.00    -0.292 A  
HETATM   15  C   UNL     1      -7.861   8.745  70.608  1.00  0.00    -0.112 C  
HETATM   16  C   UNL     1      -9.294  12.505  66.873  1.00  0.00    -0.219 A  
HETATM   17  C   UNL     1      -8.655  11.159  66.305  1.00  0.00    -0.180 C  
HETATM   18  C   UNL     1      -8.043  10.622  67.542  1.00  0.00    -0.111 C  
HETATM   19  N   UNL     1      -7.412   9.949  68.622  1.00  0.00    -0.074 NA 
HETATM   20  C   UNL     1      -8.065   8.735  69.101  1.00  0.00    -0.118 C  
ENDROOT
BRANCH   1  21
HETATM   21  O   UNL     1      -7.973  14.773  69.682  1.00  0.00    -0.084 OA 
BRANCH  21  22
HETATM   22  C   UNL     1      -9.183  14.853  69.047  1.00  0.00    -0.176 C  
HETATM   23  C   UNL     1     -10.654  16.458  67.815  1.00  0.00    -0.321 C  
HETATM   24  C   UNL     1      -9.200  16.035  68.066  1.00  0.00    -0.193 C  
HETATM   25  O   UNL     1     -10.144  14.114  69.269  1.00  0.00    -0.084 OA 
HETATM   26  H   UNL     1      -8.487  17.871  68.014  1.00  0.00     0.000 HD 
HETATM   27  C   UNL     1      -8.502  15.602  66.755  1.00  0.00    -0.307 C  
HETATM   28  O   UNL     1      -8.477  17.139  68.620  1.00  0.00    -0.253 OA 
BRANCH  23  29
HETATM   29  C   UNL     1     -11.362  16.887  69.092  1.00  0.00     0.231 C  
HETATM   30  O   UNL     1     -11.390  16.274  70.153  1.00  0.00    -0.349 OA 
BRANCH  29  31
HETATM   31  O   UNL     1     -11.958  18.098  68.862  1.00  0.00     2.813 OA 
HETATM   32  C   UNL     1     -11.158  19.205  69.272  1.00  0.00     2.167 C  
ENDBRANCH  29  31
ENDBRANCH  23  29
BRANCH  27  33
HETATM   33  C   UNL     1      -8.439  16.648  65.620  1.00  0.00     0.572 C  
BRANCH  33  34
HETATM   34  C   UNL     1      -8.112  18.077  66.083  1.00  0.00    -0.203 C  
HETATM   35  C   UNL     1      -5.581  17.750  66.178  1.00  0.00    -0.244 C  
HETATM   36  O   UNL     1      -6.656  18.608  64.227  1.00  0.00     0.138 OA 
HETATM   37  C   UNL     1      -6.730  18.607  65.655  1.00  0.00    -0.274 C  
HETATM   38  C   UNL     1      -6.561  20.053  66.138  1.00  0.00    -0.238 C  
HETATM   39  H   UNL     1      -5.804  18.935  63.963  1.00  0.00     0.000 HD 
ENDBRANCH  33  34
ENDBRANCH  27  33
ENDBRANCH  21  22
ENDBRANCH   1  21
BRANCH   3  40
HETATM   40  O   UNL     1      -5.152  13.783  69.748  1.00  0.00    -0.084 OA 
HETATM   41  C   UNL     1      -5.258  15.190  69.621  1.00  0.00    -0.090 C  
ENDBRANCH   3  40
TORSDOF 7
ENDMDL
MODEL      209
REMARK 921   NORMALIZED FREE ENERGY PREDICTED BY IDOCK:   17.44 KCAL/MOL
REMARK 922        TOTAL FREE ENERGY PREDICTED BY IDOCK:   22.71 KCAL/MOL
REMARK 923 INTER-LIGAND FREE ENERGY PREDICTED BY IDOCK:   16.42 KCAL/MOL
REMARK 924 INTRA-LIGAND FREE ENERGY PREDICTED BY IDOCK:    6.29 KCAL/MOL
REMARK 927      BINDING AFFINITY PREDICTED BY RF-SCORE:    0.00 PKD
ROOT
HETATM    1  C   UNL     1      -9.729  13.548  67.713  1.00  0.00    -0.226 C  
HETATM    2  O   UNL     1      -6.641  18.962  65.275  1.00  0.00    -0.380 OA 
HETATM    3  C   UNL     1     -10.940  12.938  67.040  1.00  0.00    -0.262 C  
HETATM    4  C   UNL     1     -10.105  15.087  67.907  1.00  0.00    -0.226 C  
HETATM    5  C   UNL     1      -6.105  19.456  66.513  1.00  0.00    -0.165 C  
HETATM    6  C   UNL     1     -12.038  13.668  67.235  1.00  0.00    -0.385 C  
HETATM    7  C   UNL     1     -11.793  14.962  67.964  1.00  0.00    -0.268 C  
HETATM    8  C   UNL     1      -9.210  16.186  67.074  1.00  0.00    -0.227 A  
HETATM    9  C   UNL     1      -8.158  16.840  67.762  1.00  0.00    -0.186 A  
HETATM   10  O   UNL     1      -6.470  18.639  67.654  1.00  0.00    -0.201 OA 
HETATM   11  C   UNL     1      -7.373  17.784  67.094  1.00  0.00    -0.186 A  
HETATM   12  C   UNL     1     -12.351  14.850  69.386  1.00  0.00    -0.168 C  
HETATM   13  C   UNL     1      -7.486  18.004  65.743  1.00  0.00    -0.083 A  
HETATM   14  C   UNL     1      -8.502  17.445  65.011  1.00  0.00     3.431 A  
HETATM   15  C   UNL     1     -13.383  15.963  69.520  1.00  0.00     1.897 C  
HETATM   16  C   UNL     1      -9.481  16.745  65.738  1.00  0.00    -0.067 A  
HETATM   17  C   UNL     1     -10.932  17.298  65.375  1.00  0.00     0.078 C  
HETATM   18  C   UNL     1     -11.745  16.564  66.372  1.00  0.00     1.337 C  
HETATM   19  N   UNL     1     -12.675  15.966  67.263  1.00  0.00     2.231 NA 
HETATM   20  C   UNL     1     -13.250  16.837  68.283  1.00  0.00     5.111 C  
ENDROOT
BRANCH   1  21
HETATM   21  O   UNL     1      -8.511  13.259  67.036  1.00  0.00    -0.195 OA 
BRANCH  21  22
HETATM   22  C   UNL     1      -7.664  12.501  67.799  1.00  0.00    -0.142 C  
HETATM   23  C   UNL     1      -7.249  11.796  70.163  1.00  0.00     1.155 C  
HETATM   24  C   UNL     1      -8.335  12.116  69.127  1.00  0.00     0.494 C  
HETATM   25  O   UNL     1      -6.507  12.213  67.490  1.00  0.00    -0.102 OA 
HETATM   26  H   UNL     1      -9.550  12.965  70.424  1.00  0.00     0.000 HD 
HETATM   27  C   UNL     1      -9.259  10.898  68.882  1.00  0.00    -0.168 C  
HETATM   28  O   UNL     1      -9.136  13.203  69.603  1.00  0.00     1.321 OA 
BRANCH  23  29
HETATM   29  C   UNL     1      -6.326  12.979  70.420  1.00  0.00     0.190 C  
HETATM   30  O   UNL     1      -5.129  12.928  70.680  1.00  0.00    -0.094 OA 
BRANCH  29  31
HETATM   31  O   UNL     1      -7.060  14.128  70.293  1.00  0.00     0.166 OA 
HETATM   32  C   UNL     1      -7.812  14.447  71.462  1.00  0.00     4.303 C  
ENDBRANCH  29  31
ENDBRANCH  23  29
BRANCH  27  33
HETATM   33  C   UNL     1     -10.008  10.334  70.108  1.00  0.00    -0.050 C  
BRANCH  33  34
HETATM   34  C   UNL     1      -9.298   9.168  70.813  1.00  0.00    -0.325 C  
HETATM   35  C   UNL     1     -10.733   7.324  69.781  1.00  0.00    -0.253 C  
HETATM   36  O   UNL     1      -8.670   8.003  68.790  1.00  0.00    -0.131 OA 
HETATM   37  C   UNL     1      -9.318   7.828  70.052  1.00  0.00    -0.157 C  
HETATM   38  C   UNL     1      -8.534   6.774  70.844  1.00  0.00    -0.136 C  
HETATM   39  H   UNL     1      -8.682   7.177  68.320  1.00  0.00     0.000 HD 
ENDBRANCH  33  34
ENDBRANCH  27  33
ENDBRANCH  21  22
ENDBRANCH   1  21
BRANCH   3  40
HETATM   40  O   UNL     1     -11.010  11.803  66.275  1.00  0.00    -0.278 OA 
HETATM   41  C   UNL     1     -10.190  10.688  66.575  1.00  0.00    -0.233 C  
ENDBRANCH   3  40
TORSDOF 7
ENDMDL
MODEL      210
REMARK 921   NORMALIZED FREE ENERGY PREDICTED BY IDOCK:   20.78 KCAL/MOL
REMARK 922        TOTAL FREE ENERGY PREDICTED BY IDOCK:   27.42 KCAL/MOL
REMARK 923 INTER-LIGAND FREE ENERGY PREDICTED BY IDOCK:    8.77 KCAL/MOL
REMARK 924 INTRA-LIGAND FREE ENERGY PREDICTED BY IDOCK:   18.65 KCAL/MOL
REMARK 927      BINDING AFFINITY PREDICTED BY RF-SCORE:    0.00 PKD
ROOT
HETATM    1  C   UNL     1     -11.418  13.192  70.820  1.00  0.00     0.892 C  
HETATM    2  O   UNL     1     -13.162  12.143  64.444  1.00  0.00    -0.758 OA 
HETATM    3  C   UNL     1     -12.036  14.294  71.654  1.00  0.00    -0.085 C  
HETATM    4  C   UNL     1     -10.891  13.926  69.505  1.00  0.00    -0.045 C  
HETATM    5  C   UNL     1     -11.931  11.551  63.999  1.00  0.00    -0.030 C  
HETATM    6  C   UNL     1     -11.568  15.495  71.316  1.00  0.00    -0.462 C  
HETATM    7  C   UNL     1     -10.645  15.482  70.127  1.00  0.00    -0.320 C  
HETATM    8  C   UNL     1     -11.608  13.519  68.083  1.00  0.00    -0.368 A  
HETATM    9  C   UNL     1     -10.949  12.576  67.255  1.00  0.00    -0.300 A  
HETATM   10  O   UNL     1     -10.928  11.477  65.044  1.00  0.00    -0.290 OA 
HETATM   11  C   UNL     1     -11.520  12.202  66.036  1.00  0.00    -0.370 A  
HETATM   12  C   UNL     1      -9.211  15.730  70.603  1.00  0.00     1.720 C  
HETATM   13  C   UNL     1     -12.780  12.606  65.665  1.00  0.00     0.239 A  
HETATM   14  C   UNL     1     -13.469  13.546  66.386  1.00  0.00     2.716 A  
HETATM   15  C   UNL     1      -8.739  16.983  69.874  1.00  0.00     1.463 C  
HETATM   16  C   UNL     1     -12.769  14.159  67.440  1.00  0.00     0.648 A  
HETATM   17  C   UNL     1     -12.834  15.745  67.292  1.00  0.00     2.907 C  
HETATM   18  C   UNL     1     -11.899  16.144  68.368  1.00  0.00     0.020 C  
HETATM   19  N   UNL     1     -11.026  16.709  69.336  1.00  0.00    -0.282 NA 
HETATM   20  C   UNL     1      -9.795  17.308  68.830  1.00  0.00    -0.286 C  
ENDROOT
BRANCH   1  21
HETATM   21  O   UNL     1     -12.287  12.080  70.637  1.00  0.00    -0.356 OA 
BRANCH  21  22
HETATM   22  C   UNL     1     -12.090  11.110  71.582  1.00  0.00     0.324 C  
HETATM   23  C   UNL     1     -11.411   8.714  71.829  1.00  0.00    -0.394 C  
HETATM   24  C   UNL     1     -11.167  10.008  71.039  1.00  0.00    -0.314 C  
HETATM   25  O   UNL     1     -12.620  11.094  72.694  1.00  0.00     0.817 OA 
HETATM   26  H   UNL     1     -10.876   9.094  69.319  1.00  0.00     0.000 HD 
HETATM   27  C   UNL     1      -9.699  10.481  71.169  1.00  0.00     2.903 C  
HETATM   28  O   UNL     1     -11.446   9.775  69.655  1.00  0.00    -0.175 OA 
BRANCH  23  29
HETATM   29  C   UNL     1     -12.850   8.230  71.718  1.00  0.00    -0.338 C  
HETATM   30  O   UNL     1     -13.219   7.094  71.444  1.00  0.00    -0.385 OA 
BRANCH  29  31
HETATM   31  O   UNL     1     -13.677   9.285  71.996  1.00  0.00    -0.411 OA 
HETATM   32  C   UNL     1     -14.086   9.335  73.361  1.00  0.00     1.490 C  
ENDBRANCH  29  31
ENDBRANCH  23  29
BRANCH  27  33
HETATM   33  C   UNL     1      -8.605   9.496  70.701  1.00  0.00    -0.178 C  
BRANCH  33  34
HETATM   34  C   UNL     1      -8.607   9.206  69.192  1.00  0.00    -0.133 C  
HETATM   35  C   UNL     1     -11.053   8.482  69.065  1.00  0.00     0.209 C  
HETATM   36  O   UNL     1     -10.396  10.739  68.649  1.00  0.00    -0.174 OA 
HETATM   37  C   UNL     1      -9.966   9.385  68.488  1.00  0.00    -0.173 C  
HETATM   38  C   UNL     1      -9.809   9.113  66.987  1.00  0.00    -0.267 C  
HETATM   39  H   UNL     1     -11.234  10.849  68.215  1.00  0.00     0.000 HD 
ENDBRANCH  33  34
ENDBRANCH  27  33
ENDBRANCH  21  22
ENDBRANCH   1  21
BRANCH   3  40
HETATM   40  O   UNL     1     -12.986  14.190  72.636  1.00  0.00    -0.420 OA 
HETATM   41  C   UNL     1     -14.037  13.249  72.517  1.00  0.00    -0.262 C  
ENDBRANCH   3  40
TORSDOF 7
ENDMDL
MODEL      211
REMARK 921   NORMALIZED FREE ENERGY PREDICTED BY IDOCK:   23.34 KCAL/MOL
REMARK 922        TOTAL FREE ENERGY PREDICTED BY IDOCK:   31.03 KCAL/MOL
REMARK 923 INTER-LIGAND FREE ENERGY PREDICTED BY IDOCK:   30.84 KCAL/MOL
REMARK 924 INTRA-LIGAND FREE ENERGY PREDICTED BY IDOCK:    0.19 KCAL/MOL
REMARK 927      BINDING AFFINITY PREDICTED BY RF-SCORE:    0.00 PKD
ROOT
HETATM    1  C   UNL     1      -9.651  16.534  68.618  1.00  0.00    -0.241 C  
HETATM    2  O   UNL     1      -6.676  19.625  63.481  1.00  0.00     0.356 OA 
HETATM    3  C   UNL     1     -11.026  16.930  69.111  1.00  0.00    -0.151 C  
HETATM    4  C   UNL     1      -8.814  17.893  68.617  1.00  0.00    -0.267 C  
HETATM    5  C   UNL     1      -5.314  19.375  63.864  1.00  0.00    -0.257 C  
HETATM    6  C   UNL     1     -10.999  18.072  69.798  1.00  0.00     1.608 C  
HETATM    7  C   UNL     1      -9.653  18.744  69.817  1.00  0.00     0.643 C  
HETATM    8  C   UNL     1      -8.307  18.457  67.159  1.00  0.00    -0.248 A  
HETATM    9  C   UNL     1      -6.972  18.182  66.770  1.00  0.00    -0.226 A  
HETATM   10  O   UNL     1      -5.202  18.645  65.112  1.00  0.00    -0.153 OA 
HETATM   11  C   UNL     1      -6.497  18.645  65.540  1.00  0.00    -0.286 A  
HETATM   12  C   UNL     1      -9.038  18.598  71.213  1.00  0.00     6.323 C  
HETATM   13  C   UNL     1      -7.321  19.239  64.616  1.00  0.00     1.624 A  
HETATM   14  C   UNL     1      -8.612  19.578  64.924  1.00  0.00     2.467 A  
HETATM   15  C   UNL     1      -8.800  20.017  71.716  1.00  0.00     2.691 C  
HETATM   16  C   UNL     1      -9.000  19.401  66.264  1.00  0.00    -0.374 A  
HETATM   17  C   UNL     1      -9.614  20.754  66.841  1.00  0.00    -0.330 C  
HETATM   18  C   UNL     1      -9.763  20.384  68.267  1.00  0.00    -0.071 C  
HETATM   19  N   UNL     1      -9.959  20.214  69.663  1.00  0.00     0.008 NA 
HETATM   20  C   UNL     1      -9.053  20.948  70.541  1.00  0.00     2.748 C  
ENDROOT
BRANCH   1  21
HETATM   21  O   UNL     1      -9.686  15.794  67.403  1.00  0.00    -0.221 OA 
BRANCH  21  22
HETATM   22  C   UNL     1      -8.566  15.027  67.234  1.00  0.00    -0.206 C  
HETATM   23  C   UNL     1      -7.744  12.673  67.453  1.00  0.00    -0.161 C  
HETATM   24  C   UNL     1      -8.947  13.547  67.069  1.00  0.00    -0.231 C  
HETATM   25  O   UNL     1      -7.410  15.452  67.263  1.00  0.00    -0.194 OA 
HETATM   26  H   UNL     1     -10.287  12.315  67.820  1.00  0.00     0.000 HD 
HETATM   27  C   UNL     1      -9.375  13.305  65.602  1.00  0.00     0.228 C  
HETATM   28  O   UNL     1     -10.052  13.229  67.921  1.00  0.00    -0.223 OA 
BRANCH  23  29
HETATM   29  C   UNL     1      -7.302  12.895  68.893  1.00  0.00    -0.014 C  
HETATM   30  O   UNL     1      -6.612  13.817  69.311  1.00  0.00    -0.108 OA 
BRANCH  29  31
HETATM   31  O   UNL     1      -7.827  11.888  69.659  1.00  0.00     0.523 OA 
HETATM   32  C   UNL     1      -7.160  10.640  69.480  1.00  0.00    -0.127 C  
ENDBRANCH  29  31
ENDBRANCH  23  29
BRANCH  27  33
HETATM   33  C   UNL     1      -9.772  11.863  65.220  1.00  0.00    -0.214 C  
BRANCH  33  34
HETATM   34  C   UNL     1     -10.738  11.757  64.029  1.00  0.00    -0.434 C  
HETATM   35  C   UNL     1     -11.359   9.309  64.410  1.00  0.00     8.595 C  
HETATM   36  O   UNL     1     -12.661  11.086  65.331  1.00  0.00     2.589 OA 
HETATM   37  C   UNL     1     -11.875  10.729  64.192  1.00  0.00     2.003 C  
HETATM   38  C   UNL     1     -12.785  10.767  62.958  1.00  0.00     3.248 C  
HETATM   39  H   UNL     1     -13.362  10.452  65.432  1.00  0.00     0.000 HD 
ENDBRANCH  33  34
ENDBRANCH  27  33
ENDBRANCH  21  22
ENDBRANCH   1  21
BRANCH   3  40
HETATM   40  O   UNL     1     -12.221  16.290  68.910  1.00  0.00    -0.003 OA 
HETATM   41  C   UNL     1     -12.720  15.385  69.878  1.00  0.00    -0.077 C  
ENDBRANCH   3  40
TORSDOF 7
ENDMDL
MODEL      212
REMARK 921   NORMALIZED FREE ENERGY PREDICTED BY IDOCK:   25.79 KCAL/MOL
REMARK 922        TOTAL FREE ENERGY PREDICTED BY IDOCK:   34.47 KCAL/MOL
REMARK 923 INTER-LIGAND FREE ENERGY PREDICTED BY IDOCK:    2.87 KCAL/MOL
REMARK 924 INTRA-LIGAND FREE ENERGY PREDICTED BY IDOCK:   31.60 KCAL/MOL
REMARK 927      BINDING AFFINITY PREDICTED BY RF-SCORE:    0.00 PKD
ROOT
HETATM    1  C   UNL     1      -9.780  11.252  70.086  1.00  0.00     1.802 C  
HETATM    2  O   UNL     1     -10.924   5.583  66.717  1.00  0.00    -0.230 OA 
HETATM    3  C   UNL     1      -8.989  12.398  69.491  1.00  0.00     1.606 C  
HETATM    4  C   UNL     1      -8.833   9.978  69.920  1.00  0.00    -0.177 C  
HETATM    5  C   UNL     1     -11.060   4.707  67.848  1.00  0.00     2.184 C  
HETATM    6  C   UNL     1      -7.683  12.138  69.461  1.00  0.00     0.709 C  
HETATM    7  C   UNL     1      -7.323  10.746  69.905  1.00  0.00     0.005 C  
HETATM    8  C   UNL     1      -9.357   8.781  68.923  1.00  0.00    -0.145 A  
HETATM    9  C   UNL     1      -9.984   7.655  69.512  1.00  0.00    -0.182 A  
HETATM   10  O   UNL     1     -10.874   5.386  69.115  1.00  0.00    -0.193 OA 
HETATM   11  C   UNL     1     -10.442   6.612  68.702  1.00  0.00    -0.211 A  
HETATM   12  C   UNL     1      -6.658  10.815  71.283  1.00  0.00     1.250 C  
HETATM   13  C   UNL     1     -10.442   6.697  67.331  1.00  0.00    -0.260 A  
HETATM   14  C   UNL     1      -9.820   7.731  66.681  1.00  0.00    -0.295 A  
HETATM   15  C   UNL     1      -5.277  10.194  71.113  1.00  0.00    -0.074 C  
HETATM   16  C   UNL     1      -9.084   8.619  67.484  1.00  0.00    -0.146 A  
HETATM   17  C   UNL     1      -7.596   8.757  66.926  1.00  0.00    -0.090 C  
HETATM   18  C   UNL     1      -6.988   9.563  68.009  1.00  0.00    -0.079 C  
HETATM   19  N   UNL     1      -6.235  10.311  68.954  1.00  0.00    -0.047 NA 
HETATM   20  C   UNL     1      -5.242   9.572  69.726  1.00  0.00    -0.033 C  
ENDROOT
BRANCH   1  21
HETATM   21  O   UNL     1     -11.098  11.152  69.559  1.00  0.00    -0.243 OA 
BRANCH  21  22
HETATM   22  C   UNL     1     -11.704  12.374  69.452  1.00  0.00    -0.322 C  
HETATM   23  C   UNL     1     -11.300  14.704  68.636  1.00  0.00    -0.305 C  
HETATM   24  C   UNL     1     -11.026  13.218  68.362  1.00  0.00    -0.264 C  
HETATM   25  O   UNL     1     -12.631  12.764  70.164  1.00  0.00    -0.086 OA 
HETATM   26  H   UNL     1      -9.193  13.512  67.704  1.00  0.00     0.000 HD 
HETATM   27  C   UNL     1     -11.577  12.786  66.983  1.00  0.00    -0.422 C  
HETATM   28  O   UNL     1      -9.613  12.990  68.377  1.00  0.00    -0.221 OA 
BRANCH  23  29
HETATM   29  C   UNL     1     -10.768  15.153  69.989  1.00  0.00    -0.238 C  
HETATM   30  O   UNL     1      -9.758  15.818  70.192  1.00  0.00    -0.106 OA 
BRANCH  29  31
HETATM   31  O   UNL     1     -11.626  14.700  70.955  1.00  0.00    -0.295 OA 
HETATM   32  C   UNL     1     -12.967  15.149  70.772  1.00  0.00    -0.414 C  
ENDBRANCH  29  31
ENDBRANCH  23  29
BRANCH  27  33
HETATM   33  C   UNL     1     -11.038  13.541  65.748  1.00  0.00    -0.295 C  
BRANCH  33  34
HETATM   34  C   UNL     1     -11.483  12.960  64.396  1.00  0.00    -0.405 C  
HETATM   35  C   UNL     1      -9.229  11.912  63.806  1.00  0.00     0.233 C  
HETATM   36  O   UNL     1     -10.932  10.665  64.922  1.00  0.00    -0.018 OA 
HETATM   37  C   UNL     1     -10.733  11.691  63.946  1.00  0.00    -0.398 C  
HETATM   38  C   UNL     1     -11.311  11.196  62.615  1.00  0.00     1.219 C  
HETATM   39  H   UNL     1     -10.470   9.883  64.645  1.00  0.00     0.000 HD 
ENDBRANCH  33  34
ENDBRANCH  27  33
ENDBRANCH  21  22
ENDBRANCH   1  21
BRANCH   3  40
HETATM   40  O   UNL     1      -9.455  13.584  68.988  1.00  0.00     0.088 OA 
HETATM   41  C   UNL     1      -8.807  14.801  69.310  1.00  0.00    -0.029 C  
ENDBRANCH   3  40
TORSDOF 7
ENDMDL
MODEL      213
REMARK 921   NORMALIZED FREE ENERGY PREDICTED BY IDOCK:   26.37 KCAL/MOL
REMARK 922        TOTAL FREE ENERGY PREDICTED BY IDOCK:   35.29 KCAL/MOL
REMARK 923 INTER-LIGAND FREE ENERGY PREDICTED BY IDOCK:   17.16 KCAL/MOL
REMARK 924 INTRA-LIGAND FREE ENERGY PREDICTED BY IDOCK:   18.13 KCAL/MOL
REMARK 927      BINDING AFFINITY PREDICTED BY RF-SCORE:    0.00 PKD
ROOT
HETATM    1  C   UNL     1     -11.316  11.094  67.802  1.00  0.00    -0.293 C  
HETATM    2  O   UNL     1     -11.150  17.200  70.541  1.00  0.00     0.253 OA 
HETATM    3  C   UNL     1     -10.178  10.557  66.961  1.00  0.00    -0.226 C  
HETATM    4  C   UNL     1     -11.682  12.499  67.139  1.00  0.00    -0.425 C  
HETATM    5  C   UNL     1     -12.568  17.427  70.598  1.00  0.00     7.680 C  
HETATM    6  C   UNL     1     -10.149  11.113  65.750  1.00  0.00    -0.299 C  
HETATM    7  C   UNL     1     -11.162  12.209  65.553  1.00  0.00    -0.334 C  
HETATM    8  C   UNL     1     -11.423  13.845  68.046  1.00  0.00    -0.339 A  
HETATM    9  C   UNL     1     -12.531  14.408  68.727  1.00  0.00     0.101 A  
HETATM   10  O   UNL     1     -13.340  16.328  70.054  1.00  0.00     0.869 OA 
HETATM   11  C   UNL     1     -12.358  15.554  69.508  1.00  0.00    -0.153 A  
HETATM   12  C   UNL     1     -12.274  11.704  64.628  1.00  0.00     0.134 C  
HETATM   13  C   UNL     1     -11.117  16.083  69.764  1.00  0.00    -0.337 A  
HETATM   14  C   UNL     1      -9.999  15.627  69.115  1.00  0.00    -0.244 A  
HETATM   15  C   UNL     1     -12.286  12.652  63.434  1.00  0.00    -0.553 C  
HETATM   16  C   UNL     1     -10.213  14.684  68.094  1.00  0.00    -0.231 A  
HETATM   17  C   UNL     1      -9.517  15.171  66.744  1.00  0.00    -0.260 C  
HETATM   18  C   UNL     1     -10.028  14.146  65.805  1.00  0.00    -0.309 C  
HETATM   19  N   UNL     1     -10.430  13.267  64.765  1.00  0.00    -0.370 NA 
HETATM   20  C   UNL     1     -11.361  13.808  63.780  1.00  0.00     0.125 C  
ENDROOT
BRANCH   1  21
HETATM   21  O   UNL     1     -11.027  11.093  69.196  1.00  0.00    -0.214 OA 
BRANCH  21  22
HETATM   22  C   UNL     1     -10.242  10.032  69.558  1.00  0.00    -0.234 C  
HETATM   23  C   UNL     1     -10.382   7.659  70.338  1.00  0.00    -0.214 C  
HETATM   24  C   UNL     1     -11.022   8.714  69.425  1.00  0.00    -0.019 C  
HETATM   25  O   UNL     1      -9.089  10.123  69.983  1.00  0.00    -0.161 OA 
HETATM   26  H   UNL     1     -12.867   8.098  69.733  1.00  0.00     0.000 HD 
HETATM   27  C   UNL     1     -10.997   8.270  67.942  1.00  0.00     0.106 C  
HETATM   28  O   UNL     1     -12.384   8.912  69.815  1.00  0.00     0.875 OA 
BRANCH  23  29
HETATM   29  C   UNL     1     -10.393   8.074  71.802  1.00  0.00    -0.217 C  
HETATM   30  O   UNL     1      -9.966   7.423  72.749  1.00  0.00    -0.183 OA 
BRANCH  29  31
HETATM   31  O   UNL     1     -10.951   9.322  71.886  1.00  0.00    -0.363 OA 
HETATM   32  C   UNL     1     -12.148   9.456  71.124  1.00  0.00    -0.328 C  
ENDBRANCH  29  31
ENDBRANCH  23  29
BRANCH  27  33
HETATM   33  C   UNL     1     -11.707   6.942  67.601  1.00  0.00     1.007 C  
BRANCH  33  34
HETATM   34  C   UNL     1     -10.985   5.681  68.104  1.00  0.00    -0.026 C  
HETATM   35  C   UNL     1     -12.228   4.045  66.587  1.00  0.00    11.153 C  
HETATM   36  O   UNL     1     -10.139   5.004  65.943  1.00  0.00    -0.242 OA 
HETATM   37  C   UNL     1     -10.870   4.536  67.079  1.00  0.00     1.009 C  
HETATM   38  C   UNL     1     -10.088   3.370  67.697  1.00  0.00     0.729 C  
HETATM   39  H   UNL     1     -10.067   4.298  65.311  1.00  0.00     0.000 HD 
ENDBRANCH  33  34
ENDBRANCH  27  33
ENDBRANCH  21  22
ENDBRANCH   1  21
BRANCH   3  40
HETATM   40  O   UNL     1      -9.221   9.640  67.307  1.00  0.00    -0.133 OA 
HETATM   41  C   UNL     1      -9.284   8.317  66.805  1.00  0.00    -0.169 C  
ENDBRANCH   3  40
TORSDOF 7
ENDMDL
MODEL      214
REMARK 921   NORMALIZED FREE ENERGY PREDICTED BY IDOCK:   26.59 KCAL/MOL
REMARK 922        TOTAL FREE ENERGY PREDICTED BY IDOCK:   35.61 KCAL/MOL
REMARK 923 INTER-LIGAND FREE ENERGY PREDICTED BY IDOCK:   19.89 KCAL/MOL
REMARK 924 INTRA-LIGAND FREE ENERGY PREDICTED BY IDOCK:   15.72 KCAL/MOL
REMARK 927      BINDING AFFINITY PREDICTED BY RF-SCORE:    0.00 PKD
ROOT
HETATM    1  C   UNL     1      -7.699  13.457  70.150  1.00  0.00     2.044 C  
HETATM    2  O   UNL     1     -12.371  13.709  65.364  1.00  0.00    -0.417 OA 
HETATM    3  C   UNL     1      -6.279  13.013  69.868  1.00  0.00    -0.089 C  
HETATM    4  C   UNL     1      -8.613  12.279  69.580  1.00  0.00     1.821 C  
HETATM    5  C   UNL     1     -13.522  13.517  66.203  1.00  0.00     2.058 C  
HETATM    6  C   UNL     1      -6.195  11.694  69.700  1.00  0.00    -0.127 C  
HETATM    7  C   UNL     1      -7.525  10.988  69.710  1.00  0.00     0.135 C  
HETATM    8  C   UNL     1      -9.592  12.639  68.310  1.00  0.00    -0.208 A  
HETATM    9  C   UNL     1     -10.952  12.930  68.584  1.00  0.00    -0.295 A  
HETATM   10  O   UNL     1     -13.180  13.340  67.601  1.00  0.00     1.828 OA 
HETATM   11  C   UNL     1     -11.821  13.239  67.534  1.00  0.00    -0.358 A  
HETATM   12  C   UNL     1      -7.664  10.199  71.016  1.00  0.00     1.213 C  
HETATM   13  C   UNL     1     -11.378  13.416  66.246  1.00  0.00    -0.306 A  
HETATM   14  C   UNL     1     -10.089  13.116  65.888  1.00  0.00    -0.292 A  
HETATM   15  C   UNL     1      -7.861   8.745  70.608  1.00  0.00    -0.112 C  
HETATM   16  C   UNL     1      -9.294  12.505  66.873  1.00  0.00    -0.219 A  
HETATM   17  C   UNL     1      -8.655  11.159  66.305  1.00  0.00    -0.180 C  
HETATM   18  C   UNL     1      -8.043  10.622  67.542  1.00  0.00    -0.111 C  
HETATM   19  N   UNL     1      -7.412   9.949  68.622  1.00  0.00    -0.074 NA 
HETATM   20  C   UNL     1      -8.065   8.735  69.101  1.00  0.00    -0.118 C  
ENDROOT
BRANCH   1  21
HETATM   21  O   UNL     1      -7.973  14.773  69.682  1.00  0.00    -0.084 OA 
BRANCH  21  22
HETATM   22  C   UNL     1      -6.910  15.314  69.012  1.00  0.00    -0.130 C  
HETATM   23  C   UNL     1      -6.168  17.415  67.873  1.00  0.00    -0.156 C  
HETATM   24  C   UNL     1      -6.975  16.849  69.051  1.00  0.00    -0.224 C  
HETATM   25  O   UNL     1      -6.049  14.665  68.416  1.00  0.00    -0.086 OA 
HETATM   26  H   UNL     1      -8.374  18.232  68.966  1.00  0.00     0.000 HD 
HETATM   27  C   UNL     1      -6.412  17.337  70.407  1.00  0.00     0.805 C  
HETATM   28  O   UNL     1      -8.334  17.284  68.942  1.00  0.00    -0.254 OA 
BRANCH  23  29
HETATM   29  C   UNL     1      -6.702  16.948  66.526  1.00  0.00    -0.201 C  
HETATM   30  O   UNL     1      -6.965  15.794  66.205  1.00  0.00     0.334 OA 
BRANCH  29  31
HETATM   31  O   UNL     1      -6.860  18.048  65.726  1.00  0.00    -0.312 OA 
HETATM   32  C   UNL     1      -8.186  18.574  65.749  1.00  0.00     0.281 C  
ENDBRANCH  29  31
ENDBRANCH  23  29
BRANCH  27  33
HETATM   33  C   UNL     1      -6.362  18.863  70.634  1.00  0.00     0.368 C  
BRANCH  33  34
HETATM   34  C   UNL     1      -7.603  19.625  70.140  1.00  0.00     0.608 C  
HETATM   35  C   UNL     1      -9.031  19.173  72.208  1.00  0.00     6.880 C  
HETATM   36  O   UNL     1      -7.713  21.154  72.009  1.00  0.00     1.449 OA 
HETATM   37  C   UNL     1      -8.490  20.227  71.247  1.00  0.00     2.087 C  
HETATM   38  C   UNL     1      -9.654  20.998  70.611  1.00  0.00     2.500 C  
HETATM   39  H   UNL     1      -8.259  21.525  72.692  1.00  0.00     0.000 HD 
ENDBRANCH  33  34
ENDBRANCH  27  33
ENDBRANCH  21  22
ENDBRANCH   1  21
BRANCH   3  40
HETATM   40  O   UNL     1      -5.152  13.783  69.748  1.00  0.00    -0.084 OA 
HETATM   41  C   UNL     1      -5.258  15.190  69.621  1.00  0.00    -0.090 C  
ENDBRANCH   3  40
TORSDOF 7
ENDMDL
MODEL      215
REMARK 921   NORMALIZED FREE ENERGY PREDICTED BY IDOCK:   27.82 KCAL/MOL
REMARK 922        TOTAL FREE ENERGY PREDICTED BY IDOCK:   37.33 KCAL/MOL
REMARK 923 INTER-LIGAND FREE ENERGY PREDICTED BY IDOCK:   17.58 KCAL/MOL
REMARK 924 INTRA-LIGAND FREE ENERGY PREDICTED BY IDOCK:   19.76 KCAL/MOL
REMARK 927      BINDING AFFINITY PREDICTED BY RF-SCORE:    0.00 PKD
ROOT
HETATM    1  C   UNL     1     -10.965  11.774  67.338  1.00  0.00    -0.262 C  
HETATM    2  O   UNL     1      -6.902  16.996  66.334  1.00  0.00    -0.237 OA 
HETATM    3  C   UNL     1     -10.655  10.395  66.796  1.00  0.00    -0.205 C  
HETATM    4  C   UNL     1     -10.870  12.738  66.070  1.00  0.00    -0.301 C  
HETATM    5  C   UNL     1      -7.892  18.034  66.418  1.00  0.00    -0.269 C  
HETATM    6  C   UNL     1     -10.862  10.318  65.482  1.00  0.00     0.293 C  
HETATM    7  C   UNL     1     -11.232  11.629  64.842  1.00  0.00    -0.222 C  
HETATM    8  C   UNL     1      -9.676  13.868  66.078  1.00  0.00    -0.270 A  
HETATM    9  C   UNL     1     -10.016  15.187  66.469  1.00  0.00    -0.279 A  
HETATM   10  O   UNL     1      -9.231  17.523  66.638  1.00  0.00    -0.247 OA 
HETATM   11  C   UNL     1      -9.033  16.181  66.488  1.00  0.00    -0.287 A  
HETATM   12  C   UNL     1     -12.716  11.601  64.462  1.00  0.00     0.525 C  
HETATM   13  C   UNL     1      -7.706  15.900  66.280  1.00  0.00     0.325 A  
HETATM   14  C   UNL     1      -7.296  14.662  65.858  1.00  0.00     4.811 A  
HETATM   15  C   UNL     1     -12.766  11.832  62.956  1.00  0.00     0.019 C  
HETATM   16  C   UNL     1      -8.312  13.747  65.533  1.00  0.00     3.014 A  
HETATM   17  C   UNL     1      -8.081  13.168  64.065  1.00  0.00     8.430 C  
HETATM   18  C   UNL     1      -9.336  12.404  63.887  1.00  0.00     0.568 C  
HETATM   19  N   UNL     1     -10.480  11.640  63.533  1.00  0.00    -0.409 NA 
HETATM   20  C   UNL     1     -11.361  12.217  62.523  1.00  0.00     1.812 C  
ENDROOT
BRANCH   1  21
HETATM   21  O   UNL     1     -10.178  12.116  68.472  1.00  0.00    -0.216 OA 
BRANCH  21  22
HETATM   22  C   UNL     1      -8.842  12.160  68.178  1.00  0.00    -0.187 C  
HETATM   23  C   UNL     1      -6.684  10.990  68.660  1.00  0.00    -0.061 C  
HETATM   24  C   UNL     1      -8.189  10.793  68.433  1.00  0.00    -0.129 C  
HETATM   25  O   UNL     1      -8.235  13.168  67.812  1.00  0.00    -0.141 OA 
HETATM   26  H   UNL     1      -8.362   9.339  69.750  1.00  0.00     0.000 HD 
HETATM   27  C   UNL     1      -8.461   9.878  67.214  1.00  0.00    -0.121 C  
HETATM   28  O   UNL     1      -8.765  10.184  69.593  1.00  0.00    -0.186 OA 
BRANCH  23  29
HETATM   29  C   UNL     1      -6.390  11.888  69.853  1.00  0.00    -0.104 C  
HETATM   30  O   UNL     1      -6.649  13.083  69.949  1.00  0.00    -0.022 OA 
BRANCH  29  31
HETATM   31  O   UNL     1      -5.796  11.127  70.824  1.00  0.00    -0.257 OA 
HETATM   32  C   UNL     1      -6.548  11.073  72.035  1.00  0.00     3.424 C  
ENDBRANCH  29  31
ENDBRANCH  23  29
BRANCH  27  33
HETATM   33  C   UNL     1      -7.860   8.457  67.261  1.00  0.00    -0.098 C  
BRANCH  33  34
HETATM   34  C   UNL     1      -8.882   7.335  67.503  1.00  0.00    -0.119 C  
HETATM   35  C   UNL     1      -8.109   5.853  65.572  1.00  0.00    -0.131 C  
HETATM   36  O   UNL     1      -7.251   5.573  67.782  1.00  0.00    -0.069 OA 
HETATM   37  C   UNL     1      -8.433   5.928  67.061  1.00  0.00    -0.107 C  
HETATM   38  C   UNL     1      -9.524   4.907  67.408  1.00  0.00    -0.156 C  
HETATM   39  H   UNL     1      -6.974   4.706  67.510  1.00  0.00     0.000 HD 
ENDBRANCH  33  34
ENDBRANCH  27  33
ENDBRANCH  21  22
ENDBRANCH   1  21
BRANCH   3  40
HETATM   40  O   UNL     1     -10.186   9.299  67.472  1.00  0.00    -0.209 OA 
HETATM   41  C   UNL     1     -10.435   7.994  66.979  1.00  0.00    -0.340 C  
ENDBRANCH   3  40
TORSDOF 7
ENDMDL
MODEL      216
REMARK 921   NORMALIZED FREE ENERGY PREDICTED BY IDOCK:   31.07 KCAL/MOL
REMARK 922        TOTAL FREE ENERGY PREDICTED BY IDOCK:   41.92 KCAL/MOL
REMARK 923 INTER-LIGAND FREE ENERGY PREDICTED BY IDOCK:   38.90 KCAL/MOL
REMARK 924 INTRA-LIGAND FREE ENERGY PREDICTED BY IDOCK:    3.02 KCAL/MOL
REMARK 927      BINDING AFFINITY PREDICTED BY RF-SCORE:    0.00 PKD
ROOT
HETATM    1  C   UNL     1     -10.587   8.306  67.822  1.00  0.00    -0.168 C  
HETATM    2  O   UNL     1      -5.203  12.282  67.828  1.00  0.00    -0.062 OA 
HETATM    3  C   UNL     1     -10.538   6.882  67.310  1.00  0.00    -0.322 C  
HETATM    4  C   UNL     1      -9.991   9.185  66.630  1.00  0.00    -0.343 C  
HETATM    5  C   UNL     1      -5.889  13.541  67.742  1.00  0.00    -0.116 C  
HETATM    6  C   UNL     1     -10.484   6.833  65.980  1.00  0.00     0.829 C  
HETATM    7  C   UNL     1     -10.367   8.180  65.320  1.00  0.00     3.089 C  
HETATM    8  C   UNL     1      -8.575   9.969  66.916  1.00  0.00    -0.128 A  
HETATM    9  C   UNL     1      -8.637  11.340  67.271  1.00  0.00    -0.143 A  
HETATM   10  O   UNL     1      -7.330  13.397  67.670  1.00  0.00    -0.140 OA 
HETATM   11  C   UNL     1      -7.458  12.047  67.521  1.00  0.00    -0.140 A  
HETATM   12  C   UNL     1     -11.699   8.527  64.646  1.00  0.00    14.521 C  
HETATM   13  C   UNL     1      -6.233  11.428  67.577  1.00  0.00    -0.069 A  
HETATM   14  C   UNL     1      -6.077  10.118  67.208  1.00  0.00    -0.058 A  
HETATM   15  C   UNL     1     -11.381   8.730  63.170  1.00  0.00    13.835 C  
HETATM   16  C   UNL     1      -7.207   9.489  66.655  1.00  0.00    -0.086 A  
HETATM   17  C   UNL     1      -6.837   8.837  65.247  1.00  0.00    -0.072 C  
HETATM   18  C   UNL     1      -8.183   8.419  64.794  1.00  0.00    -0.160 C  
HETATM   19  N   UNL     1      -9.388   7.968  64.192  1.00  0.00     1.558 NA 
HETATM   20  C   UNL     1      -9.866   8.730  63.043  1.00  0.00     3.148 C  
ENDROOT
BRANCH   1  21
HETATM   21  O   UNL     1      -9.987   8.459  69.102  1.00  0.00    -0.185 OA 
BRANCH  21  22
HETATM   22  C   UNL     1     -10.563   7.648  70.042  1.00  0.00    -0.238 C  
HETATM   23  C   UNL     1     -10.655   7.261  72.512  1.00  0.00    -0.285 C  
HETATM   24  C   UNL     1     -10.560   8.333  71.418  1.00  0.00    -0.223 C  
HETATM   25  O   UNL     1     -10.978   6.508  69.829  1.00  0.00    -0.273 OA 
HETATM   26  H   UNL     1      -9.348   9.501  72.441  1.00  0.00     0.000 HD 
HETATM   27  C   UNL     1     -11.753   9.317  71.486  1.00  0.00    -0.450 C  
HETATM   28  O   UNL     1      -9.350   9.077  71.591  1.00  0.00    -0.265 OA 
BRANCH  23  29
HETATM   29  C   UNL     1      -9.492   6.279  72.465  1.00  0.00    -0.142 C  
HETATM   30  O   UNL     1      -9.462   5.211  71.865  1.00  0.00    -0.143 OA 
BRANCH  29  31
HETATM   31  O   UNL     1      -8.463   6.803  73.201  1.00  0.00    -0.118 OA 
HETATM   32  C   UNL     1      -7.176   6.468  72.686  1.00  0.00    -0.085 C  
ENDBRANCH  29  31
ENDBRANCH  23  29
BRANCH  27  33
HETATM   33  C   UNL     1     -11.945  10.090  72.808  1.00  0.00     2.271 C  
BRANCH  33  34
HETATM   34  C   UNL     1     -11.946  11.620  72.663  1.00  0.00     4.613 C  
HETATM   35  C   UNL     1     -12.233  11.643  70.125  1.00  0.00    -0.367 C  
HETATM   36  O   UNL     1     -14.110  11.764  71.595  1.00  0.00     0.811 OA 
HETATM   37  C   UNL     1     -12.744  12.167  71.463  1.00  0.00    -0.243 C  
HETATM   38  C   UNL     1     -12.701  13.701  71.472  1.00  0.00    -0.420 C  
HETATM   39  H   UNL     1     -14.603  12.101  70.856  1.00  0.00     0.000 HD 
ENDBRANCH  33  34
ENDBRANCH  27  33
ENDBRANCH  21  22
ENDBRANCH   1  21
BRANCH   3  40
HETATM   40  O   UNL     1     -10.513   5.717  68.032  1.00  0.00    -0.200 OA 
HETATM   41  C   UNL     1      -9.404   4.842  67.938  1.00  0.00    -0.133 C  
ENDBRANCH   3  40
TORSDOF 7
ENDMDL
MODEL      217
REMARK 921   NORMALIZED FREE ENERGY PREDICTED BY IDOCK:   31.48 KCAL/MOL
REMARK 922        TOTAL FREE ENERGY PREDICTED BY IDOCK:   42.50 KCAL/MOL
REMARK 923 INTER-LIGAND FREE ENERGY PREDICTED BY IDOCK:   35.42 KCAL/MOL
REMARK 924 INTRA-LIGAND FREE ENERGY PREDICTED BY IDOCK:    7.08 KCAL/MOL
REMARK 927      BINDING AFFINITY PREDICTED BY RF-SCORE:    0.00 PKD
ROOT
HETATM    1  C   UNL     1      -9.697  17.030  69.279  1.00  0.00    -0.083 C  
HETATM    2  O   UNL     1      -6.163  17.803  63.648  1.00  0.00     2.722 OA 
HETATM    3  C   UNL     1     -11.183  16.742  69.266  1.00  0.00    -0.009 C  
HETATM    4  C   UNL     1      -9.529  18.334  68.374  1.00  0.00    -0.336 C  
HETATM    5  C   UNL     1      -5.133  18.652  64.178  1.00  0.00    -0.128 C  
HETATM    6  C   UNL     1     -11.897  17.823  68.952  1.00  0.00     2.956 C  
HETATM    7  C   UNL     1     -11.065  19.019  68.575  1.00  0.00     0.967 C  
HETATM    8  C   UNL     1      -8.682  18.169  66.975  1.00  0.00    -0.263 A  
HETATM    9  C   UNL     1      -7.321  18.565  66.975  1.00  0.00    -0.224 A  
HETATM   10  O   UNL     1      -5.320  18.961  65.582  1.00  0.00    -0.142 OA 
HETATM   11  C   UNL     1      -6.563  18.445  65.807  1.00  0.00    -0.278 A  
HETATM   12  C   UNL     1     -11.131  20.052  69.705  1.00  0.00     1.922 C  
HETATM   13  C   UNL     1      -7.046  17.819  64.684  1.00  0.00     3.666 A  
HETATM   14  C   UNL     1      -8.360  17.444  64.585  1.00  0.00     6.121 A  
HETATM   15  C   UNL     1     -11.695  21.321  69.079  1.00  0.00     3.470 C  
HETATM   16  C   UNL     1      -9.203  17.846  65.635  1.00  0.00     0.581 A  
HETATM   17  C   UNL     1     -10.469  18.623  65.056  1.00  0.00     1.439 C  
HETATM   18  C   UNL     1     -11.084  19.095  66.317  1.00  0.00     0.158 C  
HETATM   19  N   UNL     1     -11.799  19.644  67.414  1.00  0.00     1.234 NA 
HETATM   20  C   UNL     1     -11.731  21.092  67.576  1.00  0.00     5.629 C  
ENDROOT
BRANCH   1  21
HETATM   21  O   UNL     1      -8.907  15.898  68.936  1.00  0.00    -0.195 OA 
BRANCH  21  22
HETATM   22  C   UNL     1      -8.999  14.902  69.870  1.00  0.00     0.364 C  
HETATM   23  C   UNL     1     -10.320  12.854  70.436  1.00  0.00     3.134 C  
HETATM   24  C   UNL     1      -9.728  13.682  69.286  1.00  0.00     0.492 C  
HETATM   25  O   UNL     1      -8.602  14.989  71.033  1.00  0.00     1.830 OA 
HETATM   26  H   UNL     1     -11.235  13.357  68.061  1.00  0.00     0.000 HD 
HETATM   27  C   UNL     1      -8.720  12.853  68.453  1.00  0.00    -0.119 C  
HETATM   28  O   UNL     1     -10.785  14.111  68.422  1.00  0.00    -0.243 OA 
BRANCH  23  29
HETATM   29  C   UNL     1     -11.313  13.648  71.271  1.00  0.00     1.631 C  
HETATM   30  O   UNL     1     -11.370  14.868  71.374  1.00  0.00    -0.304 OA 
BRANCH  29  31
HETATM   31  O   UNL     1     -12.158  12.762  71.885  1.00  0.00     0.585 OA 
HETATM   32  C   UNL     1     -13.535  13.096  71.727  1.00  0.00    -0.335 C  
ENDBRANCH  29  31
ENDBRANCH  23  29
BRANCH  27  33
HETATM   33  C   UNL     1      -9.253  11.559  67.800  1.00  0.00    -0.165 C  
BRANCH  33  34
HETATM   34  C   UNL     1      -9.340  11.603  66.266  1.00  0.00    -0.228 C  
HETATM   35  C   UNL     1      -7.496   9.886  65.849  1.00  0.00    -0.108 C  
HETATM   36  O   UNL     1      -9.793   9.246  65.978  1.00  0.00    -0.277 OA 
HETATM   37  C   UNL     1      -8.932  10.303  65.546  1.00  0.00    -0.173 C  
HETATM   38  C   UNL     1      -9.116  10.474  64.033  1.00  0.00    -0.256 C  
HETATM   39  H   UNL     1      -9.542   8.445  65.534  1.00  0.00     0.000 HD 
ENDBRANCH  33  34
ENDBRANCH  27  33
ENDBRANCH  21  22
ENDBRANCH   1  21
BRANCH   3  40
HETATM   40  O   UNL     1     -11.823  15.553  69.499  1.00  0.00    -0.334 OA 
HETATM   41  C   UNL     1     -13.222  15.525  69.716  1.00  0.00     0.723 C  
ENDBRANCH   3  40
TORSDOF 7
ENDMDL
MODEL      218
REMARK 921   NORMALIZED FREE ENERGY PREDICTED BY IDOCK:   31.61 KCAL/MOL
REMARK 922        TOTAL FREE ENERGY PREDICTED BY IDOCK:   42.68 KCAL/MOL
REMARK 923 INTER-LIGAND FREE ENERGY PREDICTED BY IDOCK:   24.06 KCAL/MOL
REMARK 924 INTRA-LIGAND FREE ENERGY PREDICTED BY IDOCK:   18.62 KCAL/MOL
REMARK 927      BINDING AFFINITY PREDICTED BY RF-SCORE:    0.00 PKD
ROOT
HETATM    1  C   UNL     1      -7.495  14.659  70.396  1.00  0.00     0.690 C  
HETATM    2  O   UNL     1      -9.510  10.877  65.254  1.00  0.00    -0.196 OA 
HETATM    3  C   UNL     1      -7.957  14.404  71.814  1.00  0.00     5.258 C  
HETATM    4  C   UNL     1      -8.841  14.763  69.544  1.00  0.00     0.115 C  
HETATM    5  C   UNL     1      -9.373  11.864  64.219  1.00  0.00     0.206 C  
HETATM    6  C   UNL     1      -9.217  14.794  72.005  1.00  0.00     5.589 C  
HETATM    7  C   UNL     1      -9.906  15.276  70.757  1.00  0.00     0.926 C  
HETATM    8  C   UNL     1      -9.100  13.601  68.410  1.00  0.00    -0.165 A  
HETATM    9  C   UNL     1      -8.777  13.906  67.064  1.00  0.00    -0.215 A  
HETATM   10  O   UNL     1      -8.921  13.148  64.718  1.00  0.00     1.265 OA 
HETATM   11  C   UNL     1      -8.983  12.949  66.066  1.00  0.00     0.288 A  
HETATM   12  C   UNL     1     -10.065  16.798  70.827  1.00  0.00     1.971 C  
HETATM   13  C   UNL     1      -9.356  11.660  66.356  1.00  0.00    -0.213 A  
HETATM   14  C   UNL     1      -9.726  11.292  67.624  1.00  0.00    -0.183 A  
HETATM   15  C   UNL     1     -11.562  17.067  70.727  1.00  0.00     1.159 C  
HETATM   16  C   UNL     1      -9.822  12.327  68.570  1.00  0.00    -0.157 A  
HETATM   17  C   UNL     1     -11.254  12.296  69.271  1.00  0.00    -0.275 C  
HETATM   18  C   UNL     1     -11.185  13.550  70.056  1.00  0.00     0.152 C  
HETATM   19  N   UNL     1     -11.305  14.719  70.854  1.00  0.00    -0.216 NA 
HETATM   20  C   UNL     1     -12.224  15.745  70.372  1.00  0.00    -0.356 C  
ENDROOT
BRANCH   1  21
HETATM   21  O   UNL     1      -6.519  13.724  69.952  1.00  0.00    -0.125 OA 
BRANCH  21  22
HETATM   22  C   UNL     1      -7.008  12.888  68.985  1.00  0.00    -0.058 C  
HETATM   23  C   UNL     1      -7.176  10.465  68.384  1.00  0.00    -0.080 C  
HETATM   24  C   UNL     1      -7.196  11.469  69.545  1.00  0.00     0.070 C  
HETATM   25  O   UNL     1      -7.218  13.212  67.815  1.00  0.00    -0.115 OA 
HETATM   26  H   UNL     1      -6.251  10.282  70.801  1.00  0.00     0.000 HD 
HETATM   27  C   UNL     1      -8.536  11.414  70.318  1.00  0.00     2.914 C  
HETATM   28  O   UNL     1      -6.135  11.158  70.455  1.00  0.00    -0.144 OA 
BRANCH  23  29
HETATM   29  C   UNL     1      -5.868  10.502  67.607  1.00  0.00    -0.044 C  
HETATM   30  O   UNL     1      -5.136   9.549  67.364  1.00  0.00    -0.036 OA 
BRANCH  29  31
HETATM   31  O   UNL     1      -5.650  11.791  67.202  1.00  0.00    -0.092 OA 
HETATM   32  C   UNL     1      -5.949  12.006  65.824  1.00  0.00     2.003 C  
ENDBRANCH  29  31
ENDBRANCH  23  29
BRANCH  27  33
HETATM   33  C   UNL     1      -8.927  10.056  70.939  1.00  0.00     0.976 C  
BRANCH  33  34
HETATM   34  C   UNL     1      -7.754   9.083  71.145  1.00  0.00    -0.143 C  
HETATM   35  C   UNL     1      -9.161   7.170  72.086  1.00  0.00    -0.144 C  
HETATM   36  O   UNL     1      -8.653   7.319  69.758  1.00  0.00    -0.138 OA 
HETATM   37  C   UNL     1      -8.116   7.587  71.055  1.00  0.00    -0.100 C  
HETATM   38  C   UNL     1      -6.849   6.740  71.228  1.00  0.00    -0.062 C  
HETATM   39  H   UNL     1      -8.876   6.397  69.702  1.00  0.00     0.000 HD 
ENDBRANCH  33  34
ENDBRANCH  27  33
ENDBRANCH  21  22
ENDBRANCH   1  21
BRANCH   3  40
HETATM   40  O   UNL     1      -7.266  13.823  72.845  1.00  0.00     3.365 OA 
HETATM   41  C   UNL     1      -5.970  14.280  73.184  1.00  0.00     0.369 C  
ENDBRANCH   3  40
TORSDOF 7
ENDMDL
MODEL      219
REMARK 921   NORMALIZED FREE ENERGY PREDICTED BY IDOCK:   36.91 KCAL/MOL
REMARK 922        TOTAL FREE ENERGY PREDICTED BY IDOCK:   50.15 KCAL/MOL
REMARK 923 INTER-LIGAND FREE ENERGY PREDICTED BY IDOCK:   33.13 KCAL/MOL
REMARK 924 INTRA-LIGAND FREE ENERGY PREDICTED BY IDOCK:   17.02 KCAL/MOL
REMARK 927      BINDING AFFINITY PREDICTED BY RF-SCORE:    0.00 PKD
ROOT
HETATM    1  C   UNL     1     -10.942  17.870  70.835  1.00  0.00     2.393 C  
HETATM    2  O   UNL     1      -8.445  12.922  67.082  1.00  0.00    -0.189 OA 
HETATM    3  C   UNL     1     -11.042  19.293  70.330  1.00  0.00     3.709 C  
HETATM    4  C   UNL     1      -9.416  17.463  70.601  1.00  0.00     3.708 C  
HETATM    5  C   UNL     1      -7.980  12.081  68.150  1.00  0.00    -0.152 C  
HETATM    6  C   UNL     1      -9.854  19.897  70.303  1.00  0.00     0.734 C  
HETATM    7  C   UNL     1      -8.701  18.998  70.660  1.00  0.00     3.113 C  
HETATM    8  C   UNL     1      -9.119  16.262  69.518  1.00  0.00     0.043 A  
HETATM    9  C   UNL     1      -8.902  14.956  70.022  1.00  0.00     0.523 A  
HETATM   10  O   UNL     1      -8.217  12.650  69.463  1.00  0.00     0.858 OA 
HETATM   11  C   UNL     1      -8.644  13.905  69.138  1.00  0.00     0.350 A  
HETATM   12  C   UNL     1      -8.182  19.377  72.051  1.00  0.00     5.068 C  
HETATM   13  C   UNL     1      -8.734  14.056  67.776  1.00  0.00    -0.185 A  
HETATM   14  C   UNL     1      -8.900  15.291  67.205  1.00  0.00    -0.232 A  
HETATM   15  C   UNL     1      -6.717  19.751  71.862  1.00  0.00     0.721 C  
HETATM   16  C   UNL     1      -8.845  16.393  68.077  1.00  0.00    -0.184 A  
HETATM   17  C   UNL     1      -7.774  17.453  67.554  1.00  0.00    -0.205 C  
HETATM   18  C   UNL     1      -7.762  18.393  68.697  1.00  0.00    -0.301 C  
HETATM   19  N   UNL     1      -7.604  19.386  69.700  1.00  0.00    -0.019 NA 
HETATM   20  C   UNL     1      -6.345  19.370  70.438  1.00  0.00    -0.027 C  
ENDROOT
BRANCH   1  21
HETATM   21  O   UNL     1     -11.932  17.011  70.282  1.00  0.00     1.174 OA 
BRANCH  21  22
HETATM   22  C   UNL     1     -11.572  15.693  70.356  1.00  0.00    -0.349 C  
HETATM   23  C   UNL     1     -12.271  13.418  69.583  1.00  0.00    -0.279 C  
HETATM   24  C   UNL     1     -12.186  14.900  69.192  1.00  0.00    -0.159 C  
HETATM   25  O   UNL     1     -10.895  15.199  71.259  1.00  0.00    -0.219 OA 
HETATM   26  H   UNL     1     -13.882  14.898  68.189  1.00  0.00     0.000 HD 
HETATM   27  C   UNL     1     -11.308  15.104  67.934  1.00  0.00    -0.346 C  
HETATM   28  O   UNL     1     -13.502  15.388  68.909  1.00  0.00     2.018 OA 
BRANCH  23  29
HETATM   29  C   UNL     1     -13.129  13.192  70.820  1.00  0.00     0.113 C  
HETATM   30  O   UNL     1     -13.907  12.265  71.009  1.00  0.00     1.031 OA 
BRANCH  29  31
HETATM   31  O   UNL     1     -12.871  14.203  71.708  1.00  0.00    -0.320 OA 
HETATM   32  C   UNL     1     -11.634  14.041  72.400  1.00  0.00     1.573 C  
ENDBRANCH  29  31
ENDBRANCH  23  29
BRANCH  27  33
HETATM   33  C   UNL     1     -11.743  14.361  66.653  1.00  0.00    -0.410 C  
BRANCH  33  34
HETATM   34  C   UNL     1     -11.222  12.919  66.539  1.00  0.00    -0.340 C  
HETATM   35  C   UNL     1     -11.413  12.769  63.997  1.00  0.00    -0.476 C  
HETATM   36  O   UNL     1      -9.382  13.437  65.059  1.00  0.00    -0.231 OA 
HETATM   37  C   UNL     1     -10.513  12.577  65.214  1.00  0.00    -0.287 C  
HETATM   38  C   UNL     1     -10.004  11.130  65.261  1.00  0.00    -0.311 C  
HETATM   39  H   UNL     1      -8.945  13.227  64.243  1.00  0.00     0.000 HD 
ENDBRANCH  33  34
ENDBRANCH  27  33
ENDBRANCH  21  22
ENDBRANCH   1  21
BRANCH   3  40
HETATM   40  O   UNL     1     -12.153  19.968  69.898  1.00  0.00     5.994 OA 
HETATM   41  C   UNL     1     -12.080  21.352  69.603  1.00  0.00     5.232 C  
ENDBRANCH   3  40
TORSDOF 7
ENDMDL
MODEL      220
REMARK 921   NORMALIZED FREE ENERGY PREDICTED BY IDOCK:   42.34 KCAL/MOL
REMARK 922        TOTAL FREE ENERGY PREDICTED BY IDOCK:   57.80 KCAL/MOL
REMARK 923 INTER-LIGAND FREE ENERGY PREDICTED BY IDOCK:   53.83 KCAL/MOL
REMARK 924 INTRA-LIGAND FREE ENERGY PREDICTED BY IDOCK:    3.97 KCAL/MOL
REMARK 927      BINDING AFFINITY PREDICTED BY RF-SCORE:    0.00 PKD
ROOT
HETATM    1  C   UNL     1      -9.618  14.292  68.315  1.00  0.00    -0.221 C  
HETATM    2  O   UNL     1      -7.592  20.298  66.167  1.00  0.00    -0.271 OA 
HETATM    3  C   UNL     1     -10.871  14.112  69.144  1.00  0.00    -0.229 C  
HETATM    4  C   UNL     1      -8.773  15.400  69.093  1.00  0.00    -0.242 C  
HETATM    5  C   UNL     1      -6.187  20.011  66.078  1.00  0.00    -0.190 C  
HETATM    6  C   UNL     1     -10.698  14.518  70.402  1.00  0.00     0.258 C  
HETATM    7  C   UNL     1      -9.361  15.156  70.663  1.00  0.00     1.353 C  
HETATM    8  C   UNL     1      -8.534  16.834  68.325  1.00  0.00    -0.222 A  
HETATM    9  C   UNL     1      -7.299  17.031  67.659  1.00  0.00    -0.176 A  
HETATM   10  O   UNL     1      -5.858  18.660  66.489  1.00  0.00    -0.148 OA 
HETATM   11  C   UNL     1      -7.052  18.236  66.996  1.00  0.00    -0.196 A  
HETATM   12  C   UNL     1      -8.502  14.199  71.495  1.00  0.00     6.599 C  
HETATM   13  C   UNL     1      -8.022  19.195  66.837  1.00  0.00    -0.259 A  
HETATM   14  C   UNL     1      -9.228  19.103  67.481  1.00  0.00    -0.344 A  
HETATM   15  C   UNL     1      -8.150  14.955  72.771  1.00  0.00     7.595 C  
HETATM   16  C   UNL     1      -9.364  18.049  68.401  1.00  0.00    -0.306 A  
HETATM   17  C   UNL     1      -9.838  18.613  69.815  1.00  0.00     0.555 C  
HETATM   18  C   UNL     1      -9.727  17.385  70.635  1.00  0.00     3.132 C  
HETATM   19  N   UNL     1      -9.665  16.321  71.573  1.00  0.00     3.796 NA 
HETATM   20  C   UNL     1      -8.601  16.393  72.569  1.00  0.00    14.418 C  
ENDROOT
BRANCH   1  21
HETATM   21  O   UNL     1      -9.890  14.532  66.940  1.00  0.00    -0.249 OA 
BRANCH  21  22
HETATM   22  C   UNL     1      -9.086  13.790  66.118  1.00  0.00     0.109 C  
HETATM   23  C   UNL     1      -7.106  12.260  66.163  1.00  0.00     1.358 C  
HETATM   24  C   UNL     1      -8.376  12.684  66.914  1.00  0.00    -0.075 C  
HETATM   25  O   UNL     1      -8.913  14.008  64.918  1.00  0.00     1.562 OA 
HETATM   26  H   UNL     1      -7.577  12.487  68.704  1.00  0.00     0.000 HD 
HETATM   27  C   UNL     1      -9.351  11.495  67.091  1.00  0.00    -0.177 C  
HETATM   28  O   UNL     1      -8.016  13.170  68.211  1.00  0.00    -0.136 OA 
BRANCH  23  29
HETATM   29  C   UNL     1      -6.131  13.414  65.975  1.00  0.00     5.549 C  
HETATM   30  O   UNL     1      -5.574  13.736  64.931  1.00  0.00    12.328 OA 
BRANCH  29  31
HETATM   31  O   UNL     1      -5.992  14.054  67.177  1.00  0.00    -0.201 OA 
HETATM   32  C   UNL     1      -5.240  13.304  68.129  1.00  0.00    -0.101 C  
ENDBRANCH  29  31
ENDBRANCH  23  29
BRANCH  27  33
HETATM   33  C   UNL     1      -8.815  10.260  67.847  1.00  0.00    -0.122 C  
BRANCH  33  34
HETATM   34  C   UNL     1      -8.371   9.098  66.943  1.00  0.00    -0.119 C  
HETATM   35  C   UNL     1      -8.262   7.348  68.799  1.00  0.00    -0.129 C  
HETATM   36  O   UNL     1     -10.228   7.646  67.478  1.00  0.00    -0.187 OA 
HETATM   37  C   UNL     1      -8.800   7.696  67.415  1.00  0.00    -0.124 C  
HETATM   38  C   UNL     1      -8.336   6.646  66.397  1.00  0.00    -0.121 C  
HETATM   39  H   UNL     1     -10.493   6.782  67.769  1.00  0.00     0.000 HD 
ENDBRANCH  33  34
ENDBRANCH  27  33
ENDBRANCH  21  22
ENDBRANCH   1  21
BRANCH   3  40
HETATM   40  O   UNL     1     -12.094  13.635  68.750  1.00  0.00    -0.355 OA 
HETATM   41  C   UNL     1     -12.181  12.616  67.770  1.00  0.00     0.122 C  
ENDBRANCH   3  40
TORSDOF 7
ENDMDL
MODEL      221
REMARK 921   NORMALIZED FREE ENERGY PREDICTED BY IDOCK:   42.37 KCAL/MOL
REMARK 922        TOTAL FREE ENERGY PREDICTED BY IDOCK:   57.85 KCAL/MOL
REMARK 923 INTER-LIGAND FREE ENERGY PREDICTED BY IDOCK:   54.76 KCAL/MOL
REMARK 924 INTRA-LIGAND FREE ENERGY PREDICTED BY IDOCK:    3.08 KCAL/MOL
REMARK 927      BINDING AFFINITY PREDICTED BY RF-SCORE:    0.00 PKD
ROOT
HETATM    1  C   UNL     1     -11.587  11.742  66.857  1.00  0.00    -0.234 C  
HETATM    2  O   UNL     1      -9.908  17.491  69.846  1.00  0.00     0.415 OA 
HETATM    3  C   UNL     1     -12.983  11.164  66.947  1.00  0.00     6.791 C  
HETATM    4  C   UNL     1     -11.153  11.993  68.372  1.00  0.00    -0.290 C  
HETATM    5  C   UNL     1      -8.507  17.220  70.018  1.00  0.00     2.048 C  
HETATM    6  C   UNL     1     -13.222  10.627  68.143  1.00  0.00     6.643 C  
HETATM    7  C   UNL     1     -12.111  10.826  69.139  1.00  0.00    -0.156 C  
HETATM    8  C   UNL     1     -10.915  13.552  68.834  1.00  0.00    -0.286 A  
HETATM    9  C   UNL     1      -9.584  14.038  68.864  1.00  0.00    -0.016 A  
HETATM   10  O   UNL     1      -8.119  15.912  69.529  1.00  0.00    -0.220 OA 
HETATM   11  C   UNL     1      -9.335  15.357  69.253  1.00  0.00    -0.254 A  
HETATM   12  C   UNL     1     -11.391   9.492  69.359  1.00  0.00     0.018 C  
HETATM   13  C   UNL     1     -10.348  16.258  69.473  1.00  0.00    -0.284 A  
HETATM   14  C   UNL     1     -11.660  15.863  69.504  1.00  0.00    -0.337 A  
HETATM   15  C   UNL     1     -11.515   9.190  70.848  1.00  0.00    -0.357 C  
HETATM   16  C   UNL     1     -11.896  14.480  69.426  1.00  0.00    -0.367 A  
HETATM   17  C   UNL     1     -12.815  14.011  70.641  1.00  0.00    -0.320 C  
HETATM   18  C   UNL     1     -12.764  12.543  70.453  1.00  0.00     0.097 C  
HETATM   19  N   UNL     1     -12.815  11.124  70.440  1.00  0.00    -0.165 NA 
HETATM   20  C   UNL     1     -12.088  10.437  71.503  1.00  0.00    -0.270 C  
ENDROOT
BRANCH   1  21
HETATM   21  O   UNL     1     -11.499  12.849  65.967  1.00  0.00    -0.310 OA 
BRANCH  21  22
HETATM   22  C   UNL     1     -11.045  12.482  64.730  1.00  0.00    -0.301 C  
HETATM   23  C   UNL     1      -9.008  11.619  63.561  1.00  0.00     0.236 C  
HETATM   24  C   UNL     1      -9.827  11.553  64.857  1.00  0.00    -0.252 C  
HETATM   25  O   UNL     1     -11.512  12.880  63.662  1.00  0.00    -0.439 OA 
HETATM   26  H   UNL     1      -8.254  11.397  66.033  1.00  0.00     0.000 HD 
HETATM   27  C   UNL     1     -10.326  10.115  65.139  1.00  0.00    -0.109 C  
HETATM   28  O   UNL     1      -9.007  11.971  65.954  1.00  0.00    -0.110 OA 
BRANCH  23  29
HETATM   29  C   UNL     1      -8.507  13.025  63.261  1.00  0.00     6.723 C  
HETATM   30  O   UNL     1      -7.651  13.336  62.441  1.00  0.00     7.535 OA 
BRANCH  29  31
HETATM   31  O   UNL     1      -9.195  13.901  64.058  1.00  0.00     2.206 OA 
HETATM   32  C   UNL     1      -8.347  14.691  64.888  1.00  0.00     6.351 C  
ENDBRANCH  29  31
ENDBRANCH  23  29
BRANCH  27  33
HETATM   33  C   UNL     1      -9.248   9.018  65.273  1.00  0.00    -0.205 C  
BRANCH  33  34
HETATM   34  C   UNL     1      -9.426   7.824  64.320  1.00  0.00     2.361 C  
HETATM   35  C   UNL     1      -7.283   8.227  62.991  1.00  0.00    -0.097 C  
HETATM   36  O   UNL     1      -7.329   6.756  64.871  1.00  0.00    -0.076 OA 
HETATM   37  C   UNL     1      -8.119   7.218  63.773  1.00  0.00    -0.011 C  
HETATM   38  C   UNL     1      -8.444   6.012  62.883  1.00  0.00     0.079 C  
HETATM   39  H   UNL     1      -6.523   6.382  64.534  1.00  0.00     0.000 HD 
ENDBRANCH  33  34
ENDBRANCH  27  33
ENDBRANCH  21  22
ENDBRANCH   1  21
BRANCH   3  40
HETATM   40  O   UNL     1     -13.970  11.165  65.996  1.00  0.00    10.864 OA 
HETATM   41  C   UNL     1     -13.675  10.801  64.660  1.00  0.00     7.861 C  
ENDBRANCH   3  40
TORSDOF 7
ENDMDL
MODEL      222
REMARK 921   NORMALIZED FREE ENERGY PREDICTED BY IDOCK:   44.98 KCAL/MOL
REMARK 922        TOTAL FREE ENERGY PREDICTED BY IDOCK:   61.52 KCAL/MOL
REMARK 923 INTER-LIGAND FREE ENERGY PREDICTED BY IDOCK:   47.03 KCAL/MOL
REMARK 924 INTRA-LIGAND FREE ENERGY PREDICTED BY IDOCK:   14.49 KCAL/MOL
REMARK 927      BINDING AFFINITY PREDICTED BY RF-SCORE:    0.00 PKD
ROOT
HETATM    1  C   UNL     1     -10.948  11.782  67.303  1.00  0.00    -0.267 C  
HETATM    2  O   UNL     1      -6.806  16.860  65.943  1.00  0.00     0.020 OA 
HETATM    3  C   UNL     1     -10.626  10.353  66.920  1.00  0.00    -0.230 C  
HETATM    4  C   UNL     1     -10.791  12.610  65.948  1.00  0.00    -0.300 C  
HETATM    5  C   UNL     1      -7.791  17.904  65.878  1.00  0.00    -0.062 C  
HETATM    6  C   UNL     1     -10.777  10.143  65.613  1.00  0.00     0.172 C  
HETATM    7  C   UNL     1     -11.109  11.382  64.826  1.00  0.00    -0.188 C  
HETATM    8  C   UNL     1      -9.591  13.731  65.891  1.00  0.00    -0.152 A  
HETATM    9  C   UNL     1      -9.937  15.085  66.130  1.00  0.00    -0.313 A  
HETATM   10  O   UNL     1      -9.142  17.423  66.091  1.00  0.00    -0.437 OA 
HETATM   11  C   UNL     1      -8.948  16.072  66.089  1.00  0.00    -0.345 A  
HETATM   12  C   UNL     1     -12.576  11.319  64.387  1.00  0.00     1.270 C  
HETATM   13  C   UNL     1      -7.615  15.766  65.968  1.00  0.00     1.477 A  
HETATM   14  C   UNL     1      -7.197  14.490  65.693  1.00  0.00     7.228 A  
HETATM   15  C   UNL     1     -12.561  11.394  62.865  1.00  0.00     0.760 C  
HETATM   16  C   UNL     1      -8.206  13.550  65.421  1.00  0.00     3.763 A  
HETATM   17  C   UNL     1      -7.917  12.822  64.032  1.00  0.00     6.772 C  
HETATM   18  C   UNL     1      -9.169  12.048  63.879  1.00  0.00     0.378 C  
HETATM   19  N   UNL     1     -10.303  11.256  63.557  1.00  0.00    -0.380 NA 
HETATM   20  C   UNL     1     -11.136  11.728  62.455  1.00  0.00     1.334 C  
ENDROOT
BRANCH   1  21
HETATM   21  O   UNL     1     -10.207  12.237  68.429  1.00  0.00    -0.212 OA 
BRANCH  21  22
HETATM   22  C   UNL     1      -8.856  12.167  68.220  1.00  0.00    -0.182 C  
HETATM   23  C   UNL     1      -6.675  12.907  69.197  1.00  0.00    -0.086 C  
HETATM   24  C   UNL     1      -8.094  12.425  69.529  1.00  0.00     1.181 C  
HETATM   25  O   UNL     1      -8.322  11.977  67.126  1.00  0.00    -0.167 OA 
HETATM   26  H   UNL     1      -8.295  13.590  71.105  1.00  0.00     0.000 HD 
HETATM   27  C   UNL     1      -8.068  11.116  70.355  1.00  0.00     2.435 C  
HETATM   28  O   UNL     1      -8.766  13.430  70.295  1.00  0.00     3.113 OA 
BRANCH  23  29
HETATM   29  C   UNL     1      -6.674  14.193  68.383  1.00  0.00    -0.105 C  
HETATM   30  O   UNL     1      -7.064  14.326  67.228  1.00  0.00    -0.155 OA 
BRANCH  29  31
HETATM   31  O   UNL     1      -6.176  15.195  69.171  1.00  0.00    -0.100 OA 
HETATM   32  C   UNL     1      -7.108  16.251  69.395  1.00  0.00    -0.204 C  
ENDBRANCH  29  31
ENDBRANCH  23  29
BRANCH  27  33
HETATM   33  C   UNL     1      -7.319  11.158  71.704  1.00  0.00     5.746 C  
BRANCH  33  34
HETATM   34  C   UNL     1      -6.629  12.497  72.014  1.00  0.00     4.613 C  
HETATM   35  C   UNL     1      -7.581  12.744  74.371  1.00  0.00     7.778 C  
HETATM   36  O   UNL     1      -5.459  11.721  73.982  1.00  0.00     0.043 OA 
HETATM   37  C   UNL     1      -6.326  12.752  73.503  1.00  0.00     3.542 C  
HETATM   38  C   UNL     1      -5.596  14.093  73.657  1.00  0.00    -0.226 C  
HETATM   39  H   UNL     1      -5.272  11.878  74.900  1.00  0.00     0.000 HD 
ENDBRANCH  33  34
ENDBRANCH  27  33
ENDBRANCH  21  22
ENDBRANCH   1  21
BRANCH   3  40
HETATM   40  O   UNL     1     -10.194   9.331  67.723  1.00  0.00    -0.191 OA 
HETATM   41  C   UNL     1     -10.419   7.984  67.350  1.00  0.00    -0.287 C  
ENDBRANCH   3  40
TORSDOF 7
ENDMDL
MODEL      223
REMARK 921   NORMALIZED FREE ENERGY PREDICTED BY IDOCK:   45.32 KCAL/MOL
REMARK 922        TOTAL FREE ENERGY PREDICTED BY IDOCK:   62.00 KCAL/MOL
REMARK 923 INTER-LIGAND FREE ENERGY PREDICTED BY IDOCK:   50.52 KCAL/MOL
REMARK 924 INTRA-LIGAND FREE ENERGY PREDICTED BY IDOCK:   11.49 KCAL/MOL
REMARK 927      BINDING AFFINITY PREDICTED BY RF-SCORE:    0.00 PKD
ROOT
HETATM    1  C   UNL     1     -10.741   8.150  68.653  1.00  0.00    -0.025 C  
HETATM    2  O   UNL     1      -5.145  11.635  67.496  1.00  0.00    -0.048 OA 
HETATM    3  C   UNL     1     -10.923   6.729  68.163  1.00  0.00    -0.201 C  
HETATM    4  C   UNL     1     -10.329   8.978  67.353  1.00  0.00    -0.335 C  
HETATM    5  C   UNL     1      -5.722  12.950  67.535  1.00  0.00    -0.099 C  
HETATM    6  C   UNL     1     -11.149   6.681  66.851  1.00  0.00    -0.319 C  
HETATM    7  C   UNL     1     -11.053   8.015  66.162  1.00  0.00     2.627 C  
HETATM    8  C   UNL     1      -8.821   9.633  67.330  1.00  0.00    -0.139 A  
HETATM    9  C   UNL     1      -8.689  11.002  67.671  1.00  0.00    -0.128 A  
HETATM   10  O   UNL     1      -7.154  12.934  67.763  1.00  0.00    -0.106 OA 
HETATM   11  C   UNL     1      -7.426  11.601  67.662  1.00  0.00    -0.116 A  
HETATM   12  C   UNL     1     -12.459   8.481  65.771  1.00  0.00    14.299 C  
HETATM   13  C   UNL     1      -6.275  10.876  67.474  1.00  0.00    -0.053 A  
HETATM   14  C   UNL     1      -6.314   9.559  67.100  1.00  0.00    -0.065 A  
HETATM   15  C   UNL     1     -12.436   8.661  64.258  1.00  0.00    20.605 C  
HETATM   16  C   UNL     1      -7.583   9.034  66.800  1.00  0.00    -0.090 A  
HETATM   17  C   UNL     1      -7.570   8.358  65.356  1.00  0.00    -0.092 C  
HETATM   18  C   UNL     1      -9.012   8.062  65.195  1.00  0.00     0.213 C  
HETATM   19  N   UNL     1     -10.349   7.722  64.860  1.00  0.00     4.176 NA 
HETATM   20  C   UNL     1     -10.985   8.528  63.822  1.00  0.00    12.041 C  
ENDROOT
BRANCH   1  21
HETATM   21  O   UNL     1      -9.879   8.244  69.781  1.00  0.00    -0.182 OA 
BRANCH  21  22
HETATM   22  C   UNL     1      -8.598   7.865  69.483  1.00  0.00    -0.137 C  
HETATM   23  C   UNL     1      -6.359   7.508  70.541  1.00  0.00    -0.038 C  
HETATM   24  C   UNL     1      -7.874   7.376  70.748  1.00  0.00    -0.096 C  
HETATM   25  O   UNL     1      -8.079   7.953  68.370  1.00  0.00    -0.120 OA 
HETATM   26  H   UNL     1      -7.819   7.866  72.654  1.00  0.00     0.000 HD 
HETATM   27  C   UNL     1      -8.282   5.907  71.017  1.00  0.00    -0.122 C  
HETATM   28  O   UNL     1      -8.266   8.169  71.873  1.00  0.00    -0.117 OA 
BRANCH  23  29
HETATM   29  C   UNL     1      -5.932   8.944  70.272  1.00  0.00    -0.030 C  
HETATM   30  O   UNL     1      -5.808   9.476  69.174  1.00  0.00    -0.036 OA 
BRANCH  29  31
HETATM   31  O   UNL     1      -5.725   9.559  71.477  1.00  0.00    -0.071 OA 
HETATM   32  C   UNL     1      -5.978  10.962  71.444  1.00  0.00     0.467 C  
ENDBRANCH  29  31
ENDBRANCH  23  29
BRANCH  27  33
HETATM   33  C   UNL     1      -7.636   5.217  72.237  1.00  0.00    -0.096 C  
BRANCH  33  34
HETATM   34  C   UNL     1      -8.633   4.719  73.295  1.00  0.00    -0.102 C  
HETATM   35  C   UNL     1     -10.708   4.929  71.821  1.00  0.00    -0.096 C  
HETATM   36  O   UNL     1      -9.490   2.881  71.979  1.00  0.00    -0.106 OA 
HETATM   37  C   UNL     1      -9.891   4.024  72.739  1.00  0.00    -0.147 C  
HETATM   38  C   UNL     1     -10.766   3.536  73.901  1.00  0.00    -0.298 C  
HETATM   39  H   UNL     1     -10.266   2.452  71.636  1.00  0.00     0.000 HD 
ENDBRANCH  33  34
ENDBRANCH  27  33
ENDBRANCH  21  22
ENDBRANCH   1  21
BRANCH   3  40
HETATM   40  O   UNL     1     -10.852   5.564  68.881  1.00  0.00    -0.211 OA 
HETATM   41  C   UNL     1      -9.907   4.567  68.534  1.00  0.00    -0.089 C  
ENDBRANCH   3  40
TORSDOF 7
ENDMDL
MODEL      224
REMARK 921   NORMALIZED FREE ENERGY PREDICTED BY IDOCK:   46.60 KCAL/MOL
REMARK 922        TOTAL FREE ENERGY PREDICTED BY IDOCK:   63.81 KCAL/MOL
REMARK 923 INTER-LIGAND FREE ENERGY PREDICTED BY IDOCK:   15.90 KCAL/MOL
REMARK 924 INTRA-LIGAND FREE ENERGY PREDICTED BY IDOCK:   47.91 KCAL/MOL
REMARK 927      BINDING AFFINITY PREDICTED BY RF-SCORE:    0.00 PKD
ROOT
HETATM    1  C   UNL     1      -7.692  13.474  70.150  1.00  0.00     1.884 C  
HETATM    2  O   UNL     1     -11.153  15.065  64.646  1.00  0.00    -0.372 OA 
HETATM    3  C   UNL     1      -6.203  13.203  70.116  1.00  0.00    -0.039 C  
HETATM    4  C   UNL     1      -8.306  12.506  69.039  1.00  0.00     0.408 C  
HETATM    5  C   UNL     1     -12.433  14.565  65.068  1.00  0.00    -0.301 C  
HETATM    6  C   UNL     1      -5.926  12.014  69.583  1.00  0.00    -0.120 C  
HETATM    7  C   UNL     1      -7.129  11.288  69.041  1.00  0.00    -0.116 C  
HETATM    8  C   UNL     1      -9.007  13.216  67.733  1.00  0.00    -0.194 A  
HETATM    9  C   UNL     1     -10.418  13.347  67.728  1.00  0.00    -0.246 A  
HETATM   10  O   UNL     1     -12.398  13.960  66.385  1.00  0.00    -0.448 OA 
HETATM   11  C   UNL     1     -11.057  13.942  66.637  1.00  0.00    -0.306 A  
HETATM   12  C   UNL     1      -7.465  10.115  69.967  1.00  0.00    -0.171 C  
HETATM   13  C   UNL     1     -10.358  14.544  65.620  1.00  0.00    -0.349 A  
HETATM   14  C   UNL     1      -8.995  14.430  65.526  1.00  0.00     1.071 A  
HETATM   15  C   UNL     1      -7.389   8.863  69.101  1.00  0.00    -0.072 C  
HETATM   16  C   UNL     1      -8.377  13.567  66.447  1.00  0.00     0.638 A  
HETATM   17  C   UNL     1      -7.470  12.504  65.680  1.00  0.00     3.045 C  
HETATM   18  C   UNL     1      -7.094  11.622  66.808  1.00  0.00    -0.083 C  
HETATM   19  N   UNL     1      -6.649  10.662  67.755  1.00  0.00    -0.060 NA 
HETATM   20  C   UNL     1      -7.243   9.332  67.662  1.00  0.00    -0.083 C  
ENDROOT
BRANCH   1  21
HETATM   21  O   UNL     1      -8.009  14.857  70.050  1.00  0.00     0.046 OA 
BRANCH  21  22
HETATM   22  C   UNL     1      -7.338  15.467  69.025  1.00  0.00    -0.159 C  
HETATM   23  C   UNL     1      -7.643  17.158  67.206  1.00  0.00    -0.192 C  
HETATM   24  C   UNL     1      -8.017  16.793  68.650  1.00  0.00    -0.246 C  
HETATM   25  O   UNL     1      -6.358  14.995  68.446  1.00  0.00    -0.094 OA 
HETATM   26  H   UNL     1      -9.858  17.479  68.518  1.00  0.00     0.000 HD 
HETATM   27  C   UNL     1      -7.557  17.885  69.646  1.00  0.00     0.587 C  
HETATM   28  O   UNL     1      -9.438  16.660  68.749  1.00  0.00    -0.242 OA 
BRANCH  23  29
HETATM   29  C   UNL     1      -8.084  16.097  66.207  1.00  0.00    -0.175 C  
HETATM   30  O   UNL     1      -7.794  14.906  66.232  1.00  0.00     0.557 OA 
BRANCH  29  31
HETATM   31  O   UNL     1      -8.884  16.699  65.273  1.00  0.00     0.209 OA 
HETATM   32  C   UNL     1      -8.805  16.086  63.988  1.00  0.00    10.520 C  
ENDBRANCH  29  31
ENDBRANCH  23  29
BRANCH  27  33
HETATM   33  C   UNL     1      -8.109  19.310  69.422  1.00  0.00     0.032 C  
BRANCH  33  34
HETATM   34  C   UNL     1      -9.621  19.377  69.154  1.00  0.00    -0.368 C  
HETATM   35  C   UNL     1      -9.627  17.671  67.253  1.00  0.00    -0.271 C  
HETATM   36  O   UNL     1     -10.039  17.023  69.513  1.00  0.00    -0.180 OA 
HETATM   37  C   UNL     1     -10.246  18.089  68.583  1.00  0.00    -0.377 C  
HETATM   38  C   UNL     1     -11.759  18.282  68.414  1.00  0.00     2.363 C  
HETATM   39  H   UNL     1     -10.425  16.229  69.162  1.00  0.00     0.000 HD 
ENDBRANCH  33  34
ENDBRANCH  27  33
ENDBRANCH  21  22
ENDBRANCH   1  21
BRANCH   3  40
HETATM   40  O   UNL     1      -5.179  14.016  70.524  1.00  0.00    -0.096 OA 
HETATM   41  C   UNL     1      -5.412  15.392  70.765  1.00  0.00    -0.101 C  
ENDBRANCH   3  40
TORSDOF 7
ENDMDL
MODEL      225
REMARK 921   NORMALIZED FREE ENERGY PREDICTED BY IDOCK:   53.92 KCAL/MOL
REMARK 922        TOTAL FREE ENERGY PREDICTED BY IDOCK:   74.12 KCAL/MOL
REMARK 923 INTER-LIGAND FREE ENERGY PREDICTED BY IDOCK:   53.36 KCAL/MOL
REMARK 924 INTRA-LIGAND FREE ENERGY PREDICTED BY IDOCK:   20.76 KCAL/MOL
REMARK 927      BINDING AFFINITY PREDICTED BY RF-SCORE:    0.00 PKD
ROOT
HETATM    1  C   UNL     1     -11.970  14.730  68.264  1.00  0.00    -0.223 C  
HETATM    2  O   UNL     1     -11.008  11.686  62.381  1.00  0.00     0.896 OA 
HETATM    3  C   UNL     1     -10.966  15.705  68.841  1.00  0.00    -0.266 C  
HETATM    4  C   UNL     1     -11.122  13.417  67.943  1.00  0.00    -0.289 C  
HETATM    5  C   UNL     1     -11.790  10.509  62.639  1.00  0.00     3.368 C  
HETATM    6  C   UNL     1      -9.891  15.084  69.324  1.00  0.00    -0.200 C  
HETATM    7  C   UNL     1      -9.877  13.599  69.077  1.00  0.00     0.145 C  
HETATM    8  C   UNL     1     -10.981  12.984  66.364  1.00  0.00    -0.301 A  
HETATM    9  C   UNL     1     -11.849  11.976  65.874  1.00  0.00    -0.232 A  
HETATM   10  O   UNL     1     -12.371  10.495  63.968  1.00  0.00     2.979 OA 
HETATM   11  C   UNL     1     -11.762  11.575  64.537  1.00  0.00    -0.011 A  
HETATM   12  C   UNL     1     -10.141  12.868  70.398  1.00  0.00     3.829 C  
HETATM   13  C   UNL     1     -10.961  12.223  63.630  1.00  0.00    -0.471 A  
HETATM   14  C   UNL     1     -10.062  13.179  64.027  1.00  0.00     0.105 A  
HETATM   15  C   UNL     1      -8.928  11.975  70.631  1.00  0.00     7.046 C  
HETATM   16  C   UNL     1      -9.921  13.365  65.413  1.00  0.00    -0.211 A  
HETATM   17  C   UNL     1      -8.386  13.246  65.829  1.00  0.00     1.935 C  
HETATM   18  C   UNL     1      -8.514  13.284  67.303  1.00  0.00    -0.201 C  
HETATM   19  N   UNL     1      -8.444  13.285  68.722  1.00  0.00     0.036 NA 
HETATM   20  C   UNL     1      -8.099  12.018  69.358  1.00  0.00     0.732 C  
ENDROOT
BRANCH   1  21
HETATM   21  O   UNL     1     -12.734  15.283  67.198  1.00  0.00     1.022 OA 
BRANCH  21  22
HETATM   22  C   UNL     1     -12.024  15.338  66.029  1.00  0.00     0.327 C  
HETATM   23  C   UNL     1     -10.643  16.895  64.640  1.00  0.00     0.701 C  
HETATM   24  C   UNL     1     -10.999  16.482  66.075  1.00  0.00     0.057 C  
HETATM   25  O   UNL     1     -12.215  14.608  65.055  1.00  0.00    -0.381 OA 
HETATM   26  H   UNL     1     -10.920  18.314  66.794  1.00  0.00     0.000 HD 
HETATM   27  C   UNL     1      -9.750  15.999  66.851  1.00  0.00    -0.244 C  
HETATM   28  O   UNL     1     -11.553  17.607  66.765  1.00  0.00     1.026 OA 
BRANCH  23  29
HETATM   29  C   UNL     1     -11.857  17.372  63.856  1.00  0.00     4.840 C  
HETATM   30  O   UNL     1     -12.800  16.685  63.480  1.00  0.00     1.710 OA 
BRANCH  29  31
HETATM   31  O   UNL     1     -11.728  18.720  63.651  1.00  0.00     6.452 OA 
HETATM   32  C   UNL     1     -12.509  19.503  64.551  1.00  0.00    10.146 C  
ENDBRANCH  29  31
ENDBRANCH  23  29
BRANCH  27  33
HETATM   33  C   UNL     1      -8.582  17.000  66.985  1.00  0.00    -0.232 C  
BRANCH  33  34
HETATM   34  C   UNL     1      -7.839  17.298  65.673  1.00  0.00     0.521 C  
HETATM   35  C   UNL     1      -5.583  17.803  66.758  1.00  0.00    -0.189 C  
HETATM   36  O   UNL     1      -6.129  15.616  65.973  1.00  0.00     1.865 OA 
HETATM   37  C   UNL     1      -6.326  17.004  65.692  1.00  0.00     1.087 C  
HETATM   38  C   UNL     1      -5.727  17.297  64.310  1.00  0.00     3.803 C  
HETATM   39  H   UNL     1      -5.196  15.434  65.984  1.00  0.00     0.000 HD 
ENDBRANCH  33  34
ENDBRANCH  27  33
ENDBRANCH  21  22
ENDBRANCH   1  21
BRANCH   3  40
HETATM   40  O   UNL     1     -11.034  17.072  68.886  1.00  0.00    -0.269 OA 
HETATM   41  C   UNL     1     -11.971  17.769  68.084  1.00  0.00     2.447 C  
ENDBRANCH   3  40
TORSDOF 7
ENDMDL
MODEL      226
REMARK 921   NORMALIZED FREE ENERGY PREDICTED BY IDOCK:   54.91 KCAL/MOL
REMARK 922        TOTAL FREE ENERGY PREDICTED BY IDOCK:   75.52 KCAL/MOL
REMARK 923 INTER-LIGAND FREE ENERGY PREDICTED BY IDOCK:   15.83 KCAL/MOL
REMARK 924 INTRA-LIGAND FREE ENERGY PREDICTED BY IDOCK:   59.69 KCAL/MOL
REMARK 927      BINDING AFFINITY PREDICTED BY RF-SCORE:    0.00 PKD
ROOT
HETATM    1  C   UNL     1      -8.990  14.923  67.662  1.00  0.00    -0.180 C  
HETATM    2  O   UNL     1      -7.927  20.132  63.595  1.00  0.00     2.723 OA 
HETATM    3  C   UNL     1      -9.771  15.054  68.952  1.00  0.00    -0.224 C  
HETATM    4  C   UNL     1      -7.864  16.052  67.754  1.00  0.00    -0.155 C  
HETATM    5  C   UNL     1      -6.704  19.669  62.999  1.00  0.00     2.378 C  
HETATM    6  C   UNL     1      -9.065  15.667  69.901  1.00  0.00     0.123 C  
HETATM    7  C   UNL     1      -7.728  16.181  69.437  1.00  0.00    -0.145 C  
HETATM    8  C   UNL     1      -7.941  17.275  66.659  1.00  0.00    -0.296 A  
HETATM    9  C   UNL     1      -7.106  17.195  65.517  1.00  0.00     1.009 A  
HETATM   10  O   UNL     1      -6.265  18.392  63.526  1.00  0.00     1.024 OA 
HETATM   11  C   UNL     1      -7.137  18.215  64.561  1.00  0.00     3.389 A  
HETATM   12  C   UNL     1      -6.620  15.305  70.030  1.00  0.00    -0.125 C  
HETATM   13  C   UNL     1      -8.057  19.234  64.609  1.00  0.00     3.309 A  
HETATM   14  C   UNL     1      -8.872  19.409  65.696  1.00  0.00     0.416 A  
HETATM   15  C   UNL     1      -5.736  16.242  70.844  1.00  0.00     0.190 C  
HETATM   16  C   UNL     1      -8.628  18.572  66.799  1.00  0.00    -0.290 A  
HETATM   17  C   UNL     1      -8.434  19.446  68.119  1.00  0.00    -0.367 C  
HETATM   18  C   UNL     1      -8.014  18.392  69.069  1.00  0.00    -0.091 C  
HETATM   19  N   UNL     1      -7.583  17.525  70.108  1.00  0.00     1.603 NA 
HETATM   20  C   UNL     1      -6.193  17.659  70.532  1.00  0.00     0.583 C  
ENDROOT
BRANCH   1  21
HETATM   21  O   UNL     1      -9.819  14.929  66.506  1.00  0.00    -0.244 OA 
BRANCH  21  22
HETATM   22  C   UNL     1     -10.876  14.068  66.625  1.00  0.00    -0.297 C  
HETATM   23  C   UNL     1     -11.658  12.087  67.938  1.00  0.00    -0.405 C  
HETATM   24  C   UNL     1     -10.878  13.407  68.013  1.00  0.00    -0.247 C  
HETATM   25  O   UNL     1     -11.683  13.816  65.729  1.00  0.00    -0.327 OA 
HETATM   26  H   UNL     1      -9.535  12.729  69.285  1.00  0.00     0.000 HD 
HETATM   27  C   UNL     1     -11.516  14.385  69.028  1.00  0.00    -0.314 C  
HETATM   28  O   UNL     1      -9.535  13.137  68.427  1.00  0.00    -0.213 OA 
BRANCH  23  29
HETATM   29  C   UNL     1     -11.050  11.108  66.944  1.00  0.00    -0.247 C  
HETATM   30  O   UNL     1     -11.401   9.950  66.752  1.00  0.00     0.175 OA 
BRANCH  29  31
HETATM   31  O   UNL     1     -10.042  11.751  66.277  1.00  0.00    -0.207 OA 
HETATM   32  C   UNL     1     -10.448  12.278  65.016  1.00  0.00    -0.290 C  
ENDBRANCH  29  31
ENDBRANCH  23  29
BRANCH  27  33
HETATM   33  C   UNL     1     -11.639  13.894  70.486  1.00  0.00    -0.132 C  
BRANCH  33  34
HETATM   34  C   UNL     1     -11.698  12.366  70.646  1.00  0.00     0.188 C  
HETATM   35  C   UNL     1     -12.768  12.384  72.965  1.00  0.00     3.018 C  
HETATM   36  O   UNL     1     -14.089  12.246  70.981  1.00  0.00     1.782 OA 
HETATM   37  C   UNL     1     -12.838  11.841  71.541  1.00  0.00    -0.345 C  
HETATM   38  C   UNL     1     -12.805  10.307  71.568  1.00  0.00    -0.557 C  
HETATM   39  H   UNL     1     -14.792  11.922  71.532  1.00  0.00     0.000 HD 
ENDBRANCH  33  34
ENDBRANCH  27  33
ENDBRANCH  21  22
ENDBRANCH   1  21
BRANCH   3  40
HETATM   40  O   UNL     1     -11.056  14.658  69.215  1.00  0.00    -0.249 OA 
HETATM   41  C   UNL     1     -11.320  13.343  69.670  1.00  0.00    -0.137 C  
ENDBRANCH   3  40
TORSDOF 7
ENDMDL
MODEL      227
REMARK 921   NORMALIZED FREE ENERGY PREDICTED BY IDOCK:   71.90 KCAL/MOL
REMARK 922        TOTAL FREE ENERGY PREDICTED BY IDOCK:   99.46 KCAL/MOL
REMARK 923 INTER-LIGAND FREE ENERGY PREDICTED BY IDOCK:   96.93 KCAL/MOL
REMARK 924 INTRA-LIGAND FREE ENERGY PREDICTED BY IDOCK:    2.53 KCAL/MOL
REMARK 927      BINDING AFFINITY PREDICTED BY RF-SCORE:    0.00 PKD
ROOT
HETATM    1  C   UNL     1     -10.741   8.150  68.653  1.00  0.00    -0.025 C  
HETATM    2  O   UNL     1      -5.209  11.726  67.468  1.00  0.00    -0.056 OA 
HETATM    3  C   UNL     1     -10.908   6.732  68.150  1.00  0.00    -0.228 C  
HETATM    4  C   UNL     1     -10.356   8.997  67.357  1.00  0.00    -0.335 C  
HETATM    5  C   UNL     1      -5.804  13.033  67.528  1.00  0.00    -0.092 C  
HETATM    6  C   UNL     1     -11.150   6.694  66.840  1.00  0.00    -0.319 C  
HETATM    7  C   UNL     1     -11.080   8.037  66.164  1.00  0.00     2.627 C  
HETATM    8  C   UNL     1      -8.858   9.674  67.323  1.00  0.00    -0.139 A  
HETATM    9  C   UNL     1      -8.741  11.041  67.677  1.00  0.00    -0.128 A  
HETATM   10  O   UNL     1      -7.233  12.994  67.772  1.00  0.00    -0.108 OA 
HETATM   11  C   UNL     1      -7.487  11.658  67.660  1.00  0.00    -0.116 A  
HETATM   12  C   UNL     1     -12.498   8.486  65.795  1.00  0.00    14.299 C  
HETATM   13  C   UNL     1      -6.328  10.952  67.451  1.00  0.00    -0.064 A  
HETATM   14  C   UNL     1      -6.353   9.638  67.064  1.00  0.00    -0.065 A  
HETATM   15  C   UNL     1     -12.494   8.682  64.284  1.00  0.00    20.605 C  
HETATM   16  C   UNL     1      -7.618   9.098  66.773  1.00  0.00    -0.087 A  
HETATM   17  C   UNL     1      -7.612   8.438  65.322  1.00  0.00    -0.090 C  
HETATM   18  C   UNL     1      -9.052   8.123  65.174  1.00  0.00     0.294 C  
HETATM   19  N   UNL     1     -10.388   7.767  64.851  1.00  0.00     4.176 NA 
HETATM   20  C   UNL     1     -11.047   8.575  63.830  1.00  0.00    13.193 C  
ENDROOT
BRANCH   1  21
HETATM   21  O   UNL     1      -9.867   8.245  69.772  1.00  0.00    -0.182 OA 
BRANCH  21  22
HETATM   22  C   UNL     1     -10.317   9.141  70.704  1.00  0.00    -0.246 C  
HETATM   23  C   UNL     1      -9.679  10.203  72.877  1.00  0.00     8.084 C  
HETATM   24  C   UNL     1      -9.145   9.690  71.532  1.00  0.00     1.026 C  
HETATM   25  O   UNL     1     -11.500   9.428  70.889  1.00  0.00    -0.273 OA 
HETATM   26  H   UNL     1      -7.463   8.992  72.282  1.00  0.00     0.000 HD 
HETATM   27  C   UNL     1      -8.455  10.819  70.730  1.00  0.00     3.095 C  
HETATM   28  O   UNL     1      -8.187   8.653  71.770  1.00  0.00    -0.164 OA 
BRANCH  23  29
HETATM   29  C   UNL     1     -10.364   9.109  73.685  1.00  0.00     4.697 C  
HETATM   30  O   UNL     1     -11.559   8.835  73.676  1.00  0.00     1.659 OA 
BRANCH  29  31
HETATM   31  O   UNL     1      -9.408   8.461  74.420  1.00  0.00     0.990 OA 
HETATM   32  C   UNL     1      -8.627   7.550  73.649  1.00  0.00    -0.196 C  
ENDBRANCH  29  31
ENDBRANCH  23  29
BRANCH  27  33
HETATM   33  C   UNL     1      -7.261  11.526  71.407  1.00  0.00     5.278 C  
BRANCH  33  34
HETATM   34  C   UNL     1      -7.051  12.986  70.975  1.00  0.00     3.537 C  
HETATM   35  C   UNL     1      -9.330  13.260  69.856  1.00  0.00     2.553 C  
HETATM   36  O   UNL     1      -8.978  13.867  72.138  1.00  0.00     7.390 OA 
HETATM   37  C   UNL     1      -8.335  13.831  70.862  1.00  0.00     5.413 C  
HETATM   38  C   UNL     1      -7.972  15.270  70.474  1.00  0.00     1.230 C  
HETATM   39  H   UNL     1      -9.770  14.387  72.069  1.00  0.00     0.000 HD 
ENDBRANCH  33  34
ENDBRANCH  27  33
ENDBRANCH  21  22
ENDBRANCH   1  21
BRANCH   3  40
HETATM   40  O   UNL     1     -10.813   5.561  68.855  1.00  0.00    -0.211 OA 
HETATM   41  C   UNL     1      -9.858   4.581  68.487  1.00  0.00    -0.089 C  
ENDBRANCH   3  40
TORSDOF 7
ENDMDL
MODEL      228
REMARK 921   NORMALIZED FREE ENERGY PREDICTED BY IDOCK:   75.56 KCAL/MOL
REMARK 922        TOTAL FREE ENERGY PREDICTED BY IDOCK:  104.62 KCAL/MOL
REMARK 923 INTER-LIGAND FREE ENERGY PREDICTED BY IDOCK:   55.70 KCAL/MOL
REMARK 924 INTRA-LIGAND FREE ENERGY PREDICTED BY IDOCK:   48.92 KCAL/MOL
REMARK 927      BINDING AFFINITY PREDICTED BY RF-SCORE:    0.00 PKD
ROOT
HETATM    1  C   UNL     1      -8.069  13.262  68.296  1.00  0.00    -0.156 C  
HETATM    2  O   UNL     1     -10.899  11.725  62.429  1.00  0.00     0.886 OA 
HETATM    3  C   UNL     1      -6.661  12.834  68.649  1.00  0.00    -0.084 C  
HETATM    4  C   UNL     1      -8.806  11.915  67.863  1.00  0.00    -0.172 C  
HETATM    5  C   UNL     1     -12.269  11.741  62.862  1.00  0.00     0.329 C  
HETATM    6  C   UNL     1      -6.594  11.536  68.943  1.00  0.00    -0.073 C  
HETATM    7  C   UNL     1      -7.888  10.794  68.741  1.00  0.00    -0.129 C  
HETATM    8  C   UNL     1      -9.296  11.799  66.298  1.00  0.00    -0.235 A  
HETATM    9  C   UNL     1     -10.653  12.083  66.007  1.00  0.00    -0.303 A  
HETATM   10  O   UNL     1     -12.413  12.034  64.275  1.00  0.00    -0.361 OA 
HETATM   11  C   UNL     1     -11.114  11.995  64.690  1.00  0.00    -0.322 A  
HETATM   12  C   UNL     1      -8.488  10.450  70.108  1.00  0.00     0.406 C  
HETATM   13  C   UNL     1     -10.265  11.783  63.632  1.00  0.00    -0.428 A  
HETATM   14  C   UNL     1      -8.948  11.460  63.827  1.00  0.00     0.147 A  
HETATM   15  C   UNL     1      -8.615   8.932  70.140  1.00  0.00    -0.161 C  
HETATM   16  C   UNL     1      -8.552  11.237  65.157  1.00  0.00     0.163 A  
HETATM   17  C   UNL     1      -7.832   9.820  65.285  1.00  0.00    -0.120 C  
HETATM   18  C   UNL     1      -7.686   9.735  66.756  1.00  0.00    -0.098 C  
HETATM   19  N   UNL     1      -7.480   9.473  68.136  1.00  0.00    -0.078 NA 
HETATM   20  C   UNL     1      -8.315   8.437  68.734  1.00  0.00    -0.116 C  
ENDROOT
BRANCH   1  21
HETATM   21  O   UNL     1      -8.107  14.346  67.374  1.00  0.00    -0.176 OA 
BRANCH  21  22
HETATM   22  C   UNL     1      -9.348  14.921  67.306  1.00  0.00    -0.204 C  
HETATM   23  C   UNL     1     -11.325  15.152  65.790  1.00  0.00    -0.238 C  
HETATM   24  C   UNL     1     -10.218  14.200  66.264  1.00  0.00    -0.295 C  
HETATM   25  O   UNL     1      -9.701  15.910  67.949  1.00  0.00    -0.215 OA 
HETATM   26  H   UNL     1      -9.955  13.367  64.499  1.00  0.00     0.000 HD 
HETATM   27  C   UNL     1     -10.808  12.922  66.909  1.00  0.00    -0.278 C  
HETATM   28  O   UNL     1      -9.418  13.812  65.143  1.00  0.00     0.110 OA 
BRANCH  23  29
HETATM   29  C   UNL     1     -10.768  16.418  65.154  1.00  0.00    -0.291 C  
HETATM   30  O   UNL     1     -11.045  16.860  64.045  1.00  0.00    -0.805 OA 
BRANCH  29  31
HETATM   31  O   UNL     1      -9.907  17.000  66.046  1.00  0.00    -0.403 OA 
HETATM   32  C   UNL     1      -8.535  16.757  65.743  1.00  0.00     0.244 C  
ENDBRANCH  29  31
ENDBRANCH  23  29
BRANCH  27  33
HETATM   33  C   UNL     1     -11.743  12.066  66.028  1.00  0.00    -0.311 C  
BRANCH  33  34
HETATM   34  C   UNL     1     -12.516  10.974  66.786  1.00  0.00     3.572 C  
HETATM   35  C   UNL     1     -13.798  10.102  64.756  1.00  0.00    13.626 C  
HETATM   36  O   UNL     1     -11.726   9.131  65.436  1.00  0.00     4.844 OA 
HETATM   37  C   UNL     1     -12.912   9.744  65.946  1.00  0.00    15.007 C  
HETATM   38  C   UNL     1     -13.628   8.721  66.837  1.00  0.00    22.610 C  
HETATM   39  H   UNL     1     -11.969   8.373  64.918  1.00  0.00     0.000 HD 
ENDBRANCH  33  34
ENDBRANCH  27  33
ENDBRANCH  21  22
ENDBRANCH   1  21
BRANCH   3  40
HETATM   40  O   UNL     1      -5.518  13.591  68.666  1.00  0.00    -0.076 OA 
HETATM   41  C   UNL     1      -5.580  14.984  68.421  1.00  0.00    -0.108 C  
ENDBRANCH   3  40
TORSDOF 7
ENDMDL
MODEL      229
REMARK 921   NORMALIZED FREE ENERGY PREDICTED BY IDOCK:   81.50 KCAL/MOL
REMARK 922        TOTAL FREE ENERGY PREDICTED BY IDOCK:  112.99 KCAL/MOL
REMARK 923 INTER-LIGAND FREE ENERGY PREDICTED BY IDOCK:   99.39 KCAL/MOL
REMARK 924 INTRA-LIGAND FREE ENERGY PREDICTED BY IDOCK:   13.60 KCAL/MOL
REMARK 927      BINDING AFFINITY PREDICTED BY RF-SCORE:    0.00 PKD
ROOT
HETATM    1  C   UNL     1     -10.984  17.823  71.058  1.00  0.00     2.245 C  
HETATM    2  O   UNL     1      -7.325  12.479  69.370  1.00  0.00     0.130 OA 
HETATM    3  C   UNL     1     -11.511  18.798  70.027  1.00  0.00     5.222 C  
HETATM    4  C   UNL     1      -9.417  17.734  70.768  1.00  0.00     4.351 C  
HETATM    5  C   UNL     1      -6.594  12.346  70.600  1.00  0.00     1.219 C  
HETATM    6  C   UNL     1     -10.549  19.591  69.554  1.00  0.00     0.653 C  
HETATM    7  C   UNL     1      -9.172  19.254  70.060  1.00  0.00     0.974 C  
HETATM    8  C   UNL     1      -8.832  16.286  70.256  1.00  0.00     1.706 A  
HETATM    9  C   UNL     1      -8.227  15.439  71.218  1.00  0.00     3.641 A  
HETATM   10  O   UNL     1      -6.930  13.367  71.573  1.00  0.00     1.983 OA 
HETATM   11  C   UNL     1      -7.714  14.199  70.827  1.00  0.00     2.477 A  
HETATM   12  C   UNL     1      -8.727  20.328  71.057  1.00  0.00     1.982 C  
HETATM   13  C   UNL     1      -7.900  13.697  69.563  1.00  0.00     0.658 A  
HETATM   14  C   UNL     1      -8.438  14.465  68.562  1.00  0.00    -0.170 A  
HETATM   15  C   UNL     1      -7.441  20.918  70.490  1.00  0.00     2.811 C  
HETATM   16  C   UNL     1      -8.666  15.817  68.869  1.00  0.00    -0.217 A  
HETATM   17  C   UNL     1      -7.969  16.752  67.782  1.00  0.00    -0.187 C  
HETATM   18  C   UNL     1      -8.180  18.078  68.406  1.00  0.00    -0.298 C  
HETATM   19  N   UNL     1      -8.274  19.420  68.859  1.00  0.00    -0.352 NA 
HETATM   20  C   UNL     1      -7.034  20.040  69.318  1.00  0.00    -0.212 C  
ENDROOT
BRANCH   1  21
HETATM   21  O   UNL     1     -11.707  16.599  71.087  1.00  0.00    -0.156 OA 
BRANCH  21  22
HETATM   22  C   UNL     1     -10.935  15.554  71.518  1.00  0.00    -0.082 C  
HETATM   23  C   UNL     1     -11.005  13.080  71.887  1.00  0.00     6.225 C  
HETATM   24  C   UNL     1     -11.482  14.223  70.979  1.00  0.00     0.115 C  
HETATM   25  O   UNL     1      -9.968  15.658  72.274  1.00  0.00     2.664 OA 
HETATM   26  H   UNL     1     -13.252  13.428  70.638  1.00  0.00     0.000 HD 
HETATM   27  C   UNL     1     -10.987  14.034  69.525  1.00  0.00    -0.138 C  
HETATM   28  O   UNL     1     -12.913  14.250  70.971  1.00  0.00    -0.331 OA 
BRANCH  23  29
HETATM   29  C   UNL     1     -11.478  13.245  73.325  1.00  0.00     6.144 C  
HETATM   30  O   UNL     1     -11.853  12.352  74.077  1.00  0.00     9.122 OA 
BRANCH  29  31
HETATM   31  O   UNL     1     -11.397  14.573  73.650  1.00  0.00     0.512 OA 
HETATM   32  C   UNL     1     -10.062  15.014  73.886  1.00  0.00     6.940 C  
ENDBRANCH  29  31
ENDBRANCH  23  29
BRANCH  27  33
HETATM   33  C   UNL     1     -11.407  12.732  68.809  1.00  0.00    -0.332 C  
BRANCH  33  34
HETATM   34  C   UNL     1     -10.482  11.532  69.065  1.00  0.00    -0.175 C  
HETATM   35  C   UNL     1     -11.156  10.229  66.974  1.00  0.00    -0.104 C  
HETATM   36  O   UNL     1      -9.277  11.702  66.976  1.00  0.00    -0.175 OA 
HETATM   37  C   UNL     1     -10.003  10.789  67.802  1.00  0.00    -0.171 C  
HETATM   38  C   UNL     1      -9.052   9.654  68.202  1.00  0.00    -0.123 C  
HETATM   39  H   UNL     1      -8.982  11.244  66.197  1.00  0.00     0.000 HD 
ENDBRANCH  33  34
ENDBRANCH  27  33
ENDBRANCH  21  22
ENDBRANCH   1  21
BRANCH   3  40
HETATM   40  O   UNL     1     -12.786  18.920  69.542  1.00  0.00    13.085 OA 
HETATM   41  C   UNL     1     -13.898  18.666  70.382  1.00  0.00    27.755 C  
ENDBRANCH   3  40
TORSDOF 7
ENDMDL
MODEL      230
REMARK 921   NORMALIZED FREE ENERGY PREDICTED BY IDOCK:   83.97 KCAL/MOL
REMARK 922        TOTAL FREE ENERGY PREDICTED BY IDOCK:  116.46 KCAL/MOL
REMARK 923 INTER-LIGAND FREE ENERGY PREDICTED BY IDOCK:  113.90 KCAL/MOL
REMARK 924 INTRA-LIGAND FREE ENERGY PREDICTED BY IDOCK:    2.56 KCAL/MOL
REMARK 927      BINDING AFFINITY PREDICTED BY RF-SCORE:    0.00 PKD
ROOT
HETATM    1  C   UNL     1      -8.523   7.906  67.349  1.00  0.00    -0.122 C  
HETATM    2  O   UNL     1     -12.948   2.889  67.579  1.00  0.00    22.529 OA 
HETATM    3  C   UNL     1      -8.891   9.282  66.839  1.00  0.00    -0.127 C  
HETATM    4  C   UNL     1      -8.968   6.909  66.184  1.00  0.00    -0.157 C  
HETATM    5  C   UNL     1     -12.016   1.801  67.467  1.00  0.00    14.867 C  
HETATM    6  C   UNL     1      -9.006   9.307  65.512  1.00  0.00    -0.251 C  
HETATM    7  C   UNL     1      -8.864   7.958  64.858  1.00  0.00     0.278 C  
HETATM    8  C   UNL     1     -10.176   5.849  66.528  1.00  0.00    -0.217 A  
HETATM    9  C   UNL     1      -9.813   4.525  66.882  1.00  0.00    -0.238 A  
HETATM   10  O   UNL     1     -10.642   2.243  67.336  1.00  0.00     2.775 OA 
HETATM   11  C   UNL     1     -10.807   3.589  67.180  1.00  0.00     3.582 A  
HETATM   12  C   UNL     1      -7.517   7.893  64.131  1.00  0.00    -0.105 C  
HETATM   13  C   UNL     1     -12.131   3.937  67.285  1.00  0.00    13.274 A  
HETATM   14  C   UNL     1     -12.573   5.183  66.922  1.00  0.00     9.667 A  
HETATM   15  C   UNL     1      -7.844   7.613  62.669  1.00  0.00    -0.131 C  
HETATM   16  C   UNL     1     -11.624   6.029  66.323  1.00  0.00     1.359 A  
HETATM   17  C   UNL     1     -12.177   6.575  64.930  1.00  0.00     9.943 C  
HETATM   18  C   UNL     1     -10.968   7.262  64.422  1.00  0.00    11.966 C  
HETATM   19  N   UNL     1      -9.910   7.950  63.771  1.00  0.00     4.143 NA 
HETATM   20  C   UNL     1      -9.329   7.294  62.604  1.00  0.00     1.947 C  
ENDROOT
BRANCH   1  21
HETATM   21  O   UNL     1      -9.027   7.642  68.653  1.00  0.00    -0.134 OA 
BRANCH  21  22
HETATM   22  C   UNL     1     -10.195   8.312  68.900  1.00  0.00    -0.210 C  
HETATM   23  C   UNL     1     -11.567   9.245  70.773  1.00  0.00    -0.345 C  
HETATM   24  C   UNL     1     -10.136   9.009  70.268  1.00  0.00    -0.198 C  
HETATM   25  O   UNL     1     -11.176   8.313  68.155  1.00  0.00     0.284 OA 
HETATM   26  H   UNL     1      -9.399   8.617  72.052  1.00  0.00     0.000 HD 
HETATM   27  C   UNL     1      -9.365  10.342  70.114  1.00  0.00     0.369 C  
HETATM   28  O   UNL     1      -9.436   8.187  71.207  1.00  0.00    -0.149 OA 
BRANCH  23  29
HETATM   29  C   UNL     1     -12.347   7.948  70.931  1.00  0.00    -0.077 C  
HETATM   30  O   UNL     1     -11.883   6.813  70.948  1.00  0.00    -0.350 OA 
BRANCH  29  31
HETATM   31  O   UNL     1     -13.673   8.262  71.070  1.00  0.00    -0.056 OA 
HETATM   32  C   UNL     1     -13.916   9.237  72.083  1.00  0.00    -0.355 C  
ENDBRANCH  29  31
ENDBRANCH  23  29
BRANCH  27  33
HETATM   33  C   UNL     1      -9.220  11.214  71.380  1.00  0.00     8.463 C  
BRANCH  33  34
HETATM   34  C   UNL     1     -10.320  12.273  71.559  1.00  0.00     9.356 C  
HETATM   35  C   UNL     1      -9.416  13.890  69.801  1.00  0.00     1.300 C  
HETATM   36  O   UNL     1     -11.061  12.248  69.258  1.00  0.00    -0.348 OA 
HETATM   37  C   UNL     1     -10.630  13.118  70.308  1.00  0.00     1.896 C  
HETATM   38  C   UNL     1     -11.775  14.091  70.615  1.00  0.00    -0.230 C  
HETATM   39  H   UNL     1     -11.253  12.768  68.487  1.00  0.00     0.000 HD 
ENDBRANCH  33  34
ENDBRANCH  27  33
ENDBRANCH  21  22
ENDBRANCH   1  21
BRANCH   3  40
HETATM   40  O   UNL     1      -9.131  10.423  67.559  1.00  0.00    -0.135 OA 
HETATM   41  C   UNL     1      -8.574  11.659  67.148  1.00  0.00    -0.164 C  
ENDBRANCH   3  40
TORSDOF 7
ENDMDL
MODEL      231
REMARK 921   NORMALIZED FREE ENERGY PREDICTED BY IDOCK:   86.74 KCAL/MOL
REMARK 922        TOTAL FREE ENERGY PREDICTED BY IDOCK:  120.37 KCAL/MOL
REMARK 923 INTER-LIGAND FREE ENERGY PREDICTED BY IDOCK:   79.31 KCAL/MOL
REMARK 924 INTRA-LIGAND FREE ENERGY PREDICTED BY IDOCK:   41.07 KCAL/MOL
REMARK 927      BINDING AFFINITY PREDICTED BY RF-SCORE:    0.00 PKD
ROOT
HETATM    1  C   UNL     1      -7.435  14.822  71.370  1.00  0.00     2.578 C  
HETATM    2  O   UNL     1      -8.571  12.375  65.245  1.00  0.00     0.883 OA 
HETATM    3  C   UNL     1      -8.332  14.500  72.546  1.00  0.00     7.745 C  
HETATM    4  C   UNL     1      -8.424  15.366  70.243  1.00  0.00     0.866 C  
HETATM    5  C   UNL     1      -7.945  13.428  64.494  1.00  0.00     9.083 C  
HETATM    6  C   UNL     1      -9.489  15.159  72.484  1.00  0.00     6.261 C  
HETATM    7  C   UNL     1      -9.673  15.958  71.222  1.00  0.00     2.744 C  
HETATM    8  C   UNL     1      -8.567  14.467  68.874  1.00  0.00    -0.064 A  
HETATM    9  C   UNL     1      -7.811  14.861  67.742  1.00  0.00    -0.164 A  
HETATM   10  O   UNL     1      -7.412  14.483  65.334  1.00  0.00     5.535 OA 
HETATM   11  C   UNL     1      -7.904  14.127  66.556  1.00  0.00     1.059 A  
HETATM   12  C   UNL     1      -9.541  17.449  71.549  1.00  0.00     7.261 C  
HETATM   13  C   UNL     1      -8.593  12.941  66.482  1.00  0.00     0.121 A  
HETATM   14  C   UNL     1      -9.382  12.509  67.516  1.00  0.00    -0.187 A  
HETATM   15  C   UNL     1     -10.858  18.088  71.128  1.00  0.00     2.586 C  
HETATM   16  C   UNL     1      -9.543  13.400  68.591  1.00  0.00    -0.064 A  
HETATM   17  C   UNL     1     -11.093  13.628  68.887  1.00  0.00    -0.292 C  
HETATM   18  C   UNL     1     -11.008  14.710  69.894  1.00  0.00    -0.160 C  
HETATM   19  N   UNL     1     -11.121  15.754  70.850  1.00  0.00    -0.342 NA 
HETATM   20  C   UNL     1     -11.636  17.029  70.363  1.00  0.00     1.225 C  
ENDROOT
BRANCH   1  21
HETATM   21  O   UNL     1      -6.577  13.744  71.013  1.00  0.00     0.174 OA 
BRANCH  21  22
HETATM   22  C   UNL     1      -6.817  13.294  69.743  1.00  0.00     0.227 C  
HETATM   23  C   UNL     1      -7.704  11.316  68.494  1.00  0.00    -0.131 C  
HETATM   24  C   UNL     1      -7.865  12.170  69.759  1.00  0.00     1.424 C  
HETATM   25  O   UNL     1      -6.236  13.694  68.733  1.00  0.00    -0.080 OA 
HETATM   26  H   UNL     1      -8.327  10.650  70.922  1.00  0.00     0.000 HD 
HETATM   27  C   UNL     1      -9.274  12.807  69.835  1.00  0.00     2.946 C  
HETATM   28  O   UNL     1      -7.679  11.344  70.912  1.00  0.00     2.730 OA 
BRANCH  23  29
HETATM   29  C   UNL     1      -6.324  10.680  68.395  1.00  0.00    -0.054 C  
HETATM   30  O   UNL     1      -5.272  11.255  68.141  1.00  0.00    -0.043 OA 
BRANCH  29  31
HETATM   31  O   UNL     1      -6.452   9.342  68.658  1.00  0.00    -0.051 OA 
HETATM   32  C   UNL     1      -6.059   8.990  69.983  1.00  0.00    -0.037 C  
ENDBRANCH  29  31
ENDBRANCH  23  29
BRANCH  27  33
HETATM   33  C   UNL     1     -10.477  11.839  69.832  1.00  0.00     0.834 C  
BRANCH  33  34
HETATM   34  C   UNL     1     -11.830  12.496  70.151  1.00  0.00    -0.336 C  
HETATM   35  C   UNL     1     -13.202  10.345  70.034  1.00  0.00     0.374 C  
HETATM   36  O   UNL     1     -12.307  11.146  72.098  1.00  0.00     0.267 OA 
HETATM   37  C   UNL     1     -12.856  11.585  70.853  1.00  0.00    -0.201 C  
HETATM   38  C   UNL     1     -14.131  12.382  71.154  1.00  0.00     2.306 C  
HETATM   39  H   UNL     1     -12.939  10.584  72.531  1.00  0.00     0.000 HD 
ENDBRANCH  33  34
ENDBRANCH  27  33
ENDBRANCH  21  22
ENDBRANCH   1  21
BRANCH   3  40
HETATM   40  O   UNL     1      -8.102  13.634  73.583  1.00  0.00     6.839 OA 
HETATM   41  C   UNL     1      -7.615  12.329  73.330  1.00  0.00    15.443 C  
ENDBRANCH   3  40
TORSDOF 7
ENDMDL
