MODEL        1
REMARK 921   NORMALIZED FREE ENERGY PREDICTED BY IDOCK:   -8.22 KCAL/MOL
REMARK 922        TOTAL FREE ENERGY PREDICTED BY IDOCK:  -12.35 KCAL/MOL
REMARK 923 INTER-LIGAND FREE ENERGY PREDICTED BY IDOCK:  -11.59 KCAL/MOL
REMARK 924 INTRA-LIGAND FREE ENERGY PREDICTED BY IDOCK:   -0.76 KCAL/MOL
REMARK 927      BINDING AFFINITY PREDICTED BY RF-SCORE:    0.00 PKD
ROOT
HETATM    1  C   UNL     1     -10.762  15.726  68.972  1.00  0.00    -0.235 C  
HETATM    2  C   UNL     1     -11.305  15.387  70.346  1.00  0.00    -0.350 C  
HETATM    3  C   UNL     1     -11.809  14.003  70.544  1.00  0.00    -0.339 A  
HETATM    4  C   UNL     1     -12.706  13.740  71.607  1.00  0.00    -0.321 A  
HETATM    5  C   UNL     1     -13.159  12.418  71.708  1.00  0.00    -0.446 A  
HETATM    6  C   UNL     1      -7.164  19.084  67.921  1.00  0.00    -0.236 C  
HETATM    7  C   UNL     1     -12.811  11.385  70.806  1.00  0.00    -0.255 A  
HETATM    8  C   UNL     1      -8.515  18.797  68.522  1.00  0.00    -0.345 C  
HETATM    9  H   UNL     1      -8.632  17.422  65.541  1.00  0.00     0.000 HD 
HETATM   10  C   UNL     1      -6.668  18.313  66.944  1.00  0.00    -0.210 C  
HETATM   11  C   UNL     1     -11.891  11.682  69.791  1.00  0.00    -0.357 A  
HETATM   12  O   UNL     1      -6.055  16.109  67.415  1.00  0.00    -0.148 OA 
HETATM   13  O   UNL     1     -11.520  10.742  68.871  1.00  0.00    -0.262 OA 
HETATM   14  C   UNL     1     -11.349  12.977  69.677  1.00  0.00    -0.176 A  
HETATM   15  H   UNL     1     -10.896  10.944  68.184  1.00  0.00     0.000 HD 
HETATM   16  C   UNL     1      -6.994  16.872  67.186  1.00  0.00    -0.181 C  
HETATM   17  O   UNL     1      -8.842  16.528  65.787  1.00  0.00    -0.474 OA 
HETATM   18  C   UNL     1     -10.232  13.255  68.695  1.00  0.00    -0.172 C  
HETATM   19  C   UNL     1      -9.980  16.997  69.197  1.00  0.00    -0.229 C  
HETATM   20  C   UNL     1      -9.868  14.685  68.396  1.00  0.00    -0.220 C  
HETATM   21  O   UNL     1      -9.572  12.370  68.155  1.00  0.00    -0.208 OA 
HETATM   22  C   UNL     1      -8.829  15.021  67.591  1.00  0.00    -0.179 C  
HETATM   23  C   UNL     1      -9.302  17.559  67.950  1.00  0.00    -0.265 C  
HETATM   24  H   UNL     1      -6.636  20.253  69.506  1.00  0.00     0.000 HD 
HETATM   25  O   UNL     1      -6.284  19.707  68.813  1.00  0.00    -0.238 OA 
HETATM   26  C   UNL     1      -8.487  16.475  67.191  1.00  0.00    -0.181 C  
HETATM   27  O   UNL     1      -8.094  14.060  66.905  1.00  0.00    -0.389 OA 
HETATM   28  H   UNL     1      -7.366  14.295  66.341  1.00  0.00     0.000 HD 
ENDROOT
BRANCH   4  29
HETATM   29  N   UNL     1     -13.130  14.664  72.558  1.00  0.00    -0.381 NA 
HETATM   30  C   UNL     1     -12.348  15.075  73.720  1.00  0.00    -0.526 C  
HETATM   31  C   UNL     1     -14.297  15.504  72.284  1.00  0.00    -0.462 C  
ENDBRANCH   4  29
BRANCH   7  32
HETATM   32  C   UNL     1     -13.381   9.997  71.044  1.00  0.00    -0.266 C  
BRANCH  32  33
HETATM   33  N   UNL     1     -12.327   8.990  71.011  1.00  0.00    -0.448 NA 
HETATM   34  H   UNL     1     -11.453   9.398  70.678  1.00  0.00     0.000 HD 
BRANCH  33  35
HETATM   35  C   UNL     1     -12.116   8.303  72.278  1.00  0.00    -0.379 C  
BRANCH  35  36
HETATM   36  C   UNL     1     -10.723   7.611  72.296  1.00  0.00    -0.311 C  
HETATM   37  C   UNL     1     -10.395   7.054  73.696  1.00  0.00    -0.412 C  
HETATM   38  C   UNL     1      -9.626   8.608  71.875  1.00  0.00    -0.377 C  
HETATM   39  C   UNL     1     -10.732   6.438  71.301  1.00  0.00    -0.288 C  
ENDBRANCH  35  36
ENDBRANCH  33  35
ENDBRANCH  32  33
ENDBRANCH   7  32
BRANCH  10  40
HETATM   40  C   UNL     1      -6.882  18.995  65.631  1.00  0.00    -0.270 C  
HETATM   41  N   UNL     1      -7.821  19.971  65.560  1.00  0.00    -0.349 N  
HETATM   42  H2  UNL     1      -8.367  20.233  66.382  1.00  0.00     0.000 HD 
HETATM   43  H1  UNL     1      -7.967  20.436  64.664  1.00  0.00     0.000 HD 
HETATM   44  O   UNL     1      -6.287  18.686  64.598  1.00  0.00    -0.457 OA 
ENDBRANCH  10  40
BRANCH   8  45
HETATM   45  N   UNL     1      -9.472  19.925  68.618  1.00  0.00    -0.262 NA 
HETATM   46  C   UNL     1     -10.055  20.120  69.946  1.00  0.00     0.397 C  
HETATM   47  C   UNL     1     -10.525  19.869  67.608  1.00  0.00    -0.381 C  
ENDBRANCH   8  45
TORSDOF 7
ENDMDL
MODEL        2
REMARK 921   NORMALIZED FREE ENERGY PREDICTED BY IDOCK:   -8.16 KCAL/MOL
REMARK 922        TOTAL FREE ENERGY PREDICTED BY IDOCK:  -12.26 KCAL/MOL
REMARK 923 INTER-LIGAND FREE ENERGY PREDICTED BY IDOCK:  -10.54 KCAL/MOL
REMARK 924 INTRA-LIGAND FREE ENERGY PREDICTED BY IDOCK:   -1.72 KCAL/MOL
REMARK 927      BINDING AFFINITY PREDICTED BY RF-SCORE:    0.00 PKD
ROOT
HETATM    1  C   UNL     1      -8.805  13.973  68.361  1.00  0.00    -0.180 C  
HETATM    2  C   UNL     1      -7.886  12.785  68.150  1.00  0.00    -0.146 C  
HETATM    3  C   UNL     1      -8.510  11.437  68.208  1.00  0.00    -0.154 A  
HETATM    4  C   UNL     1      -7.694  10.308  68.460  1.00  0.00    -0.091 A  
HETATM    5  C   UNL     1      -8.361   9.079  68.531  1.00  0.00    -0.124 A  
HETATM    6  C   UNL     1      -8.242  18.575  66.407  1.00  0.00    -0.268 C  
HETATM    7  C   UNL     1      -9.763   8.924  68.411  1.00  0.00    -0.175 A  
HETATM    8  C   UNL     1      -7.681  17.464  67.254  1.00  0.00    -0.200 C  
HETATM    9  H   UNL     1     -10.729  17.906  68.393  1.00  0.00     0.000 HD 
HETATM   10  C   UNL     1      -9.565  18.718  66.248  1.00  0.00    -0.316 C  
HETATM   11  C   UNL     1     -10.527  10.064  68.126  1.00  0.00    -0.211 A  
HETATM   12  O   UNL     1     -10.759  17.115  65.040  1.00  0.00    -0.712 OA 
HETATM   13  O   UNL     1     -11.888   9.997  68.014  1.00  0.00    -0.513 OA 
HETATM   14  C   UNL     1      -9.907  11.319  67.978  1.00  0.00    -0.186 A  
HETATM   15  H   UNL     1     -12.405  10.770  67.820  1.00  0.00     0.000 HD 
HETATM   16  C   UNL     1     -10.232  17.384  66.119  1.00  0.00    -0.328 C  
HETATM   17  O   UNL     1     -11.071  17.027  68.279  1.00  0.00    -0.337 OA 
HETATM   18  C   UNL     1     -10.702  12.515  67.502  1.00  0.00    -0.225 C  
HETATM   19  C   UNL     1      -8.003  15.143  67.848  1.00  0.00    -0.143 C  
HETATM   20  C   UNL     1     -10.093  13.886  67.620  1.00  0.00    -0.241 C  
HETATM   21  O   UNL     1     -11.812  12.423  66.982  1.00  0.00    -0.481 OA 
HETATM   22  C   UNL     1     -10.704  15.001  67.145  1.00  0.00    -0.303 C  
HETATM   23  C   UNL     1      -8.716  16.491  67.933  1.00  0.00    -0.188 C  
HETATM   24  H   UNL     1      -6.445  18.870  65.488  1.00  0.00     0.000 HD 
HETATM   25  O   UNL     1      -7.383  18.971  65.376  1.00  0.00    -0.470 OA 
HETATM   26  C   UNL     1     -10.148  16.431  67.333  1.00  0.00    -0.262 C  
HETATM   27  O   UNL     1     -11.986  14.959  66.608  1.00  0.00    -0.247 OA 
HETATM   28  H   UNL     1     -12.415  15.740  66.276  1.00  0.00     0.000 HD 
ENDROOT
BRANCH   4  29
HETATM   29  N   UNL     1      -6.309  10.324  68.600  1.00  0.00    -0.051 NA 
HETATM   30  C   UNL     1      -5.364  10.331  67.488  1.00  0.00    -0.041 C  
HETATM   31  C   UNL     1      -5.715  10.625  69.903  1.00  0.00    -0.056 C  
ENDBRANCH   4  29
BRANCH   7  32
HETATM   32  C   UNL     1     -10.345   7.524  68.508  1.00  0.00    -0.199 C  
BRANCH  32  33
HETATM   33  N   UNL     1     -11.221   7.405  69.668  1.00  0.00    -0.456 NA 
HETATM   34  H   UNL     1     -12.035   6.833  69.442  1.00  0.00     0.000 HD 
BRANCH  33  35
HETATM   35  C   UNL     1     -10.563   6.903  70.866  1.00  0.00    -0.218 C  
BRANCH  35  36
HETATM   36  C   UNL     1     -10.564   7.988  71.981  1.00  0.00    -0.310 C  
HETATM   37  C   UNL     1     -10.889   7.374  73.357  1.00  0.00    -0.362 C  
HETATM   38  C   UNL     1     -11.595   9.087  71.657  1.00  0.00    -0.426 C  
HETATM   39  C   UNL     1      -9.168   8.630  72.059  1.00  0.00    -0.338 C  
ENDBRANCH  35  36
ENDBRANCH  33  35
ENDBRANCH  32  33
ENDBRANCH   7  32
BRANCH  10  40
HETATM   40  C   UNL     1     -10.051  19.796  67.163  1.00  0.00    -0.424 C  
HETATM   41  N   UNL     1     -11.283  19.662  67.715  1.00  0.00    -0.071 N  
HETATM   42  H2  UNL     1     -11.862  18.847  67.510  1.00  0.00     0.000 HD 
HETATM   43  H1  UNL     1     -11.614  20.397  68.339  1.00  0.00     0.000 HD 
HETATM   44  O   UNL     1      -9.414  20.821  67.406  1.00  0.00    -0.422 OA 
ENDBRANCH  10  40
BRANCH   8  45
HETATM   45  N   UNL     1      -6.678  17.831  68.282  1.00  0.00    -0.200 NA 
HETATM   46  C   UNL     1      -6.891  19.137  68.905  1.00  0.00    -0.322 C  
HETATM   47  C   UNL     1      -5.302  17.720  67.804  1.00  0.00    -0.136 C  
ENDBRANCH   8  45
TORSDOF 7
ENDMDL
MODEL        3
REMARK 921   NORMALIZED FREE ENERGY PREDICTED BY IDOCK:   -7.99 KCAL/MOL
REMARK 922        TOTAL FREE ENERGY PREDICTED BY IDOCK:  -12.02 KCAL/MOL
REMARK 923 INTER-LIGAND FREE ENERGY PREDICTED BY IDOCK:  -11.02 KCAL/MOL
REMARK 924 INTRA-LIGAND FREE ENERGY PREDICTED BY IDOCK:   -1.00 KCAL/MOL
REMARK 927      BINDING AFFINITY PREDICTED BY RF-SCORE:    0.00 PKD
ROOT
HETATM    1  C   UNL     1      -8.832  13.968  68.327  1.00  0.00    -0.184 C  
HETATM    2  C   UNL     1      -7.853  12.820  68.178  1.00  0.00    -0.146 C  
HETATM    3  C   UNL     1      -8.420  11.447  68.209  1.00  0.00    -0.154 A  
HETATM    4  C   UNL     1      -7.572  10.356  68.516  1.00  0.00    -0.095 A  
HETATM    5  C   UNL     1      -8.188   9.098  68.557  1.00  0.00    -0.115 A  
HETATM    6  C   UNL     1      -8.356  18.581  66.376  1.00  0.00    -0.259 C  
HETATM    7  C   UNL     1      -9.573   8.882  68.358  1.00  0.00    -0.157 A  
HETATM    8  C   UNL     1      -7.797  17.499  67.262  1.00  0.00    -0.203 C  
HETATM    9  H   UNL     1     -10.923  17.814  68.220  1.00  0.00     0.000 HD 
HETATM   10  C   UNL     1      -9.672  18.666  66.140  1.00  0.00    -0.256 C  
HETATM   11  C   UNL     1     -10.367   9.986  68.020  1.00  0.00    -0.198 A  
HETATM   12  O   UNL     1     -10.724  17.006  64.876  1.00  0.00    -0.728 OA 
HETATM   13  O   UNL     1     -11.715   9.860  67.830  1.00  0.00    -0.489 OA 
HETATM   14  C   UNL     1      -9.794  11.267  67.899  1.00  0.00    -0.187 A  
HETATM   15  H   UNL     1     -12.253  10.608  67.602  1.00  0.00     0.000 HD 
HETATM   16  C   UNL     1     -10.273  17.303  65.982  1.00  0.00    -0.304 C  
HETATM   17  O   UNL     1     -11.219  16.920  68.092  1.00  0.00    -0.297 OA 
HETATM   18  C   UNL     1     -10.612  12.425  67.370  1.00  0.00    -0.216 C  
HETATM   19  C   UNL     1      -8.054  15.170  67.853  1.00  0.00    -0.144 C  
HETATM   20  C   UNL     1     -10.070  13.821  67.513  1.00  0.00    -0.241 C  
HETATM   21  O   UNL     1     -11.685  12.282  66.787  1.00  0.00    -0.450 OA 
HETATM   22  C   UNL     1     -10.700  14.907  66.996  1.00  0.00    -0.307 C  
HETATM   23  C   UNL     1      -8.828  16.485  67.887  1.00  0.00    -0.193 C  
HETATM   24  H   UNL     1      -6.523  18.949  65.560  1.00  0.00     0.000 HD 
HETATM   25  O   UNL     1      -7.457  19.009  65.393  1.00  0.00    -0.442 OA 
HETATM   26  C   UNL     1     -10.218  16.360  67.205  1.00  0.00    -0.278 C  
HETATM   27  O   UNL     1     -11.946  14.807  66.386  1.00  0.00    -0.299 OA 
HETATM   28  H   UNL     1     -12.388  15.567  66.024  1.00  0.00     0.000 HD 
ENDROOT
BRANCH   4  29
HETATM   29  N   UNL     1      -6.199  10.432  68.736  1.00  0.00    -0.047 NA 
HETATM   30  C   UNL     1      -5.576  10.572  70.048  1.00  0.00    -0.053 C  
HETATM   31  C   UNL     1      -5.272  10.088  67.658  1.00  0.00    -0.034 C  
ENDBRANCH   4  29
BRANCH   7  32
HETATM   32  C   UNL     1     -10.098   7.459  68.431  1.00  0.00    -0.177 C  
BRANCH  32  33
HETATM   33  N   UNL     1     -11.300   7.391  69.254  1.00  0.00    -0.443 NA 
HETATM   34  H   UNL     1     -12.134   7.370  68.667  1.00  0.00     0.000 HD 
BRANCH  33  35
HETATM   35  C   UNL     1     -11.316   6.282  70.199  1.00  0.00    -0.406 C  
BRANCH  35  36
HETATM   36  C   UNL     1     -11.719   6.782  71.616  1.00  0.00    -0.357 C  
HETATM   37  C   UNL     1     -13.229   7.082  71.693  1.00  0.00    -0.368 C  
HETATM   38  C   UNL     1     -10.928   8.055  71.979  1.00  0.00    -0.342 C  
HETATM   39  C   UNL     1     -11.392   5.688  72.646  1.00  0.00    -0.356 C  
ENDBRANCH  35  36
ENDBRANCH  33  35
ENDBRANCH  32  33
ENDBRANCH   7  32
BRANCH  10  40
HETATM   40  C   UNL     1     -10.257  19.726  67.017  1.00  0.00    -0.452 C  
HETATM   41  N   UNL     1      -9.603  20.910  67.115  1.00  0.00    -0.689 N  
HETATM   42  H2  UNL     1      -8.736  21.073  66.603  1.00  0.00     0.000 HD 
HETATM   43  H1  UNL     1     -10.002  21.633  67.714  1.00  0.00     0.000 HD 
HETATM   44  O   UNL     1     -11.273  19.565  67.693  1.00  0.00    -0.252 OA 
ENDBRANCH  10  40
BRANCH   8  45
HETATM   45  N   UNL     1      -6.872  17.914  68.343  1.00  0.00    -0.218 NA 
HETATM   46  C   UNL     1      -7.191  19.203  68.959  1.00  0.00    -0.335 C  
HETATM   47  C   UNL     1      -5.469  17.881  67.940  1.00  0.00    -0.145 C  
ENDBRANCH   8  45
TORSDOF 7
ENDMDL
MODEL        4
REMARK 921   NORMALIZED FREE ENERGY PREDICTED BY IDOCK:   -7.82 KCAL/MOL
REMARK 922        TOTAL FREE ENERGY PREDICTED BY IDOCK:  -11.78 KCAL/MOL
REMARK 923 INTER-LIGAND FREE ENERGY PREDICTED BY IDOCK:  -10.50 KCAL/MOL
REMARK 924 INTRA-LIGAND FREE ENERGY PREDICTED BY IDOCK:   -1.28 KCAL/MOL
REMARK 927      BINDING AFFINITY PREDICTED BY RF-SCORE:    0.00 PKD
ROOT
HETATM    1  C   UNL     1     -10.696   8.886  67.610  1.00  0.00    -0.221 C  
HETATM    2  C   UNL     1      -9.897   9.529  66.493  1.00  0.00    -0.305 C  
HETATM    3  C   UNL     1     -10.365  10.855  66.011  1.00  0.00    -0.304 A  
HETATM    4  C   UNL     1      -9.969  11.302  64.728  1.00  0.00    -0.277 A  
HETATM    5  C   UNL     1     -10.477  12.547  64.334  1.00  0.00    -0.384 A  
HETATM    6  C   UNL     1      -8.932   5.763  71.139  1.00  0.00    -0.139 C  
HETATM    7  C   UNL     1     -11.369  13.326  65.109  1.00  0.00    -0.318 A  
HETATM    8  C   UNL     1      -9.140   6.061  69.678  1.00  0.00    -0.135 C  
HETATM    9  H   UNL     1     -12.086   6.552  71.044  1.00  0.00     0.000 HD 
HETATM   10  C   UNL     1      -9.742   6.286  72.070  1.00  0.00    -0.164 C  
HETATM   11  C   UNL     1     -11.705  12.860  66.388  1.00  0.00    -0.395 A  
HETATM   12  O   UNL     1      -9.700   8.587  72.472  1.00  0.00    -0.288 OA 
HETATM   13  O   UNL     1     -12.574  13.548  67.189  1.00  0.00    -0.244 OA 
HETATM   14  C   UNL     1     -11.174  11.647  66.868  1.00  0.00    -0.376 A  
HETATM   15  H   UNL     1     -12.801  13.232  68.055  1.00  0.00     0.000 HD 
HETATM   16  C   UNL     1     -10.108   7.697  71.726  1.00  0.00    -0.173 C  
HETATM   17  O   UNL     1     -12.237   7.451  70.778  1.00  0.00    -0.266 OA 
HETATM   18  C   UNL     1     -11.396  11.230  68.305  1.00  0.00    -0.289 C  
HETATM   19  C   UNL     1      -9.777   7.814  68.140  1.00  0.00    -0.171 C  
HETATM   20  C   UNL     1     -11.064   9.819  68.710  1.00  0.00    -0.140 C  
HETATM   21  O   UNL     1     -11.797  11.998  69.176  1.00  0.00    -0.300 OA 
HETATM   22  C   UNL     1     -11.157   9.386  69.993  1.00  0.00    -0.221 C  
HETATM   23  C   UNL     1     -10.343   7.007  69.306  1.00  0.00    -0.210 C  
HETATM   24  H   UNL     1      -7.022   5.132  70.805  1.00  0.00     0.000 HD 
HETATM   25  O   UNL     1      -7.597   5.502  71.465  1.00  0.00    -0.098 OA 
HETATM   26  C   UNL     1     -10.912   7.922  70.426  1.00  0.00    -0.249 C  
HETATM   27  O   UNL     1     -11.667  10.195  71.003  1.00  0.00    -0.337 OA 
HETATM   28  H   UNL     1     -11.733   9.892  71.901  1.00  0.00     0.000 HD 
ENDROOT
BRANCH   4  29
HETATM   29  N   UNL     1      -9.103  10.633  63.868  1.00  0.00    -0.210 NA 
HETATM   30  C   UNL     1      -9.399  10.317  62.474  1.00  0.00    -0.296 C  
HETATM   31  C   UNL     1      -7.700  10.454  64.245  1.00  0.00    -0.038 C  
ENDBRANCH   4  29
BRANCH   7  32
HETATM   32  C   UNL     1     -11.836  14.659  64.550  1.00  0.00    -0.431 C  
BRANCH  32  33
HETATM   33  N   UNL     1     -10.727  15.601  64.460  1.00  0.00    -0.738 NA 
HETATM   34  H   UNL     1     -10.539  15.839  63.486  1.00  0.00     0.000 HD 
BRANCH  33  35
HETATM   35  C   UNL     1     -10.903  16.809  65.254  1.00  0.00    -0.138 C  
BRANCH  35  36
HETATM   36  C   UNL     1      -9.942  16.801  66.477  1.00  0.00    -0.308 C  
HETATM   37  C   UNL     1      -8.820  15.759  66.298  1.00  0.00    -0.378 C  
HETATM   38  C   UNL     1     -10.724  16.489  67.769  1.00  0.00    -0.329 C  
HETATM   39  C   UNL     1      -9.294  18.188  66.617  1.00  0.00    -0.300 C  
ENDBRANCH  35  36
ENDBRANCH  33  35
ENDBRANCH  32  33
ENDBRANCH   7  32
BRANCH  10  40
HETATM   40  C   UNL     1     -10.744   5.254  72.478  1.00  0.00    -0.236 C  
HETATM   41  N   UNL     1     -11.951   5.675  72.929  1.00  0.00    -0.538 N  
HETATM   42  H2  UNL     1     -12.171   6.669  72.988  1.00  0.00     0.000 HD 
HETATM   43  H1  UNL     1     -12.635   4.970  73.207  1.00  0.00     0.000 HD 
HETATM   44  O   UNL     1     -10.515   4.044  72.472  1.00  0.00    -0.173 OA 
ENDBRANCH  10  40
BRANCH   8  45
HETATM   45  N   UNL     1      -9.178   4.909  68.747  1.00  0.00    -0.113 NA 
HETATM   46  C   UNL     1      -9.495   3.626  69.375  1.00  0.00    -0.179 C  
HETATM   47  C   UNL     1      -7.970   4.789  67.936  1.00  0.00    -0.089 C  
ENDBRANCH   8  45
TORSDOF 7
ENDMDL
MODEL        5
REMARK 921   NORMALIZED FREE ENERGY PREDICTED BY IDOCK:   -7.75 KCAL/MOL
REMARK 922        TOTAL FREE ENERGY PREDICTED BY IDOCK:  -11.68 KCAL/MOL
REMARK 923 INTER-LIGAND FREE ENERGY PREDICTED BY IDOCK:  -10.64 KCAL/MOL
REMARK 924 INTRA-LIGAND FREE ENERGY PREDICTED BY IDOCK:   -1.04 KCAL/MOL
REMARK 927      BINDING AFFINITY PREDICTED BY RF-SCORE:    0.00 PKD
ROOT
HETATM    1  C   UNL     1     -10.074  10.886  69.163  1.00  0.00    -0.198 C  
HETATM    2  C   UNL     1     -10.934  12.108  69.420  1.00  0.00    -0.109 C  
HETATM    3  C   UNL     1     -10.967  13.141  68.352  1.00  0.00    -0.287 A  
HETATM    4  C   UNL     1     -11.364  14.459  68.678  1.00  0.00    -0.273 A  
HETATM    5  C   UNL     1     -11.339  15.381  67.624  1.00  0.00    -0.292 A  
HETATM    6  C   UNL     1     -10.860   6.245  70.943  1.00  0.00    -0.272 C  
HETATM    7  C   UNL     1     -10.909  15.078  66.310  1.00  0.00    -0.333 A  
HETATM    8  C   UNL     1     -10.626   7.705  71.227  1.00  0.00    -0.219 C  
HETATM    9  H   UNL     1      -8.269   6.897  69.088  1.00  0.00     0.000 HD 
HETATM   10  C   UNL     1     -10.422   5.687  69.805  1.00  0.00    -0.377 C  
HETATM   11  C   UNL     1     -10.560  13.751  66.024  1.00  0.00    -0.290 A  
HETATM   12  O   UNL     1     -11.397   6.299  67.773  1.00  0.00    -0.250 OA 
HETATM   13  O   UNL     1     -10.118  13.385  64.783  1.00  0.00    -0.544 OA 
HETATM   14  C   UNL     1     -10.627  12.764  67.026  1.00  0.00    -0.253 A  
HETATM   15  H   UNL     1      -9.881  12.485  64.590  1.00  0.00     0.000 HD 
HETATM   16  C   UNL     1     -10.598   6.624  68.651  1.00  0.00    -0.234 C  
HETATM   17  O   UNL     1      -8.450   7.530  68.404  1.00  0.00    -0.124 OA 
HETATM   18  C   UNL     1     -10.418  11.306  66.679  1.00  0.00    -0.247 C  
HETATM   19  C   UNL     1     -10.557   9.884  70.183  1.00  0.00    -0.350 C  
HETATM   20  C   UNL     1     -10.219  10.316  67.796  1.00  0.00    -0.225 C  
HETATM   21  O   UNL     1     -10.443  10.876  65.528  1.00  0.00    -0.261 OA 
HETATM   22  C   UNL     1     -10.105   8.981  67.577  1.00  0.00    -0.228 C  
HETATM   23  C   UNL     1      -9.852   8.531  70.132  1.00  0.00    -0.184 C  
HETATM   24  H   UNL     1     -12.327   6.138  72.355  1.00  0.00     0.000 HD 
HETATM   25  O   UNL     1     -12.016   5.742  71.549  1.00  0.00     0.069 OA 
HETATM   26  C   UNL     1      -9.808   7.951  68.691  1.00  0.00    -0.170 C  
HETATM   27  O   UNL     1     -10.061   8.452  66.292  1.00  0.00    -0.429 OA 
HETATM   28  H   UNL     1      -9.981   7.517  66.139  1.00  0.00     0.000 HD 
ENDROOT
BRANCH   4  29
HETATM   29  N   UNL     1     -11.804  14.888  69.928  1.00  0.00    -0.292 NA 
HETATM   30  C   UNL     1     -11.153  15.923  70.726  1.00  0.00    -0.322 C  
HETATM   31  C   UNL     1     -13.138  14.510  70.396  1.00  0.00    -0.084 C  
ENDBRANCH   4  29
BRANCH   7  32
HETATM   32  C   UNL     1     -10.938  16.183  65.269  1.00  0.00    -0.270 C  
BRANCH  32  33
HETATM   33  N   UNL     1      -9.911  17.182  65.542  1.00  0.00    -0.514 NA 
HETATM   34  H   UNL     1      -9.304  17.301  64.731  1.00  0.00     0.000 HD 
BRANCH  33  35
HETATM   35  C   UNL     1     -10.430  18.469  65.982  1.00  0.00    -0.400 C  
BRANCH  35  36
HETATM   36  C   UNL     1      -9.524  19.069  67.095  1.00  0.00    -0.350 C  
HETATM   37  C   UNL     1      -8.042  18.713  66.861  1.00  0.00    -0.256 C  
HETATM   38  C   UNL     1      -9.960  18.547  68.479  1.00  0.00    -0.419 C  
HETATM   39  C   UNL     1      -9.658  20.601  67.082  1.00  0.00    -0.534 C  
ENDBRANCH  35  36
ENDBRANCH  33  35
ENDBRANCH  32  33
ENDBRANCH   7  32
BRANCH  10  40
HETATM   40  C   UNL     1      -9.150   4.953  70.083  1.00  0.00    -0.110 C  
HETATM   41  N   UNL     1      -8.428   4.499  69.028  1.00  0.00    -0.079 N  
HETATM   42  H2  UNL     1      -8.746   4.654  68.071  1.00  0.00     0.000 HD 
HETATM   43  H1  UNL     1      -7.560   3.998  69.217  1.00  0.00     0.000 HD 
HETATM   44  O   UNL     1      -8.745   4.697  71.217  1.00  0.00    -0.113 OA 
ENDBRANCH  10  40
BRANCH   8  45
HETATM   45  N   UNL     1     -10.043   8.058  72.543  1.00  0.00    -0.252 NA 
HETATM   46  C   UNL     1      -8.581   8.115  72.568  1.00  0.00    -0.194 C  
HETATM   47  C   UNL     1     -10.533   7.216  73.630  1.00  0.00    -0.370 C  
ENDBRANCH   8  45
TORSDOF 7
ENDMDL
MODEL        6
REMARK 921   NORMALIZED FREE ENERGY PREDICTED BY IDOCK:   -7.69 KCAL/MOL
REMARK 922        TOTAL FREE ENERGY PREDICTED BY IDOCK:  -11.59 KCAL/MOL
REMARK 923 INTER-LIGAND FREE ENERGY PREDICTED BY IDOCK:   -9.88 KCAL/MOL
REMARK 924 INTRA-LIGAND FREE ENERGY PREDICTED BY IDOCK:   -1.71 KCAL/MOL
REMARK 927      BINDING AFFINITY PREDICTED BY RF-SCORE:    0.00 PKD
ROOT
HETATM    1  C   UNL     1     -10.438   8.432  67.549  1.00  0.00    -0.328 C  
HETATM    2  C   UNL     1      -9.659   9.064  66.412  1.00  0.00    -0.309 C  
HETATM    3  C   UNL     1     -10.213  10.317  65.835  1.00  0.00    -0.293 A  
HETATM    4  C   UNL     1      -9.817  10.713  64.535  1.00  0.00    -0.327 A  
HETATM    5  C   UNL     1     -10.407  11.887  64.050  1.00  0.00    -0.403 A  
HETATM    6  C   UNL     1      -8.541   5.681  71.311  1.00  0.00    -0.128 C  
HETATM    7  C   UNL     1     -11.375  12.642  64.754  1.00  0.00    -0.350 A  
HETATM    8  C   UNL     1      -8.731   5.870  69.829  1.00  0.00    -0.129 C  
HETATM    9  H   UNL     1     -11.742   6.216  71.094  1.00  0.00     0.000 HD 
HETATM   10  C   UNL     1      -9.413   6.197  72.188  1.00  0.00    -0.159 C  
HETATM   11  C   UNL     1     -11.710  12.233  66.052  1.00  0.00    -0.388 A  
HETATM   12  O   UNL     1      -9.556   8.514  72.442  1.00  0.00    -0.283 OA 
HETATM   13  O   UNL     1     -12.650  12.900  66.787  1.00  0.00    -0.205 OA 
HETATM   14  C   UNL     1     -11.102  11.097  66.621  1.00  0.00    -0.255 A  
HETATM   15  H   UNL     1     -12.877  12.622  67.666  1.00  0.00     0.000 HD 
HETATM   16  C   UNL     1      -9.875   7.551  71.745  1.00  0.00    -0.164 C  
HETATM   17  O   UNL     1     -11.953   7.083  70.767  1.00  0.00    -0.349 OA 
HETATM   18  C   UNL     1     -11.332  10.753  68.077  1.00  0.00    -0.307 C  
HETATM   19  C   UNL     1      -9.455   7.470  68.168  1.00  0.00    -0.147 C  
HETATM   20  C   UNL     1     -10.905   9.401  68.579  1.00  0.00    -0.149 C  
HETATM   21  O   UNL     1     -11.814  11.542  68.887  1.00  0.00    -0.310 OA 
HETATM   22  C   UNL     1     -11.001   9.043  69.885  1.00  0.00    -0.193 C  
HETATM   23  C   UNL     1      -9.991   6.695  69.370  1.00  0.00    -0.169 C  
HETATM   24  H   UNL     1      -6.580   5.179  71.061  1.00  0.00     0.000 HD 
HETATM   25  O   UNL     1      -7.199   5.544  71.683  1.00  0.00    -0.079 OA 
HETATM   26  C   UNL     1     -10.658   7.632  70.416  1.00  0.00    -0.230 C  
HETATM   27  O   UNL     1     -11.598   9.871  70.828  1.00  0.00    -0.295 OA 
HETATM   28  H   UNL     1     -11.665   9.621  71.743  1.00  0.00     0.000 HD 
ENDROOT
BRANCH   4  29
HETATM   29  N   UNL     1      -8.879  10.060  63.739  1.00  0.00    -0.210 NA 
HETATM   30  C   UNL     1      -9.138   9.565  62.391  1.00  0.00    -0.238 C  
HETATM   31  C   UNL     1      -7.465  10.085  64.116  1.00  0.00    -0.132 C  
ENDBRANCH   4  29
BRANCH   7  32
HETATM   32  C   UNL     1     -11.926  13.897  64.100  1.00  0.00    -0.428 C  
BRANCH  32  33
HETATM   33  N   UNL     1     -11.898  15.022  65.028  1.00  0.00    -0.293 NA 
HETATM   34  H   UNL     1     -12.126  14.711  65.972  1.00  0.00     0.000 HD 
BRANCH  33  35
HETATM   35  C   UNL     1     -10.648  15.768  65.025  1.00  0.00    -0.371 C  
BRANCH  35  36
HETATM   36  C   UNL     1     -10.084  15.888  66.471  1.00  0.00    -0.293 C  
HETATM   37  C   UNL     1      -9.377  17.242  66.683  1.00  0.00    -0.276 C  
HETATM   38  C   UNL     1      -9.089  14.745  66.753  1.00  0.00    -0.291 C  
HETATM   39  C   UNL     1     -11.246  15.789  67.473  1.00  0.00    -0.218 C  
ENDBRANCH  35  36
ENDBRANCH  33  35
ENDBRANCH  32  33
ENDBRANCH   7  32
BRANCH  10  40
HETATM   40  C   UNL     1     -10.345   5.118  72.639  1.00  0.00    -0.200 C  
HETATM   41  N   UNL     1     -11.576   5.476  73.078  1.00  0.00    -0.524 N  
HETATM   42  H2  UNL     1     -11.860   6.456  73.101  1.00  0.00     0.000 HD 
HETATM   43  H1  UNL     1     -12.212   4.740  73.386  1.00  0.00     0.000 HD 
HETATM   44  O   UNL     1     -10.038   3.926  72.677  1.00  0.00    -0.153 OA 
ENDBRANCH  10  40
BRANCH   8  45
HETATM   45  N   UNL     1      -8.656   4.662  68.973  1.00  0.00    -0.083 NA 
HETATM   46  C   UNL     1      -9.194   3.446  69.584  1.00  0.00    -0.154 C  
HETATM   47  C   UNL     1      -7.316   4.413  68.451  1.00  0.00    -0.064 C  
ENDBRANCH   8  45
TORSDOF 7
ENDMDL
MODEL        7
REMARK 921   NORMALIZED FREE ENERGY PREDICTED BY IDOCK:   -7.31 KCAL/MOL
REMARK 922        TOTAL FREE ENERGY PREDICTED BY IDOCK:  -11.06 KCAL/MOL
REMARK 923 INTER-LIGAND FREE ENERGY PREDICTED BY IDOCK:  -10.46 KCAL/MOL
REMARK 924 INTRA-LIGAND FREE ENERGY PREDICTED BY IDOCK:   -0.60 KCAL/MOL
REMARK 927      BINDING AFFINITY PREDICTED BY RF-SCORE:    0.00 PKD
ROOT
HETATM    1  C   UNL     1      -8.588  13.895  68.170  1.00  0.00    -0.180 C  
HETATM    2  C   UNL     1      -7.752  12.693  67.774  1.00  0.00    -0.145 C  
HETATM    3  C   UNL     1      -8.406  11.362  67.869  1.00  0.00    -0.137 A  
HETATM    4  C   UNL     1      -7.600  10.201  67.949  1.00  0.00    -0.089 A  
HETATM    5  C   UNL     1      -8.291   8.988  68.067  1.00  0.00    -0.117 A  
HETATM    6  C   UNL     1      -8.165  18.566  66.347  1.00  0.00    -0.268 C  
HETATM    7  C   UNL     1      -9.699   8.877  68.153  1.00  0.00    -0.180 A  
HETATM    8  C   UNL     1      -7.522  17.401  67.053  1.00  0.00    -0.198 C  
HETATM    9  H   UNL     1     -10.350  17.874  68.654  1.00  0.00     0.000 HD 
HETATM   10  C   UNL     1      -9.491  18.752  66.394  1.00  0.00    -0.336 C  
HETATM   11  C   UNL     1     -10.458  10.049  68.033  1.00  0.00    -0.218 A  
HETATM   12  O   UNL     1     -10.905  17.239  65.313  1.00  0.00    -0.576 OA 
HETATM   13  O   UNL     1     -11.822  10.025  68.124  1.00  0.00    -0.565 OA 
HETATM   14  C   UNL     1      -9.824  11.293  67.846  1.00  0.00    -0.187 A  
HETATM   15  H   UNL     1     -12.335  10.820  68.043  1.00  0.00     0.000 HD 
HETATM   16  C   UNL     1     -10.215  17.444  66.312  1.00  0.00    -0.341 C  
HETATM   17  O   UNL     1     -10.735  17.011  68.556  1.00  0.00    -0.353 OA 
HETATM   18  C   UNL     1     -10.641  12.531  67.545  1.00  0.00    -0.220 C  
HETATM   19  C   UNL     1      -7.832  15.065  67.592  1.00  0.00    -0.186 C  
HETATM   20  C   UNL     1      -9.974  13.878  67.628  1.00  0.00    -0.237 C  
HETATM   21  O   UNL     1     -11.818  12.494  67.194  1.00  0.00    -0.417 OA 
HETATM   22  C   UNL     1     -10.611  15.030  67.297  1.00  0.00    -0.279 C  
HETATM   23  C   UNL     1      -8.478  16.427  67.839  1.00  0.00    -0.171 C  
HETATM   24  H   UNL     1      -6.516  18.853  65.182  1.00  0.00     0.000 HD 
HETATM   25  O   UNL     1      -7.456  18.985  65.216  1.00  0.00    -0.377 OA 
HETATM   26  C   UNL     1      -9.984  16.434  67.458  1.00  0.00    -0.250 C  
HETATM   27  O   UNL     1     -11.959  15.049  66.957  1.00  0.00    -0.262 OA 
HETATM   28  H   UNL     1     -12.405  15.855  66.725  1.00  0.00     0.000 HD 
ENDROOT
BRANCH   4  29
HETATM   29  N   UNL     1      -6.210  10.172  67.879  1.00  0.00    -0.056 NA 
HETATM   30  C   UNL     1      -5.325  10.032  69.032  1.00  0.00    -0.035 C  
HETATM   31  C   UNL     1      -5.551   9.995  66.584  1.00  0.00    -0.046 C  
ENDBRANCH   4  29
BRANCH   7  32
HETATM   32  C   UNL     1     -10.308   7.491  68.278  1.00  0.00    -0.195 C  
BRANCH  32  33
HETATM   33  N   UNL     1     -11.399   7.488  69.245  1.00  0.00    -0.416 NA 
HETATM   34  H   UNL     1     -12.254   7.133  68.818  1.00  0.00     0.000 HD 
BRANCH  33  35
HETATM   35  C   UNL     1     -11.106   6.763  70.474  1.00  0.00    -0.298 C  
BRANCH  35  36
HETATM   36  C   UNL     1     -11.461   7.632  71.715  1.00  0.00    -0.302 C  
HETATM   37  C   UNL     1     -11.144   6.887  73.027  1.00  0.00    -0.267 C  
HETATM   38  C   UNL     1     -12.956   8.010  71.693  1.00  0.00    -0.351 C  
HETATM   39  C   UNL     1     -10.627   8.923  71.680  1.00  0.00    -0.422 C  
ENDBRANCH  35  36
ENDBRANCH  33  35
ENDBRANCH  32  33
ENDBRANCH   7  32
BRANCH  10  40
HETATM   40  C   UNL     1      -9.799  19.799  67.416  1.00  0.00    -0.391 C  
HETATM   41  N   UNL     1      -9.888  21.089  67.006  1.00  0.00    -0.520 N  
HETATM   42  H2  UNL     1      -9.750  21.337  66.026  1.00  0.00     0.000 HD 
HETATM   43  H1  UNL     1     -10.098  21.803  67.703  1.00  0.00     0.000 HD 
HETATM   44  O   UNL     1      -9.928  19.561  68.617  1.00  0.00    -0.406 OA 
ENDBRANCH  10  40
BRANCH   8  45
HETATM   45  N   UNL     1      -6.366  17.692  67.933  1.00  0.00    -0.165 NA 
HETATM   46  C   UNL     1      -5.148  16.949  67.607  1.00  0.00    -0.125 C  
HETATM   47  C   UNL     1      -6.677  17.552  69.353  1.00  0.00    -0.179 C  
ENDBRANCH   8  45
TORSDOF 7
ENDMDL
MODEL        8
REMARK 921   NORMALIZED FREE ENERGY PREDICTED BY IDOCK:   -7.01 KCAL/MOL
REMARK 922        TOTAL FREE ENERGY PREDICTED BY IDOCK:  -10.63 KCAL/MOL
REMARK 923 INTER-LIGAND FREE ENERGY PREDICTED BY IDOCK:   -9.89 KCAL/MOL
REMARK 924 INTRA-LIGAND FREE ENERGY PREDICTED BY IDOCK:   -0.74 KCAL/MOL
REMARK 927      BINDING AFFINITY PREDICTED BY RF-SCORE:    0.00 PKD
ROOT
HETATM    1  C   UNL     1      -9.691  10.733  68.468  1.00  0.00    -0.184 C  
HETATM    2  C   UNL     1     -10.575  11.888  68.900  1.00  0.00    -0.205 C  
HETATM    3  C   UNL     1     -10.717  13.017  67.944  1.00  0.00    -0.249 A  
HETATM    4  C   UNL     1     -11.137  14.280  68.425  1.00  0.00    -0.256 A  
HETATM    5  C   UNL     1     -11.216  15.300  67.468  1.00  0.00    -0.317 A  
HETATM    6  C   UNL     1     -10.190   5.913  69.823  1.00  0.00    -0.218 C  
HETATM    7  C   UNL     1     -10.865  15.144  66.106  1.00  0.00    -0.330 A  
HETATM    8  C   UNL     1      -9.990   7.347  70.236  1.00  0.00    -0.188 C  
HETATM    9  H   UNL     1      -7.754   6.850  67.882  1.00  0.00     0.000 HD 
HETATM   10  C   UNL     1      -9.810   5.487  68.610  1.00  0.00    -0.198 C  
HETATM   11  C   UNL     1     -10.489  13.867  65.667  1.00  0.00    -0.312 A  
HETATM   12  O   UNL     1     -10.940   6.252  66.714  1.00  0.00    -0.347 OA 
HETATM   13  O   UNL     1     -10.118  13.642  64.371  1.00  0.00    -0.652 OA 
HETATM   14  C   UNL     1     -10.454  12.785  66.568  1.00  0.00    -0.276 A  
HETATM   15  H   UNL     1      -9.863  12.776  64.074  1.00  0.00     0.000 HD 
HETATM   16  C   UNL     1     -10.096   6.523  67.568  1.00  0.00    -0.155 C  
HETATM   17  O   UNL     1      -8.004   7.539  67.277  1.00  0.00    -0.114 OA 
HETATM   18  C   UNL     1     -10.216  11.378  66.066  1.00  0.00    -0.245 C  
HETATM   19  C   UNL     1     -10.069   9.618  69.411  1.00  0.00    -0.213 C  
HETATM   20  C   UNL     1      -9.907  10.294  67.063  1.00  0.00    -0.238 C  
HETATM   21  O   UNL     1     -10.303  11.061  64.881  1.00  0.00    -0.288 OA 
HETATM   22  C   UNL     1      -9.760   8.993  66.705  1.00  0.00    -0.216 C  
HETATM   23  C   UNL     1      -9.321   8.307  69.181  1.00  0.00    -0.151 C  
HETATM   24  H   UNL     1     -11.554   5.608  71.307  1.00  0.00     0.000 HD 
HETATM   25  O   UNL     1     -11.284   5.305  70.448  1.00  0.00     0.078 OA 
HETATM   26  C   UNL     1      -9.353   7.873  67.690  1.00  0.00    -0.143 C  
HETATM   27  O   UNL     1      -9.784   8.593  65.374  1.00  0.00    -0.405 OA 
HETATM   28  H   UNL     1      -9.681   7.682  65.123  1.00  0.00     0.000 HD 
ENDROOT
BRANCH   4  29
HETATM   29  N   UNL     1     -11.508  14.566  69.736  1.00  0.00    -0.269 NA 
HETATM   30  C   UNL     1     -10.839  15.541  70.592  1.00  0.00    -0.303 C  
HETATM   31  C   UNL     1     -12.796  14.094  70.246  1.00  0.00    -0.127 C  
ENDBRANCH   4  29
BRANCH   7  32
HETATM   32  C   UNL     1     -11.003  16.343  65.184  1.00  0.00    -0.232 C  
BRANCH  32  33
HETATM   33  N   UNL     1      -9.959  17.326  65.449  1.00  0.00    -0.400 NA 
HETATM   34  H   UNL     1      -9.431  17.524  64.599  1.00  0.00     0.000 HD 
BRANCH  33  35
HETATM   35  C   UNL     1     -10.440  18.563  66.049  1.00  0.00    -0.400 C  
BRANCH  35  36
HETATM   36  C   UNL     1      -9.426  19.084  67.108  1.00  0.00    -0.350 C  
HETATM   37  C   UNL     1     -10.148  19.775  68.281  1.00  0.00    -0.575 C  
HETATM   38  C   UNL     1      -8.441  20.078  66.460  1.00  0.00    -0.359 C  
HETATM   39  C   UNL     1      -8.627  17.894  67.667  1.00  0.00    -0.242 C  
ENDBRANCH  35  36
ENDBRANCH  33  35
ENDBRANCH  32  33
ENDBRANCH   7  32
BRANCH  10  40
HETATM   40  C   UNL     1      -8.496   4.784  68.732  1.00  0.00    -0.081 C  
HETATM   41  N   UNL     1      -7.595   5.259  69.627  1.00  0.00    -0.068 N  
HETATM   42  H2  UNL     1      -7.808   6.075  70.202  1.00  0.00     0.000 HD 
HETATM   43  H1  UNL     1      -6.698   4.780  69.710  1.00  0.00     0.000 HD 
HETATM   44  O   UNL     1      -8.169   3.826  68.031  1.00  0.00    -0.086 OA 
ENDBRANCH  10  40
BRANCH   8  45
HETATM   45  N   UNL     1      -9.333   7.595  71.540  1.00  0.00    -0.136 NA 
HETATM   46  C   UNL     1     -10.181   8.252  72.536  1.00  0.00    -0.316 C  
HETATM   47  C   UNL     1      -8.062   8.303  71.416  1.00  0.00    -0.125 C  
ENDBRANCH   8  45
TORSDOF 7
ENDMDL
MODEL        9
REMARK 921   NORMALIZED FREE ENERGY PREDICTED BY IDOCK:   -6.91 KCAL/MOL
REMARK 922        TOTAL FREE ENERGY PREDICTED BY IDOCK:  -10.49 KCAL/MOL
REMARK 923 INTER-LIGAND FREE ENERGY PREDICTED BY IDOCK:   -9.95 KCAL/MOL
REMARK 924 INTRA-LIGAND FREE ENERGY PREDICTED BY IDOCK:   -0.54 KCAL/MOL
REMARK 927      BINDING AFFINITY PREDICTED BY RF-SCORE:    0.00 PKD
ROOT
HETATM    1  C   UNL     1      -9.191  10.049  69.215  1.00  0.00    -0.212 C  
HETATM    2  C   UNL     1      -8.333  11.289  69.064  1.00  0.00    -0.014 C  
HETATM    3  C   UNL     1      -8.854  12.360  68.175  1.00  0.00    -0.191 A  
HETATM    4  C   UNL     1      -7.954  13.314  67.642  1.00  0.00    -0.176 A  
HETATM    5  C   UNL     1      -8.517  14.272  66.789  1.00  0.00    -0.051 A  
HETATM    6  C   UNL     1      -9.437   7.054  73.252  1.00  0.00    -0.166 C  
HETATM    7  C   UNL     1      -9.882  14.301  66.414  1.00  0.00    -0.309 A  
HETATM    8  C   UNL     1      -8.600   7.677  72.166  1.00  0.00    -0.118 C  
HETATM    9  H   UNL     1     -11.174   6.391  70.583  1.00  0.00     0.000 HD 
HETATM   10  C   UNL     1     -10.751   6.853  73.078  1.00  0.00    -0.328 C  
HETATM   11  C   UNL     1     -10.742  13.359  66.994  1.00  0.00    -0.268 A  
HETATM   12  O   UNL     1     -12.188   8.689  72.942  1.00  0.00    -0.245 OA 
HETATM   13  O   UNL     1     -12.069  13.313  66.667  1.00  0.00    -0.392 OA 
HETATM   14  C   UNL     1     -10.248  12.411  67.910  1.00  0.00    -0.213 A  
HETATM   15  H   UNL     1     -12.652  12.675  67.060  1.00  0.00     0.000 HD 
HETATM   16  C   UNL     1     -11.371   7.996  72.337  1.00  0.00    -0.382 C  
HETATM   17  O   UNL     1     -11.499   7.171  70.146  1.00  0.00    -0.266 OA 
HETATM   18  C   UNL     1     -11.199  11.508  68.666  1.00  0.00    -0.248 C  
HETATM   19  C   UNL     1      -8.632   9.371  70.441  1.00  0.00    -0.266 C  
HETATM   20  C   UNL     1     -10.639  10.331  69.417  1.00  0.00    -0.262 C  
HETATM   21  O   UNL     1     -12.409  11.710  68.733  1.00  0.00    -0.374 OA 
HETATM   22  C   UNL     1     -11.411   9.519  70.184  1.00  0.00    -0.199 C  
HETATM   23  C   UNL     1      -9.340   8.076  70.834  1.00  0.00    -0.169 C  
HETATM   24  H   UNL     1      -8.018   7.448  74.662  1.00  0.00     0.000 HD 
HETATM   25  O   UNL     1      -8.949   7.305  74.538  1.00  0.00    -0.197 OA 
HETATM   26  C   UNL     1     -10.883   8.251  70.893  1.00  0.00    -0.230 C  
HETATM   27  O   UNL     1     -12.793   9.665  70.242  1.00  0.00    -0.451 OA 
HETATM   28  H   UNL     1     -13.333   9.097  70.778  1.00  0.00     0.000 HD 
ENDROOT
BRANCH   4  29
HETATM   29  N   UNL     1      -6.594  13.394  67.928  1.00  0.00    -0.132 NA 
HETATM   30  C   UNL     1      -5.565  12.570  67.301  1.00  0.00    -0.066 C  
HETATM   31  C   UNL     1      -6.078  14.532  68.690  1.00  0.00    -0.084 C  
ENDBRANCH   4  29
BRANCH   7  32
HETATM   32  C   UNL     1     -10.349  15.404  65.479  1.00  0.00    -0.387 C  
BRANCH  32  33
HETATM   33  N   UNL     1      -9.719  16.674  65.818  1.00  0.00    -0.531 NA 
HETATM   34  H   UNL     1      -9.607  17.251  64.985  1.00  0.00     0.000 HD 
BRANCH  33  35
HETATM   35  C   UNL     1     -10.404  17.420  66.865  1.00  0.00    -0.317 C  
BRANCH  35  36
HETATM   36  C   UNL     1      -9.926  18.901  66.880  1.00  0.00    -0.391 C  
HETATM   37  C   UNL     1     -10.184  19.557  68.250  1.00  0.00    -0.552 C  
HETATM   38  C   UNL     1     -10.651  19.707  65.784  1.00  0.00    -0.537 C  
HETATM   39  C   UNL     1      -8.414  18.942  66.603  1.00  0.00    -0.308 C  
ENDBRANCH  35  36
ENDBRANCH  33  35
ENDBRANCH  32  33
ENDBRANCH   7  32
BRANCH  10  40
HETATM   40  C   UNL     1     -10.980   5.419  72.718  1.00  0.00    -0.277 C  
HETATM   41  N   UNL     1     -10.120   4.831  71.851  1.00  0.00    -0.193 N  
HETATM   42  H2  UNL     1      -9.337   5.352  71.454  1.00  0.00     0.000 HD 
HETATM   43  H1  UNL     1     -10.276   3.853  71.605  1.00  0.00     0.000 HD 
HETATM   44  O   UNL     1     -11.933   4.758  73.130  1.00  0.00    -0.204 OA 
ENDBRANCH  10  40
BRANCH   8  45
HETATM   45  N   UNL     1      -7.348   6.981  71.786  1.00  0.00    -0.085 NA 
HETATM   46  C   UNL     1      -7.385   6.330  70.475  1.00  0.00    -0.085 C  
HETATM   47  C   UNL     1      -6.886   6.040  72.803  1.00  0.00    -0.075 C  
ENDBRANCH   8  45
TORSDOF 7
ENDMDL
MODEL       10
REMARK 921   NORMALIZED FREE ENERGY PREDICTED BY IDOCK:   -6.87 KCAL/MOL
REMARK 922        TOTAL FREE ENERGY PREDICTED BY IDOCK:  -10.44 KCAL/MOL
REMARK 923 INTER-LIGAND FREE ENERGY PREDICTED BY IDOCK:   -9.25 KCAL/MOL
REMARK 924 INTRA-LIGAND FREE ENERGY PREDICTED BY IDOCK:   -1.19 KCAL/MOL
REMARK 927      BINDING AFFINITY PREDICTED BY RF-SCORE:    0.00 PKD
ROOT
HETATM    1  C   UNL     1     -10.286   8.202  66.854  1.00  0.00    -0.401 C  
HETATM    2  C   UNL     1     -10.245   9.422  65.955  1.00  0.00    -0.204 C  
HETATM    3  C   UNL     1     -10.611  10.723  66.574  1.00  0.00    -0.279 A  
HETATM    4  C   UNL     1     -11.018  11.793  65.742  1.00  0.00    -0.301 A  
HETATM    5  C   UNL     1     -11.378  12.975  66.402  1.00  0.00    -0.355 A  
HETATM    6  C   UNL     1      -7.432   4.078  66.438  1.00  0.00    -0.084 C  
HETATM    7  C   UNL     1     -11.395  13.128  67.809  1.00  0.00    -0.326 A  
HETATM    8  C   UNL     1      -8.437   5.011  65.815  1.00  0.00    -0.124 C  
HETATM    9  H   UNL     1      -9.690   4.308  68.768  1.00  0.00     0.000 HD 
HETATM   10  C   UNL     1      -7.347   3.949  67.769  1.00  0.00    -0.067 C  
HETATM   11  C   UNL     1     -10.949  12.055  68.591  1.00  0.00    -0.240 A  
HETATM   12  O   UNL     1      -6.568   5.739  69.052  1.00  0.00    -0.046 OA 
HETATM   13  O   UNL     1     -10.954  12.121  69.957  1.00  0.00    -0.384 OA 
HETATM   14  C   UNL     1     -10.512  10.862  67.984  1.00  0.00    -0.222 A  
HETATM   15  H   UNL     1     -10.651  11.393  70.487  1.00  0.00     0.000 HD 
HETATM   16  C   UNL     1      -7.532   5.272  68.445  1.00  0.00    -0.075 C  
HETATM   17  O   UNL     1      -9.775   5.187  69.118  1.00  0.00    -0.137 OA 
HETATM   18  C   UNL     1      -9.872   9.769  68.812  1.00  0.00    -0.169 C  
HETATM   19  C   UNL     1      -9.496   7.166  66.093  1.00  0.00    -0.059 C  
HETATM   20  C   UNL     1      -9.674   8.412  68.195  1.00  0.00    -0.175 C  
HETATM   21  O   UNL     1      -9.464   9.944  69.958  1.00  0.00    -0.231 OA 
HETATM   22  C   UNL     1      -9.037   7.402  68.839  1.00  0.00    -0.136 C  
HETATM   23  C   UNL     1      -9.368   5.817  66.797  1.00  0.00    -0.140 C  
HETATM   24  H   UNL     1      -6.343   3.997  64.716  1.00  0.00     0.000 HD 
HETATM   25  O   UNL     1      -6.283   3.905  65.659  1.00  0.00    -0.030 OA 
HETATM   26  C   UNL     1      -8.899   5.971  68.270  1.00  0.00    -0.111 C  
HETATM   27  O   UNL     1      -8.615   7.527  70.159  1.00  0.00    -0.138 OA 
HETATM   28  H   UNL     1      -8.168   6.820  70.610  1.00  0.00     0.000 HD 
ENDROOT
BRANCH   4  29
HETATM   29  N   UNL     1     -11.049  11.771  64.350  1.00  0.00    -0.330 NA 
HETATM   30  C   UNL     1     -12.253  11.957  63.545  1.00  0.00    -0.482 C  
HETATM   31  C   UNL     1      -9.797  11.841  63.595  1.00  0.00    -0.335 C  
ENDBRANCH   4  29
BRANCH   7  32
HETATM   32  C   UNL     1     -11.807  14.473  68.383  1.00  0.00    -0.316 C  
BRANCH  32  33
HETATM   33  N   UNL     1     -12.691  14.300  69.529  1.00  0.00    -0.452 NA 
HETATM   34  H   UNL     1     -12.521  13.400  69.979  1.00  0.00     0.000 HD 
BRANCH  33  35
HETATM   35  C   UNL     1     -12.622  15.377  70.507  1.00  0.00    -0.423 C  
BRANCH  35  36
HETATM   36  C   UNL     1     -12.970  14.846  71.927  1.00  0.00    -0.414 C  
HETATM   37  C   UNL     1     -11.817  15.103  72.917  1.00  0.00    -0.453 C  
HETATM   38  C   UNL     1     -13.267  13.334  71.874  1.00  0.00    -0.523 C  
HETATM   39  C   UNL     1     -14.220  15.576  72.444  1.00  0.00    -0.571 C  
ENDBRANCH  35  36
ENDBRANCH  33  35
ENDBRANCH  32  33
ENDBRANCH   7  32
BRANCH  10  40
HETATM   40  C   UNL     1      -8.067   2.706  68.184  1.00  0.00    -0.058 C  
HETATM   41  N   UNL     1      -8.601   2.660  69.429  1.00  0.00    -0.063 N  
HETATM   42  H2  UNL     1      -8.515   3.452  70.066  1.00  0.00     0.000 HD 
HETATM   43  H1  UNL     1      -9.092   1.811  69.712  1.00  0.00     0.000 HD 
HETATM   44  O   UNL     1      -8.159   1.704  67.474  1.00  0.00    -0.063 OA 
ENDBRANCH  10  40
BRANCH   8  45
HETATM   45  N   UNL     1      -9.295   4.467  64.737  1.00  0.00    -0.159 NA 
HETATM   46  C   UNL     1      -9.679   3.065  64.910  1.00  0.00    -0.046 C  
HETATM   47  C   UNL     1      -8.740   4.675  63.402  1.00  0.00    -0.132 C  
ENDBRANCH   8  45
TORSDOF 7
ENDMDL
MODEL       11
REMARK 921   NORMALIZED FREE ENERGY PREDICTED BY IDOCK:   -6.85 KCAL/MOL
REMARK 922        TOTAL FREE ENERGY PREDICTED BY IDOCK:  -10.41 KCAL/MOL
REMARK 923 INTER-LIGAND FREE ENERGY PREDICTED BY IDOCK:   -9.00 KCAL/MOL
REMARK 924 INTRA-LIGAND FREE ENERGY PREDICTED BY IDOCK:   -1.41 KCAL/MOL
REMARK 927      BINDING AFFINITY PREDICTED BY RF-SCORE:    0.00 PKD
ROOT
HETATM    1  C   UNL     1      -8.721  13.972  68.552  1.00  0.00    -0.156 C  
HETATM    2  C   UNL     1      -7.790  12.783  68.410  1.00  0.00    -0.132 C  
HETATM    3  C   UNL     1      -8.409  11.435  68.491  1.00  0.00    -0.153 A  
HETATM    4  C   UNL     1      -7.596  10.320  68.807  1.00  0.00    -0.093 A  
HETATM    5  C   UNL     1      -8.259   9.089  68.895  1.00  0.00    -0.120 A  
HETATM    6  C   UNL     1      -8.116  18.513  66.470  1.00  0.00    -0.280 C  
HETATM    7  C   UNL     1      -9.655   8.922  68.734  1.00  0.00    -0.159 A  
HETATM    8  C   UNL     1      -7.578  17.433  67.371  1.00  0.00    -0.191 C  
HETATM    9  H   UNL     1     -10.665  17.893  68.393  1.00  0.00     0.000 HD 
HETATM   10  C   UNL     1      -9.434  18.642  66.263  1.00  0.00    -0.267 C  
HETATM   11  C   UNL     1     -10.414  10.047  68.386  1.00  0.00    -0.205 A  
HETATM   12  O   UNL     1     -10.579  16.994  65.068  1.00  0.00    -0.703 OA 
HETATM   13  O   UNL     1     -11.771   9.968  68.232  1.00  0.00    -0.649 OA 
HETATM   14  C   UNL     1      -9.796  11.301  68.218  1.00  0.00    -0.201 A  
HETATM   15  H   UNL     1     -12.285  10.731  67.996  1.00  0.00     0.000 HD 
HETATM   16  C   UNL     1     -10.090  17.301  66.155  1.00  0.00    -0.302 C  
HETATM   17  O   UNL     1     -10.998  17.008  68.296  1.00  0.00    -0.365 OA 
HETATM   18  C   UNL     1     -10.582  12.476  67.678  1.00  0.00    -0.217 C  
HETATM   19  C   UNL     1      -7.909  15.130  68.029  1.00  0.00    -0.135 C  
HETATM   20  C   UNL     1      -9.983  13.854  67.772  1.00  0.00    -0.241 C  
HETATM   21  O   UNL     1     -11.673  12.360  67.125  1.00  0.00    -0.366 OA 
HETATM   22  C   UNL     1     -10.584  14.949  67.242  1.00  0.00    -0.272 C  
HETATM   23  C   UNL     1      -8.631  16.476  68.046  1.00  0.00    -0.184 C  
HETATM   24  H   UNL     1      -6.291  18.788  65.602  1.00  0.00     0.000 HD 
HETATM   25  O   UNL     1      -7.226  18.881  65.456  1.00  0.00    -0.485 OA 
HETATM   26  C   UNL     1     -10.041  16.388  67.401  1.00  0.00    -0.262 C  
HETATM   27  O   UNL     1     -11.847  14.883  66.664  1.00  0.00    -0.291 OA 
HETATM   28  H   UNL     1     -12.268  15.650  66.292  1.00  0.00     0.000 HD 
ENDROOT
BRANCH   4  29
HETATM   29  N   UNL     1      -6.216  10.349  68.992  1.00  0.00    -0.043 NA 
HETATM   30  C   UNL     1      -5.235  10.357  67.911  1.00  0.00    -0.037 C  
HETATM   31  C   UNL     1      -5.668  10.662  70.312  1.00  0.00    -0.085 C  
ENDBRANCH   4  29
BRANCH   7  32
HETATM   32  C   UNL     1     -10.233   7.522  68.857  1.00  0.00    -0.208 C  
BRANCH  32  33
HETATM   33  N   UNL     1      -9.574   6.605  67.933  1.00  0.00    -0.120 NA 
HETATM   34  H   UNL     1      -9.984   5.674  68.002  1.00  0.00     0.000 HD 
BRANCH  33  35
HETATM   35  C   UNL     1      -9.566   7.056  66.548  1.00  0.00    -0.144 C  
BRANCH  35  36
HETATM   36  C   UNL     1      -8.197   6.736  65.881  1.00  0.00    -0.132 C  
HETATM   37  C   UNL     1      -7.511   8.020  65.372  1.00  0.00    -0.079 C  
HETATM   38  C   UNL     1      -8.390   5.761  64.704  1.00  0.00    -0.102 C  
HETATM   39  C   UNL     1      -7.274   6.077  66.920  1.00  0.00    -0.071 C  
ENDBRANCH  35  36
ENDBRANCH  33  35
ENDBRANCH  32  33
ENDBRANCH   7  32
BRANCH  10  40
HETATM   40  C   UNL     1      -9.955  19.746  67.126  1.00  0.00    -0.409 C  
HETATM   41  N   UNL     1     -11.245  19.681  67.540  1.00  0.00    -0.086 N  
HETATM   42  H2  UNL     1     -11.843  18.900  67.270  1.00  0.00     0.000 HD 
HETATM   43  H1  UNL     1     -11.601  20.434  68.129  1.00  0.00     0.000 HD 
HETATM   44  O   UNL     1      -9.293  20.734  67.442  1.00  0.00    -0.392 OA 
ENDBRANCH  10  40
BRANCH   8  45
HETATM   45  N   UNL     1      -6.612  17.838  68.419  1.00  0.00    -0.196 NA 
HETATM   46  C   UNL     1      -6.854  19.162  68.994  1.00  0.00    -0.328 C  
HETATM   47  C   UNL     1      -5.221  17.723  67.990  1.00  0.00    -0.145 C  
ENDBRANCH   8  45
TORSDOF 7
ENDMDL
MODEL       12
REMARK 921   NORMALIZED FREE ENERGY PREDICTED BY IDOCK:   -6.76 KCAL/MOL
REMARK 922        TOTAL FREE ENERGY PREDICTED BY IDOCK:  -10.28 KCAL/MOL
REMARK 923 INTER-LIGAND FREE ENERGY PREDICTED BY IDOCK:   -9.49 KCAL/MOL
REMARK 924 INTRA-LIGAND FREE ENERGY PREDICTED BY IDOCK:   -0.80 KCAL/MOL
REMARK 927      BINDING AFFINITY PREDICTED BY RF-SCORE:    0.00 PKD
ROOT
HETATM    1  C   UNL     1      -8.438  13.687  68.116  1.00  0.00    -0.175 C  
HETATM    2  C   UNL     1      -7.674  12.453  67.677  1.00  0.00    -0.151 C  
HETATM    3  C   UNL     1      -8.395  11.156  67.751  1.00  0.00    -0.123 A  
HETATM    4  C   UNL     1      -7.651   9.953  67.788  1.00  0.00    -0.090 A  
HETATM    5  C   UNL     1      -8.402   8.775  67.889  1.00  0.00    -0.118 A  
HETATM    6  C   UNL     1      -7.800  18.374  66.399  1.00  0.00    -0.263 C  
HETATM    7  C   UNL     1      -9.813   8.736  67.997  1.00  0.00    -0.201 A  
HETATM    8  C   UNL     1      -7.208  17.160  67.066  1.00  0.00    -0.184 C  
HETATM    9  H   UNL     1      -9.981  17.740  68.727  1.00  0.00     0.000 HD 
HETATM   10  C   UNL     1      -9.114  18.627  66.474  1.00  0.00    -0.317 C  
HETATM   11  C   UNL     1     -10.510   9.949  67.919  1.00  0.00    -0.236 A  
HETATM   12  O   UNL     1     -10.623  17.219  65.381  1.00  0.00    -0.630 OA 
HETATM   13  O   UNL     1     -11.872   9.994  68.033  1.00  0.00    -0.513 OA 
HETATM   14  C   UNL     1      -9.815  11.162  67.751  1.00  0.00    -0.186 A  
HETATM   15  H   UNL     1     -12.344  10.817  67.980  1.00  0.00     0.000 HD 
HETATM   16  C   UNL     1      -9.907  17.362  66.372  1.00  0.00    -0.302 C  
HETATM   17  O   UNL     1     -10.413  16.900  68.614  1.00  0.00    -0.307 OA 
HETATM   18  C   UNL     1     -10.570  12.449  67.494  1.00  0.00    -0.219 C  
HETATM   19  C   UNL     1      -7.632  14.831  67.553  1.00  0.00    -0.215 C  
HETATM   20  C   UNL     1      -9.832  13.756  67.598  1.00  0.00    -0.234 C  
HETATM   21  O   UNL     1     -11.753  12.481  67.163  1.00  0.00    -0.344 OA 
HETATM   22  C   UNL     1     -10.413  14.948  67.306  1.00  0.00    -0.263 C  
HETATM   23  C   UNL     1      -8.201  16.217  67.844  1.00  0.00    -0.156 C  
HETATM   24  H   UNL     1      -6.157  18.603  65.212  1.00  0.00     0.000 HD 
HETATM   25  O   UNL     1      -7.089  18.784  65.266  1.00  0.00    -0.503 OA 
HETATM   26  C   UNL     1      -9.711  16.313  67.490  1.00  0.00    -0.234 C  
HETATM   27  O   UNL     1     -11.764  15.045  66.990  1.00  0.00    -0.309 OA 
HETATM   28  H   UNL     1     -12.170  15.880  66.786  1.00  0.00     0.000 HD 
ENDROOT
BRANCH   4  29
HETATM   29  N   UNL     1      -6.265   9.854  67.694  1.00  0.00    -0.058 NA 
HETATM   30  C   UNL     1      -5.366   9.697  68.833  1.00  0.00    -0.036 C  
HETATM   31  C   UNL     1      -5.642   9.614  66.391  1.00  0.00    -0.052 C  
ENDBRANCH   4  29
BRANCH   7  32
HETATM   32  C   UNL     1     -10.491   7.381  68.099  1.00  0.00    -0.193 C  
BRANCH  32  33
HETATM   33  N   UNL     1     -10.604   6.756  66.786  1.00  0.00    -0.473 NA 
HETATM   34  H   UNL     1      -9.919   7.152  66.143  1.00  0.00     0.000 HD 
BRANCH  33  35
HETATM   35  C   UNL     1     -10.505   5.303  66.805  1.00  0.00    -0.273 C  
BRANCH  35  36
HETATM   36  C   UNL     1      -9.138   4.844  66.223  1.00  0.00    -0.127 C  
HETATM   37  C   UNL     1      -8.526   5.928  65.312  1.00  0.00    -0.144 C  
HETATM   38  C   UNL     1      -9.310   3.541  65.418  1.00  0.00    -0.158 C  
HETATM   39  C   UNL     1      -8.161   4.582  67.381  1.00  0.00    -0.101 C  
ENDBRANCH  35  36
ENDBRANCH  33  35
ENDBRANCH  32  33
ENDBRANCH   7  32
BRANCH  10  40
HETATM   40  C   UNL     1      -9.349  19.664  67.526  1.00  0.00    -0.328 C  
HETATM   41  N   UNL     1      -8.794  19.473  68.749  1.00  0.00    -0.349 N  
HETATM   42  H2  UNL     1      -8.232  18.645  68.945  1.00  0.00     0.000 HD 
HETATM   43  H1  UNL     1      -8.955  20.180  69.467  1.00  0.00     0.000 HD 
HETATM   44  O   UNL     1     -10.058  20.656  67.357  1.00  0.00    -0.392 OA 
ENDBRANCH  10  40
BRANCH   8  45
HETATM   45  N   UNL     1      -6.024  17.368  67.931  1.00  0.00    -0.136 NA 
HETATM   46  C   UNL     1      -6.307  17.358  69.367  1.00  0.00    -0.246 C  
HETATM   47  C   UNL     1      -5.259  18.560  67.577  1.00  0.00    -0.148 C  
ENDBRANCH   8  45
TORSDOF 7
ENDMDL
MODEL       13
REMARK 921   NORMALIZED FREE ENERGY PREDICTED BY IDOCK:   -6.71 KCAL/MOL
REMARK 922        TOTAL FREE ENERGY PREDICTED BY IDOCK:  -10.22 KCAL/MOL
REMARK 923 INTER-LIGAND FREE ENERGY PREDICTED BY IDOCK:   -9.31 KCAL/MOL
REMARK 924 INTRA-LIGAND FREE ENERGY PREDICTED BY IDOCK:   -0.91 KCAL/MOL
REMARK 927      BINDING AFFINITY PREDICTED BY RF-SCORE:    0.00 PKD
ROOT
HETATM    1  C   UNL     1      -9.877  10.332  67.897  1.00  0.00    -0.181 C  
HETATM    2  C   UNL     1     -10.090  10.743  66.453  1.00  0.00    -0.278 C  
HETATM    3  C   UNL     1     -10.032  12.197  66.155  1.00  0.00    -0.253 A  
HETATM    4  C   UNL     1     -10.637  12.685  64.972  1.00  0.00    -0.303 A  
HETATM    5  C   UNL     1     -10.567  14.070  64.778  1.00  0.00    -0.441 A  
HETATM    6  C   UNL     1      -7.890   6.001  69.516  1.00  0.00    -0.099 C  
HETATM    7  C   UNL     1      -9.982  14.975  65.696  1.00  0.00    -0.387 A  
HETATM    8  C   UNL     1      -8.962   6.705  68.726  1.00  0.00    -0.125 C  
HETATM    9  H   UNL     1      -8.937   8.242  71.629  1.00  0.00     0.000 HD 
HETATM   10  C   UNL     1      -7.272   6.615  70.534  1.00  0.00    -0.073 C  
HETATM   11  C   UNL     1      -9.362  14.444  66.836  1.00  0.00    -0.256 A  
HETATM   12  O   UNL     1      -5.852   8.419  70.102  1.00  0.00    -0.025 OA 
HETATM   13  O   UNL     1      -8.792  15.255  67.777  1.00  0.00    -0.169 OA 
HETATM   14  C   UNL     1      -9.342  13.053  67.054  1.00  0.00    -0.236 A  
HETATM   15  H   UNL     1      -8.372  14.895  68.549  1.00  0.00     0.000 HD 
HETATM   16  C   UNL     1      -7.023   8.056  70.216  1.00  0.00    -0.044 C  
HETATM   17  O   UNL     1      -8.779   9.132  71.336  1.00  0.00    -0.309 OA 
HETATM   18  C   UNL     1      -8.529  12.468  68.188  1.00  0.00    -0.180 C  
HETATM   19  C   UNL     1      -9.585   8.854  67.812  1.00  0.00    -0.176 C  
HETATM   20  C   UNL     1      -8.745  11.027  68.568  1.00  0.00    -0.159 C  
HETATM   21  O   UNL     1      -7.666  13.098  68.794  1.00  0.00    -0.100 OA 
HETATM   22  C   UNL     1      -8.003  10.403  69.518  1.00  0.00    -0.144 C  
HETATM   23  C   UNL     1      -9.313   8.179  69.154  1.00  0.00    -0.151 C  
HETATM   24  H   UNL     1      -7.630   4.611  68.047  1.00  0.00     0.000 HD 
HETATM   25  O   UNL     1      -7.192   5.045  68.770  1.00  0.00    -0.056 OA 
HETATM   26  C   UNL     1      -8.261   8.955  69.994  1.00  0.00    -0.122 C  
HETATM   27  O   UNL     1      -7.060  11.088  70.277  1.00  0.00    -0.468 OA 
HETATM   28  H   UNL     1      -6.541  10.651  70.942  1.00  0.00     0.000 HD 
ENDROOT
BRANCH   4  29
HETATM   29  N   UNL     1     -11.246  11.905  63.992  1.00  0.00    -0.368 NA 
HETATM   30  C   UNL     1     -12.649  12.010  63.603  1.00  0.00    -0.490 C  
HETATM   31  C   UNL     1     -10.422  11.109  63.082  1.00  0.00    -0.176 C  
ENDBRANCH   4  29
BRANCH   7  32
HETATM   32  C   UNL     1      -9.979  16.454  65.349  1.00  0.00    -0.011 C  
BRANCH  32  33
HETATM   33  N   UNL     1     -10.524  17.246  66.446  1.00  0.00    -0.301 NA 
HETATM   34  H   UNL     1     -10.071  16.996  67.325  1.00  0.00     0.000 HD 
BRANCH  33  35
HETATM   35  C   UNL     1     -10.463  18.685  66.232  1.00  0.00    -0.424 C  
BRANCH  35  36
HETATM   36  C   UNL     1      -9.417  19.332  67.185  1.00  0.00    -0.388 C  
HETATM   37  C   UNL     1      -9.717  20.827  67.411  1.00  0.00    -0.473 C  
HETATM   38  C   UNL     1      -7.998  19.180  66.603  1.00  0.00    -0.283 C  
HETATM   39  C   UNL     1      -9.470  18.619  68.547  1.00  0.00    -0.386 C  
ENDBRANCH  35  36
ENDBRANCH  33  35
ENDBRANCH  32  33
ENDBRANCH   7  32
BRANCH  10  40
HETATM   40  C   UNL     1      -7.876   6.149  71.820  1.00  0.00    -0.102 C  
HETATM   41  N   UNL     1      -7.562   6.819  72.956  1.00  0.00    -0.087 N  
HETATM   42  H2  UNL     1      -6.931   7.620  72.934  1.00  0.00     0.000 HD 
HETATM   43  H1  UNL     1      -7.974   6.501  73.834  1.00  0.00     0.000 HD 
HETATM   44  O   UNL     1      -8.605   5.161  71.911  1.00  0.00    -0.126 OA 
ENDBRANCH  10  40
BRANCH   8  45
HETATM   45  N   UNL     1     -10.242   5.986  68.524  1.00  0.00    -0.167 NA 
HETATM   46  C   UNL     1     -10.847   6.175  67.205  1.00  0.00    -0.360 C  
HETATM   47  C   UNL     1     -11.222   6.256  69.571  1.00  0.00    -0.430 C  
ENDBRANCH   8  45
TORSDOF 7
ENDMDL
MODEL       14
REMARK 921   NORMALIZED FREE ENERGY PREDICTED BY IDOCK:   -6.66 KCAL/MOL
REMARK 922        TOTAL FREE ENERGY PREDICTED BY IDOCK:  -10.15 KCAL/MOL
REMARK 923 INTER-LIGAND FREE ENERGY PREDICTED BY IDOCK:   -8.96 KCAL/MOL
REMARK 924 INTRA-LIGAND FREE ENERGY PREDICTED BY IDOCK:   -1.19 KCAL/MOL
REMARK 927      BINDING AFFINITY PREDICTED BY RF-SCORE:    0.00 PKD
ROOT
HETATM    1  C   UNL     1     -10.639   8.280  67.433  1.00  0.00    -0.324 C  
HETATM    2  C   UNL     1     -10.475   9.615  66.732  1.00  0.00    -0.257 C  
HETATM    3  C   UNL     1     -10.935  10.820  67.470  1.00  0.00    -0.372 A  
HETATM    4  C   UNL     1     -11.224  12.003  66.749  1.00  0.00    -0.322 A  
HETATM    5  C   UNL     1     -11.682  13.085  67.512  1.00  0.00    -0.421 A  
HETATM    6  C   UNL     1      -7.730   4.216  66.849  1.00  0.00    -0.092 C  
HETATM    7  C   UNL     1     -11.903  13.038  68.909  1.00  0.00    -0.358 A  
HETATM    8  C   UNL     1      -8.640   5.243  66.227  1.00  0.00    -0.116 C  
HETATM    9  H   UNL     1     -10.302   4.147  68.839  1.00  0.00     0.000 HD 
HETATM   10  C   UNL     1      -7.837   3.898  68.147  1.00  0.00    -0.073 C  
HETATM   11  C   UNL     1     -11.568  11.858  69.587  1.00  0.00    -0.317 A  
HETATM   12  O   UNL     1      -7.262   5.477  69.770  1.00  0.00    -0.061 OA 
HETATM   13  O   UNL     1     -11.770  11.730  70.933  1.00  0.00    -0.324 OA 
HETATM   14  C   UNL     1     -11.041  10.757  68.885  1.00  0.00    -0.307 A  
HETATM   15  H   UNL     1     -11.544  10.930  71.392  1.00  0.00     0.000 HD 
HETATM   16  C   UNL     1      -8.126   5.115  68.970  1.00  0.00    -0.085 C  
HETATM   17  O   UNL     1     -10.443   4.969  69.295  1.00  0.00    -0.190 OA 
HETATM   18  C   UNL     1     -10.521   9.549  69.633  1.00  0.00    -0.223 C  
HETATM   19  C   UNL     1      -9.741   7.352  66.654  1.00  0.00    -0.262 C  
HETATM   20  C   UNL     1     -10.228   8.290  68.864  1.00  0.00    -0.222 C  
HETATM   21  O   UNL     1     -10.284   9.554  70.839  1.00  0.00    -0.292 OA 
HETATM   22  C   UNL     1      -9.684   7.189  69.443  1.00  0.00    -0.160 C  
HETATM   23  C   UNL     1      -9.708   5.915  67.169  1.00  0.00    -0.145 C  
HETATM   24  H   UNL     1      -6.404   4.363  65.308  1.00  0.00     0.000 HD 
HETATM   25  O   UNL     1      -6.480   4.137  66.227  1.00  0.00    -0.035 OA 
HETATM   26  C   UNL     1      -9.457   5.852  68.702  1.00  0.00    -0.122 C  
HETATM   27  O   UNL     1      -9.458   7.120  70.814  1.00  0.00    -0.164 OA 
HETATM   28  H   UNL     1      -9.078   6.350  71.219  1.00  0.00     0.000 HD 
ENDROOT
BRANCH   4  29
HETATM   29  N   UNL     1     -11.054  12.179  65.378  1.00  0.00    -0.308 NA 
HETATM   30  C   UNL     1      -9.802  11.952  64.662  1.00  0.00    -0.183 C  
HETATM   31  C   UNL     1     -12.225  12.337  64.516  1.00  0.00    -0.388 C  
ENDBRANCH   4  29
BRANCH   7  32
HETATM   32  C   UNL     1     -12.401  14.294  69.603  1.00  0.00    -0.266 C  
BRANCH  32  33
HETATM   33  N   UNL     1     -12.094  15.481  68.813  1.00  0.00    -0.584 NA 
HETATM   34  H   UNL     1     -12.938  16.028  68.646  1.00  0.00     0.000 HD 
BRANCH  33  35
HETATM   35  C   UNL     1     -11.047  16.321  69.379  1.00  0.00    -0.328 C  
BRANCH  35  36
HETATM   36  C   UNL     1     -10.014  16.714  68.284  1.00  0.00    -0.261 C  
HETATM   37  C   UNL     1      -9.480  18.142  68.508  1.00  0.00    -0.339 C  
HETATM   38  C   UNL     1     -10.657  16.623  66.886  1.00  0.00    -0.229 C  
HETATM   39  C   UNL     1      -8.825  15.740  68.344  1.00  0.00    -0.185 C  
ENDBRANCH  35  36
ENDBRANCH  33  35
ENDBRANCH  32  33
ENDBRANCH   7  32
BRANCH  10  40
HETATM   40  C   UNL     1      -8.602   2.620  68.273  1.00  0.00    -0.081 C  
HETATM   41  N   UNL     1      -9.192   2.340  69.461  1.00  0.00    -0.116 N  
HETATM   42  H2  UNL     1      -9.117   2.985  70.248  1.00  0.00     0.000 HD 
HETATM   43  H1  UNL     1      -9.714   1.468  69.547  1.00  0.00     0.000 HD 
HETATM   44  O   UNL     1      -8.686   1.785  67.372  1.00  0.00    -0.088 OA 
ENDBRANCH  10  40
BRANCH   8  45
HETATM   45  N   UNL     1      -9.331   4.869  64.971  1.00  0.00    -0.115 NA 
HETATM   46  C   UNL     1      -9.775   3.475  64.908  1.00  0.00    -0.157 C  
HETATM   47  C   UNL     1      -8.565   5.207  63.774  1.00  0.00    -0.084 C  
ENDBRANCH   8  45
TORSDOF 7
ENDMDL
MODEL       15
REMARK 921   NORMALIZED FREE ENERGY PREDICTED BY IDOCK:   -6.61 KCAL/MOL
REMARK 922        TOTAL FREE ENERGY PREDICTED BY IDOCK:  -10.08 KCAL/MOL
REMARK 923 INTER-LIGAND FREE ENERGY PREDICTED BY IDOCK:   -8.75 KCAL/MOL
REMARK 924 INTRA-LIGAND FREE ENERGY PREDICTED BY IDOCK:   -1.33 KCAL/MOL
REMARK 927      BINDING AFFINITY PREDICTED BY RF-SCORE:    0.00 PKD
ROOT
HETATM    1  C   UNL     1      -8.651  11.752  67.916  1.00  0.00    -0.156 C  
HETATM    2  C   UNL     1      -7.811  12.827  68.578  1.00  0.00    -0.099 C  
HETATM    3  C   UNL     1      -8.395  14.192  68.637  1.00  0.00    -0.123 A  
HETATM    4  C   UNL     1      -7.538  15.303  68.823  1.00  0.00    -0.139 A  
HETATM    5  C   UNL     1      -8.161  16.558  68.835  1.00  0.00    -0.240 A  
HETATM    6  C   UNL     1      -8.617   6.837  68.995  1.00  0.00    -0.131 C  
HETATM    7  C   UNL     1      -9.547  16.761  68.634  1.00  0.00    -0.255 A  
HETATM    8  C   UNL     1      -7.856   8.058  68.550  1.00  0.00    -0.115 C  
HETATM    9  H   UNL     1     -10.520   8.006  66.630  1.00  0.00     0.000 HD 
HETATM   10  C   UNL     1      -9.938   6.738  68.791  1.00  0.00    -0.149 C  
HETATM   11  C   UNL     1     -10.362  15.631  68.490  1.00  0.00    -0.219 A  
HETATM   12  O   UNL     1     -11.392   8.143  69.961  1.00  0.00    -0.153 OA 
HETATM   13  O   UNL     1     -11.707  15.748  68.273  1.00  0.00    -0.345 OA 
HETATM   14  C   UNL     1      -9.804  14.338  68.534  1.00  0.00    -0.231 A  
HETATM   15  H   UNL     1     -12.259  14.981  68.176  1.00  0.00     0.000 HD 
HETATM   16  C   UNL     1     -10.611   8.057  69.014  1.00  0.00    -0.154 C  
HETATM   17  O   UNL     1     -10.876   8.864  66.829  1.00  0.00    -0.126 OA 
HETATM   18  C   UNL     1     -10.699  13.118  68.552  1.00  0.00    -0.259 C  
HETATM   19  C   UNL     1      -8.009  10.464  68.367  1.00  0.00    -0.110 C  
HETATM   20  C   UNL     1     -10.084  11.765  68.318  1.00  0.00    -0.199 C  
HETATM   21  O   UNL     1     -11.903  13.169  68.790  1.00  0.00    -0.303 OA 
HETATM   22  C   UNL     1     -10.800  10.614  68.397  1.00  0.00    -0.237 C  
HETATM   23  C   UNL     1      -8.683   9.197  67.844  1.00  0.00    -0.128 C  
HETATM   24  H   UNL     1      -7.111   6.277  70.252  1.00  0.00     0.000 HD 
HETATM   25  O   UNL     1      -8.048   6.206  70.107  1.00  0.00    -0.111 OA 
HETATM   26  C   UNL     1     -10.220   9.218  68.072  1.00  0.00    -0.209 C  
HETATM   27  O   UNL     1     -12.176  10.621  68.598  1.00  0.00    -0.814 OA 
HETATM   28  H   UNL     1     -12.677   9.815  68.653  1.00  0.00     0.000 HD 
ENDROOT
BRANCH   4  29
HETATM   29  N   UNL     1      -6.162  15.240  69.029  1.00  0.00    -0.101 NA 
HETATM   30  C   UNL     1      -5.158  15.438  67.988  1.00  0.00    -0.126 C  
HETATM   31  C   UNL     1      -5.632  15.247  70.393  1.00  0.00    -0.138 C  
ENDBRANCH   4  29
BRANCH   7  32
HETATM   32  C   UNL     1     -10.080  18.183  68.676  1.00  0.00    -0.392 C  
BRANCH  32  33
HETATM   33  N   UNL     1      -9.007  19.132  68.949  1.00  0.00    -0.328 NA 
HETATM   34  H   UNL     1      -8.233  18.669  69.425  1.00  0.00     0.000 HD 
BRANCH  33  35
HETATM   35  C   UNL     1      -8.528  19.848  67.775  1.00  0.00    -0.310 C  
BRANCH  35  36
HETATM   36  C   UNL     1      -6.976  19.955  67.800  1.00  0.00    -0.298 C  
HETATM   37  C   UNL     1      -6.500  21.300  67.216  1.00  0.00    -0.414 C  
HETATM   38  C   UNL     1      -6.348  18.800  66.995  1.00  0.00    -0.189 C  
HETATM   39  C   UNL     1      -6.489  19.862  69.256  1.00  0.00    -0.380 C  
ENDBRANCH  35  36
ENDBRANCH  33  35
ENDBRANCH  32  33
ENDBRANCH   7  32
BRANCH  10  40
HETATM   40  C   UNL     1     -10.181   5.883  67.590  1.00  0.00    -0.187 C  
HETATM   41  N   UNL     1     -11.300   6.108  66.858  1.00  0.00    -0.614 N  
HETATM   42  H2  UNL     1     -11.959   6.842  67.121  1.00  0.00     0.000 HD 
HETATM   43  H1  UNL     1     -11.467   5.524  66.038  1.00  0.00     0.000 HD 
HETATM   44  O   UNL     1      -9.445   4.954  67.255  1.00  0.00    -0.128 OA 
ENDBRANCH  10  40
BRANCH   8  45
HETATM   45  N   UNL     1      -6.627   7.842  67.750  1.00  0.00    -0.058 NA 
HETATM   46  C   UNL     1      -6.676   6.682  66.858  1.00  0.00    -0.056 C  
HETATM   47  C   UNL     1      -5.415   7.801  68.563  1.00  0.00    -0.027 C  
ENDBRANCH   8  45
TORSDOF 7
ENDMDL
MODEL       16
REMARK 921   NORMALIZED FREE ENERGY PREDICTED BY IDOCK:   -6.58 KCAL/MOL
REMARK 922        TOTAL FREE ENERGY PREDICTED BY IDOCK:  -10.03 KCAL/MOL
REMARK 923 INTER-LIGAND FREE ENERGY PREDICTED BY IDOCK:   -8.65 KCAL/MOL
REMARK 924 INTRA-LIGAND FREE ENERGY PREDICTED BY IDOCK:   -1.39 KCAL/MOL
REMARK 927      BINDING AFFINITY PREDICTED BY RF-SCORE:    0.00 PKD
ROOT
HETATM    1  C   UNL     1     -11.091  11.886  68.540  1.00  0.00    -0.290 C  
HETATM    2  C   UNL     1     -10.813  10.840  69.601  1.00  0.00    -0.294 C  
HETATM    3  C   UNL     1     -10.719   9.429  69.143  1.00  0.00    -0.216 A  
HETATM    4  C   UNL     1     -10.903   8.384  70.080  1.00  0.00    -0.225 A  
HETATM    5  C   UNL     1     -10.830   7.084  69.564  1.00  0.00    -0.265 A  
HETATM    6  C   UNL     1      -9.594  16.690  68.610  1.00  0.00    -0.248 C  
HETATM    7  C   UNL     1     -10.634   6.779  68.196  1.00  0.00    -0.279 A  
HETATM    8  C   UNL     1     -10.361  15.575  69.272  1.00  0.00    -0.252 C  
HETATM    9  H   UNL     1     -11.397  15.547  66.156  1.00  0.00     0.000 HD 
HETATM   10  C   UNL     1      -9.389  16.692  67.286  1.00  0.00    -0.234 C  
HETATM   11  C   UNL     1     -10.420   7.844  67.311  1.00  0.00    -0.320 A  
HETATM   12  O   UNL     1      -7.986  15.084  66.335  1.00  0.00     0.199 OA 
HETATM   13  O   UNL     1     -10.241   7.630  65.972  1.00  0.00    -0.345 OA 
HETATM   14  C   UNL     1     -10.416   9.172  67.779  1.00  0.00    -0.306 A  
HETATM   15  H   UNL     1     -10.096   8.352  65.372  1.00  0.00     0.000 HD 
HETATM   16  C   UNL     1      -9.109  15.308  66.788  1.00  0.00    -0.256 C  
HETATM   17  O   UNL     1     -11.186  14.649  65.926  1.00  0.00    -0.328 OA 
HETATM   18  C   UNL     1     -10.016  10.307  66.862  1.00  0.00    -0.208 C  
HETATM   19  C   UNL     1     -10.724  13.186  69.211  1.00  0.00     0.022 C  
HETATM   20  C   UNL     1     -10.287  11.722  67.298  1.00  0.00    -0.231 C  
HETATM   21  O   UNL     1      -9.440  10.136  65.790  1.00  0.00    -0.179 OA 
HETATM   22  C   UNL     1      -9.890  12.798  66.573  1.00  0.00    -0.258 C  
HETATM   23  C   UNL     1     -10.900  14.427  68.339  1.00  0.00    -0.256 C  
HETATM   24  H   UNL     1      -8.788  17.280  70.388  1.00  0.00     0.000 HD 
HETATM   25  O   UNL     1      -8.643  17.281  69.449  1.00  0.00     0.096 OA 
HETATM   26  C   UNL     1     -10.232  14.259  66.946  1.00  0.00    -0.266 C  
HETATM   27  O   UNL     1      -9.294  12.659  65.324  1.00  0.00    -0.439 OA 
HETATM   28  H   UNL     1      -9.015  13.413  64.816  1.00  0.00     0.000 HD 
ENDROOT
BRANCH   4  29
HETATM   29  N   UNL     1     -11.106   8.548  71.447  1.00  0.00    -0.249 NA 
HETATM   30  C   UNL     1     -12.415   8.649  72.085  1.00  0.00    -0.389 C  
HETATM   31  C   UNL     1      -9.993   8.343  72.376  1.00  0.00    -0.310 C  
ENDBRANCH   4  29
BRANCH   7  32
HETATM   32  C   UNL     1     -10.575   5.318  67.784  1.00  0.00    -0.034 C  
BRANCH  32  33
HETATM   33  N   UNL     1      -9.231   4.953  67.354  1.00  0.00    -0.121 NA 
HETATM   34  H   UNL     1      -8.847   5.668  66.737  1.00  0.00     0.000 HD 
BRANCH  33  35
HETATM   35  C   UNL     1      -8.308   4.675  68.446  1.00  0.00    -0.090 C  
BRANCH  35  36
HETATM   36  C   UNL     1      -7.035   5.559  68.320  1.00  0.00    -0.061 C  
HETATM   37  C   UNL     1      -6.933   6.560  69.489  1.00  0.00    -0.067 C  
HETATM   38  C   UNL     1      -7.051   6.333  66.987  1.00  0.00    -0.073 C  
HETATM   39  C   UNL     1      -5.791   4.656  68.350  1.00  0.00    -0.025 C  
ENDBRANCH  35  36
ENDBRANCH  33  35
ENDBRANCH  32  33
ENDBRANCH   7  32
BRANCH  10  40
HETATM   40  C   UNL     1     -10.377  17.612  66.643  1.00  0.00    -0.333 C  
HETATM   41  N   UNL     1     -11.005  18.526  67.424  1.00  0.00    -0.289 N  
HETATM   42  H2  UNL     1     -10.809  18.584  68.423  1.00  0.00     0.000 HD 
HETATM   43  H1  UNL     1     -11.679  19.154  66.985  1.00  0.00     0.000 HD 
HETATM   44  O   UNL     1     -10.686  17.555  65.452  1.00  0.00    -0.612 OA 
ENDBRANCH  10  40
BRANCH   8  45
HETATM   45  N   UNL     1     -11.461  15.956  70.188  1.00  0.00    -0.341 NA 
HETATM   46  C   UNL     1     -11.292  15.502  71.569  1.00  0.00    -0.397 C  
HETATM   47  C   UNL     1     -12.779  15.571  69.690  1.00  0.00     0.127 C  
ENDBRANCH   8  45
TORSDOF 7
ENDMDL
MODEL       17
REMARK 921   NORMALIZED FREE ENERGY PREDICTED BY IDOCK:   -6.49 KCAL/MOL
REMARK 922        TOTAL FREE ENERGY PREDICTED BY IDOCK:   -9.91 KCAL/MOL
REMARK 923 INTER-LIGAND FREE ENERGY PREDICTED BY IDOCK:   -8.83 KCAL/MOL
REMARK 924 INTRA-LIGAND FREE ENERGY PREDICTED BY IDOCK:   -1.08 KCAL/MOL
REMARK 927      BINDING AFFINITY PREDICTED BY RF-SCORE:    0.00 PKD
ROOT
HETATM    1  C   UNL     1      -9.017  10.254  66.536  1.00  0.00    -0.161 C  
HETATM    2  C   UNL     1      -9.451   8.807  66.665  1.00  0.00    -0.263 C  
HETATM    3  C   UNL     1      -8.649   7.945  67.573  1.00  0.00    -0.122 A  
HETATM    4  C   UNL     1      -8.701   6.540  67.416  1.00  0.00    -0.117 A  
HETATM    5  C   UNL     1      -7.893   5.800  68.289  1.00  0.00    -0.100 A  
HETATM    6  C   UNL     1     -11.992  14.192  65.554  1.00  0.00    -0.391 C  
HETATM    7  C   UNL     1      -7.028   6.371  69.252  1.00  0.00    -0.067 A  
HETATM    8  C   UNL     1     -11.458  12.850  65.128  1.00  0.00    -0.313 C  
HETATM    9  H   UNL     1      -8.783  14.583  65.921  1.00  0.00     0.000 HD 
HETATM   10  C   UNL     1     -11.284  14.986  66.370  1.00  0.00    -0.310 C  
HETATM   11  C   UNL     1      -7.037   7.765  69.397  1.00  0.00    -0.071 A  
HETATM   12  O   UNL     1     -10.948  14.349  68.592  1.00  0.00    -0.233 OA 
HETATM   13  O   UNL     1      -6.215   8.391  70.293  1.00  0.00    -0.034 OA 
HETATM   14  C   UNL     1      -7.876   8.561  68.593  1.00  0.00    -0.108 A  
HETATM   15  H   UNL     1      -6.221   9.336  70.390  1.00  0.00     0.000 HD 
HETATM   16  C   UNL     1     -10.591  14.183  67.426  1.00  0.00    -0.279 C  
HETATM   17  O   UNL     1      -8.411  14.009  66.580  1.00  0.00    -0.065 OA 
HETATM   18  C   UNL     1      -8.014  10.043  68.863  1.00  0.00    -0.101 C  
HETATM   19  C   UNL     1     -10.212  10.934  65.915  1.00  0.00    -0.314 C  
HETATM   20  C   UNL     1      -8.687  10.908  67.832  1.00  0.00    -0.131 C  
HETATM   21  O   UNL     1      -7.641  10.576  69.905  1.00  0.00    -0.146 OA 
HETATM   22  C   UNL     1      -8.923  12.230  68.029  1.00  0.00    -0.190 C  
HETATM   23  C   UNL     1     -10.045  12.434  65.685  1.00  0.00    -0.277 C  
HETATM   24  H   UNL     1     -13.891  13.681  65.017  1.00  0.00     0.000 HD 
HETATM   25  O   UNL     1     -13.389  14.244  65.594  1.00  0.00    -0.529 OA 
HETATM   26  C   UNL     1      -9.528  13.164  66.955  1.00  0.00    -0.242 C  
HETATM   27  O   UNL     1      -8.463  12.895  69.161  1.00  0.00    -0.222 OA 
HETATM   28  H   UNL     1      -8.629  13.820  69.299  1.00  0.00     0.000 HD 
ENDROOT
BRANCH   4  29
HETATM   29  N   UNL     1      -9.504   5.854  66.509  1.00  0.00    -0.152 NA 
HETATM   30  C   UNL     1      -9.021   5.223  65.285  1.00  0.00    -0.125 C  
HETATM   31  C   UNL     1     -10.868   5.480  66.886  1.00  0.00    -0.137 C  
ENDBRANCH   4  29
BRANCH   7  32
HETATM   32  C   UNL     1      -6.212   5.439  70.132  1.00  0.00    -0.023 C  
BRANCH  32  33
HETATM   33  N   UNL     1      -7.081   4.574  70.919  1.00  0.00    -0.037 NA 
HETATM   34  H   UNL     1      -6.533   3.869  71.412  1.00  0.00     0.000 HD 
BRANCH  33  35
HETATM   35  C   UNL     1      -7.950   5.284  71.848  1.00  0.00    -0.113 C  
BRANCH  35  36
HETATM   36  C   UNL     1      -9.439   4.909  71.594  1.00  0.00    -0.204 C  
HETATM   37  C   UNL     1      -9.562   3.805  70.526  1.00  0.00    -0.262 C  
HETATM   38  C   UNL     1     -10.231   6.150  71.137  1.00  0.00    -0.245 C  
HETATM   39  C   UNL     1     -10.055   4.386  72.902  1.00  0.00    -0.214 C  
ENDBRANCH  35  36
ENDBRANCH  33  35
ENDBRANCH  32  33
ENDBRANCH   7  32
BRANCH  10  40
HETATM   40  C   UNL     1     -10.600  16.036  65.553  1.00  0.00    -0.398 C  
HETATM   41  N   UNL     1      -9.497  16.632  66.069  1.00  0.00    -0.277 N  
HETATM   42  H2  UNL     1      -9.143  16.372  66.991  1.00  0.00     0.000 HD 
HETATM   43  H1  UNL     1      -9.030  17.348  65.512  1.00  0.00     0.000 HD 
HETATM   44  O   UNL     1     -11.010  16.421  64.458  1.00  0.00    -0.750 OA 
ENDBRANCH  10  40
BRANCH   8  45
HETATM   45  N   UNL     1     -11.473  12.540  63.679  1.00  0.00    -0.457 NA 
HETATM   46  C   UNL     1     -12.613  11.735  63.238  1.00  0.00    -0.254 C  
HETATM   47  C   UNL     1     -10.225  11.946  63.209  1.00  0.00    -0.395 C  
ENDBRANCH   8  45
TORSDOF 7
ENDMDL
MODEL       18
REMARK 921   NORMALIZED FREE ENERGY PREDICTED BY IDOCK:   -6.49 KCAL/MOL
REMARK 922        TOTAL FREE ENERGY PREDICTED BY IDOCK:   -9.90 KCAL/MOL
REMARK 923 INTER-LIGAND FREE ENERGY PREDICTED BY IDOCK:   -8.93 KCAL/MOL
REMARK 924 INTRA-LIGAND FREE ENERGY PREDICTED BY IDOCK:   -0.96 KCAL/MOL
REMARK 927      BINDING AFFINITY PREDICTED BY RF-SCORE:    0.00 PKD
ROOT
HETATM    1  C   UNL     1      -9.990   9.314  70.028  1.00  0.00    -0.238 C  
HETATM    2  C   UNL     1     -11.044  10.352  70.358  1.00  0.00    -0.371 C  
HETATM    3  C   UNL     1     -11.351  11.354  69.305  1.00  0.00    -0.355 A  
HETATM    4  C   UNL     1     -11.966  12.575  69.672  1.00  0.00    -0.272 A  
HETATM    5  C   UNL     1     -12.194  13.480  68.627  1.00  0.00    -0.172 A  
HETATM    6  C   UNL     1      -9.748   4.617  71.817  1.00  0.00    -0.169 C  
HETATM    7  C   UNL     1     -11.812  13.258  67.282  1.00  0.00    -0.421 A  
HETATM    8  C   UNL     1      -9.775   6.096  72.097  1.00  0.00    -0.154 C  
HETATM    9  H   UNL     1      -7.471   5.740  69.784  1.00  0.00     0.000 HD 
HETATM   10  C   UNL     1      -9.297   4.147  70.646  1.00  0.00    -0.218 C  
HETATM   11  C   UNL     1     -11.240  12.020  66.959  1.00  0.00    -0.320 A  
HETATM   12  O   UNL     1     -10.517   4.553  68.695  1.00  0.00     0.161 OA 
HETATM   13  O   UNL     1     -10.829  11.738  65.686  1.00  0.00    -0.278 OA 
HETATM   14  C   UNL     1     -11.045  11.042  67.954  1.00  0.00    -0.347 A  
HETATM   15  H   UNL     1     -10.441  10.899  65.467  1.00  0.00     0.000 HD 
HETATM   16  C   UNL     1      -9.732   5.028  69.516  1.00  0.00    -0.189 C  
HETATM   17  O   UNL     1      -7.819   6.324  69.120  1.00  0.00    -0.101 OA 
HETATM   18  C   UNL     1     -10.589   9.649  67.580  1.00  0.00    -0.277 C  
HETATM   19  C   UNL     1     -10.198   8.244  71.070  1.00  0.00    -0.230 C  
HETATM   20  C   UNL     1     -10.124   8.721  68.669  1.00  0.00    -0.207 C  
HETATM   21  O   UNL     1     -10.617   9.217  66.430  1.00  0.00    -0.144 OA 
HETATM   22  C   UNL     1      -9.775   7.431  68.430  1.00  0.00    -0.153 C  
HETATM   23  C   UNL     1      -9.254   7.049  70.956  1.00  0.00    -0.155 C  
HETATM   24  H   UNL     1     -11.060   4.240  73.332  1.00  0.00     0.000 HD 
HETATM   25  O   UNL     1     -10.740   3.907  72.502  1.00  0.00    -0.104 OA 
HETATM   26  C   UNL     1      -9.207   6.481  69.510  1.00  0.00    -0.142 C  
HETATM   27  O   UNL     1      -9.727   6.913  67.141  1.00  0.00    -0.140 OA 
HETATM   28  H   UNL     1      -9.482   6.010  66.974  1.00  0.00     0.000 HD 
ENDROOT
BRANCH   4  29
HETATM   29  N   UNL     1     -12.387  12.919  70.954  1.00  0.00    -0.350 NA 
HETATM   30  C   UNL     1     -12.556  14.287  71.432  1.00  0.00    -0.360 C  
HETATM   31  C   UNL     1     -12.965  11.895  71.826  1.00  0.00    -0.350 C  
ENDBRANCH   4  29
BRANCH   7  32
HETATM   32  C   UNL     1     -12.127  14.333  66.256  1.00  0.00    -0.413 C  
BRANCH  32  33
HETATM   33  N   UNL     1     -10.922  14.736  65.540  1.00  0.00    -0.329 NA 
HETATM   34  H   UNL     1     -11.047  14.617  64.535  1.00  0.00     0.000 HD 
BRANCH  33  35
HETATM   35  C   UNL     1     -10.473  16.088  65.840  1.00  0.00    -0.359 C  
BRANCH  35  36
HETATM   36  C   UNL     1      -9.272  16.056  66.829  1.00  0.00    -0.264 C  
HETATM   37  C   UNL     1      -9.723  16.389  68.265  1.00  0.00    -0.224 C  
HETATM   38  C   UNL     1      -8.190  17.061  66.389  1.00  0.00    -0.326 C  
HETATM   39  C   UNL     1      -8.662  14.644  66.832  1.00  0.00    -0.251 C  
ENDBRANCH  35  36
ENDBRANCH  33  35
ENDBRANCH  32  33
ENDBRANCH   7  32
BRANCH  10  40
HETATM   40  C   UNL     1      -7.891   3.669  70.822  1.00  0.00    -0.050 C  
HETATM   41  N   UNL     1      -7.072   3.674  69.742  1.00  0.00    -0.041 N  
HETATM   42  H2  UNL     1      -7.406   3.995  68.833  1.00  0.00     0.000 HD 
HETATM   43  H1  UNL     1      -6.113   3.348  69.863  1.00  0.00     0.000 HD 
HETATM   44  O   UNL     1      -7.451   3.227  71.884  1.00  0.00    -0.049 OA 
ENDBRANCH  10  40
BRANCH   8  45
HETATM   45  N   UNL     1      -9.175   6.560  73.370  1.00  0.00    -0.131 NA 
HETATM   46  C   UNL     1      -7.883   5.952  73.693  1.00  0.00    -0.104 C  
HETATM   47  C   UNL     1     -10.084   6.445  74.506  1.00  0.00    -0.339 C  
ENDBRANCH   8  45
TORSDOF 7
ENDMDL
MODEL       19
REMARK 921   NORMALIZED FREE ENERGY PREDICTED BY IDOCK:   -6.47 KCAL/MOL
REMARK 922        TOTAL FREE ENERGY PREDICTED BY IDOCK:   -9.88 KCAL/MOL
REMARK 923 INTER-LIGAND FREE ENERGY PREDICTED BY IDOCK:   -9.03 KCAL/MOL
REMARK 924 INTRA-LIGAND FREE ENERGY PREDICTED BY IDOCK:   -0.85 KCAL/MOL
REMARK 927      BINDING AFFINITY PREDICTED BY RF-SCORE:    0.00 PKD
ROOT
HETATM    1  C   UNL     1     -11.048  10.400  68.207  1.00  0.00    -0.338 C  
HETATM    2  C   UNL     1     -10.884   9.329  69.267  1.00  0.00    -0.170 C  
HETATM    3  C   UNL     1     -10.536   7.964  68.792  1.00  0.00    -0.198 A  
HETATM    4  C   UNL     1     -10.794   6.854  69.631  1.00  0.00    -0.259 A  
HETATM    5  C   UNL     1     -10.467   5.600  69.100  1.00  0.00    -0.339 A  
HETATM    6  C   UNL     1     -10.154  15.321  68.762  1.00  0.00    -0.219 C  
HETATM    7  C   UNL     1      -9.953   5.396  67.797  1.00  0.00    -0.198 A  
HETATM    8  C   UNL     1     -10.912  14.097  69.205  1.00  0.00    -0.251 C  
HETATM    9  H   UNL     1     -11.257  14.140  65.939  1.00  0.00     0.000 HD 
HETATM   10  C   UNL     1      -9.676  15.420  67.514  1.00  0.00    -0.208 C  
HETATM   11  C   UNL     1      -9.680   6.526  67.015  1.00  0.00    -0.151 A  
HETATM   12  O   UNL     1      -7.932  14.023  66.835  1.00  0.00    -0.036 OA 
HETATM   13  O   UNL     1      -9.199   6.409  65.740  1.00  0.00    -0.345 OA 
HETATM   14  C   UNL     1      -9.925   7.818  67.519  1.00  0.00    -0.242 A  
HETATM   15  H   UNL     1      -9.014   7.176  65.211  1.00  0.00     0.000 HD 
HETATM   16  C   UNL     1      -9.142  14.103  67.042  1.00  0.00    -0.243 C  
HETATM   17  O   UNL     1     -10.903  13.284  65.730  1.00  0.00    -0.272 OA 
HETATM   18  C   UNL     1      -9.472   9.039  66.748  1.00  0.00    -0.182 C  
HETATM   19  C   UNL     1     -10.981  11.691  68.986  1.00  0.00    -0.283 C  
HETATM   20  C   UNL     1      -9.987  10.391  67.163  1.00  0.00    -0.239 C  
HETATM   21  O   UNL     1      -8.668   8.991  65.820  1.00  0.00    -0.148 OA 
HETATM   22  C   UNL     1      -9.571  11.543  66.578  1.00  0.00    -0.205 C  
HETATM   23  C   UNL     1     -11.108  12.955  68.139  1.00  0.00    -0.282 C  
HETATM   24  H   UNL     1      -9.814  15.887  70.691  1.00  0.00     0.000 HD 
HETATM   25  O   UNL     1      -9.475  15.958  69.806  1.00  0.00    -0.221 OA 
HETATM   26  C   UNL     1     -10.147  12.936  66.918  1.00  0.00    -0.241 C  
HETATM   27  O   UNL     1      -8.713  11.538  65.483  1.00  0.00    -0.392 OA 
HETATM   28  H   UNL     1      -8.421  12.345  65.074  1.00  0.00     0.000 HD 
ENDROOT
BRANCH   4  29
HETATM   29  N   UNL     1     -11.298   6.917  70.928  1.00  0.00    -0.286 NA 
HETATM   30  C   UNL     1     -12.717   6.881  71.268  1.00  0.00    -0.315 C  
HETATM   31  C   UNL     1     -10.396   6.738  72.066  1.00  0.00    -0.196 C  
ENDBRANCH   4  29
BRANCH   7  32
HETATM   32  C   UNL     1      -9.644   3.975  67.358  1.00  0.00    -0.177 C  
BRANCH  32  33
HETATM   33  N   UNL     1     -10.113   3.738  65.997  1.00  0.00    -0.420 NA 
HETATM   34  H   UNL     1     -10.248   4.623  65.507  1.00  0.00     0.000 HD 
BRANCH  33  35
HETATM   35  C   UNL     1      -9.261   2.850  65.217  1.00  0.00    -0.139 C  
BRANCH  35  36
HETATM   36  C   UNL     1      -9.451   3.112  63.696  1.00  0.00    -0.104 C  
HETATM   37  C   UNL     1      -8.410   4.119  63.168  1.00  0.00    -0.091 C  
HETATM   38  C   UNL     1     -10.868   3.654  63.420  1.00  0.00    -0.181 C  
HETATM   39  C   UNL     1      -9.273   1.790  62.932  1.00  0.00    -0.090 C  
ENDBRANCH  35  36
ENDBRANCH  33  35
ENDBRANCH  32  33
ENDBRANCH   7  32
BRANCH  10  40
HETATM   40  C   UNL     1     -10.604  16.269  66.705  1.00  0.00    -0.252 C  
HETATM   41  N   UNL     1     -10.771  15.966  65.393  1.00  0.00    -0.396 N  
HETATM   42  H2  UNL     1     -10.277  15.179  64.971  1.00  0.00     0.000 HD 
HETATM   43  H1  UNL     1     -11.403  16.545  64.841  1.00  0.00     0.000 HD 
HETATM   44  O   UNL     1     -11.187  17.257  67.151  1.00  0.00     0.088 OA 
ENDBRANCH  10  40
BRANCH   8  45
HETATM   45  N   UNL     1     -12.217  14.308  69.874  1.00  0.00    -0.341 NA 
HETATM   46  C   UNL     1     -12.596  15.711  70.045  1.00  0.00    -0.146 C  
HETATM   47  C   UNL     1     -12.330  13.597  71.144  1.00  0.00    -0.318 C  
ENDBRANCH   8  45
TORSDOF 7
ENDMDL
MODEL       20
REMARK 921   NORMALIZED FREE ENERGY PREDICTED BY IDOCK:   -6.46 KCAL/MOL
REMARK 922        TOTAL FREE ENERGY PREDICTED BY IDOCK:   -9.86 KCAL/MOL
REMARK 923 INTER-LIGAND FREE ENERGY PREDICTED BY IDOCK:   -9.28 KCAL/MOL
REMARK 924 INTRA-LIGAND FREE ENERGY PREDICTED BY IDOCK:   -0.58 KCAL/MOL
REMARK 927      BINDING AFFINITY PREDICTED BY RF-SCORE:    0.00 PKD
ROOT
HETATM    1  C   UNL     1      -9.302   9.555  67.654  1.00  0.00    -0.141 C  
HETATM    2  C   UNL     1     -10.450  10.447  68.086  1.00  0.00    -0.221 C  
HETATM    3  C   UNL     1     -10.758  11.612  67.216  1.00  0.00    -0.281 A  
HETATM    4  C   UNL     1     -11.483  12.703  67.752  1.00  0.00    -0.322 A  
HETATM    5  C   UNL     1     -11.705  13.775  66.878  1.00  0.00    -0.424 A  
HETATM    6  C   UNL     1      -8.839   4.627  68.556  1.00  0.00    -0.101 C  
HETATM    7  C   UNL     1     -11.219  13.835  65.550  1.00  0.00    -0.303 A  
HETATM    8  C   UNL     1      -8.993   6.022  69.102  1.00  0.00    -0.124 C  
HETATM    9  H   UNL     1      -6.518   6.248  66.954  1.00  0.00     0.000 HD 
HETATM   10  C   UNL     1      -8.278   4.415  67.357  1.00  0.00    -0.100 C  
HETATM   11  C   UNL     1     -10.537  12.717  65.050  1.00  0.00    -0.303 A  
HETATM   12  O   UNL     1      -9.390   5.112  65.425  1.00  0.00    -0.150 OA 
HETATM   13  O   UNL     1     -10.022  12.707  63.784  1.00  0.00    -0.606 OA 
HETATM   14  C   UNL     1     -10.339  11.581  65.859  1.00  0.00    -0.293 A  
HETATM   15  H   UNL     1      -9.560  11.949  63.445  1.00  0.00     0.000 HD 
HETATM   16  C   UNL     1      -8.698   5.468  66.379  1.00  0.00    -0.123 C  
HETATM   17  O   UNL     1      -6.863   6.926  66.385  1.00  0.00    -0.060 OA 
HETATM   18  C   UNL     1      -9.758  10.314  65.271  1.00  0.00    -0.291 C  
HETATM   19  C   UNL     1      -9.501   8.296  68.461  1.00  0.00    -0.149 C  
HETATM   20  C   UNL     1      -9.301   9.225  66.203  1.00  0.00    -0.270 C  
HETATM   21  O   UNL     1      -9.677  10.107  64.062  1.00  0.00    -0.306 OA 
HETATM   22  C   UNL     1      -8.844   8.027  65.758  1.00  0.00    -0.132 C  
HETATM   23  C   UNL     1      -8.468   7.202  68.202  1.00  0.00    -0.123 C  
HETATM   24  H   UNL     1     -10.219   3.892  69.865  1.00  0.00     0.000 HD 
HETATM   25  O   UNL     1      -9.821   3.742  69.016  1.00  0.00    -0.096 OA 
HETATM   26  C   UNL     1      -8.282   6.924  66.685  1.00  0.00    -0.115 C  
HETATM   27  O   UNL     1      -8.671   7.767  64.403  1.00  0.00    -0.362 OA 
HETATM   28  H   UNL     1      -8.350   6.928  64.091  1.00  0.00     0.000 HD 
ENDROOT
BRANCH   4  29
HETATM   29  N   UNL     1     -12.013  12.770  69.038  1.00  0.00    -0.277 NA 
HETATM   30  C   UNL     1     -12.249  11.616  69.899  1.00  0.00    -0.239 C  
HETATM   31  C   UNL     1     -12.103  14.063  69.718  1.00  0.00    -0.348 C  
ENDBRANCH   4  29
BRANCH   7  32
HETATM   32  C   UNL     1     -11.542  15.065  64.719  1.00  0.00    -0.395 C  
BRANCH  32  33
HETATM   33  N   UNL     1     -10.446  16.026  64.767  1.00  0.00    -0.671 NA 
HETATM   34  H   UNL     1     -10.076  16.193  63.832  1.00  0.00     0.000 HD 
BRANCH  33  35
HETATM   35  C   UNL     1     -10.786  17.287  65.412  1.00  0.00    -0.066 C  
BRANCH  35  36
HETATM   36  C   UNL     1      -9.767  17.611  66.543  1.00  0.00    -0.310 C  
HETATM   37  C   UNL     1      -9.297  19.076  66.468  1.00  0.00    -0.365 C  
HETATM   38  C   UNL     1      -8.544  16.678  66.443  1.00  0.00    -0.345 C  
HETATM   39  C   UNL     1     -10.444  17.391  67.906  1.00  0.00    -0.383 C  
ENDBRANCH  35  36
ENDBRANCH  33  35
ENDBRANCH  32  33
ENDBRANCH   7  32
BRANCH  10  40
HETATM   40  C   UNL     1      -6.856   3.997  67.554  1.00  0.00    -0.051 C  
HETATM   41  N   UNL     1      -5.928   4.443  66.672  1.00  0.00    -0.026 N  
HETATM   42  H2  UNL     1      -6.193   5.049  65.894  1.00  0.00     0.000 HD 
HETATM   43  H1  UNL     1      -4.958   4.157  66.806  1.00  0.00     0.000 HD 
HETATM   44  O   UNL     1      -6.489   3.231  68.446  1.00  0.00    -0.035 OA 
ENDBRANCH  10  40
BRANCH   8  45
HETATM   45  N   UNL     1      -8.515   6.269  70.482  1.00  0.00    -0.136 NA 
HETATM   46  C   UNL     1      -7.347   5.480  70.875  1.00  0.00    -0.083 C  
HETATM   47  C   UNL     1      -9.570   6.142  71.484  1.00  0.00    -0.155 C  
ENDBRANCH   8  45
TORSDOF 7
ENDMDL
MODEL       21
REMARK 921   NORMALIZED FREE ENERGY PREDICTED BY IDOCK:   -6.37 KCAL/MOL
REMARK 922        TOTAL FREE ENERGY PREDICTED BY IDOCK:   -9.74 KCAL/MOL
REMARK 923 INTER-LIGAND FREE ENERGY PREDICTED BY IDOCK:   -8.82 KCAL/MOL
REMARK 924 INTRA-LIGAND FREE ENERGY PREDICTED BY IDOCK:   -0.91 KCAL/MOL
REMARK 927      BINDING AFFINITY PREDICTED BY RF-SCORE:    0.00 PKD
ROOT
HETATM    1  C   UNL     1     -10.066  10.590  68.253  1.00  0.00    -0.180 C  
HETATM    2  C   UNL     1      -9.012  10.096  69.225  1.00  0.00    -0.193 C  
HETATM    3  C   UNL     1      -8.784   8.628  69.277  1.00  0.00    -0.133 A  
HETATM    4  C   UNL     1      -8.171   8.064  70.421  1.00  0.00    -0.118 A  
HETATM    5  C   UNL     1      -8.019   6.672  70.407  1.00  0.00    -0.115 A  
HETATM    6  C   UNL     1     -10.122  15.042  65.908  1.00  0.00    -0.320 C  
HETATM    7  C   UNL     1      -8.474   5.831  69.362  1.00  0.00    -0.112 A  
HETATM    8  C   UNL     1     -10.105  14.275  67.204  1.00  0.00    -0.254 C  
HETATM    9  H   UNL     1     -12.532  12.902  65.469  1.00  0.00     0.000 HD 
HETATM   10  C   UNL     1     -10.631  14.498  64.794  1.00  0.00    -0.401 C  
HETATM   11  C   UNL     1      -9.042   6.436  68.234  1.00  0.00    -0.114 A  
HETATM   12  O   UNL     1      -9.533  12.702  63.783  1.00  0.00     0.022 OA 
HETATM   13  O   UNL     1      -9.521   5.690  67.193  1.00  0.00    -0.113 OA 
HETATM   14  C   UNL     1      -9.162   7.838  68.159  1.00  0.00    -0.138 A  
HETATM   15  H   UNL     1      -9.906   6.101  66.428  1.00  0.00     0.000 HD 
HETATM   16  C   UNL     1     -10.278  13.046  64.700  1.00  0.00    -0.302 C  
HETATM   17  O   UNL     1     -12.232  12.000  65.462  1.00  0.00    -0.483 OA 
HETATM   18  C   UNL     1      -9.615   8.501  66.877  1.00  0.00    -0.197 C  
HETATM   19  C   UNL     1      -9.780  12.066  68.131  1.00  0.00    -0.199 C  
HETATM   20  C   UNL     1     -10.000   9.955  66.909  1.00  0.00    -0.268 C  
HETATM   21  O   UNL     1      -9.645   7.922  65.793  1.00  0.00     0.049 OA 
HETATM   22  C   UNL     1     -10.339  10.646  65.791  1.00  0.00    -0.219 C  
HETATM   23  C   UNL     1     -10.707  12.820  67.181  1.00  0.00    -0.264 C  
HETATM   24  H   UNL     1      -8.718  16.354  66.591  1.00  0.00     0.000 HD 
HETATM   25  O   UNL     1      -9.080  15.969  65.801  1.00  0.00    -0.349 OA 
HETATM   26  C   UNL     1     -10.827  12.113  65.802  1.00  0.00    -0.281 C  
HETATM   27  O   UNL     1     -10.453  10.023  64.552  1.00  0.00    -0.273 OA 
HETATM   28  H   UNL     1     -10.691  10.506  63.769  1.00  0.00     0.000 HD 
ENDROOT
BRANCH   4  29
HETATM   29  N   UNL     1      -7.683   8.776  71.514  1.00  0.00    -0.222 NA 
HETATM   30  C   UNL     1      -8.236   8.706  72.863  1.00  0.00     0.081 C  
HETATM   31  C   UNL     1      -6.381   9.439  71.426  1.00  0.00    -0.020 C  
ENDBRANCH   4  29
BRANCH   7  32
HETATM   32  C   UNL     1      -8.237   4.336  69.486  1.00  0.00    -0.059 C  
BRANCH  32  33
HETATM   33  N   UNL     1      -8.389   3.899  70.869  1.00  0.00    -0.070 NA 
HETATM   34  H   UNL     1      -7.935   4.557  71.503  1.00  0.00     0.000 HD 
BRANCH  33  35
HETATM   35  C   UNL     1      -9.768   3.668  71.276  1.00  0.00    -0.169 C  
BRANCH  35  36
HETATM   36  C   UNL     1     -10.041   4.318  72.663  1.00  0.00    -0.222 C  
HETATM   37  C   UNL     1     -10.902   3.399  73.551  1.00  0.00    -0.321 C  
HETATM   38  C   UNL     1     -10.757   5.672  72.487  1.00  0.00    -0.285 C  
HETATM   39  C   UNL     1      -8.701   4.560  73.377  1.00  0.00    -0.100 C  
ENDBRANCH  35  36
ENDBRANCH  33  35
ENDBRANCH  32  33
ENDBRANCH   7  32
BRANCH  10  40
HETATM   40  C   UNL     1     -12.016  15.023  64.587  1.00  0.00    -0.358 C  
HETATM   41  N   UNL     1     -13.045  14.371  65.183  1.00  0.00    -0.555 N  
HETATM   42  H2  UNL     1     -12.878  13.545  65.758  1.00  0.00     0.000 HD 
HETATM   43  H1  UNL     1     -13.989  14.729  65.041  1.00  0.00     0.000 HD 
HETATM   44  O   UNL     1     -12.278  15.986  63.865  1.00  0.00    -0.883 OA 
ENDBRANCH  10  40
BRANCH   8  45
HETATM   45  N   UNL     1     -10.639  14.956  68.406  1.00  0.00    -0.239 NA 
HETATM   46  C   UNL     1     -11.636  15.991  68.130  1.00  0.00    -0.183 C  
HETATM   47  C   UNL     1      -9.592  15.486  69.276  1.00  0.00    -0.266 C  
ENDBRANCH   8  45
TORSDOF 7
ENDMDL
MODEL       22
REMARK 921   NORMALIZED FREE ENERGY PREDICTED BY IDOCK:   -6.28 KCAL/MOL
REMARK 922        TOTAL FREE ENERGY PREDICTED BY IDOCK:   -9.60 KCAL/MOL
REMARK 923 INTER-LIGAND FREE ENERGY PREDICTED BY IDOCK:   -8.48 KCAL/MOL
REMARK 924 INTRA-LIGAND FREE ENERGY PREDICTED BY IDOCK:   -1.12 KCAL/MOL
REMARK 927      BINDING AFFINITY PREDICTED BY RF-SCORE:    0.00 PKD
ROOT
HETATM    1  C   UNL     1     -10.564   8.117  68.161  1.00  0.00    -0.168 C  
HETATM    2  C   UNL     1      -9.984   9.049  67.114  1.00  0.00    -0.286 C  
HETATM    3  C   UNL     1     -10.481  10.449  67.115  1.00  0.00    -0.311 A  
HETATM    4  C   UNL     1     -10.339  11.233  65.945  1.00  0.00    -0.253 A  
HETATM    5  C   UNL     1     -10.860  12.531  66.014  1.00  0.00    -0.309 A  
HETATM    6  C   UNL     1      -8.252   4.177  70.270  1.00  0.00    -0.061 C  
HETATM    7  C   UNL     1     -11.536  13.060  67.140  1.00  0.00    -0.379 A  
HETATM    8  C   UNL     1      -8.745   4.857  69.020  1.00  0.00    -0.088 C  
HETATM    9  H   UNL     1     -11.319   4.922  71.059  1.00  0.00     0.000 HD 
HETATM   10  C   UNL     1      -8.828   4.418  71.456  1.00  0.00    -0.149 C  
HETATM   11  C   UNL     1     -11.620  12.261  68.289  1.00  0.00    -0.331 A  
HETATM   12  O   UNL     1      -8.598   6.523  72.441  1.00  0.00    -0.120 OA 
HETATM   13  O   UNL     1     -12.273  12.695  69.409  1.00  0.00    -0.200 OA 
HETATM   14  C   UNL     1     -11.058  10.970  68.303  1.00  0.00    -0.316 A  
HETATM   15  H   UNL     1     -12.330  12.153  70.187  1.00  0.00     0.000 HD 
HETATM   16  C   UNL     1      -9.192   5.864  71.588  1.00  0.00    -0.146 C  
HETATM   17  O   UNL     1     -11.480   5.858  71.081  1.00  0.00    -0.237 OA 
HETATM   18  C   UNL     1     -10.997  10.175  69.590  1.00  0.00    -0.264 C  
HETATM   19  C   UNL     1      -9.604   6.953  68.178  1.00  0.00    -0.124 C  
HETATM   20  C   UNL     1     -10.653   8.712  69.523  1.00  0.00    -0.218 C  
HETATM   21  O   UNL     1     -11.174  10.674  70.699  1.00  0.00    -0.289 OA 
HETATM   22  C   UNL     1     -10.499   7.946  70.633  1.00  0.00    -0.213 C  
HETATM   23  C   UNL     1      -9.954   5.853  69.178  1.00  0.00    -0.214 C  
HETATM   24  H   UNL     1      -6.484   3.683  69.384  1.00  0.00     0.000 HD 
HETATM   25  O   UNL     1      -6.892   3.853  70.224  1.00  0.00    -0.033 OA 
HETATM   26  C   UNL     1     -10.236   6.423  70.596  1.00  0.00    -0.190 C  
HETATM   27  O   UNL     1     -10.751   8.445  71.906  1.00  0.00    -0.256 OA 
HETATM   28  H   UNL     1     -10.643   7.909  72.683  1.00  0.00     0.000 HD 
ENDROOT
BRANCH   4  29
HETATM   29  N   UNL     1      -9.700  10.833  64.773  1.00  0.00    -0.256 NA 
HETATM   30  C   UNL     1     -10.186  11.116  63.426  1.00  0.00    -0.380 C  
HETATM   31  C   UNL     1      -8.325  10.336  64.830  1.00  0.00    -0.172 C  
ENDBRANCH   4  29
BRANCH   7  32
HETATM   32  C   UNL     1     -12.047  14.488  67.070  1.00  0.00    -0.273 C  
BRANCH  32  33
HETATM   33  N   UNL     1     -11.512  15.286  68.167  1.00  0.00    -0.340 NA 
HETATM   34  H   UNL     1     -10.690  14.835  68.569  1.00  0.00     0.000 HD 
BRANCH  33  35
HETATM   35  C   UNL     1     -11.213  16.667  67.813  1.00  0.00    -0.064 C  
BRANCH  35  36
HETATM   36  C   UNL     1      -9.676  16.911  67.828  1.00  0.00    -0.250 C  
HETATM   37  C   UNL     1      -9.349  18.390  68.110  1.00  0.00    -0.331 C  
HETATM   38  C   UNL     1      -9.056  16.501  66.477  1.00  0.00    -0.307 C  
HETATM   39  C   UNL     1      -9.043  16.057  68.940  1.00  0.00    -0.235 C  
ENDBRANCH  35  36
ENDBRANCH  33  35
ENDBRANCH  32  33
ENDBRANCH   7  32
BRANCH  10  40
HETATM   40  C   UNL     1      -9.769   3.301  71.776  1.00  0.00    -0.167 C  
HETATM   41  N   UNL     1     -10.773   3.540  72.656  1.00  0.00    -0.052 N  
HETATM   42  H2  UNL     1     -10.883   4.457  73.088  1.00  0.00     0.000 HD 
HETATM   43  H1  UNL     1     -11.415   2.777  72.874  1.00  0.00     0.000 HD 
HETATM   44  O   UNL     1      -9.655   2.163  71.320  1.00  0.00    -0.132 OA 
ENDBRANCH  10  40
BRANCH   8  45
HETATM   45  N   UNL     1      -9.027   4.000  67.845  1.00  0.00    -0.116 NA 
HETATM   46  C   UNL     1      -9.463   2.641  68.170  1.00  0.00    -0.158 C  
HETATM   47  C   UNL     1      -7.925   3.960  66.888  1.00  0.00    -0.096 C  
ENDBRANCH   8  45
TORSDOF 7
ENDMDL
MODEL       23
REMARK 921   NORMALIZED FREE ENERGY PREDICTED BY IDOCK:   -6.25 KCAL/MOL
REMARK 922        TOTAL FREE ENERGY PREDICTED BY IDOCK:   -9.56 KCAL/MOL
REMARK 923 INTER-LIGAND FREE ENERGY PREDICTED BY IDOCK:   -8.70 KCAL/MOL
REMARK 924 INTRA-LIGAND FREE ENERGY PREDICTED BY IDOCK:   -0.86 KCAL/MOL
REMARK 927      BINDING AFFINITY PREDICTED BY RF-SCORE:    0.00 PKD
ROOT
HETATM    1  C   UNL     1      -9.011  12.929  67.589  1.00  0.00    -0.192 C  
HETATM    2  C   UNL     1      -8.922  11.830  66.549  1.00  0.00    -0.196 C  
HETATM    3  C   UNL     1      -9.437  10.492  66.941  1.00  0.00    -0.191 A  
HETATM    4  C   UNL     1      -9.002   9.349  66.228  1.00  0.00    -0.156 A  
HETATM    5  C   UNL     1      -9.508   8.123  66.678  1.00  0.00    -0.274 A  
HETATM    6  C   UNL     1      -9.535  17.855  66.704  1.00  0.00    -0.298 C  
HETATM    7  C   UNL     1     -10.364   7.975  67.796  1.00  0.00    -0.294 A  
HETATM    8  C   UNL     1      -8.733  16.595  66.511  1.00  0.00    -0.282 C  
HETATM    9  H   UNL     1      -9.286  16.731  69.746  1.00  0.00     0.000 HD 
HETATM   10  C   UNL     1     -10.330  18.007  67.772  1.00  0.00    -0.403 C  
HETATM   11  C   UNL     1     -10.797   9.137  68.449  1.00  0.00    -0.048 A  
HETATM   12  O   UNL     1     -12.245  16.686  67.981  1.00  0.00     0.777 OA 
HETATM   13  O   UNL     1     -11.609   9.075  69.547  1.00  0.00    -0.395 OA 
HETATM   14  C   UNL     1     -10.375  10.405  68.003  1.00  0.00    -0.212 A  
HETATM   15  H   UNL     1     -11.902   9.863  69.989  1.00  0.00     0.000 HD 
HETATM   16  C   UNL     1     -11.021  16.723  68.109  1.00  0.00    -0.309 C  
HETATM   17  O   UNL     1      -9.715  15.892  69.869  1.00  0.00    -0.207 OA 
HETATM   18  C   UNL     1     -10.974  11.663  68.594  1.00  0.00    -0.220 C  
HETATM   19  C   UNL     1      -8.816  14.196  66.794  1.00  0.00    -0.190 C  
HETATM   20  C   UNL     1     -10.315  12.985  68.305  1.00  0.00    -0.256 C  
HETATM   21  O   UNL     1     -12.001  11.668  69.268  1.00  0.00    -0.320 OA 
HETATM   22  C   UNL     1     -10.832  14.166  68.729  1.00  0.00    -0.258 C  
HETATM   23  C   UNL     1      -8.876  15.481  67.615  1.00  0.00    -0.185 C  
HETATM   24  H   UNL     1      -9.318  18.370  64.743  1.00  0.00     0.000 HD 
HETATM   25  O   UNL     1      -9.881  18.479  65.500  1.00  0.00    -0.329 OA 
HETATM   26  C   UNL     1     -10.132  15.530  68.529  1.00  0.00    -0.211 C  
HETATM   27  O   UNL     1     -11.954  14.222  69.549  1.00  0.00    -0.299 OA 
HETATM   28  H   UNL     1     -12.316  15.049  69.845  1.00  0.00     0.000 HD 
ENDROOT
BRANCH   4  29
HETATM   29  N   UNL     1      -8.163   9.356  65.117  1.00  0.00    -0.128 NA 
HETATM   30  C   UNL     1      -6.736   9.052  65.154  1.00  0.00    -0.072 C  
HETATM   31  C   UNL     1      -8.740   9.398  63.773  1.00  0.00    -0.201 C  
ENDBRANCH   4  29
BRANCH   7  32
HETATM   32  C   UNL     1     -10.833   6.579  68.166  1.00  0.00    -0.295 C  
BRANCH  32  33
HETATM   33  N   UNL     1     -10.713   6.353  69.601  1.00  0.00    -0.250 NA 
HETATM   34  H   UNL     1     -11.301   5.571  69.890  1.00  0.00     0.000 HD 
BRANCH  33  35
HETATM   35  C   UNL     1      -9.346   6.161  70.065  1.00  0.00    -0.154 C  
BRANCH  35  36
HETATM   36  C   UNL     1      -9.315   5.187  71.277  1.00  0.00    -0.192 C  
HETATM   37  C   UNL     1      -8.113   5.479  72.197  1.00  0.00    -0.111 C  
HETATM   38  C   UNL     1      -9.239   3.727  70.788  1.00  0.00    -0.202 C  
HETATM   39  C   UNL     1     -10.603   5.364  72.098  1.00  0.00    -0.284 C  
ENDBRANCH  35  36
ENDBRANCH  33  35
ENDBRANCH  32  33
ENDBRANCH   7  32
BRANCH  10  40
HETATM   40  C   UNL     1      -9.626  18.853  68.785  1.00  0.00    -0.382 C  
HETATM   41  N   UNL     1     -10.371  19.683  69.556  1.00  0.00    -0.530 N  
HETATM   42  H2  UNL     1     -11.385  19.729  69.448  1.00  0.00     0.000 HD 
HETATM   43  H1  UNL     1      -9.891  20.260  70.247  1.00  0.00     0.000 HD 
HETATM   44  O   UNL     1      -8.403  18.872  68.924  1.00  0.00    -0.319 OA 
ENDBRANCH  10  40
BRANCH   8  45
HETATM   45  N   UNL     1      -7.288  16.746  66.218  1.00  0.00    -0.226 NA 
HETATM   46  C   UNL     1      -6.399  16.375  67.321  1.00  0.00    -0.180 C  
HETATM   47  C   UNL     1      -6.941  18.072  65.716  1.00  0.00    -0.231 C  
ENDBRANCH   8  45
TORSDOF 7
ENDMDL
MODEL       24
REMARK 921   NORMALIZED FREE ENERGY PREDICTED BY IDOCK:   -6.23 KCAL/MOL
REMARK 922        TOTAL FREE ENERGY PREDICTED BY IDOCK:   -9.53 KCAL/MOL
REMARK 923 INTER-LIGAND FREE ENERGY PREDICTED BY IDOCK:   -8.22 KCAL/MOL
REMARK 924 INTRA-LIGAND FREE ENERGY PREDICTED BY IDOCK:   -1.32 KCAL/MOL
REMARK 927      BINDING AFFINITY PREDICTED BY RF-SCORE:    0.00 PKD
ROOT
HETATM    1  C   UNL     1      -8.689  12.511  68.651  1.00  0.00     0.047 C  
HETATM    2  C   UNL     1      -8.212  11.239  67.977  1.00  0.00    -0.134 C  
HETATM    3  C   UNL     1      -8.981  10.000  68.265  1.00  0.00    -0.119 A  
HETATM    4  C   UNL     1      -8.369   8.742  68.049  1.00  0.00    -0.119 A  
HETATM    5  C   UNL     1      -9.148   7.623  68.374  1.00  0.00    -0.130 A  
HETATM    6  C   UNL     1      -8.231  17.195  66.869  1.00  0.00    -0.221 C  
HETATM    7  C   UNL     1     -10.449   7.690  68.927  1.00  0.00    -0.211 A  
HETATM    8  C   UNL     1      -7.564  15.914  67.299  1.00  0.00    -0.203 C  
HETATM    9  H   UNL     1      -9.604  16.646  69.766  1.00  0.00     0.000 HD 
HETATM   10  C   UNL     1      -9.426  17.547  67.364  1.00  0.00    -0.255 C  
HETATM   11  C   UNL     1     -11.028   8.956  69.089  1.00  0.00     0.024 A  
HETATM   12  O   UNL     1     -11.319  16.302  66.797  1.00  0.00     0.114 OA 
HETATM   13  O   UNL     1     -12.274   9.102  69.634  1.00  0.00     0.126 OA 
HETATM   14  C   UNL     1     -10.321  10.117  68.720  1.00  0.00    -0.211 A  
HETATM   15  H   UNL     1     -12.666   9.960  69.743  1.00  0.00     0.000 HD 
HETATM   16  C   UNL     1     -10.316  16.352  67.508  1.00  0.00    -0.288 C  
HETATM   17  O   UNL     1     -10.119  15.848  69.789  1.00  0.00    -0.273 OA 
HETATM   18  C   UNL     1     -11.005  11.466  68.732  1.00  0.00    -0.223 C  
HETATM   19  C   UNL     1      -8.008  13.609  67.872  1.00  0.00    -0.161 C  
HETATM   20  C   UNL     1     -10.164  12.708  68.607  1.00  0.00    -0.165 C  
HETATM   21  O   UNL     1     -12.225  11.603  68.798  1.00  0.00    -0.416 OA 
HETATM   22  C   UNL     1     -10.703  13.951  68.529  1.00  0.00    -0.257 C  
HETATM   23  C   UNL     1      -8.334  15.024  68.344  1.00  0.00    -0.154 C  
HETATM   24  H   UNL     1      -7.038  17.340  65.222  1.00  0.00     0.000 HD 
HETATM   25  O   UNL     1      -7.885  17.590  65.573  1.00  0.00    -0.386 OA 
HETATM   26  C   UNL     1      -9.865  15.249  68.493  1.00  0.00    -0.210 C  
HETATM   27  O   UNL     1     -12.070  14.165  68.664  1.00  0.00    -0.448 OA 
HETATM   28  H   UNL     1     -12.448  15.036  68.609  1.00  0.00     0.000 HD 
ENDROOT
BRANCH   4  29
HETATM   29  N   UNL     1      -7.100   8.539  67.516  1.00  0.00    -0.079 NA 
HETATM   30  C   UNL     1      -5.885   8.370  68.307  1.00  0.00    -0.042 C  
HETATM   31  C   UNL     1      -6.954   8.195  66.100  1.00  0.00    -0.058 C  
ENDBRANCH   4  29
BRANCH   7  32
HETATM   32  C   UNL     1     -11.173   6.389  69.227  1.00  0.00    -0.375 C  
BRANCH  32  33
HETATM   33  N   UNL     1     -11.770   6.422  70.557  1.00  0.00    -0.371 NA 
HETATM   34  H   UNL     1     -12.615   5.850  70.582  1.00  0.00     0.000 HD 
BRANCH  33  35
HETATM   35  C   UNL     1     -10.863   6.038  71.629  1.00  0.00    -0.260 C  
BRANCH  35  36
HETATM   36  C   UNL     1     -10.641   7.228  72.606  1.00  0.00    -0.305 C  
HETATM   37  C   UNL     1     -11.834   8.204  72.576  1.00  0.00    -0.438 C  
HETATM   38  C   UNL     1      -9.352   7.989  72.236  1.00  0.00    -0.259 C  
HETATM   39  C   UNL     1     -10.499   6.685  74.037  1.00  0.00    -0.309 C  
ENDBRANCH  35  36
ENDBRANCH  33  35
ENDBRANCH  32  33
ENDBRANCH   7  32
BRANCH  10  40
HETATM   40  C   UNL     1      -9.224  18.558  68.446  1.00  0.00    -0.324 C  
HETATM   41  N   UNL     1      -7.968  19.019  68.668  1.00  0.00    -0.345 N  
HETATM   42  H2  UNL     1      -7.182  18.685  68.110  1.00  0.00     0.000 HD 
HETATM   43  H1  UNL     1      -7.831  19.709  69.407  1.00  0.00     0.000 HD 
HETATM   44  O   UNL     1     -10.128  18.960  69.179  1.00  0.00    -0.365 OA 
ENDBRANCH  10  40
BRANCH   8  45
HETATM   45  N   UNL     1      -6.152  15.997  67.742  1.00  0.00    -0.130 NA 
HETATM   46  C   UNL     1      -5.975  16.228  69.176  1.00  0.00    -0.141 C  
HETATM   47  C   UNL     1      -5.368  16.962  66.976  1.00  0.00    -0.150 C  
ENDBRANCH   8  45
TORSDOF 7
ENDMDL
MODEL       25
REMARK 921   NORMALIZED FREE ENERGY PREDICTED BY IDOCK:   -6.21 KCAL/MOL
REMARK 922        TOTAL FREE ENERGY PREDICTED BY IDOCK:   -9.51 KCAL/MOL
REMARK 923 INTER-LIGAND FREE ENERGY PREDICTED BY IDOCK:   -7.80 KCAL/MOL
REMARK 924 INTRA-LIGAND FREE ENERGY PREDICTED BY IDOCK:   -1.71 KCAL/MOL
REMARK 927      BINDING AFFINITY PREDICTED BY RF-SCORE:    0.00 PKD
ROOT
HETATM    1  C   UNL     1      -9.682  12.728  68.302  1.00  0.00    -0.216 C  
HETATM    2  C   UNL     1     -10.719  13.611  68.969  1.00  0.00    -0.194 C  
HETATM    3  C   UNL     1     -10.775  15.029  68.527  1.00  0.00    -0.244 A  
HETATM    4  C   UNL     1     -11.376  15.993  69.373  1.00  0.00    -0.355 A  
HETATM    5  C   UNL     1     -11.361  17.311  68.900  1.00  0.00     0.577 A  
HETATM    6  C   UNL     1     -10.031   7.770  67.521  1.00  0.00    -0.185 C  
HETATM    7  C   UNL     1     -10.757  17.716  67.685  1.00  0.00    -0.318 A  
HETATM    8  C   UNL     1     -10.024   8.917  68.496  1.00  0.00    -0.177 C  
HETATM    9  H   UNL     1      -7.366   9.409  66.632  1.00  0.00     0.000 HD 
HETATM   10  C   UNL     1      -9.404   7.867  66.340  1.00  0.00    -0.247 C  
HETATM   11  C   UNL     1     -10.207  16.723  66.864  1.00  0.00    -0.290 A  
HETATM   12  O   UNL     1     -10.229   9.328  64.716  1.00  0.00     0.739 OA 
HETATM   13  O   UNL     1      -9.590  17.038  65.685  1.00  0.00    -0.536 OA 
HETATM   14  C   UNL     1     -10.249  15.370  67.253  1.00  0.00    -0.254 A  
HETATM   15  H   UNL     1      -9.217  16.365  65.128  1.00  0.00     0.000 HD 
HETATM   16  C   UNL     1      -9.578   9.234  65.756  1.00  0.00    -0.271 C  
HETATM   17  O   UNL     1      -7.556  10.283  66.310  1.00  0.00    -0.106 OA 
HETATM   18  C   UNL     1      -9.812  14.283  66.295  1.00  0.00    -0.307 C  
HETATM   19  C   UNL     1     -10.134  11.328  68.635  1.00  0.00    -0.216 C  
HETATM   20  C   UNL     1      -9.604  12.890  66.825  1.00  0.00    -0.246 C  
HETATM   21  O   UNL     1      -9.657  14.469  65.090  1.00  0.00    -0.085 OA 
HETATM   22  C   UNL     1      -9.290  11.843  66.021  1.00  0.00    -0.206 C  
HETATM   23  C   UNL     1      -9.254  10.220  68.061  1.00  0.00    -0.138 C  
HETATM   24  H   UNL     1     -11.613   6.893  68.463  1.00  0.00     0.000 HD 
HETATM   25  O   UNL     1     -11.168   6.962  67.626  1.00  0.00    -0.205 OA 
HETATM   26  C   UNL     1      -8.980  10.421  66.544  1.00  0.00    -0.145 C  
HETATM   27  O   UNL     1      -9.040  12.011  64.663  1.00  0.00    -0.310 OA 
HETATM   28  H   UNL     1      -8.821  11.277  64.100  1.00  0.00     0.000 HD 
ENDROOT
BRANCH   4  29
HETATM   29  N   UNL     1     -12.000  15.728  70.589  1.00  0.00    -0.379 NA 
HETATM   30  C   UNL     1     -11.481  16.132  71.892  1.00  0.00    -0.267 C  
HETATM   31  C   UNL     1     -13.387  15.261  70.606  1.00  0.00    -0.275 C  
ENDBRANCH   4  29
BRANCH   7  32
HETATM   32  C   UNL     1     -10.821  19.185  67.302  1.00  0.00    -0.431 C  
BRANCH  32  33
HETATM   33  N   UNL     1      -9.562  19.623  66.713  1.00  0.00    -0.346 NA 
HETATM   34  H   UNL     1      -9.732  20.303  65.972  1.00  0.00     0.000 HD 
BRANCH  33  35
HETATM   35  C   UNL     1      -8.602  20.148  67.675  1.00  0.00    -0.303 C  
BRANCH  35  36
HETATM   36  C   UNL     1      -7.235  19.419  67.531  1.00  0.00    -0.247 C  
HETATM   37  C   UNL     1      -6.904  19.140  66.051  1.00  0.00    -0.270 C  
HETATM   38  C   UNL     1      -7.254  18.088  68.308  1.00  0.00    -0.248 C  
HETATM   39  C   UNL     1      -6.126  20.312  68.112  1.00  0.00    -0.299 C  
ENDBRANCH  35  36
ENDBRANCH  33  35
ENDBRANCH  32  33
ENDBRANCH   7  32
BRANCH  10  40
HETATM   40  C   UNL     1      -8.082   7.175  66.434  1.00  0.00    -0.116 C  
HETATM   41  N   UNL     1      -7.060   7.639  65.672  1.00  0.00    -0.060 N  
HETATM   42  H2  UNL     1      -7.190   8.439  65.053  1.00  0.00     0.000 HD 
HETATM   43  H1  UNL     1      -6.158   7.166  65.736  1.00  0.00     0.000 HD 
HETATM   44  O   UNL     1      -7.883   6.177  67.127  1.00  0.00    -0.100 OA 
ENDBRANCH  10  40
BRANCH   8  45
HETATM   45  N   UNL     1      -9.637   8.620  69.895  1.00  0.00    -0.170 NA 
HETATM   46  C   UNL     1      -8.613   7.584  70.039  1.00  0.00    -0.139 C  
HETATM   47  C   UNL     1     -10.780   8.322  70.754  1.00  0.00    -0.218 C  
ENDBRANCH   8  45
TORSDOF 7
ENDMDL
MODEL       26
REMARK 921   NORMALIZED FREE ENERGY PREDICTED BY IDOCK:   -6.08 KCAL/MOL
REMARK 922        TOTAL FREE ENERGY PREDICTED BY IDOCK:   -9.33 KCAL/MOL
REMARK 923 INTER-LIGAND FREE ENERGY PREDICTED BY IDOCK:   -8.42 KCAL/MOL
REMARK 924 INTRA-LIGAND FREE ENERGY PREDICTED BY IDOCK:   -0.91 KCAL/MOL
REMARK 927      BINDING AFFINITY PREDICTED BY RF-SCORE:    0.00 PKD
ROOT
HETATM    1  C   UNL     1     -11.104  10.607  68.150  1.00  0.00    -0.343 C  
HETATM    2  C   UNL     1     -10.944   9.536  69.211  1.00  0.00    -0.167 C  
HETATM    3  C   UNL     1     -10.635   8.162  68.735  1.00  0.00    -0.149 A  
HETATM    4  C   UNL     1     -10.902   7.061  69.583  1.00  0.00    -0.247 A  
HETATM    5  C   UNL     1     -10.612   5.798  69.051  1.00  0.00    -0.351 A  
HETATM    6  C   UNL     1     -10.094  15.509  68.669  1.00  0.00    -0.210 C  
HETATM    7  C   UNL     1     -10.126   5.579  67.740  1.00  0.00    -0.214 A  
HETATM    8  C   UNL     1     -10.870  14.303  69.130  1.00  0.00    -0.242 C  
HETATM    9  H   UNL     1     -11.273  14.343  65.870  1.00  0.00     0.000 HD 
HETATM   10  C   UNL     1      -9.637  15.593  67.412  1.00  0.00    -0.217 C  
HETATM   11  C   UNL     1      -9.842   6.700  66.949  1.00  0.00    -0.171 A  
HETATM   12  O   UNL     1      -7.935  14.157  66.707  1.00  0.00     0.063 OA 
HETATM   13  O   UNL     1      -9.388   6.568  65.666  1.00  0.00    -0.377 OA 
HETATM   14  C   UNL     1     -10.050   7.999  67.451  1.00  0.00    -0.294 A  
HETATM   15  H   UNL     1      -9.195   7.328  65.130  1.00  0.00     0.000 HD 
HETATM   16  C   UNL     1      -9.140  14.264  66.936  1.00  0.00    -0.252 C  
HETATM   17  O   UNL     1     -10.941  13.478  65.659  1.00  0.00    -0.287 OA 
HETATM   18  C   UNL     1      -9.585   9.207  66.668  1.00  0.00    -0.203 C  
HETATM   19  C   UNL     1     -10.995  11.898  68.922  1.00  0.00    -0.285 C  
HETATM   20  C   UNL     1     -10.063  10.571  67.086  1.00  0.00    -0.253 C  
HETATM   21  O   UNL     1      -8.799   9.138  65.726  1.00  0.00    -0.152 OA 
HETATM   22  C   UNL     1      -9.632  11.711  66.490  1.00  0.00    -0.209 C  
HETATM   23  C   UNL     1     -11.110  13.162  68.072  1.00  0.00    -0.290 C  
HETATM   24  H   UNL     1      -9.706  16.075  70.589  1.00  0.00     0.000 HD 
HETATM   25  O   UNL     1      -9.383  16.135  69.698  1.00  0.00    -0.168 OA 
HETATM   26  C   UNL     1     -10.172  13.118  66.834  1.00  0.00    -0.245 C  
HETATM   27  O   UNL     1      -8.794  11.684  65.380  1.00  0.00    -0.400 OA 
HETATM   28  H   UNL     1      -8.493  12.483  64.962  1.00  0.00     0.000 HD 
ENDROOT
BRANCH   4  29
HETATM   29  N   UNL     1     -11.381   7.140  70.888  1.00  0.00    -0.275 NA 
HETATM   30  C   UNL     1     -12.793   7.102  71.256  1.00  0.00    -0.349 C  
HETATM   31  C   UNL     1     -10.456   6.980  72.012  1.00  0.00    -0.208 C  
ENDBRANCH   4  29
BRANCH   7  32
HETATM   32  C   UNL     1      -9.856   4.149  67.301  1.00  0.00    -0.123 C  
BRANCH  32  33
HETATM   33  N   UNL     1      -8.449   3.966  66.966  1.00  0.00    -0.100 NA 
HETATM   34  H   UNL     1      -8.082   4.795  66.498  1.00  0.00     0.000 HD 
BRANCH  33  35
HETATM   35  C   UNL     1      -7.606   3.606  68.098  1.00  0.00    -0.061 C  
BRANCH  35  36
HETATM   36  C   UNL     1      -6.335   4.502  68.136  1.00  0.00    -0.037 C  
HETATM   37  C   UNL     1      -5.834   4.821  66.714  1.00  0.00    -0.026 C  
HETATM   38  C   UNL     1      -5.212   3.802  68.927  1.00  0.00    -0.011 C  
HETATM   39  C   UNL     1      -6.677   5.829  68.836  1.00  0.00    -0.060 C  
ENDBRANCH  35  36
ENDBRANCH  33  35
ENDBRANCH  32  33
ENDBRANCH   7  32
BRANCH  10  40
HETATM   40  C   UNL     1     -10.560  16.459  66.616  1.00  0.00    -0.239 C  
HETATM   41  N   UNL     1     -10.789  16.131  65.320  1.00  0.00    -0.374 N  
HETATM   42  H2  UNL     1     -10.344  15.314  64.900  1.00  0.00     0.000 HD 
HETATM   43  H1  UNL     1     -11.419  16.721  64.777  1.00  0.00     0.000 HD 
HETATM   44  O   UNL     1     -11.086  17.481  67.058  1.00  0.00    -0.012 OA 
ENDBRANCH  10  40
BRANCH   8  45
HETATM   45  N   UNL     1     -12.158  14.545  69.821  1.00  0.00    -0.320 NA 
HETATM   46  C   UNL     1     -12.366  15.926  70.259  1.00  0.00    -0.192 C  
HETATM   47  C   UNL     1     -12.394  13.625  70.930  1.00  0.00    -0.371 C  
ENDBRANCH   8  45
TORSDOF 7
ENDMDL
MODEL       27
REMARK 921   NORMALIZED FREE ENERGY PREDICTED BY IDOCK:   -6.02 KCAL/MOL
REMARK 922        TOTAL FREE ENERGY PREDICTED BY IDOCK:   -9.24 KCAL/MOL
REMARK 923 INTER-LIGAND FREE ENERGY PREDICTED BY IDOCK:   -8.63 KCAL/MOL
REMARK 924 INTRA-LIGAND FREE ENERGY PREDICTED BY IDOCK:   -0.61 KCAL/MOL
REMARK 927      BINDING AFFINITY PREDICTED BY RF-SCORE:    0.00 PKD
ROOT
HETATM    1  C   UNL     1      -8.722  11.520  67.799  1.00  0.00    -0.142 C  
HETATM    2  C   UNL     1      -7.902  12.612  68.459  1.00  0.00    -0.104 C  
HETATM    3  C   UNL     1      -8.535  13.952  68.569  1.00  0.00    -0.127 A  
HETATM    4  C   UNL     1      -7.715  15.091  68.753  1.00  0.00    -0.141 A  
HETATM    5  C   UNL     1      -8.384  16.320  68.815  1.00  0.00    -0.235 A  
HETATM    6  C   UNL     1      -8.465   6.588  68.762  1.00  0.00    -0.122 C  
HETATM    7  C   UNL     1      -9.783  16.474  68.663  1.00  0.00    -0.247 A  
HETATM    8  C   UNL     1      -7.766   7.847  68.321  1.00  0.00    -0.121 C  
HETATM    9  H   UNL     1     -10.488   7.734  66.487  1.00  0.00     0.000 HD 
HETATM   10  C   UNL     1      -9.787   6.442  68.598  1.00  0.00    -0.152 C  
HETATM   11  C   UNL     1     -10.559  15.316  68.519  1.00  0.00    -0.237 A  
HETATM   12  O   UNL     1     -11.255   7.763  69.846  1.00  0.00    -0.190 OA 
HETATM   13  O   UNL     1     -11.914  15.386  68.348  1.00  0.00    -0.511 OA 
HETATM   14  C   UNL     1      -9.951  14.046  68.515  1.00  0.00    -0.230 A  
HETATM   15  H   UNL     1     -12.439  14.601  68.251  1.00  0.00     0.000 HD 
HETATM   16  C   UNL     1     -10.503   7.729  68.873  1.00  0.00    -0.194 C  
HETATM   17  O   UNL     1     -10.870   8.573  66.717  1.00  0.00    -0.153 OA 
HETATM   18  C   UNL     1     -10.798  12.792  68.533  1.00  0.00    -0.253 C  
HETATM   19  C   UNL     1      -8.017  10.248  68.200  1.00  0.00    -0.109 C  
HETATM   20  C   UNL     1     -10.140  11.469  68.248  1.00  0.00    -0.205 C  
HETATM   21  O   UNL     1     -11.995  12.791  68.810  1.00  0.00    -0.305 OA 
HETATM   22  C   UNL     1     -10.809  10.290  68.322  1.00  0.00    -0.255 C  
HETATM   23  C   UNL     1      -8.659   8.968  67.669  1.00  0.00    -0.120 C  
HETATM   24  H   UNL     1      -6.899   6.059  69.956  1.00  0.00     0.000 HD 
HETATM   25  O   UNL     1      -7.837   5.955  69.839  1.00  0.00    -0.092 OA 
HETATM   26  C   UNL     1     -10.187   8.925  67.947  1.00  0.00    -0.222 C  
HETATM   27  O   UNL     1     -12.177  10.239  68.567  1.00  0.00    -0.565 OA 
HETATM   28  H   UNL     1     -12.645   9.413  68.619  1.00  0.00     0.000 HD 
ENDROOT
BRANCH   4  29
HETATM   29  N   UNL     1      -6.332  15.076  68.913  1.00  0.00    -0.088 NA 
HETATM   30  C   UNL     1      -5.634  14.456  70.035  1.00  0.00    -0.112 C  
HETATM   31  C   UNL     1      -5.468  15.449  67.793  1.00  0.00    -0.098 C  
ENDBRANCH   4  29
BRANCH   7  32
HETATM   32  C   UNL     1     -10.368  17.873  68.755  1.00  0.00    -0.307 C  
BRANCH  32  33
HETATM   33  N   UNL     1     -10.426  18.500  67.440  1.00  0.00    -0.403 NA 
HETATM   34  H   UNL     1     -10.774  19.455  67.515  1.00  0.00     0.000 HD 
BRANCH  33  35
HETATM   35  C   UNL     1      -9.167  18.473  66.708  1.00  0.00    -0.297 C  
BRANCH  35  36
HETATM   36  C   UNL     1      -8.398  19.811  66.902  1.00  0.00    -0.348 C  
HETATM   37  C   UNL     1      -7.330  19.687  68.007  1.00  0.00    -0.321 C  
HETATM   38  C   UNL     1      -9.378  20.943  67.267  1.00  0.00    -0.334 C  
HETATM   39  C   UNL     1      -7.690  20.179  65.587  1.00  0.00    -0.136 C  
ENDBRANCH  35  36
ENDBRANCH  33  35
ENDBRANCH  32  33
ENDBRANCH   7  32
BRANCH  10  40
HETATM   40  C   UNL     1     -10.038   5.605  67.385  1.00  0.00    -0.173 C  
HETATM   41  N   UNL     1     -11.137   5.871  66.638  1.00  0.00    -0.724 N  
HETATM   42  H2  UNL     1     -11.777   6.623  66.896  1.00  0.00     0.000 HD 
HETATM   43  H1  UNL     1     -11.308   5.300  65.810  1.00  0.00     0.000 HD 
HETATM   44  O   UNL     1      -9.326   4.656  67.054  1.00  0.00    -0.125 OA 
ENDBRANCH  10  40
BRANCH   8  45
HETATM   45  N   UNL     1      -6.557   7.696  67.478  1.00  0.00    -0.061 NA 
HETATM   46  C   UNL     1      -6.772   6.964  66.229  1.00  0.00    -0.052 C  
HETATM   47  C   UNL     1      -5.421   7.133  68.202  1.00  0.00    -0.021 C  
ENDBRANCH   8  45
TORSDOF 7
ENDMDL
MODEL       28
REMARK 921   NORMALIZED FREE ENERGY PREDICTED BY IDOCK:   -6.01 KCAL/MOL
REMARK 922        TOTAL FREE ENERGY PREDICTED BY IDOCK:   -9.22 KCAL/MOL
REMARK 923 INTER-LIGAND FREE ENERGY PREDICTED BY IDOCK:   -7.68 KCAL/MOL
REMARK 924 INTRA-LIGAND FREE ENERGY PREDICTED BY IDOCK:   -1.54 KCAL/MOL
REMARK 927      BINDING AFFINITY PREDICTED BY RF-SCORE:    0.00 PKD
ROOT
HETATM    1  C   UNL     1      -8.843  11.573  68.819  1.00  0.00    -0.047 C  
HETATM    2  C   UNL     1      -9.476  12.227  67.607  1.00  0.00    -0.188 C  
HETATM    3  C   UNL     1      -8.940  13.554  67.204  1.00  0.00    -0.230 A  
HETATM    4  C   UNL     1      -9.733  14.403  66.397  1.00  0.00    -0.302 A  
HETATM    5  C   UNL     1      -9.170  15.648  66.086  1.00  0.00    -0.378 A  
HETATM    6  C   UNL     1      -8.415   6.633  69.675  1.00  0.00    -0.132 C  
HETATM    7  C   UNL     1      -7.914  16.095  66.561  1.00  0.00    -0.294 A  
HETATM    8  C   UNL     1      -9.308   7.817  69.413  1.00  0.00    -0.152 C  
HETATM    9  H   UNL     1      -7.339   8.796  71.853  1.00  0.00     0.000 HD 
HETATM   10  C   UNL     1      -7.213   6.791  70.246  1.00  0.00    -0.076 C  
HETATM   11  C   UNL     1      -7.148  15.207  67.326  1.00  0.00    -0.126 A  
HETATM   12  O   UNL     1      -5.516   7.887  69.074  1.00  0.00    -0.028 OA 
HETATM   13  O   UNL     1      -5.933  15.573  67.835  1.00  0.00    -0.126 OA 
HETATM   14  C   UNL     1      -7.630  13.916  67.618  1.00  0.00    -0.188 A  
HETATM   15  H   UNL     1      -5.413  14.970  68.354  1.00  0.00     0.000 HD 
HETATM   16  C   UNL     1      -6.542   8.029  69.739  1.00  0.00    -0.037 C  
HETATM   17  O   UNL     1      -6.964   9.572  71.453  1.00  0.00    -0.316 OA 
HETATM   18  C   UNL     1      -6.738  12.899  68.294  1.00  0.00    -0.093 C  
HETATM   19  C   UNL     1      -9.284  10.134  68.724  1.00  0.00    -0.164 C  
HETATM   20  C   UNL     1      -7.356  11.640  68.840  1.00  0.00    -0.107 C  
HETATM   21  O   UNL     1      -5.519  13.027  68.386  1.00  0.00    -0.060 OA 
HETATM   22  C   UNL     1      -6.618  10.642  69.389  1.00  0.00    -0.075 C  
HETATM   23  C   UNL     1      -8.762   9.231  69.840  1.00  0.00    -0.189 C  
HETATM   24  H   UNL     1      -9.460   5.473  68.363  1.00  0.00     0.000 HD 
HETATM   25  O   UNL     1      -8.608   5.585  68.769  1.00  0.00    -0.100 OA 
HETATM   26  C   UNL     1      -7.229   9.380  70.040  1.00  0.00    -0.092 C  
HETATM   27  O   UNL     1      -5.245  10.766  69.576  1.00  0.00    -0.038 OA 
HETATM   28  H   UNL     1      -4.728  10.067  69.960  1.00  0.00     0.000 HD 
ENDROOT
BRANCH   4  29
HETATM   29  N   UNL     1     -10.982  14.086  65.869  1.00  0.00    -0.284 NA 
HETATM   30  C   UNL     1     -12.253  14.563  66.404  1.00  0.00    -0.252 C  
HETATM   31  C   UNL     1     -11.075  13.468  64.546  1.00  0.00    -0.381 C  
ENDBRANCH   4  29
BRANCH   7  32
HETATM   32  C   UNL     1      -7.433  17.473  66.138  1.00  0.00    -0.299 C  
BRANCH  32  33
HETATM   33  N   UNL     1      -8.443  18.486  66.422  1.00  0.00    -0.355 NA 
HETATM   34  H   UNL     1      -9.360  18.175  66.102  1.00  0.00     0.000 HD 
BRANCH  33  35
HETATM   35  C   UNL     1      -8.503  18.895  67.818  1.00  0.00    -0.284 C  
BRANCH  35  36
HETATM   36  C   UNL     1      -9.964  18.814  68.346  1.00  0.00    -0.441 C  
HETATM   37  C   UNL     1     -10.982  18.973  67.199  1.00  0.00    -0.338 C  
HETATM   38  C   UNL     1     -10.213  19.909  69.402  1.00  0.00    -0.128 C  
HETATM   39  C   UNL     1     -10.186  17.440  69.000  1.00  0.00    -0.317 C  
ENDBRANCH  35  36
ENDBRANCH  33  35
ENDBRANCH  32  33
ENDBRANCH   7  32
BRANCH  10  40
HETATM   40  C   UNL     1      -7.316   6.447  71.698  1.00  0.00    -0.088 C  
HETATM   41  N   UNL     1      -6.319   6.849  72.524  1.00  0.00    -0.053 N  
HETATM   42  H2  UNL     1      -5.520   7.372  72.165  1.00  0.00     0.000 HD 
HETATM   43  H1  UNL     1      -6.389   6.613  73.515  1.00  0.00     0.000 HD 
HETATM   44  O   UNL     1      -8.233   5.778  72.175  1.00  0.00    -0.111 OA 
ENDBRANCH  10  40
BRANCH   8  45
HETATM   45  N   UNL     1     -10.713   7.726  69.876  1.00  0.00    -0.246 NA 
HETATM   46  C   UNL     1     -10.895   7.917  71.316  1.00  0.00    -0.235 C  
HETATM   47  C   UNL     1     -11.381   6.503  69.441  1.00  0.00    -0.332 C  
ENDBRANCH   8  45
TORSDOF 7
ENDMDL
MODEL       29
REMARK 921   NORMALIZED FREE ENERGY PREDICTED BY IDOCK:   -5.99 KCAL/MOL
REMARK 922        TOTAL FREE ENERGY PREDICTED BY IDOCK:   -9.20 KCAL/MOL
REMARK 923 INTER-LIGAND FREE ENERGY PREDICTED BY IDOCK:   -8.72 KCAL/MOL
REMARK 924 INTRA-LIGAND FREE ENERGY PREDICTED BY IDOCK:   -0.48 KCAL/MOL
REMARK 927      BINDING AFFINITY PREDICTED BY RF-SCORE:    0.00 PKD
ROOT
HETATM    1  C   UNL     1      -9.291   7.115  68.522  1.00  0.00    -0.136 C  
HETATM    2  C   UNL     1     -10.469   7.416  69.427  1.00  0.00    -0.220 C  
HETATM    3  C   UNL     1     -10.954   8.821  69.451  1.00  0.00    -0.046 A  
HETATM    4  C   UNL     1     -11.722   9.268  70.553  1.00  0.00    -0.176 A  
HETATM    5  C   UNL     1     -12.114  10.612  70.517  1.00  0.00    -0.448 A  
HETATM    6  C   UNL     1      -8.319   2.744  66.227  1.00  0.00    -0.094 C  
HETATM    7  C   UNL     1     -11.754  11.520  69.492  1.00  0.00    -0.413 A  
HETATM    8  C   UNL     1      -8.546   3.495  67.513  1.00  0.00    -0.101 C  
HETATM    9  H   UNL     1      -6.300   5.274  65.906  1.00  0.00     0.000 HD 
HETATM   10  C   UNL     1      -7.849   3.369  65.139  1.00  0.00    -0.082 C  
HETATM   11  C   UNL     1     -11.024  11.024  68.403  1.00  0.00    -0.230 A  
HETATM   12  O   UNL     1      -9.185   4.945  64.050  1.00  0.00    -0.063 OA 
HETATM   13  O   UNL     1     -10.624  11.844  67.385  1.00  0.00    -0.215 OA 
HETATM   14  C   UNL     1     -10.656   9.666  68.350  1.00  0.00    -0.264 A  
HETATM   15  H   UNL     1     -10.129  11.508  66.647  1.00  0.00     0.000 HD 
HETATM   16  C   UNL     1      -8.445   4.736  65.011  1.00  0.00    -0.137 C  
HETATM   17  O   UNL     1      -6.752   6.109  65.873  1.00  0.00    -0.046 OA 
HETATM   18  C   UNL     1     -10.021   9.093  67.102  1.00  0.00    -0.218 C  
HETATM   19  C   UNL     1      -9.306   5.612  68.398  1.00  0.00    -0.133 C  
HETATM   20  C   UNL     1      -9.389   7.729  67.170  1.00  0.00    -0.185 C  
HETATM   21  O   UNL     1     -10.029   9.669  66.016  1.00  0.00    -0.266 OA 
HETATM   22  C   UNL     1      -8.869   7.110  66.080  1.00  0.00    -0.131 C  
HETATM   23  C   UNL     1      -8.207   5.033  67.510  1.00  0.00    -0.106 C  
HETATM   24  H   UNL     1      -9.508   1.205  66.841  1.00  0.00     0.000 HD 
HETATM   25  O   UNL     1      -9.174   1.648  66.070  1.00  0.00    -0.080 OA 
HETATM   26  C   UNL     1      -8.133   5.751  66.134  1.00  0.00    -0.108 C  
HETATM   27  O   UNL     1      -8.795   7.743  64.844  1.00  0.00    -0.378 OA 
HETATM   28  H   UNL     1      -8.431   7.309  64.081  1.00  0.00     0.000 HD 
ENDROOT
BRANCH   4  29
HETATM   29  N   UNL     1     -12.140   8.481  71.623  1.00  0.00    -0.303 NA 
HETATM   30  C   UNL     1     -11.294   8.097  72.749  1.00  0.00    -0.336 C  
HETATM   31  C   UNL     1     -13.567   8.221  71.819  1.00  0.00    -0.361 C  
ENDBRANCH   4  29
BRANCH   7  32
HETATM   32  C   UNL     1     -12.256  12.951  69.587  1.00  0.00    -0.141 C  
BRANCH  32  33
HETATM   33  N   UNL     1     -11.590  13.663  70.672  1.00  0.00    -0.503 NA 
HETATM   34  H   UNL     1     -10.610  13.828  70.443  1.00  0.00     0.000 HD 
BRANCH  33  35
HETATM   35  C   UNL     1     -12.239  14.909  71.056  1.00  0.00    -0.317 C  
BRANCH  35  36
HETATM   36  C   UNL     1     -13.152  14.687  72.296  1.00  0.00    -0.448 C  
HETATM   37  C   UNL     1     -13.636  13.226  72.378  1.00  0.00    -0.694 C  
HETATM   38  C   UNL     1     -14.375  15.625  72.234  1.00  0.00    -0.480 C  
HETATM   39  C   UNL     1     -12.353  15.002  73.571  1.00  0.00    -0.597 C  
ENDBRANCH  35  36
ENDBRANCH  33  35
ENDBRANCH  32  33
ENDBRANCH   7  32
BRANCH  10  40
HETATM   40  C   UNL     1      -6.384   3.096  65.016  1.00  0.00    -0.024 C  
HETATM   41  N   UNL     1      -5.665   3.835  64.136  1.00  0.00    -0.013 N  
HETATM   42  H2  UNL     1      -6.113   4.559  63.572  1.00  0.00     0.000 HD 
HETATM   43  H1  UNL     1      -4.666   3.649  64.052  1.00  0.00     0.000 HD 
HETATM   44  O   UNL     1      -5.803   2.204  65.636  1.00  0.00    -0.016 OA 
ENDBRANCH  10  40
BRANCH   8  45
HETATM   45  N   UNL     1      -7.971   2.917  68.750  1.00  0.00    -0.056 NA 
HETATM   46  C   UNL     1      -8.911   2.805  69.866  1.00  0.00    -0.102 C  
HETATM   47  C   UNL     1      -6.752   3.594  69.185  1.00  0.00    -0.044 C  
ENDBRANCH   8  45
TORSDOF 7
ENDMDL
MODEL       30
REMARK 921   NORMALIZED FREE ENERGY PREDICTED BY IDOCK:   -5.87 KCAL/MOL
REMARK 922        TOTAL FREE ENERGY PREDICTED BY IDOCK:   -9.03 KCAL/MOL
REMARK 923 INTER-LIGAND FREE ENERGY PREDICTED BY IDOCK:   -7.93 KCAL/MOL
REMARK 924 INTRA-LIGAND FREE ENERGY PREDICTED BY IDOCK:   -1.11 KCAL/MOL
REMARK 927      BINDING AFFINITY PREDICTED BY RF-SCORE:    0.00 PKD
ROOT
HETATM    1  C   UNL     1      -9.132   8.848  69.434  1.00  0.00    -0.145 C  
HETATM    2  C   UNL     1      -8.186   9.996  69.138  1.00  0.00    -0.137 C  
HETATM    3  C   UNL     1      -8.800  11.265  68.668  1.00  0.00    -0.141 A  
HETATM    4  C   UNL     1      -8.001  12.202  67.970  1.00  0.00    -0.152 A  
HETATM    5  C   UNL     1      -8.659  13.358  67.533  1.00  0.00    -0.200 A  
HETATM    6  C   UNL     1      -8.430   5.185  72.812  1.00  0.00    -0.113 C  
HETATM    7  C   UNL     1     -10.042  13.604  67.711  1.00  0.00    -0.242 A  
HETATM    8  C   UNL     1      -7.941   5.910  71.586  1.00  0.00    -0.113 C  
HETATM    9  H   UNL     1     -11.089   5.230  70.938  1.00  0.00     0.000 HD 
HETATM   10  C   UNL     1      -9.733   5.162  73.124  1.00  0.00    -0.165 C  
HETATM   11  C   UNL     1     -10.786  12.666  68.440  1.00  0.00    -0.242 A  
HETATM   12  O   UNL     1     -10.792   7.133  73.796  1.00  0.00    -0.306 OA 
HETATM   13  O   UNL     1     -12.130  12.825  68.638  1.00  0.00    -0.273 OA 
HETATM   14  C   UNL     1     -10.167  11.514  68.962  1.00  0.00    -0.109 A  
HETATM   15  H   UNL     1     -12.633  12.189  69.132  1.00  0.00     0.000 HD 
HETATM   16  C   UNL     1     -10.373   6.485  72.837  1.00  0.00    -0.210 C  
HETATM   17  O   UNL     1     -11.410   6.109  70.768  1.00  0.00    -0.321 OA 
HETATM   18  C   UNL     1     -10.925  10.591  69.891  1.00  0.00    -0.298 C  
HETATM   19  C   UNL     1      -8.297   7.894  70.251  1.00  0.00    -0.126 C  
HETATM   20  C   UNL     1     -10.343   9.240  70.206  1.00  0.00    -0.272 C  
HETATM   21  O   UNL     1     -11.980  10.904  70.440  1.00  0.00    -0.300 OA 
HETATM   22  C   UNL     1     -10.917   8.384  71.089  1.00  0.00    -0.244 C  
HETATM   23  C   UNL     1      -9.028   6.631  70.702  1.00  0.00    -0.151 C  
HETATM   24  H   UNL     1      -6.557   5.151  73.618  1.00  0.00     0.000 HD 
HETATM   25  O   UNL     1      -7.481   5.134  73.839  1.00  0.00    -0.085 OA 
HETATM   26  C   UNL     1     -10.395   6.956  71.365  1.00  0.00    -0.201 C  
HETATM   27  O   UNL     1     -12.142   8.663  71.686  1.00  0.00    -0.292 OA 
HETATM   28  H   UNL     1     -12.544   8.064  72.305  1.00  0.00     0.000 HD 
ENDROOT
BRANCH   4  29
HETATM   29  N   UNL     1      -6.635  12.080  67.726  1.00  0.00    -0.083 NA 
HETATM   30  C   UNL     1      -6.057  11.430  66.554  1.00  0.00    -0.121 C  
HETATM   31  C   UNL     1      -5.685  12.865  68.515  1.00  0.00    -0.067 C  
ENDBRANCH   4  29
BRANCH   7  32
HETATM   32  C   UNL     1     -10.617  14.907  67.183  1.00  0.00    -0.285 C  
BRANCH  32  33
HETATM   33  N   UNL     1     -11.433  14.672  65.998  1.00  0.00    -0.342 NA 
HETATM   34  H   UNL     1     -11.998  15.494  65.785  1.00  0.00     0.000 HD 
BRANCH  33  35
HETATM   35  C   UNL     1     -10.678  14.255  64.824  1.00  0.00    -0.416 C  
BRANCH  35  36
HETATM   36  C   UNL     1     -11.301  12.971  64.205  1.00  0.00    -0.419 C  
HETATM   37  C   UNL     1     -10.208  11.971  63.779  1.00  0.00    -0.447 C  
HETATM   38  C   UNL     1     -12.165  13.333  62.981  1.00  0.00     0.037 C  
HETATM   39  C   UNL     1     -12.194  12.290  65.255  1.00  0.00    -0.313 C  
ENDBRANCH  35  36
ENDBRANCH  33  35
ENDBRANCH  32  33
ENDBRANCH   7  32
BRANCH  10  40
HETATM   40  C   UNL     1     -10.315   3.856  72.686  1.00  0.00    -0.155 C  
HETATM   41  N   UNL     1     -11.193   3.236  73.513  1.00  0.00    -0.218 N  
HETATM   42  H2  UNL     1     -11.450   3.650  74.409  1.00  0.00     0.000 HD 
HETATM   43  H1  UNL     1     -11.590   2.345  73.214  1.00  0.00     0.000 HD 
HETATM   44  O   UNL     1     -10.004   3.289  71.639  1.00  0.00    -0.165 OA 
ENDBRANCH  10  40
BRANCH   8  45
HETATM   45  N   UNL     1      -7.044   5.169  70.668  1.00  0.00    -0.055 NA 
HETATM   46  C   UNL     1      -7.139   3.712  70.766  1.00  0.00    -0.033 C  
HETATM   47  C   UNL     1      -5.650   5.591  70.767  1.00  0.00    -0.009 C  
ENDBRANCH   8  45
TORSDOF 7
ENDMDL
MODEL       31
REMARK 921   NORMALIZED FREE ENERGY PREDICTED BY IDOCK:   -5.85 KCAL/MOL
REMARK 922        TOTAL FREE ENERGY PREDICTED BY IDOCK:   -9.00 KCAL/MOL
REMARK 923 INTER-LIGAND FREE ENERGY PREDICTED BY IDOCK:   -8.06 KCAL/MOL
REMARK 924 INTRA-LIGAND FREE ENERGY PREDICTED BY IDOCK:   -0.94 KCAL/MOL
REMARK 927      BINDING AFFINITY PREDICTED BY RF-SCORE:    0.00 PKD
ROOT
HETATM    1  C   UNL     1      -9.104   7.618  68.234  1.00  0.00    -0.136 C  
HETATM    2  C   UNL     1     -10.269   8.114  69.069  1.00  0.00    -0.228 C  
HETATM    3  C   UNL     1     -10.704   9.517  68.846  1.00  0.00    -0.220 A  
HETATM    4  C   UNL     1     -11.452  10.176  69.850  1.00  0.00    -0.254 A  
HETATM    5  C   UNL     1     -11.797  11.506  69.578  1.00  0.00    -0.419 A  
HETATM    6  C   UNL     1      -8.294   2.881  66.742  1.00  0.00    -0.094 C  
HETATM    7  C   UNL     1     -11.409  12.208  68.411  1.00  0.00    -0.336 A  
HETATM    8  C   UNL     1      -8.490   3.853  67.876  1.00  0.00    -0.094 C  
HETATM    9  H   UNL     1      -6.189   5.244  65.989  1.00  0.00     0.000 HD 
HETATM   10  C   UNL     1      -7.806   3.289  65.563  1.00  0.00    -0.085 C  
HETATM   11  C   UNL     1     -10.700  11.504  67.428  1.00  0.00    -0.232 A  
HETATM   12  O   UNL     1      -9.089   4.697  64.211  1.00  0.00    -0.155 OA 
HETATM   13  O   UNL     1     -10.275  12.118  66.283  1.00  0.00    -0.216 OA 
HETATM   14  C   UNL     1     -10.380  10.146  67.614  1.00  0.00    -0.265 A  
HETATM   15  H   UNL     1      -9.794  11.641  65.617  1.00  0.00     0.000 HD 
HETATM   16  C   UNL     1      -8.354   4.633  65.196  1.00  0.00    -0.126 C  
HETATM   17  O   UNL     1      -6.611   6.075  65.810  1.00  0.00    -0.045 OA 
HETATM   18  C   UNL     1      -9.769   9.341  66.487  1.00  0.00    -0.240 C  
HETATM   19  C   UNL     1      -9.173   6.117  68.375  1.00  0.00    -0.111 C  
HETATM   20  C   UNL     1      -9.186   7.989  66.795  1.00  0.00    -0.206 C  
HETATM   21  O   UNL     1      -9.761   9.718  65.318  1.00  0.00    -0.294 OA 
HETATM   22  C   UNL     1      -8.691   7.170  65.832  1.00  0.00    -0.130 C  
HETATM   23  C   UNL     1      -8.098   5.354  67.604  1.00  0.00    -0.100 C  
HETATM   24  H   UNL     1      -9.534   1.516  67.612  1.00  0.00     0.000 HD 
HETATM   25  O   UNL     1      -9.188   1.805  66.776  1.00  0.00    -0.086 OA 
HETATM   26  C   UNL     1      -8.003   5.817  66.124  1.00  0.00    -0.102 C  
HETATM   27  O   UNL     1      -8.599   7.575  64.504  1.00  0.00    -0.371 OA 
HETATM   28  H   UNL     1      -8.253   7.002  63.830  1.00  0.00     0.000 HD 
ENDROOT
BRANCH   4  29
HETATM   29  N   UNL     1     -11.894   9.603  71.040  1.00  0.00    -0.322 NA 
HETATM   30  C   UNL     1     -13.294   9.359  71.373  1.00  0.00    -0.346 C  
HETATM   31  C   UNL     1     -10.935   8.942  71.926  1.00  0.00    -0.369 C  
ENDBRANCH   4  29
BRANCH   7  32
HETATM   32  C   UNL     1     -11.860  13.650  68.254  1.00  0.00    -0.369 C  
BRANCH  32  33
HETATM   33  N   UNL     1     -10.714  14.551  68.211  1.00  0.00    -0.236 NA 
HETATM   34  H   UNL     1      -9.931  14.110  67.728  1.00  0.00     0.000 HD 
BRANCH  33  35
HETATM   35  C   UNL     1     -11.000  15.856  67.632  1.00  0.00    -0.298 C  
BRANCH  35  36
HETATM   36  C   UNL     1     -10.129  16.091  66.365  1.00  0.00    -0.314 C  
HETATM   37  C   UNL     1     -10.879  15.670  65.086  1.00  0.00    -0.448 C  
HETATM   38  C   UNL     1      -8.811  15.296  66.467  1.00  0.00    -0.335 C  
HETATM   39  C   UNL     1      -9.794  17.588  66.256  1.00  0.00    -0.295 C  
ENDBRANCH  35  36
ENDBRANCH  33  35
ENDBRANCH  32  33
ENDBRANCH   7  32
BRANCH  10  40
HETATM   40  C   UNL     1      -6.352   2.947  65.494  1.00  0.00    -0.024 C  
HETATM   41  N   UNL     1      -5.579   3.609  64.597  1.00  0.00    -0.010 N  
HETATM   42  H2  UNL     1      -5.980   4.321  63.985  1.00  0.00     0.000 HD 
HETATM   43  H1  UNL     1      -4.587   3.376  64.550  1.00  0.00     0.000 HD 
HETATM   44  O   UNL     1      -5.827   2.065  66.174  1.00  0.00    -0.020 OA 
ENDBRANCH  10  40
BRANCH   8  45
HETATM   45  N   UNL     1      -7.932   3.481  69.197  1.00  0.00    -0.054 NA 
HETATM   46  C   UNL     1      -6.472   3.396  69.241  1.00  0.00    -0.033 C  
HETATM   47  C   UNL     1      -8.524   2.264  69.746  1.00  0.00    -0.048 C  
ENDBRANCH   8  45
TORSDOF 7
ENDMDL
MODEL       32
REMARK 921   NORMALIZED FREE ENERGY PREDICTED BY IDOCK:   -5.85 KCAL/MOL
REMARK 922        TOTAL FREE ENERGY PREDICTED BY IDOCK:   -9.00 KCAL/MOL
REMARK 923 INTER-LIGAND FREE ENERGY PREDICTED BY IDOCK:   -7.72 KCAL/MOL
REMARK 924 INTRA-LIGAND FREE ENERGY PREDICTED BY IDOCK:   -1.28 KCAL/MOL
REMARK 927      BINDING AFFINITY PREDICTED BY RF-SCORE:    0.00 PKD
ROOT
HETATM    1  C   UNL     1      -9.422   8.891  67.271  1.00  0.00    -0.195 C  
HETATM    2  C   UNL     1      -9.747   7.522  66.706  1.00  0.00    -0.283 C  
HETATM    3  C   UNL     1      -9.364   6.348  67.532  1.00  0.00    -0.119 A  
HETATM    4  C   UNL     1      -9.226   5.083  66.913  1.00  0.00    -0.120 A  
HETATM    5  C   UNL     1      -8.832   4.033  67.753  1.00  0.00    -0.134 A  
HETATM    6  C   UNL     1     -11.963  13.154  66.439  1.00  0.00    -0.402 C  
HETATM    7  C   UNL     1      -8.533   4.182  69.128  1.00  0.00    -0.098 A  
HETATM    8  C   UNL     1     -11.188  11.991  65.876  1.00  0.00    -0.337 C  
HETATM    9  H   UNL     1      -9.294  13.146  68.297  1.00  0.00     0.000 HD 
HETATM   10  C   UNL     1     -11.758  13.573  67.695  1.00  0.00    -0.398 C  
HETATM   11  C   UNL     1      -8.719   5.445  69.706  1.00  0.00    -0.106 A  
HETATM   12  O   UNL     1     -12.391  12.210  69.482  1.00  0.00    -0.136 OA 
HETATM   13  O   UNL     1      -8.434   5.672  71.025  1.00  0.00    -0.119 OA 
HETATM   14  C   UNL     1      -9.177   6.526  68.928  1.00  0.00    -0.129 A  
HETATM   15  H   UNL     1      -8.560   6.528  71.416  1.00  0.00     0.000 HD 
HETATM   16  C   UNL     1     -11.541  12.413  68.615  1.00  0.00    -0.319 C  
HETATM   17  O   UNL     1      -9.207  12.358  68.821  1.00  0.00    -0.035 OA 
HETATM   18  C   UNL     1      -9.541   7.841  69.583  1.00  0.00    -0.163 C  
HETATM   19  C   UNL     1     -10.269   9.831  66.449  1.00  0.00    -0.288 C  
HETATM   20  C   UNL     1      -9.755   9.050  68.713  1.00  0.00    -0.165 C  
HETATM   21  O   UNL     1      -9.713   7.967  70.793  1.00  0.00    -0.172 OA 
HETATM   22  C   UNL     1     -10.161  10.245  69.210  1.00  0.00    -0.227 C  
HETATM   23  C   UNL     1     -10.140  11.304  66.828  1.00  0.00    -0.254 C  
HETATM   24  H   UNL     1     -13.378  13.001  64.979  1.00  0.00     0.000 HD 
HETATM   25  O   UNL     1     -13.232  13.299  65.869  1.00  0.00    -0.108 OA 
HETATM   26  C   UNL     1     -10.301  11.527  68.358  1.00  0.00    -0.202 C  
HETATM   27  O   UNL     1     -10.307  10.458  70.577  1.00  0.00    -0.388 OA 
HETATM   28  H   UNL     1     -10.591  11.295  70.925  1.00  0.00     0.000 HD 
ENDROOT
BRANCH   4  29
HETATM   29  N   UNL     1      -9.485   4.803  65.574  1.00  0.00    -0.162 NA 
HETATM   30  C   UNL     1      -8.485   4.837  64.511  1.00  0.00    -0.140 C  
HETATM   31  C   UNL     1     -10.750   4.171  65.196  1.00  0.00    -0.062 C  
ENDBRANCH   4  29
BRANCH   7  32
HETATM   32  C   UNL     1      -8.118   2.950  69.914  1.00  0.00    -0.041 C  
BRANCH  32  33
HETATM   33  N   UNL     1      -8.583   3.033  71.293  1.00  0.00    -0.063 NA 
HETATM   34  H   UNL     1      -8.523   3.992  71.634  1.00  0.00     0.000 HD 
BRANCH  33  35
HETATM   35  C   UNL     1      -9.923   2.502  71.505  1.00  0.00    -0.047 C  
BRANCH  35  36
HETATM   36  C   UNL     1     -10.404   2.803  72.954  1.00  0.00    -0.238 C  
HETATM   37  C   UNL     1     -11.451   1.772  73.420  1.00  0.00    -0.288 C  
HETATM   38  C   UNL     1     -11.011   4.217  73.032  1.00  0.00    -0.255 C  
HETATM   39  C   UNL     1      -9.200   2.730  73.908  1.00  0.00    -0.091 C  
ENDBRANCH  35  36
ENDBRANCH  33  35
ENDBRANCH  32  33
ENDBRANCH   7  32
BRANCH  10  40
HETATM   40  C   UNL     1     -10.871  14.777  67.666  1.00  0.00    -0.285 C  
HETATM   41  N   UNL     1     -10.189  15.098  68.794  1.00  0.00    -0.227 N  
HETATM   42  H2  UNL     1     -10.279  14.533  69.639  1.00  0.00     0.000 HD 
HETATM   43  H1  UNL     1      -9.584  15.919  68.774  1.00  0.00     0.000 HD 
HETATM   44  O   UNL     1     -10.762  15.519  66.690  1.00  0.00    -0.306 OA 
ENDBRANCH  10  40
BRANCH   8  45
HETATM   45  N   UNL     1     -10.534  12.182  64.560  1.00  0.00    -0.287 NA 
HETATM   46  C   UNL     1     -10.237  13.575  64.221  1.00  0.00    -0.007 C  
HETATM   47  C   UNL     1     -11.254  11.540  63.464  1.00  0.00    -0.322 C  
ENDBRANCH   8  45
TORSDOF 7
ENDMDL
MODEL       33
REMARK 921   NORMALIZED FREE ENERGY PREDICTED BY IDOCK:   -5.76 KCAL/MOL
REMARK 922        TOTAL FREE ENERGY PREDICTED BY IDOCK:   -8.88 KCAL/MOL
REMARK 923 INTER-LIGAND FREE ENERGY PREDICTED BY IDOCK:   -7.59 KCAL/MOL
REMARK 924 INTRA-LIGAND FREE ENERGY PREDICTED BY IDOCK:   -1.29 KCAL/MOL
REMARK 927      BINDING AFFINITY PREDICTED BY RF-SCORE:    0.00 PKD
ROOT
HETATM    1  C   UNL     1      -8.990  10.455  69.693  1.00  0.00    -0.061 C  
HETATM    2  C   UNL     1      -9.898  11.374  68.899  1.00  0.00    -0.127 C  
HETATM    3  C   UNL     1      -9.271  12.582  68.301  1.00  0.00    -0.186 A  
HETATM    4  C   UNL     1     -10.090  13.679  67.942  1.00  0.00    -0.244 A  
HETATM    5  C   UNL     1      -9.420  14.791  67.415  1.00  0.00    -0.207 A  
HETATM    6  C   UNL     1      -9.514   5.481  70.248  1.00  0.00    -0.165 C  
HETATM    7  C   UNL     1      -8.015  14.882  67.272  1.00  0.00    -0.237 A  
HETATM    8  C   UNL     1     -10.095   6.859  70.422  1.00  0.00    -0.187 C  
HETATM    9  H   UNL     1      -7.083   7.070  71.713  1.00  0.00     0.000 HD 
HETATM   10  C   UNL     1      -8.187   5.293  70.216  1.00  0.00    -0.095 C  
HETATM   11  C   UNL     1      -7.248  13.758  67.607  1.00  0.00    -0.173 A  
HETATM   12  O   UNL     1      -6.953   6.105  68.407  1.00  0.00    -0.074 OA 
HETATM   13  O   UNL     1      -5.884  13.776  67.513  1.00  0.00    -0.328 OA 
HETATM   14  C   UNL     1      -7.868  12.586  68.080  1.00  0.00    -0.151 A  
HETATM   15  H   UNL     1      -5.364  13.014  67.740  1.00  0.00     0.000 HD 
HETATM   16  C   UNL     1      -7.511   6.397  69.464  1.00  0.00    -0.093 C  
HETATM   17  O   UNL     1      -6.734   7.782  71.189  1.00  0.00    -0.041 OA 
HETATM   18  C   UNL     1      -7.063  11.320  68.278  1.00  0.00    -0.074 C  
HETATM   19  C   UNL     1      -9.781   9.175  69.803  1.00  0.00    -0.191 C  
HETATM   20  C   UNL     1      -7.681  10.179  69.040  1.00  0.00    -0.100 C  
HETATM   21  O   UNL     1      -5.939  11.156  67.811  1.00  0.00    -0.046 OA 
HETATM   22  C   UNL     1      -7.060   8.982  69.194  1.00  0.00    -0.063 C  
HETATM   23  C   UNL     1      -9.076   8.052  70.560  1.00  0.00    -0.153 C  
HETATM   24  H   UNL     1     -11.284   4.752  69.546  1.00  0.00     0.000 HD 
HETATM   25  O   UNL     1     -10.344   4.619  69.523  1.00  0.00    -0.149 OA 
HETATM   26  C   UNL     1      -7.627   7.824  70.047  1.00  0.00    -0.085 C  
HETATM   27  O   UNL     1      -5.763   8.767  68.741  1.00  0.00    -0.040 OA 
HETATM   28  H   UNL     1      -5.328   7.929  68.849  1.00  0.00     0.000 HD 
ENDROOT
BRANCH   4  29
HETATM   29  N   UNL     1     -11.478  13.719  68.034  1.00  0.00    -0.291 NA 
HETATM   30  C   UNL     1     -12.219  14.134  69.221  1.00  0.00    -0.269 C  
HETATM   31  C   UNL     1     -12.289  13.610  66.820  1.00  0.00    -0.305 C  
ENDBRANCH   4  29
BRANCH   7  32
HETATM   32  C   UNL     1      -7.431  16.154  66.682  1.00  0.00    -0.165 C  
BRANCH  32  33
HETATM   33  N   UNL     1      -8.481  16.995  66.119  1.00  0.00    -0.466 NA 
HETATM   34  H   UNL     1      -9.387  16.753  66.521  1.00  0.00     0.000 HD 
BRANCH  33  35
HETATM   35  C   UNL     1      -8.234  18.425  66.245  1.00  0.00    -0.219 C  
BRANCH  35  36
HETATM   36  C   UNL     1      -9.464  19.135  66.881  1.00  0.00    -0.368 C  
HETATM   37  C   UNL     1     -10.713  18.993  65.988  1.00  0.00    -0.417 C  
HETATM   38  C   UNL     1      -9.163  20.630  67.101  1.00  0.00    -0.429 C  
HETATM   39  C   UNL     1      -9.770  18.488  68.242  1.00  0.00    -0.385 C  
ENDBRANCH  35  36
ENDBRANCH  33  35
ENDBRANCH  32  33
ENDBRANCH   7  32
BRANCH  10  40
HETATM   40  C   UNL     1      -7.732   4.812  71.557  1.00  0.00    -0.092 C  
HETATM   41  N   UNL     1      -6.425   4.964  71.882  1.00  0.00    -0.030 N  
HETATM   42  H2  UNL     1      -5.769   5.396  71.230  1.00  0.00     0.000 HD 
HETATM   43  H1  UNL     1      -6.114   4.636  72.797  1.00  0.00     0.000 HD 
HETATM   44  O   UNL     1      -8.469   4.242  72.362  1.00  0.00    -0.102 OA 
ENDBRANCH  10  40
BRANCH   8  45
HETATM   45  N   UNL     1     -11.129   7.036  71.469  1.00  0.00    -0.239 NA 
HETATM   46  C   UNL     1     -11.039   6.090  72.582  1.00  0.00    -0.275 C  
HETATM   47  C   UNL     1     -12.488   7.056  70.934  1.00  0.00    -0.272 C  
ENDBRANCH   8  45
TORSDOF 7
ENDMDL
MODEL       34
REMARK 921   NORMALIZED FREE ENERGY PREDICTED BY IDOCK:   -5.74 KCAL/MOL
REMARK 922        TOTAL FREE ENERGY PREDICTED BY IDOCK:   -8.85 KCAL/MOL
REMARK 923 INTER-LIGAND FREE ENERGY PREDICTED BY IDOCK:   -8.51 KCAL/MOL
REMARK 924 INTRA-LIGAND FREE ENERGY PREDICTED BY IDOCK:   -0.34 KCAL/MOL
REMARK 927      BINDING AFFINITY PREDICTED BY RF-SCORE:    0.00 PKD
ROOT
HETATM    1  C   UNL     1      -9.562   9.438  69.404  1.00  0.00    -0.177 C  
HETATM    2  C   UNL     1     -10.845  10.109  69.857  1.00  0.00    -0.347 C  
HETATM    3  C   UNL     1     -11.070  11.504  69.395  1.00  0.00    -0.287 A  
HETATM    4  C   UNL     1     -11.978  12.327  70.103  1.00  0.00    -0.298 A  
HETATM    5  C   UNL     1     -12.112  13.637  69.624  1.00  0.00    -0.378 A  
HETATM    6  C   UNL     1      -8.871   4.514  68.635  1.00  0.00    -0.102 C  
HETATM    7  C   UNL     1     -11.377  14.168  68.537  1.00  0.00    -0.312 A  
HETATM    8  C   UNL     1      -9.249   5.624  69.580  1.00  0.00    -0.129 C  
HETATM    9  H   UNL     1      -6.424   6.618  68.231  1.00  0.00     0.000 HD 
HETATM   10  C   UNL     1      -8.066   4.745  67.589  1.00  0.00    -0.097 C  
HETATM   11  C   UNL     1     -10.517  13.306  67.844  1.00  0.00    -0.240 A  
HETATM   12  O   UNL     1      -8.826   6.070  65.821  1.00  0.00    -0.156 OA 
HETATM   13  O   UNL     1      -9.761  13.749  66.795  1.00  0.00    -0.258 OA 
HETATM   14  C   UNL     1     -10.389  11.959  68.236  1.00  0.00    -0.211 A  
HETATM   15  H   UNL     1      -9.178  13.165  66.325  1.00  0.00     0.000 HD 
HETATM   16  C   UNL     1      -8.371   6.072  66.965  1.00  0.00    -0.105 C  
HETATM   17  O   UNL     1      -6.705   7.451  67.869  1.00  0.00    -0.057 OA 
HETATM   18  C   UNL     1      -9.597  10.987  67.388  1.00  0.00    -0.164 C  
HETATM   19  C   UNL     1      -9.810   7.974  69.666  1.00  0.00    -0.184 C  
HETATM   20  C   UNL     1      -9.244   9.643  67.965  1.00  0.00    -0.132 C  
HETATM   21  O   UNL     1      -9.259  11.222  66.230  1.00  0.00    -0.187 OA 
HETATM   22  C   UNL     1      -8.607   8.684  67.246  1.00  0.00    -0.125 C  
HETATM   23  C   UNL     1      -8.657   7.052  69.277  1.00  0.00    -0.136 C  
HETATM   24  H   UNL     1     -10.417   3.351  69.280  1.00  0.00     0.000 HD 
HETATM   25  O   UNL     1      -9.846   3.515  68.538  1.00  0.00    -0.050 OA 
HETATM   26  C   UNL     1      -8.150   7.330  67.835  1.00  0.00    -0.119 C  
HETATM   27  O   UNL     1      -8.146   8.922  65.955  1.00  0.00    -0.106 OA 
HETATM   28  H   UNL     1      -7.700   8.251  65.452  1.00  0.00     0.000 HD 
ENDROOT
BRANCH   4  29
HETATM   29  N   UNL     1     -12.757  11.931  71.187  1.00  0.00    -0.344 NA 
HETATM   30  C   UNL     1     -12.936  10.548  71.617  1.00  0.00    -0.476 C  
HETATM   31  C   UNL     1     -13.227  12.931  72.147  1.00  0.00    -0.448 C  
ENDBRANCH   4  29
BRANCH   7  32
HETATM   32  C   UNL     1     -11.631  15.609  68.130  1.00  0.00    -0.283 C  
BRANCH  32  33
HETATM   33  N   UNL     1     -10.388  16.372  68.117  1.00  0.00    -0.271 NA 
HETATM   34  H   UNL     1      -9.824  16.121  67.305  1.00  0.00     0.000 HD 
BRANCH  33  35
HETATM   35  C   UNL     1     -10.571  17.815  68.183  1.00  0.00    -0.344 C  
BRANCH  35  36
HETATM   36  C   UNL     1      -9.445  18.542  67.393  1.00  0.00    -0.294 C  
HETATM   37  C   UNL     1      -8.437  17.536  66.805  1.00  0.00    -0.275 C  
HETATM   38  C   UNL     1      -8.700  19.531  68.312  1.00  0.00    -0.380 C  
HETATM   39  C   UNL     1     -10.074  19.328  66.231  1.00  0.00    -0.519 C  
ENDBRANCH  35  36
ENDBRANCH  33  35
ENDBRANCH  32  33
ENDBRANCH   7  32
BRANCH  10  40
HETATM   40  C   UNL     1      -6.682   4.297  67.933  1.00  0.00    -0.051 C  
HETATM   41  N   UNL     1      -5.653   4.758  67.179  1.00  0.00    -0.013 N  
HETATM   42  H2  UNL     1      -5.819   5.394  66.399  1.00  0.00     0.000 HD 
HETATM   43  H1  UNL     1      -4.708   4.452  67.414  1.00  0.00     0.000 HD 
HETATM   44  O   UNL     1      -6.430   3.495  68.832  1.00  0.00    -0.029 OA 
ENDBRANCH  10  40
BRANCH   8  45
HETATM   45  N   UNL     1      -9.079   5.372  71.030  1.00  0.00    -0.142 NA 
HETATM   46  C   UNL     1      -7.687   5.306  71.479  1.00  0.00    -0.104 C  
HETATM   47  C   UNL     1      -9.815   4.200  71.497  1.00  0.00    -0.184 C  
ENDBRANCH   8  45
TORSDOF 7
ENDMDL
MODEL       35
REMARK 921   NORMALIZED FREE ENERGY PREDICTED BY IDOCK:   -5.71 KCAL/MOL
REMARK 922        TOTAL FREE ENERGY PREDICTED BY IDOCK:   -8.81 KCAL/MOL
REMARK 923 INTER-LIGAND FREE ENERGY PREDICTED BY IDOCK:   -8.01 KCAL/MOL
REMARK 924 INTRA-LIGAND FREE ENERGY PREDICTED BY IDOCK:   -0.80 KCAL/MOL
REMARK 927      BINDING AFFINITY PREDICTED BY RF-SCORE:    0.00 PKD
ROOT
HETATM    1  C   UNL     1      -8.984   9.846  66.524  1.00  0.00    -0.166 C  
HETATM    2  C   UNL     1      -9.371   8.382  66.607  1.00  0.00    -0.245 C  
HETATM    3  C   UNL     1      -8.547   7.521  67.495  1.00  0.00    -0.122 A  
HETATM    4  C   UNL     1      -8.552   6.120  67.297  1.00  0.00    -0.103 A  
HETATM    5  C   UNL     1      -7.726   5.381  68.154  1.00  0.00    -0.085 A  
HETATM    6  C   UNL     1     -12.080  13.713  65.637  1.00  0.00    -0.425 C  
HETATM    7  C   UNL     1      -6.886   5.952  69.140  1.00  0.00    -0.062 A  
HETATM    8  C   UNL     1     -11.500  12.402  65.175  1.00  0.00    -0.334 C  
HETATM    9  H   UNL     1      -8.888  14.197  66.038  1.00  0.00     0.000 HD 
HETATM   10  C   UNL     1     -11.403  14.505  66.480  1.00  0.00    -0.354 C  
HETATM   11  C   UNL     1      -6.941   7.340  69.325  1.00  0.00    -0.069 A  
HETATM   12  O   UNL     1     -11.061  13.814  68.685  1.00  0.00    -0.246 OA 
HETATM   13  O   UNL     1      -6.146   7.966  70.245  1.00  0.00    -0.032 OA 
HETATM   14  C   UNL     1      -7.801   8.131  68.539  1.00  0.00    -0.118 A  
HETATM   15  H   UNL     1      -6.184   8.907  70.370  1.00  0.00     0.000 HD 
HETATM   16  C   UNL     1     -10.691  13.694  67.517  1.00  0.00    -0.259 C  
HETATM   17  O   UNL     1      -8.502  13.616  66.683  1.00  0.00    -0.043 OA 
HETATM   18  C   UNL     1      -7.989   9.599  68.851  1.00  0.00    -0.089 C  
HETATM   19  C   UNL     1     -10.197  10.505  65.915  1.00  0.00    -0.311 C  
HETATM   20  C   UNL     1      -8.684  10.472  67.841  1.00  0.00    -0.126 C  
HETATM   21  O   UNL     1      -7.640  10.114  69.911  1.00  0.00    -0.152 OA 
HETATM   22  C   UNL     1      -8.964  11.780  68.075  1.00  0.00    -0.176 C  
HETATM   23  C   UNL     1     -10.077  12.016  65.730  1.00  0.00    -0.267 C  
HETATM   24  H   UNL     1     -13.958  13.156  65.071  1.00  0.00     0.000 HD 
HETATM   25  O   UNL     1     -13.478  13.718  65.668  1.00  0.00    -0.522 OA 
HETATM   26  C   UNL     1      -9.593  12.724  67.025  1.00  0.00    -0.229 C  
HETATM   27  O   UNL     1      -8.533  12.425  69.229  1.00  0.00    -0.094 OA 
HETATM   28  H   UNL     1      -8.730  13.340  69.393  1.00  0.00     0.000 HD 
ENDROOT
BRANCH   4  29
HETATM   29  N   UNL     1      -9.327   5.436  66.364  1.00  0.00    -0.145 NA 
HETATM   30  C   UNL     1     -10.740   5.114  66.537  1.00  0.00    -0.193 C  
HETATM   31  C   UNL     1      -8.822   5.242  65.004  1.00  0.00    -0.110 C  
ENDBRANCH   4  29
BRANCH   7  32
HETATM   32  C   UNL     1      -6.045   5.021  69.997  1.00  0.00    -0.021 C  
BRANCH  32  33
HETATM   33  N   UNL     1      -6.879   4.017  70.645  1.00  0.00    -0.032 NA 
HETATM   34  H   UNL     1      -6.331   3.185  70.865  1.00  0.00     0.000 HD 
BRANCH  33  35
HETATM   35  C   UNL     1      -7.577   4.493  71.831  1.00  0.00    -0.083 C  
BRANCH  35  36
HETATM   36  C   UNL     1      -9.082   4.102  71.770  1.00  0.00    -0.168 C  
HETATM   37  C   UNL     1      -9.929   5.236  71.160  1.00  0.00    -0.265 C  
HETATM   38  C   UNL     1      -9.608   3.778  73.183  1.00  0.00    -0.148 C  
HETATM   39  C   UNL     1      -9.241   2.854  70.887  1.00  0.00    -0.207 C  
ENDBRANCH  35  36
ENDBRANCH  33  35
ENDBRANCH  32  33
ENDBRANCH   7  32
BRANCH  10  40
HETATM   40  C   UNL     1     -10.749  15.600  65.700  1.00  0.00    -0.364 C  
HETATM   41  N   UNL     1     -11.167  15.819  64.428  1.00  0.00    -0.756 N  
HETATM   42  H2  UNL     1     -11.909  15.252  64.016  1.00  0.00     0.000 HD 
HETATM   43  H1  UNL     1     -10.720  16.566  63.896  1.00  0.00     0.000 HD 
HETATM   44  O   UNL     1      -9.819  16.281  66.131  1.00  0.00    -0.292 OA 
ENDBRANCH  10  40
BRANCH   8  45
HETATM   45  N   UNL     1     -11.495  12.134  63.718  1.00  0.00    -0.425 NA 
HETATM   46  C   UNL     1     -10.164  11.982  63.129  1.00  0.00    -0.234 C  
HETATM   47  C   UNL     1     -12.275  13.105  62.956  1.00  0.00     0.060 C  
ENDBRANCH   8  45
TORSDOF 7
ENDMDL
MODEL       36
REMARK 921   NORMALIZED FREE ENERGY PREDICTED BY IDOCK:   -5.69 KCAL/MOL
REMARK 922        TOTAL FREE ENERGY PREDICTED BY IDOCK:   -8.77 KCAL/MOL
REMARK 923 INTER-LIGAND FREE ENERGY PREDICTED BY IDOCK:   -7.79 KCAL/MOL
REMARK 924 INTRA-LIGAND FREE ENERGY PREDICTED BY IDOCK:   -0.98 KCAL/MOL
REMARK 927      BINDING AFFINITY PREDICTED BY RF-SCORE:    0.00 PKD
ROOT
HETATM    1  C   UNL     1     -11.192   9.997  68.223  1.00  0.00    -0.195 C  
HETATM    2  C   UNL     1     -10.545   9.437  69.475  1.00  0.00    -0.237 C  
HETATM    3  C   UNL     1     -10.345   7.965  69.524  1.00  0.00    -0.217 A  
HETATM    4  C   UNL     1     -10.170   7.333  70.779  1.00  0.00    -0.197 A  
HETATM    5  C   UNL     1     -10.019   5.940  70.743  1.00  0.00    -0.241 A  
HETATM    6  C   UNL     1     -10.434  14.565  66.252  1.00  0.00    -0.301 C  
HETATM    7  C   UNL     1     -10.076   5.162  69.562  1.00  0.00    -0.316 A  
HETATM    8  C   UNL     1     -10.871  13.731  67.428  1.00  0.00    -0.277 C  
HETATM    9  H   UNL     1     -12.530  12.489  64.880  1.00  0.00     0.000 HD 
HETATM   10  C   UNL     1     -10.518  14.088  65.002  1.00  0.00    -0.440 C  
HETATM   11  C   UNL     1     -10.213   5.834  68.340  1.00  0.00    -0.191 A  
HETATM   12  O   UNL     1      -9.129  12.328  64.346  1.00  0.00     0.481 OA 
HETATM   13  O   UNL     1     -10.293   5.150  67.159  1.00  0.00    -0.209 OA 
HETATM   14  C   UNL     1     -10.304   7.239  68.304  1.00  0.00    -0.227 A  
HETATM   15  H   UNL     1     -10.386   5.606  66.330  1.00  0.00     0.000 HD 
HETATM   16  C   UNL     1     -10.150  12.637  64.960  1.00  0.00    -0.231 C  
HETATM   17  O   UNL     1     -12.244  11.584  64.930  1.00  0.00     0.002 OA 
HETATM   18  C   UNL     1     -10.279   7.975  66.982  1.00  0.00    -0.303 C  
HETATM   19  C   UNL     1     -10.885  11.473  68.290  1.00  0.00    -0.257 C  
HETATM   20  C   UNL     1     -10.655   9.432  66.955  1.00  0.00    -0.272 C  
HETATM   21  O   UNL     1      -9.925   7.453  65.927  1.00  0.00     0.267 OA 
HETATM   22  C   UNL     1     -10.583  10.184  65.828  1.00  0.00     0.053 C  
HETATM   23  C   UNL     1     -11.422  12.289  67.116  1.00  0.00    -0.419 C  
HETATM   24  H   UNL     1      -9.364  15.817  67.454  1.00  0.00     0.000 HD 
HETATM   25  O   UNL     1      -9.424  15.479  66.568  1.00  0.00    -0.235 OA 
HETATM   26  C   UNL     1     -11.048  11.656  65.747  1.00  0.00    -0.256 C  
HETATM   27  O   UNL     1     -10.252   9.628  64.597  1.00  0.00    -0.268 OA 
HETATM   28  H   UNL     1     -10.201  10.155  63.808  1.00  0.00     0.000 HD 
ENDROOT
BRANCH   4  29
HETATM   29  N   UNL     1     -10.100   7.979  72.010  1.00  0.00    -0.201 NA 
HETATM   30  C   UNL     1     -11.236   8.189  72.902  1.00  0.00    -0.242 C  
HETATM   31  C   UNL     1      -8.795   8.245  72.616  1.00  0.00    -0.234 C  
ENDBRANCH   4  29
BRANCH   7  32
HETATM   32  C   UNL     1      -9.893   3.659  69.680  1.00  0.00     0.083 C  
BRANCH  32  33
HETATM   33  N   UNL     1      -8.782   3.204  68.852  1.00  0.00    -0.081 NA 
HETATM   34  H   UNL     1      -8.963   3.406  67.869  1.00  0.00     0.000 HD 
BRANCH  33  35
HETATM   35  C   UNL     1      -7.484   3.734  69.250  1.00  0.00    -0.053 C  
BRANCH  35  36
HETATM   36  C   UNL     1      -6.672   4.178  67.999  1.00  0.00    -0.047 C  
HETATM   37  C   UNL     1      -6.684   5.711  67.842  1.00  0.00    -0.055 C  
HETATM   38  C   UNL     1      -7.255   3.531  66.727  1.00  0.00    -0.067 C  
HETATM   39  C   UNL     1      -5.213   3.721  68.160  1.00  0.00    -0.012 C  
ENDBRANCH  35  36
ENDBRANCH  33  35
ENDBRANCH  32  33
ENDBRANCH   7  32
BRANCH  10  40
HETATM   40  C   UNL     1     -11.743  14.644  64.351  1.00  0.00    -0.346 C  
HETATM   41  N   UNL     1     -12.298  13.948  63.328  1.00  0.00    -1.148 N  
HETATM   42  H2  UNL     1     -11.891  13.067  63.012  1.00  0.00     0.000 HD 
HETATM   43  H1  UNL     1     -13.134  14.328  62.884  1.00  0.00     0.000 HD 
HETATM   44  O   UNL     1     -12.248  15.724  64.660  1.00  0.00    -0.004 OA 
ENDBRANCH  10  40
BRANCH   8  45
HETATM   45  N   UNL     1     -11.795  14.358  68.402  1.00  0.00    -0.326 NA 
HETATM   46  C   UNL     1     -11.740  15.820  68.443  1.00  0.00    -0.271 C  
HETATM   47  C   UNL     1     -11.664  13.811  69.749  1.00  0.00    -0.302 C  
ENDBRANCH   8  45
TORSDOF 7
ENDMDL
MODEL       37
REMARK 921   NORMALIZED FREE ENERGY PREDICTED BY IDOCK:   -5.58 KCAL/MOL
REMARK 922        TOTAL FREE ENERGY PREDICTED BY IDOCK:   -8.63 KCAL/MOL
REMARK 923 INTER-LIGAND FREE ENERGY PREDICTED BY IDOCK:   -7.51 KCAL/MOL
REMARK 924 INTRA-LIGAND FREE ENERGY PREDICTED BY IDOCK:   -1.11 KCAL/MOL
REMARK 927      BINDING AFFINITY PREDICTED BY RF-SCORE:    0.00 PKD
ROOT
HETATM    1  C   UNL     1      -8.938  10.616  68.090  1.00  0.00    -0.141 C  
HETATM    2  C   UNL     1      -9.694   9.413  68.622  1.00  0.00    -0.160 C  
HETATM    3  C   UNL     1      -8.909   8.417  69.396  1.00  0.00    -0.142 A  
HETATM    4  C   UNL     1      -9.412   7.101  69.538  1.00  0.00    -0.151 A  
HETATM    5  C   UNL     1      -8.600   6.213  70.255  1.00  0.00    -0.140 A  
HETATM    6  C   UNL     1     -10.809  15.220  67.302  1.00  0.00    -0.318 C  
HETATM    7  C   UNL     1      -7.329   6.545  70.783  1.00  0.00    -0.076 A  
HETATM    8  C   UNL     1     -10.864  13.744  67.005  1.00  0.00    -0.284 C  
HETATM    9  H   UNL     1      -7.704  14.546  66.605  1.00  0.00     0.000 HD 
HETATM   10  C   UNL     1      -9.668  15.800  67.697  1.00  0.00    -0.222 C  
HETATM   11  C   UNL     1      -6.889   7.868  70.650  1.00  0.00    -0.041 A  
HETATM   12  O   UNL     1      -8.780  15.284  69.795  1.00  0.00    -0.192 OA 
HETATM   13  O   UNL     1      -5.665   8.260  71.119  1.00  0.00    -0.033 OA 
HETATM   14  C   UNL     1      -7.690   8.825  69.997  1.00  0.00    -0.082 A  
HETATM   15  H   UNL     1      -5.367   9.157  71.029  1.00  0.00     0.000 HD 
HETATM   16  C   UNL     1      -8.912  14.906  68.631  1.00  0.00    -0.184 C  
HETATM   17  O   UNL     1      -7.307  13.941  67.221  1.00  0.00    -0.146 OA 
HETATM   18  C   UNL     1      -7.296  10.286  70.003  1.00  0.00    -0.149 C  
HETATM   19  C   UNL     1     -10.026  11.599  67.737  1.00  0.00    -0.191 C  
HETATM   20  C   UNL     1      -8.007  11.233  69.074  1.00  0.00    -0.062 C  
HETATM   21  O   UNL     1      -6.448  10.753  70.761  1.00  0.00    -0.348 OA 
HETATM   22  C   UNL     1      -7.772  12.569  69.073  1.00  0.00     0.186 C  
HETATM   23  C   UNL     1      -9.528  12.930  67.181  1.00  0.00    -0.229 C  
HETATM   24  H   UNL     1     -12.839  15.327  67.470  1.00  0.00     0.000 HD 
HETATM   25  O   UNL     1     -12.029  15.739  67.749  1.00  0.00     0.014 OA 
HETATM   26  C   UNL     1      -8.417  13.554  68.071  1.00  0.00    -0.176 C  
HETATM   27  O   UNL     1      -6.778  13.138  69.863  1.00  0.00    -0.346 OA 
HETATM   28  H   UNL     1      -6.614  14.074  69.862  1.00  0.00     0.000 HD 
ENDROOT
BRANCH   4  29
HETATM   29  N   UNL     1     -10.641   6.647  69.065  1.00  0.00    -0.219 NA 
HETATM   30  C   UNL     1     -10.853   6.048  67.751  1.00  0.00    -0.290 C  
HETATM   31  C   UNL     1     -11.761   6.487  69.993  1.00  0.00    -0.322 C  
ENDBRANCH   4  29
BRANCH   7  32
HETATM   32  C   UNL     1      -6.562   5.474  71.540  1.00  0.00    -0.045 C  
BRANCH  32  33
HETATM   33  N   UNL     1      -7.342   4.975  72.667  1.00  0.00    -0.088 NA 
HETATM   34  H   UNL     1      -8.137   5.586  72.850  1.00  0.00     0.000 HD 
BRANCH  33  35
HETATM   35  C   UNL     1      -7.784   3.594  72.522  1.00  0.00    -0.067 C  
BRANCH  35  36
HETATM   36  C   UNL     1      -9.249   3.438  73.023  1.00  0.00    -0.120 C  
HETATM   37  C   UNL     1     -10.037   4.753  72.862  1.00  0.00    -0.212 C  
HETATM   38  C   UNL     1      -9.264   3.014  74.505  1.00  0.00    -0.102 C  
HETATM   39  C   UNL     1      -9.950   2.350  72.193  1.00  0.00    -0.230 C  
ENDBRANCH  35  36
ENDBRANCH  33  35
ENDBRANCH  32  33
ENDBRANCH   7  32
BRANCH  10  40
HETATM   40  C   UNL     1      -9.039  16.484  66.525  1.00  0.00    -0.276 C  
HETATM   41  N   UNL     1      -7.729  16.823  66.608  1.00  0.00    -0.242 N  
HETATM   42  H2  UNL     1      -7.186  16.617  67.447  1.00  0.00     0.000 HD 
HETATM   43  H1  UNL     1      -7.301  17.290  65.808  1.00  0.00     0.000 HD 
HETATM   44  O   UNL     1      -9.658  16.799  65.509  1.00  0.00    -0.515 OA 
ENDBRANCH  10  40
BRANCH   8  45
HETATM   45  N   UNL     1     -11.468  13.331  65.716  1.00  0.00    -0.315 NA 
HETATM   46  C   UNL     1     -10.627  13.572  64.542  1.00  0.00    -0.424 C  
HETATM   47  C   UNL     1     -12.801  13.890  65.504  1.00  0.00    -0.431 C  
ENDBRANCH   8  45
TORSDOF 7
ENDMDL
MODEL       38
REMARK 921   NORMALIZED FREE ENERGY PREDICTED BY IDOCK:   -5.50 KCAL/MOL
REMARK 922        TOTAL FREE ENERGY PREDICTED BY IDOCK:   -8.50 KCAL/MOL
REMARK 923 INTER-LIGAND FREE ENERGY PREDICTED BY IDOCK:   -7.55 KCAL/MOL
REMARK 924 INTRA-LIGAND FREE ENERGY PREDICTED BY IDOCK:   -0.95 KCAL/MOL
REMARK 927      BINDING AFFINITY PREDICTED BY RF-SCORE:    0.00 PKD
ROOT
HETATM    1  C   UNL     1     -10.134   7.008  69.675  1.00  0.00    -0.194 C  
HETATM    2  C   UNL     1      -9.451   7.942  68.694  1.00  0.00    -0.149 C  
HETATM    3  C   UNL     1     -10.116   9.246  68.438  1.00  0.00    -0.215 A  
HETATM    4  C   UNL     1      -9.805   9.959  67.255  1.00  0.00    -0.182 A  
HETATM    5  C   UNL     1     -10.496  11.164  67.071  1.00  0.00    -0.277 A  
HETATM    6  C   UNL     1      -7.889   3.625  72.646  1.00  0.00    -0.072 C  
HETATM    7  C   UNL     1     -11.483  11.660  67.955  1.00  0.00    -0.381 A  
HETATM    8  C   UNL     1      -8.156   4.133  71.254  1.00  0.00    -0.077 C  
HETATM    9  H   UNL     1     -11.126   3.945  72.643  1.00  0.00     0.000 HD 
HETATM   10  C   UNL     1      -8.757   3.857  73.641  1.00  0.00    -0.093 C  
HETATM   11  C   UNL     1     -11.732  10.939  69.131  1.00  0.00    -0.326 A  
HETATM   12  O   UNL     1      -9.049   6.037  74.429  1.00  0.00    -0.127 OA 
HETATM   13  O   UNL     1     -12.684  11.345  70.025  1.00  0.00    -0.105 OA 
HETATM   14  C   UNL     1     -11.022   9.754  69.405  1.00  0.00    -0.241 A  
HETATM   15  H   UNL     1     -12.852  10.857  70.822  1.00  0.00     0.000 HD 
HETATM   16  C   UNL     1      -9.330   5.236  73.536  1.00  0.00    -0.133 C  
HETATM   17  O   UNL     1     -11.411   4.845  72.531  1.00  0.00    -0.125 OA 
HETATM   18  C   UNL     1     -11.164   9.070  70.748  1.00  0.00    -0.275 C  
HETATM   19  C   UNL     1      -9.061   6.009  70.028  1.00  0.00    -0.152 C  
HETATM   20  C   UNL     1     -10.623   7.676  70.912  1.00  0.00    -0.219 C  
HETATM   21  O   UNL     1     -11.664   9.612  71.731  1.00  0.00    -0.388 OA 
HETATM   22  C   UNL     1     -10.637   7.022  72.101  1.00  0.00    -0.213 C  
HETATM   23  C   UNL     1      -9.489   4.941  71.032  1.00  0.00    -0.225 C  
HETATM   24  H   UNL     1      -5.911   3.348  72.236  1.00  0.00     0.000 HD 
HETATM   25  O   UNL     1      -6.526   3.512  72.942  1.00  0.00    -0.022 OA 
HETATM   26  C   UNL     1     -10.173   5.558  72.282  1.00  0.00    -0.199 C  
HETATM   27  O   UNL     1     -11.249   7.564  73.227  1.00  0.00    -0.567 OA 
HETATM   28  H   UNL     1     -11.258   7.106  74.060  1.00  0.00     0.000 HD 
ENDROOT
BRANCH   4  29
HETATM   29  N   UNL     1      -8.859   9.581  66.305  1.00  0.00    -0.145 NA 
HETATM   30  C   UNL     1      -9.157   9.306  64.903  1.00  0.00    -0.170 C  
HETATM   31  C   UNL     1      -7.434   9.714  66.608  1.00  0.00    -0.094 C  
ENDBRANCH   4  29
BRANCH   7  32
HETATM   32  C   UNL     1     -12.148  12.985  67.623  1.00  0.00    -0.209 C  
BRANCH  32  33
HETATM   33  N   UNL     1     -11.407  13.692  66.585  1.00  0.00    -0.316 NA 
HETATM   34  H   UNL     1     -11.896  13.628  65.692  1.00  0.00     0.000 HD 
BRANCH  33  35
HETATM   35  C   UNL     1     -11.110  15.082  66.904  1.00  0.00    -0.331 C  
BRANCH  35  36
HETATM   36  C   UNL     1      -9.705  15.199  67.563  1.00  0.00    -0.205 C  
HETATM   37  C   UNL     1      -8.721  14.173  66.967  1.00  0.00    -0.222 C  
HETATM   38  C   UNL     1      -9.809  14.981  69.085  1.00  0.00    -0.223 C  
HETATM   39  C   UNL     1      -9.146  16.608  67.305  1.00  0.00    -0.225 C  
ENDBRANCH  35  36
ENDBRANCH  33  35
ENDBRANCH  32  33
ENDBRANCH   7  32
BRANCH  10  40
HETATM   40  C   UNL     1      -9.590   2.634  73.854  1.00  0.00    -0.088 C  
HETATM   41  N   UNL     1     -10.801   2.779  74.446  1.00  0.00    -0.107 N  
HETATM   42  H2  UNL     1     -11.135   3.698  74.738  1.00  0.00     0.000 HD 
HETATM   43  H1  UNL     1     -11.370   1.944  74.592  1.00  0.00     0.000 HD 
HETATM   44  O   UNL     1      -9.217   1.497  73.565  1.00  0.00    -0.064 OA 
ENDBRANCH  10  40
BRANCH   8  45
HETATM   45  N   UNL     1      -8.034   3.163  70.140  1.00  0.00    -0.043 NA 
HETATM   46  C   UNL     1      -9.263   2.431  69.831  1.00  0.00    -0.122 C  
HETATM   47  C   UNL     1      -6.923   2.231  70.312  1.00  0.00    -0.033 C  
ENDBRANCH   8  45
TORSDOF 7
ENDMDL
MODEL       39
REMARK 921   NORMALIZED FREE ENERGY PREDICTED BY IDOCK:   -5.49 KCAL/MOL
REMARK 922        TOTAL FREE ENERGY PREDICTED BY IDOCK:   -8.50 KCAL/MOL
REMARK 923 INTER-LIGAND FREE ENERGY PREDICTED BY IDOCK:   -7.82 KCAL/MOL
REMARK 924 INTRA-LIGAND FREE ENERGY PREDICTED BY IDOCK:   -0.68 KCAL/MOL
REMARK 927      BINDING AFFINITY PREDICTED BY RF-SCORE:    0.00 PKD
ROOT
HETATM    1  C   UNL     1      -9.535   7.828  67.442  1.00  0.00    -0.177 C  
HETATM    2  C   UNL     1      -9.784   6.520  66.717  1.00  0.00    -0.208 C  
HETATM    3  C   UNL     1      -9.679   5.276  67.524  1.00  0.00    -0.167 A  
HETATM    4  C   UNL     1      -9.461   4.042  66.866  1.00  0.00    -0.198 A  
HETATM    5  C   UNL     1      -9.342   2.921  67.698  1.00  0.00    -0.234 A  
HETATM    6  C   UNL     1     -11.562  12.298  66.333  1.00  0.00    -0.383 C  
HETATM    7  C   UNL     1      -9.383   2.970  69.112  1.00  0.00    -0.220 A  
HETATM    8  C   UNL     1     -10.736  11.119  65.891  1.00  0.00    -0.198 C  
HETATM    9  H   UNL     1      -9.436  11.998  68.776  1.00  0.00     0.000 HD 
HETATM   10  C   UNL     1     -11.650  12.629  67.628  1.00  0.00    -0.414 C  
HETATM   11  C   UNL     1      -9.637   4.207  69.718  1.00  0.00    -0.211 A  
HETATM   12  O   UNL     1     -12.775  11.212  69.105  1.00  0.00    -0.255 OA 
HETATM   13  O   UNL     1      -9.674   4.337  71.079  1.00  0.00    -0.166 OA 
HETATM   14  C   UNL     1      -9.831   5.360  68.933  1.00  0.00    -0.226 A  
HETATM   15  H   UNL     1      -9.847   5.176  71.490  1.00  0.00     0.000 HD 
HETATM   16  C   UNL     1     -11.729  11.405  68.487  1.00  0.00    -0.318 C  
HETATM   17  O   UNL     1      -9.523  11.177  69.247  1.00  0.00    -0.054 OA 
HETATM   18  C   UNL     1     -10.275   6.657  69.574  1.00  0.00    -0.183 C  
HETATM   19  C   UNL     1     -10.102   8.870  66.510  1.00  0.00    -0.356 C  
HETATM   20  C   UNL     1     -10.203   7.926  68.768  1.00  0.00    -0.218 C  
HETATM   21  O   UNL     1     -10.732   6.725  70.713  1.00  0.00    -0.221 OA 
HETATM   22  C   UNL     1     -10.655   9.116  69.239  1.00  0.00    -0.216 C  
HETATM   23  C   UNL     1      -9.992  10.306  67.016  1.00  0.00    -0.249 C  
HETATM   24  H   UNL     1     -12.580  12.329  64.566  1.00  0.00     0.000 HD 
HETATM   25  O   UNL     1     -12.642  12.564  65.485  1.00  0.00    -0.642 OA 
HETATM   26  C   UNL     1     -10.512  10.452  68.473  1.00  0.00    -0.186 C  
HETATM   27  O   UNL     1     -11.121   9.259  70.541  1.00  0.00    -0.240 OA 
HETATM   28  H   UNL     1     -11.437  10.093  70.870  1.00  0.00     0.000 HD 
ENDROOT
BRANCH   4  29
HETATM   29  N   UNL     1      -9.397   3.858  65.487  1.00  0.00    -0.151 NA 
HETATM   30  C   UNL     1      -8.246   3.310  64.776  1.00  0.00    -0.090 C  
HETATM   31  C   UNL     1     -10.618   3.949  64.686  1.00  0.00    -0.154 C  
ENDBRANCH   4  29
BRANCH   7  32
HETATM   32  C   UNL     1      -9.240   1.668  69.882  1.00  0.00    -0.097 C  
BRANCH  32  33
HETATM   33  N   UNL     1      -7.891   1.527  70.418  1.00  0.00    -0.039 NA 
HETATM   34  H   UNL     1      -7.279   2.249  70.038  1.00  0.00     0.000 HD 
BRANCH  33  35
HETATM   35  C   UNL     1      -7.823   1.516  71.872  1.00  0.00    -0.041 C  
BRANCH  35  36
HETATM   36  C   UNL     1      -6.508   2.190  72.360  1.00  0.00    -0.014 C  
HETATM   37  C   UNL     1      -5.427   2.163  71.262  1.00  0.00    -0.008 C  
HETATM   38  C   UNL     1      -5.976   1.474  73.617  1.00  0.00     0.000 C  
HETATM   39  C   UNL     1      -6.798   3.658  72.714  1.00  0.00    -0.038 C  
ENDBRANCH  35  36
ENDBRANCH  33  35
ENDBRANCH  32  33
ENDBRANCH   7  32
BRANCH  10  40
HETATM   40  C   UNL     1     -10.720  13.767  67.903  1.00  0.00    -0.247 C  
HETATM   41  N   UNL     1      -9.506  13.764  67.298  1.00  0.00    -0.228 N  
HETATM   42  H2  UNL     1      -9.235  13.005  66.672  1.00  0.00     0.000 HD 
HETATM   43  H1  UNL     1      -8.872  14.541  67.486  1.00  0.00     0.000 HD 
HETATM   44  O   UNL     1     -10.977  14.683  68.685  1.00  0.00    -0.239 OA 
ENDBRANCH  10  40
BRANCH   8  45
HETATM   45  N   UNL     1      -9.768  11.339  64.790  1.00  0.00    -0.248 NA 
HETATM   46  C   UNL     1     -10.172  10.777  63.501  1.00  0.00    -0.250 C  
HETATM   47  C   UNL     1      -8.413  10.910  65.125  1.00  0.00    -0.038 C  
ENDBRANCH   8  45
TORSDOF 7
ENDMDL
MODEL       40
REMARK 921   NORMALIZED FREE ENERGY PREDICTED BY IDOCK:   -5.48 KCAL/MOL
REMARK 922        TOTAL FREE ENERGY PREDICTED BY IDOCK:   -8.49 KCAL/MOL
REMARK 923 INTER-LIGAND FREE ENERGY PREDICTED BY IDOCK:   -7.84 KCAL/MOL
REMARK 924 INTRA-LIGAND FREE ENERGY PREDICTED BY IDOCK:   -0.65 KCAL/MOL
REMARK 927      BINDING AFFINITY PREDICTED BY RF-SCORE:    0.00 PKD
ROOT
HETATM    1  C   UNL     1     -10.725   9.277  69.485  1.00  0.00    -0.236 C  
HETATM    2  C   UNL     1      -9.796  10.249  68.784  1.00  0.00    -0.184 C  
HETATM    3  C   UNL     1     -10.305  11.631  68.578  1.00  0.00    -0.224 A  
HETATM    4  C   UNL     1      -9.715  12.442  67.579  1.00  0.00    -0.191 A  
HETATM    5  C   UNL     1     -10.271  13.719  67.425  1.00  0.00    -0.252 A  
HETATM    6  C   UNL     1      -9.358   5.383  72.365  1.00  0.00    -0.143 C  
HETATM    7  C   UNL     1     -11.381  14.199  68.161  1.00  0.00    -0.316 A  
HETATM    8  C   UNL     1      -9.304   6.069  71.025  1.00  0.00    -0.161 C  
HETATM    9  H   UNL     1     -12.498   5.999  71.784  1.00  0.00     0.000 HD 
HETATM   10  C   UNL     1     -10.390   5.579  73.197  1.00  0.00    -0.231 C  
HETATM   11  C   UNL     1     -11.909  13.375  69.164  1.00  0.00    -0.336 A  
HETATM   12  O   UNL     1     -10.686   7.671  74.191  1.00  0.00     0.155 OA 
HETATM   13  O   UNL     1     -12.992  13.762  69.904  1.00  0.00    -0.140 OA 
HETATM   14  C   UNL     1     -11.351  12.106  69.412  1.00  0.00    -0.311 A  
HETATM   15  H   UNL     1     -13.349  13.203  70.584  1.00  0.00     0.000 HD 
HETATM   16  C   UNL     1     -10.835   7.008  73.165  1.00  0.00    -0.316 C  
HETATM   17  O   UNL     1     -12.694   6.928  71.738  1.00  0.00    -0.357 OA 
HETATM   18  C   UNL     1     -11.806  11.288  70.602  1.00  0.00    -0.267 C  
HETATM   19  C   UNL     1      -9.815   8.149  69.904  1.00  0.00    -0.186 C  
HETATM   20  C   UNL     1     -11.405   9.840  70.683  1.00  0.00    -0.401 C  
HETATM   21  O   UNL     1     -12.456  11.758  71.533  1.00  0.00    -0.234 OA 
HETATM   22  C   UNL     1     -11.703   9.059  71.752  1.00  0.00    -0.369 C  
HETATM   23  C   UNL     1     -10.507   7.017  70.659  1.00  0.00    -0.229 C  
HETATM   24  H   UNL     1      -7.361   4.973  72.308  1.00  0.00     0.000 HD 
HETATM   25  O   UNL     1      -8.093   5.111  72.897  1.00  0.00    -0.104 OA 
HETATM   26  C   UNL     1     -11.386   7.548  71.826  1.00  0.00    -0.254 C  
HETATM   27  O   UNL     1     -12.490   9.522  72.801  1.00  0.00     0.025 OA 
HETATM   28  H   UNL     1     -12.698   8.975  73.549  1.00  0.00     0.000 HD 
ENDROOT
BRANCH   4  29
HETATM   29  N   UNL     1      -8.626  12.090  66.787  1.00  0.00    -0.191 NA 
HETATM   30  C   UNL     1      -8.725  11.552  65.434  1.00  0.00     0.162 C  
HETATM   31  C   UNL     1      -7.280  12.512  67.175  1.00  0.00    -0.057 C  
ENDBRANCH   4  29
BRANCH   7  32
HETATM   32  C   UNL     1     -11.873  15.609  67.885  1.00  0.00     0.036 C  
BRANCH  32  33
HETATM   33  N   UNL     1     -10.796  16.578  68.051  1.00  0.00    -0.344 NA 
HETATM   34  H   UNL     1      -9.967  16.127  68.438  1.00  0.00     0.000 HD 
BRANCH  33  35
HETATM   35  C   UNL     1     -10.457  17.309  66.837  1.00  0.00    -0.272 C  
BRANCH  35  36
HETATM   36  C   UNL     1      -9.643  18.589  67.184  1.00  0.00    -0.302 C  
HETATM   37  C   UNL     1     -10.279  19.843  66.552  1.00  0.00    -0.611 C  
HETATM   38  C   UNL     1      -8.191  18.449  66.686  1.00  0.00    -0.283 C  
HETATM   39  C   UNL     1      -9.625  18.775  68.710  1.00  0.00    -0.411 C  
ENDBRANCH  35  36
ENDBRANCH  33  35
ENDBRANCH  32  33
ENDBRANCH   7  32
BRANCH  10  40
HETATM   40  C   UNL     1     -11.330   4.422  73.085  1.00  0.00    -0.185 C  
HETATM   41  N   UNL     1     -10.855   3.255  72.583  1.00  0.00     0.029 N  
HETATM   42  H2  UNL     1      -9.881   3.169  72.290  1.00  0.00     0.000 HD 
HETATM   43  H1  UNL     1     -11.497   2.465  72.507  1.00  0.00     0.000 HD 
HETATM   44  O   UNL     1     -12.524   4.484  73.379  1.00  0.00     0.239 OA 
ENDBRANCH  10  40
BRANCH   8  45
HETATM   45  N   UNL     1      -9.027   5.226  69.838  1.00  0.00    -0.117 NA 
HETATM   46  C   UNL     1      -9.571   3.869  69.912  1.00  0.00    -0.200 C  
HETATM   47  C   UNL     1      -7.611   5.182  69.485  1.00  0.00    -0.065 C  
ENDBRANCH   8  45
TORSDOF 7
ENDMDL
MODEL       41
REMARK 921   NORMALIZED FREE ENERGY PREDICTED BY IDOCK:   -5.36 KCAL/MOL
REMARK 922        TOTAL FREE ENERGY PREDICTED BY IDOCK:   -8.31 KCAL/MOL
REMARK 923 INTER-LIGAND FREE ENERGY PREDICTED BY IDOCK:   -8.05 KCAL/MOL
REMARK 924 INTRA-LIGAND FREE ENERGY PREDICTED BY IDOCK:   -0.26 KCAL/MOL
REMARK 927      BINDING AFFINITY PREDICTED BY RF-SCORE:    0.00 PKD
ROOT
HETATM    1  C   UNL     1      -9.213   7.711  70.077  1.00  0.00    -0.151 C  
HETATM    2  C   UNL     1      -8.531   9.002  69.664  1.00  0.00    -0.128 C  
HETATM    3  C   UNL     1      -9.409  10.177  69.429  1.00  0.00    -0.235 A  
HETATM    4  C   UNL     1      -8.930  11.251  68.641  1.00  0.00    -0.147 A  
HETATM    5  C   UNL     1      -9.828  12.307  68.440  1.00  0.00    -0.199 A  
HETATM    6  C   UNL     1      -7.253   4.080  72.958  1.00  0.00    -0.067 C  
HETATM    7  C   UNL     1     -11.155  12.329  68.931  1.00  0.00    -0.291 A  
HETATM    8  C   UNL     1      -7.161   4.917  71.708  1.00  0.00    -0.067 C  
HETATM    9  H   UNL     1     -10.244   3.783  71.715  1.00  0.00     0.000 HD 
HETATM   10  C   UNL     1      -8.435   3.845  73.543  1.00  0.00    -0.088 C  
HETATM   11  C   UNL     1     -11.574  11.262  69.737  1.00  0.00    -0.333 A  
HETATM   12  O   UNL     1      -9.584   5.603  74.565  1.00  0.00    -0.145 OA 
HETATM   13  O   UNL     1     -12.847  11.204  70.233  1.00  0.00    -0.193 OA 
HETATM   14  C   UNL     1     -10.696  10.201  70.030  1.00  0.00    -0.356 A  
HETATM   15  H   UNL     1     -13.131  10.481  70.779  1.00  0.00     0.000 HD 
HETATM   16  C   UNL     1      -9.305   5.063  73.495  1.00  0.00    -0.132 C  
HETATM   17  O   UNL     1     -10.717   4.607  71.681  1.00  0.00    -0.048 OA 
HETATM   18  C   UNL     1     -11.086   9.139  71.035  1.00  0.00    -0.305 C  
HETATM   19  C   UNL     1      -8.088   6.869  70.625  1.00  0.00    -0.118 C  
HETATM   20  C   UNL     1     -10.261   7.883  71.120  1.00  0.00    -0.221 C  
HETATM   21  O   UNL     1     -12.023   9.265  71.820  1.00  0.00    -0.349 OA 
HETATM   22  C   UNL     1     -10.494   6.918  72.045  1.00  0.00    -0.205 C  
HETATM   23  C   UNL     1      -8.510   5.493  71.135  1.00  0.00    -0.126 C  
HETATM   24  H   UNL     1      -5.261   4.307  73.333  1.00  0.00     0.000 HD 
HETATM   25  O   UNL     1      -6.099   4.140  73.748  1.00  0.00    -0.024 OA 
HETATM   26  C   UNL     1      -9.725   5.578  72.100  1.00  0.00    -0.158 C  
HETATM   27  O   UNL     1     -11.579   6.982  72.912  1.00  0.00    -0.505 OA 
HETATM   28  H   UNL     1     -11.742   6.306  73.560  1.00  0.00     0.000 HD 
ENDROOT
BRANCH   4  29
HETATM   29  N   UNL     1      -7.651  11.351  68.098  1.00  0.00    -0.107 NA 
HETATM   30  C   UNL     1      -6.498  11.915  68.792  1.00  0.00    -0.071 C  
HETATM   31  C   UNL     1      -7.324  10.620  66.873  1.00  0.00    -0.114 C  
ENDBRANCH   4  29
BRANCH   7  32
HETATM   32  C   UNL     1     -12.014  13.547  68.633  1.00  0.00    -0.343 C  
BRANCH  32  33
HETATM   33  N   UNL     1     -12.825  13.906  69.791  1.00  0.00    -0.211 NA 
HETATM   34  H   UNL     1     -13.295  13.083  70.166  1.00  0.00     0.000 HD 
BRANCH  33  35
HETATM   35  C   UNL     1     -12.092  14.598  70.843  1.00  0.00    -0.328 C  
BRANCH  35  36
HETATM   36  C   UNL     1     -12.912  14.601  72.164  1.00  0.00    -0.421 C  
HETATM   37  C   UNL     1     -14.141  15.526  72.056  1.00  0.00    -0.598 C  
HETATM   38  C   UNL     1     -12.029  15.064  73.340  1.00  0.00    -0.432 C  
HETATM   39  C   UNL     1     -13.408  13.174  72.452  1.00  0.00    -0.591 C  
ENDBRANCH  35  36
ENDBRANCH  33  35
ENDBRANCH  32  33
ENDBRANCH   7  32
BRANCH  10  40
HETATM   40  C   UNL     1      -8.908   2.482  73.152  1.00  0.00    -0.071 C  
HETATM   41  N   UNL     1      -9.448   1.691  74.112  1.00  0.00    -0.064 N  
HETATM   42  H2  UNL     1      -9.529   2.017  75.075  1.00  0.00     0.000 HD 
HETATM   43  H1  UNL     1      -9.770   0.760  73.845  1.00  0.00     0.000 HD 
HETATM   44  O   UNL     1      -8.791   2.020  72.017  1.00  0.00    -0.066 OA 
ENDBRANCH  10  40
BRANCH   8  45
HETATM   45  N   UNL     1      -6.398   4.357  70.568  1.00  0.00    -0.022 NA 
HETATM   46  C   UNL     1      -5.652   3.135  70.873  1.00  0.00    -0.013 C  
HETATM   47  C   UNL     1      -5.522   5.336  69.930  1.00  0.00    -0.008 C  
ENDBRANCH   8  45
TORSDOF 7
ENDMDL
MODEL       42
REMARK 921   NORMALIZED FREE ENERGY PREDICTED BY IDOCK:   -5.35 KCAL/MOL
REMARK 922        TOTAL FREE ENERGY PREDICTED BY IDOCK:   -8.29 KCAL/MOL
REMARK 923 INTER-LIGAND FREE ENERGY PREDICTED BY IDOCK:   -7.34 KCAL/MOL
REMARK 924 INTRA-LIGAND FREE ENERGY PREDICTED BY IDOCK:   -0.95 KCAL/MOL
REMARK 927      BINDING AFFINITY PREDICTED BY RF-SCORE:    0.00 PKD
ROOT
HETATM    1  C   UNL     1      -8.282   8.906  67.673  1.00  0.00    -0.110 C  
HETATM    2  C   UNL     1      -8.181   7.393  67.635  1.00  0.00    -0.118 C  
HETATM    3  C   UNL     1      -7.817   6.714  68.907  1.00  0.00    -0.111 A  
HETATM    4  C   UNL     1      -7.283   5.404  68.862  1.00  0.00    -0.066 A  
HETATM    5  C   UNL     1      -6.937   4.845  70.099  1.00  0.00    -0.049 A  
HETATM    6  C   UNL     1     -11.265  11.778  64.814  1.00  0.00    -0.271 C  
HETATM    7  C   UNL     1      -7.049   5.520  71.338  1.00  0.00    -0.071 A  
HETATM    8  C   UNL     1     -10.163  10.754  64.894  1.00  0.00    -0.320 C  
HETATM    9  H   UNL     1      -9.236  13.122  66.973  1.00  0.00     0.000 HD 
HETATM   10  C   UNL     1     -11.485  12.631  65.824  1.00  0.00    -0.399 C  
HETATM   11  C   UNL     1      -7.617   6.801  71.338  1.00  0.00    -0.092 A  
HETATM   12  O   UNL     1     -12.303  11.823  67.857  1.00  0.00    -0.399 OA 
HETATM   13  O   UNL     1      -7.742   7.523  72.493  1.00  0.00    -0.088 OA 
HETATM   14  C   UNL     1      -8.046   7.392  70.133  1.00  0.00    -0.131 A  
HETATM   15  H   UNL     1      -8.127   8.391  72.492  1.00  0.00     0.000 HD 
HETATM   16  C   UNL     1     -11.307  11.950  67.145  1.00  0.00    -0.331 C  
HETATM   17  O   UNL     1      -9.145  12.609  67.768  1.00  0.00    -0.176 OA 
HETATM   18  C   UNL     1      -8.813   8.696  70.150  1.00  0.00    -0.141 C  
HETATM   19  C   UNL     1      -9.040   9.247  66.414  1.00  0.00    -0.200 C  
HETATM   20  C   UNL     1      -9.011   9.438  68.856  1.00  0.00    -0.136 C  
HETATM   21  O   UNL     1      -9.322   9.166  71.165  1.00  0.00    -0.253 OA 
HETATM   22  C   UNL     1      -9.753  10.571  68.770  1.00  0.00    -0.184 C  
HETATM   23  C   UNL     1      -9.297  10.738  66.209  1.00  0.00    -0.205 C  
HETATM   24  H   UNL     1     -12.185  10.766  63.302  1.00  0.00     0.000 HD 
HETATM   25  O   UNL     1     -12.340  11.371  64.017  1.00  0.00     0.011 OA 
HETATM   26  C   UNL     1      -9.899  11.405  67.476  1.00  0.00    -0.178 C  
HETATM   27  O   UNL     1     -10.295  11.178  69.898  1.00  0.00    -0.407 OA 
HETATM   28  H   UNL     1     -10.814  11.972  69.837  1.00  0.00     0.000 HD 
ENDROOT
BRANCH   4  29
HETATM   29  N   UNL     1      -7.118   4.634  67.713  1.00  0.00    -0.064 NA 
HETATM   30  C   UNL     1      -5.859   4.483  66.990  1.00  0.00    -0.023 C  
HETATM   31  C   UNL     1      -8.162   3.687  67.319  1.00  0.00    -0.091 C  
ENDBRANCH   4  29
BRANCH   7  32
HETATM   32  C   UNL     1      -6.634   4.784  72.600  1.00  0.00    -0.051 C  
BRANCH  32  33
HETATM   33  N   UNL     1      -7.572   3.710  72.907  1.00  0.00    -0.060 NA 
HETATM   34  H   UNL     1      -7.106   2.968  73.429  1.00  0.00     0.000 HD 
BRANCH  33  35
HETATM   35  C   UNL     1      -8.774   4.146  73.605  1.00  0.00    -0.094 C  
BRANCH  35  36
HETATM   36  C   UNL     1     -10.037   3.856  72.745  1.00  0.00    -0.223 C  
HETATM   37  C   UNL     1      -9.750   2.786  71.674  1.00  0.00    -0.226 C  
HETATM   38  C   UNL     1     -10.523   5.147  72.057  1.00  0.00    -0.278 C  
HETATM   39  C   UNL     1     -11.158   3.334  73.659  1.00  0.00    -0.316 C  
ENDBRANCH  35  36
ENDBRANCH  33  35
ENDBRANCH  32  33
ENDBRANCH   7  32
BRANCH  10  40
HETATM   40  C   UNL     1     -10.866  13.950  65.489  1.00  0.00    -0.306 C  
HETATM   41  N   UNL     1      -9.669  13.953  64.850  1.00  0.00    -0.533 N  
HETATM   42  H2  UNL     1      -9.205  13.078  64.605  1.00  0.00     0.000 HD 
HETATM   43  H1  UNL     1      -9.247  14.853  64.622  1.00  0.00     0.000 HD 
HETATM   44  O   UNL     1     -11.359  15.033  65.803  1.00  0.00    -0.337 OA 
ENDBRANCH  10  40
BRANCH   8  45
HETATM   45  N   UNL     1      -9.230  10.667  63.747  1.00  0.00    -0.233 NA 
HETATM   46  C   UNL     1      -9.590  11.504  62.601  1.00  0.00    -0.032 C  
HETATM   47  C   UNL     1      -8.986   9.294  63.311  1.00  0.00    -0.052 C  
ENDBRANCH   8  45
TORSDOF 7
ENDMDL
MODEL       43
REMARK 921   NORMALIZED FREE ENERGY PREDICTED BY IDOCK:   -5.12 KCAL/MOL
REMARK 922        TOTAL FREE ENERGY PREDICTED BY IDOCK:   -7.98 KCAL/MOL
REMARK 923 INTER-LIGAND FREE ENERGY PREDICTED BY IDOCK:   -7.86 KCAL/MOL
REMARK 924 INTRA-LIGAND FREE ENERGY PREDICTED BY IDOCK:   -0.12 KCAL/MOL
REMARK 927      BINDING AFFINITY PREDICTED BY RF-SCORE:    0.00 PKD
ROOT
HETATM    1  C   UNL     1      -8.536  14.424  67.634  1.00  0.00    -0.189 C  
HETATM    2  C   UNL     1      -9.442  13.385  68.267  1.00  0.00    -0.209 C  
HETATM    3  C   UNL     1      -8.834  12.064  68.574  1.00  0.00    -0.095 A  
HETATM    4  C   UNL     1      -9.676  10.939  68.741  1.00  0.00    -0.189 A  
HETATM    5  C   UNL     1      -9.026   9.725  68.997  1.00  0.00    -0.154 A  
HETATM    6  C   UNL     1      -8.903  19.418  68.132  1.00  0.00    -0.331 C  
HETATM    7  C   UNL     1      -7.621   9.569  69.050  1.00  0.00    -0.075 A  
HETATM    8  C   UNL     1      -9.541  18.120  67.709  1.00  0.00    -0.286 C  
HETATM    9  H   UNL     1      -6.594  18.100  66.259  1.00  0.00     0.000 HD 
HETATM   10  C   UNL     1      -7.571  19.559  68.138  1.00  0.00    -0.338 C  
HETATM   11  C   UNL     1      -6.828  10.717  68.915  1.00  0.00    -0.066 A  
HETATM   12  O   UNL     1      -6.292  18.360  69.682  1.00  0.00    -0.252 OA 
HETATM   13  O   UNL     1      -5.463  10.644  68.937  1.00  0.00    -0.042 OA 
HETATM   14  C   UNL     1      -7.425  11.977  68.721  1.00  0.00    -0.086 A  
HETATM   15  H   UNL     1      -4.926  11.422  68.846  1.00  0.00     0.000 HD 
HETATM   16  C   UNL     1      -6.904  18.307  68.615  1.00  0.00    -0.254 C  
HETATM   17  O   UNL     1      -6.250  17.286  66.609  1.00  0.00    -0.177 OA 
HETATM   18  C   UNL     1      -6.584  13.235  68.748  1.00  0.00    -0.099 C  
HETATM   19  C   UNL     1      -9.284  15.720  67.827  1.00  0.00    -0.197 C  
HETATM   20  C   UNL     1      -7.192  14.524  68.265  1.00  0.00    -0.119 C  
HETATM   21  O   UNL     1      -5.436  13.269  69.184  1.00  0.00    -0.072 OA 
HETATM   22  C   UNL     1      -6.535  15.711  68.330  1.00  0.00    -0.119 C  
HETATM   23  C   UNL     1      -8.572  16.955  67.281  1.00  0.00    -0.212 C  
HETATM   24  H   UNL     1     -10.615  20.033  69.054  1.00  0.00     0.000 HD 
HETATM   25  O   UNL     1      -9.671  20.134  69.057  1.00  0.00    -0.147 OA 
HETATM   26  C   UNL     1      -7.095  17.034  67.760  1.00  0.00    -0.148 C  
HETATM   27  O   UNL     1      -5.213  15.793  68.754  1.00  0.00    -0.101 OA 
HETATM   28  H   UNL     1      -4.754  16.624  68.799  1.00  0.00     0.000 HD 
ENDROOT
BRANCH   4  29
HETATM   29  N   UNL     1     -11.068  10.956  68.710  1.00  0.00    -0.234 NA 
HETATM   30  C   UNL     1     -11.924  10.963  69.893  1.00  0.00    -0.353 C  
HETATM   31  C   UNL     1     -11.763  11.257  67.457  1.00  0.00    -0.082 C  
ENDBRANCH   4  29
BRANCH   7  32
HETATM   32  C   UNL     1      -7.058   8.187  69.339  1.00  0.00    -0.055 C  
BRANCH  32  33
HETATM   33  N   UNL     1      -8.106   7.176  69.271  1.00  0.00    -0.119 NA 
HETATM   34  H   UNL     1      -7.829   6.415  68.650  1.00  0.00     0.000 HD 
BRANCH  33  35
HETATM   35  C   UNL     1      -8.516   6.651  70.566  1.00  0.00    -0.138 C  
BRANCH  35  36
HETATM   36  C   UNL     1      -9.897   5.943  70.453  1.00  0.00    -0.231 C  
HETATM   37  C   UNL     1     -11.049   6.967  70.423  1.00  0.00    -0.341 C  
HETATM   38  C   UNL     1     -10.102   4.981  71.640  1.00  0.00    -0.260 C  
HETATM   39  C   UNL     1      -9.940   5.131  69.148  1.00  0.00    -0.273 C  
ENDBRANCH  35  36
ENDBRANCH  33  35
ENDBRANCH  32  33
ENDBRANCH   7  32
BRANCH  10  40
HETATM   40  C   UNL     1      -7.155  20.294  66.904  1.00  0.00    -0.258 C  
HETATM   41  N   UNL     1      -7.417  19.725  65.701  1.00  0.00    -0.307 N  
HETATM   42  H2  UNL     1      -7.885  18.821  65.640  1.00  0.00     0.000 HD 
HETATM   43  H1  UNL     1      -7.133  20.226  64.859  1.00  0.00     0.000 HD 
HETATM   44  O   UNL     1      -6.545  21.363  66.921  1.00  0.00    -0.480 OA 
ENDBRANCH  10  40
BRANCH   8  45
HETATM   45  N   UNL     1     -10.623  18.190  66.699  1.00  0.00    -0.324 NA 
HETATM   46  C   UNL     1     -10.460  17.279  65.566  1.00  0.00    -0.122 C  
HETATM   47  C   UNL     1     -10.873  19.548  66.223  1.00  0.00    -0.327 C  
ENDBRANCH   8  45
TORSDOF 7
ENDMDL
MODEL       44
REMARK 921   NORMALIZED FREE ENERGY PREDICTED BY IDOCK:   -5.12 KCAL/MOL
REMARK 922        TOTAL FREE ENERGY PREDICTED BY IDOCK:   -7.97 KCAL/MOL
REMARK 923 INTER-LIGAND FREE ENERGY PREDICTED BY IDOCK:   -7.34 KCAL/MOL
REMARK 924 INTRA-LIGAND FREE ENERGY PREDICTED BY IDOCK:   -0.63 KCAL/MOL
REMARK 927      BINDING AFFINITY PREDICTED BY RF-SCORE:    0.00 PKD
ROOT
HETATM    1  C   UNL     1      -8.137   9.637  68.016  1.00  0.00    -0.105 C  
HETATM    2  C   UNL     1      -7.763  11.005  68.553  1.00  0.00    -0.122 C  
HETATM    3  C   UNL     1      -8.368  12.180  67.873  1.00  0.00    -0.161 A  
HETATM    4  C   UNL     1      -7.754  13.448  68.009  1.00  0.00    -0.147 A  
HETATM    5  C   UNL     1      -8.367  14.498  67.313  1.00  0.00    -0.232 A  
HETATM    6  C   UNL     1      -8.387   5.355  70.647  1.00  0.00    -0.115 C  
HETATM    7  C   UNL     1      -9.500  14.348  66.479  1.00  0.00    -0.309 A  
HETATM    8  C   UNL     1      -7.564   6.526  70.177  1.00  0.00    -0.096 C  
HETATM    9  H   UNL     1      -8.997   5.380  67.452  1.00  0.00     0.000 HD 
HETATM   10  C   UNL     1      -9.448   4.934  69.945  1.00  0.00    -0.229 C  
HETATM   11  C   UNL     1     -10.096  13.082  66.404  1.00  0.00    -0.279 A  
HETATM   12  O   UNL     1     -11.347   6.287  69.804  1.00  0.00    -0.405 OA 
HETATM   13  O   UNL     1     -11.182  12.854  65.605  1.00  0.00    -0.285 OA 
HETATM   14  C   UNL     1      -9.566  11.999  67.132  1.00  0.00    -0.195 A  
HETATM   15  H   UNL     1     -11.586  11.996  65.555  1.00  0.00     0.000 HD 
HETATM   16  C   UNL     1     -10.207   6.094  69.380  1.00  0.00    -0.197 C  
HETATM   17  O   UNL     1      -9.445   6.168  67.165  1.00  0.00    -0.115 OA 
HETATM   18  C   UNL     1     -10.304  10.680  67.189  1.00  0.00    -0.228 C  
HETATM   19  C   UNL     1      -7.726   8.693  69.118  1.00  0.00    -0.097 C  
HETATM   20  C   UNL     1      -9.589   9.472  67.732  1.00  0.00    -0.156 C  
HETATM   21  O   UNL     1     -11.478  10.549  66.852  1.00  0.00    -0.175 OA 
HETATM   22  C   UNL     1     -10.202   8.271  67.892  1.00  0.00    -0.220 C  
HETATM   23  C   UNL     1      -8.011   7.219  68.836  1.00  0.00    -0.123 C  
HETATM   24  H   UNL     1      -7.631   5.500  72.536  1.00  0.00     0.000 HD 
HETATM   25  O   UNL     1      -8.383   5.200  72.038  1.00  0.00    -0.121 OA 
HETATM   26  C   UNL     1      -9.472   6.990  68.359  1.00  0.00    -0.133 C  
HETATM   27  O   UNL     1     -11.508   8.054  67.466  1.00  0.00     0.115 OA 
HETATM   28  H   UNL     1     -11.936   7.213  67.578  1.00  0.00     0.000 HD 
ENDROOT
BRANCH   4  29
HETATM   29  N   UNL     1      -6.638  13.729  68.793  1.00  0.00    -0.093 NA 
HETATM   30  C   UNL     1      -6.674  14.472  70.049  1.00  0.00    -0.110 C  
HETATM   31  C   UNL     1      -5.376  13.036  68.534  1.00  0.00    -0.063 C  
ENDBRANCH   4  29
BRANCH   7  32
HETATM   32  C   UNL     1     -10.056  15.581  65.788  1.00  0.00    -0.360 C  
BRANCH  32  33
HETATM   33  N   UNL     1     -10.040  16.731  66.685  1.00  0.00    -0.289 NA 
HETATM   34  H   UNL     1      -9.794  16.441  67.632  1.00  0.00     0.000 HD 
BRANCH  33  35
HETATM   35  C   UNL     1      -9.179  17.820  66.246  1.00  0.00    -0.182 C  
BRANCH  35  36
HETATM   36  C   UNL     1      -9.370  19.066  67.159  1.00  0.00    -0.345 C  
HETATM   37  C   UNL     1      -9.702  18.652  68.606  1.00  0.00    -0.418 C  
HETATM   38  C   UNL     1     -10.501  19.959  66.613  1.00  0.00    -0.580 C  
HETATM   39  C   UNL     1      -8.065  19.880  67.178  1.00  0.00    -0.341 C  
ENDBRANCH  35  36
ENDBRANCH  33  35
ENDBRANCH  32  33
ENDBRANCH   7  32
BRANCH  10  40
HETATM   40  C   UNL     1      -9.053   3.738  69.139  1.00  0.00    -0.137 C  
HETATM   41  N   UNL     1      -9.577   3.602  67.896  1.00  0.00    -0.163 N  
HETATM   42  H2  UNL     1     -10.224   4.296  67.521  1.00  0.00     0.000 HD 
HETATM   43  H1  UNL     1      -9.308   2.786  67.345  1.00  0.00     0.000 HD 
HETATM   44  O   UNL     1      -8.316   2.847  69.560  1.00  0.00    -0.053 OA 
ENDBRANCH  10  40
BRANCH   8  45
HETATM   45  N   UNL     1      -6.095   6.344  70.114  1.00  0.00    -0.033 NA 
HETATM   46  C   UNL     1      -5.661   5.000  69.731  1.00  0.00    -0.016 C  
HETATM   47  C   UNL     1      -5.414   6.764  71.336  1.00  0.00    -0.028 C  
ENDBRANCH   8  45
TORSDOF 7
ENDMDL
MODEL       45
REMARK 921   NORMALIZED FREE ENERGY PREDICTED BY IDOCK:   -5.11 KCAL/MOL
REMARK 922        TOTAL FREE ENERGY PREDICTED BY IDOCK:   -7.95 KCAL/MOL
REMARK 923 INTER-LIGAND FREE ENERGY PREDICTED BY IDOCK:   -7.33 KCAL/MOL
REMARK 924 INTRA-LIGAND FREE ENERGY PREDICTED BY IDOCK:   -0.62 KCAL/MOL
REMARK 927      BINDING AFFINITY PREDICTED BY RF-SCORE:    0.00 PKD
ROOT
HETATM    1  C   UNL     1      -8.333  11.868  68.528  1.00  0.00    -0.118 C  
HETATM    2  C   UNL     1      -7.716  10.685  67.807  1.00  0.00    -0.100 C  
HETATM    3  C   UNL     1      -8.323   9.353  68.064  1.00  0.00    -0.119 A  
HETATM    4  C   UNL     1      -7.566   8.187  67.800  1.00  0.00    -0.098 A  
HETATM    5  C   UNL     1      -8.197   6.971  68.097  1.00  0.00    -0.120 A  
HETATM    6  C   UNL     1      -8.478  16.625  66.894  1.00  0.00    -0.215 C  
HETATM    7  C   UNL     1      -9.487   6.862  68.668  1.00  0.00    -0.134 A  
HETATM    8  C   UNL     1      -7.653  15.423  67.274  1.00  0.00    -0.212 C  
HETATM    9  H   UNL     1      -9.727  15.823  69.789  1.00  0.00     0.000 HD 
HETATM   10  C   UNL     1      -9.699  16.813  67.414  1.00  0.00    -0.245 C  
HETATM   11  C   UNL     1     -10.214   8.041  68.878  1.00  0.00    -0.209 A  
HETATM   12  O   UNL     1     -11.435  15.364  66.831  1.00  0.00    -0.224 OA 
HETATM   13  O   UNL     1     -11.459   8.018  69.442  1.00  0.00    -0.351 OA 
HETATM   14  C   UNL     1      -9.660   9.291  68.538  1.00  0.00    -0.155 A  
HETATM   15  H   UNL     1     -11.952   8.817  69.584  1.00  0.00     0.000 HD 
HETATM   16  C   UNL     1     -10.434  15.514  67.531  1.00  0.00    -0.282 C  
HETATM   17  O   UNL     1     -10.141  14.967  69.792  1.00  0.00    -0.184 OA 
HETATM   18  C   UNL     1     -10.503  10.546  68.603  1.00  0.00    -0.191 C  
HETATM   19  C   UNL     1      -7.804  13.064  67.777  1.00  0.00    -0.157 C  
HETATM   20  C   UNL     1      -9.821  11.884  68.508  1.00  0.00    -0.187 C  
HETATM   21  O   UNL     1     -11.729  10.530  68.688  1.00  0.00    -0.277 OA 
HETATM   22  C   UNL     1     -10.509  13.054  68.478  1.00  0.00    -0.249 C  
HETATM   23  C   UNL     1      -8.292  14.413  68.299  1.00  0.00    -0.158 C  
HETATM   24  H   UNL     1      -7.338  16.966  65.238  1.00  0.00     0.000 HD 
HETATM   25  O   UNL     1      -8.203  17.100  65.607  1.00  0.00    -0.429 OA 
HETATM   26  C   UNL     1      -9.836  14.445  68.473  1.00  0.00    -0.233 C  
HETATM   27  O   UNL     1     -11.890  13.095  68.636  1.00  0.00    -0.308 OA 
HETATM   28  H   UNL     1     -12.371  13.914  68.614  1.00  0.00     0.000 HD 
ENDROOT
BRANCH   4  29
HETATM   29  N   UNL     1      -6.290   8.157  67.244  1.00  0.00    -0.055 NA 
HETATM   30  C   UNL     1      -5.196   9.043  67.631  1.00  0.00    -0.034 C  
HETATM   31  C   UNL     1      -5.885   7.019  66.417  1.00  0.00    -0.034 C  
ENDBRANCH   4  29
BRANCH   7  32
HETATM   32  C   UNL     1     -10.043   5.473  68.933  1.00  0.00    -0.198 C  
BRANCH  32  33
HETATM   33  N   UNL     1      -9.452   4.495  68.026  1.00  0.00    -0.140 NA 
HETATM   34  H   UNL     1      -9.397   3.581  68.474  1.00  0.00     0.000 HD 
BRANCH  33  35
HETATM   35  C   UNL     1     -10.125   4.392  66.739  1.00  0.00    -0.144 C  
BRANCH  35  36
HETATM   36  C   UNL     1      -9.125   3.935  65.638  1.00  0.00    -0.144 C  
HETATM   37  C   UNL     1      -8.444   5.144  64.967  1.00  0.00    -0.148 C  
HETATM   38  C   UNL     1      -9.854   3.102  64.566  1.00  0.00    -0.123 C  
HETATM   39  C   UNL     1      -8.034   3.064  66.281  1.00  0.00    -0.081 C  
ENDBRANCH  35  36
ENDBRANCH  33  35
ENDBRANCH  32  33
ENDBRANCH   7  32
BRANCH  10  40
HETATM   40  C   UNL     1      -9.605  17.808  68.527  1.00  0.00    -0.322 C  
HETATM   41  N   UNL     1     -10.637  17.890  69.402  1.00  0.00    -0.272 N  
HETATM   42  H2  UNL     1     -11.457  17.290  69.304  1.00  0.00     0.000 HD 
HETATM   43  H1  UNL     1     -10.573  18.569  70.161  1.00  0.00     0.000 HD 
HETATM   44  O   UNL     1      -8.663  18.588  68.665  1.00  0.00    -0.327 OA 
ENDBRANCH  10  40
BRANCH   8  45
HETATM   45  N   UNL     1      -6.255  15.665  67.702  1.00  0.00    -0.151 NA 
HETATM   46  C   UNL     1      -6.099  15.991  69.120  1.00  0.00    -0.136 C  
HETATM   47  C   UNL     1      -5.567  16.654  66.878  1.00  0.00    -0.066 C  
ENDBRANCH   8  45
TORSDOF 7
ENDMDL
MODEL       46
REMARK 921   NORMALIZED FREE ENERGY PREDICTED BY IDOCK:   -4.89 KCAL/MOL
REMARK 922        TOTAL FREE ENERGY PREDICTED BY IDOCK:   -7.65 KCAL/MOL
REMARK 923 INTER-LIGAND FREE ENERGY PREDICTED BY IDOCK:   -6.81 KCAL/MOL
REMARK 924 INTRA-LIGAND FREE ENERGY PREDICTED BY IDOCK:   -0.84 KCAL/MOL
REMARK 927      BINDING AFFINITY PREDICTED BY RF-SCORE:    0.00 PKD
ROOT
HETATM    1  C   UNL     1      -8.886  10.531  68.191  1.00  0.00    -0.134 C  
HETATM    2  C   UNL     1      -9.721   9.412  68.782  1.00  0.00    -0.161 C  
HETATM    3  C   UNL     1      -8.999   8.390  69.585  1.00  0.00    -0.145 A  
HETATM    4  C   UNL     1      -9.596   7.123  69.789  1.00  0.00    -0.155 A  
HETATM    5  C   UNL     1      -8.840   6.206  70.529  1.00  0.00    -0.146 A  
HETATM    6  C   UNL     1     -10.421  15.229  67.243  1.00  0.00    -0.275 C  
HETATM    7  C   UNL     1      -7.539   6.461  71.024  1.00  0.00    -0.090 A  
HETATM    8  C   UNL     1     -10.592  13.751  67.007  1.00  0.00    -0.278 C  
HETATM    9  H   UNL     1      -7.389  14.295  66.528  1.00  0.00     0.000 HD 
HETATM   10  C   UNL     1      -9.233  15.736  67.596  1.00  0.00    -0.200 C  
HETATM   11  C   UNL     1      -7.003   7.741  70.831  1.00  0.00    -0.049 A  
HETATM   12  O   UNL     1      -8.348  15.238  69.700  1.00  0.00    -0.235 OA 
HETATM   13  O   UNL     1      -5.745   8.057  71.265  1.00  0.00    -0.034 OA 
HETATM   14  C   UNL     1      -7.741   8.729  70.151  1.00  0.00    -0.084 A  
HETATM   15  H   UNL     1      -5.382   8.925  71.133  1.00  0.00     0.000 HD 
HETATM   16  C   UNL     1      -8.529  14.826  68.555  1.00  0.00    -0.159 C  
HETATM   17  O   UNL     1      -7.027  13.686  67.162  1.00  0.00    -0.105 OA 
HETATM   18  C   UNL     1      -7.239  10.155  70.091  1.00  0.00    -0.154 C  
HETATM   19  C   UNL     1      -9.904  11.579  67.814  1.00  0.00    -0.186 C  
HETATM   20  C   UNL     1      -7.894  11.115  69.135  1.00  0.00    -0.065 C  
HETATM   21  O   UNL     1      -6.346  10.586  70.816  1.00  0.00    -0.298 OA 
HETATM   22  C   UNL     1      -7.559  12.429  69.075  1.00  0.00     0.121 C  
HETATM   23  C   UNL     1      -9.317  12.846  67.196  1.00  0.00    -0.229 C  
HETATM   24  H   UNL     1     -12.434  15.496  67.436  1.00  0.00     0.000 HD 
HETATM   25  O   UNL     1     -11.591  15.856  67.686  1.00  0.00    -0.157 OA 
HETATM   26  C   UNL     1      -8.147  13.419  68.043  1.00  0.00    -0.160 C  
HETATM   27  O   UNL     1      -6.513  12.952  69.826  1.00  0.00    -0.270 OA 
HETATM   28  H   UNL     1      -6.278  13.872  69.784  1.00  0.00     0.000 HD 
ENDROOT
BRANCH   4  29
HETATM   29  N   UNL     1     -10.863   6.745  69.353  1.00  0.00    -0.255 NA 
HETATM   30  C   UNL     1     -11.148   6.146  68.053  1.00  0.00    -0.214 C  
HETATM   31  C   UNL     1     -11.967   6.668  70.311  1.00  0.00    -0.240 C  
ENDBRANCH   4  29
BRANCH   7  32
HETATM   32  C   UNL     1      -6.840   5.367  71.813  1.00  0.00    -0.065 C  
BRANCH  32  33
HETATM   33  N   UNL     1      -6.551   4.217  70.963  1.00  0.00    -0.029 NA 
HETATM   34  H   UNL     1      -7.189   3.449  71.173  1.00  0.00     0.000 HD 
BRANCH  33  35
HETATM   35  C   UNL     1      -6.560   4.511  69.537  1.00  0.00    -0.036 C  
BRANCH  35  36
HETATM   36  C   UNL     1      -6.990   3.255  68.726  1.00  0.00    -0.049 C  
HETATM   37  C   UNL     1      -8.370   3.459  68.070  1.00  0.00    -0.096 C  
HETATM   38  C   UNL     1      -7.042   2.018  69.644  1.00  0.00    -0.033 C  
HETATM   39  C   UNL     1      -5.961   2.999  67.612  1.00  0.00    -0.027 C  
ENDBRANCH  35  36
ENDBRANCH  33  35
ENDBRANCH  32  33
ENDBRANCH   7  32
BRANCH  10  40
HETATM   40  C   UNL     1      -8.576  16.324  66.388  1.00  0.00    -0.326 C  
HETATM   41  N   UNL     1      -7.269  16.675  66.476  1.00  0.00    -0.239 N  
HETATM   42  H2  UNL     1      -6.748  16.542  67.343  1.00  0.00     0.000 HD 
HETATM   43  H1  UNL     1      -6.821  17.076  65.652  1.00  0.00     0.000 HD 
HETATM   44  O   UNL     1      -9.169  16.550  65.334  1.00  0.00    -0.326 OA 
ENDBRANCH  10  40
BRANCH   8  45
HETATM   45  N   UNL     1     -11.248  13.334  65.745  1.00  0.00    -0.292 NA 
HETATM   46  C   UNL     1     -10.423  13.491  64.546  1.00  0.00    -0.407 C  
HETATM   47  C   UNL     1     -12.552  13.959  65.545  1.00  0.00    -0.526 C  
ENDBRANCH   8  45
TORSDOF 7
ENDMDL
MODEL       47
REMARK 921   NORMALIZED FREE ENERGY PREDICTED BY IDOCK:   -4.82 KCAL/MOL
REMARK 922        TOTAL FREE ENERGY PREDICTED BY IDOCK:   -7.54 KCAL/MOL
REMARK 923 INTER-LIGAND FREE ENERGY PREDICTED BY IDOCK:   -6.89 KCAL/MOL
REMARK 924 INTRA-LIGAND FREE ENERGY PREDICTED BY IDOCK:   -0.65 KCAL/MOL
REMARK 927      BINDING AFFINITY PREDICTED BY RF-SCORE:    0.00 PKD
ROOT
HETATM    1  C   UNL     1      -8.310   9.992  68.764  1.00  0.00    -0.121 C  
HETATM    2  C   UNL     1      -9.383  11.024  68.474  1.00  0.00    -0.188 C  
HETATM    3  C   UNL     1      -8.928  12.425  68.277  1.00  0.00    -0.178 A  
HETATM    4  C   UNL     1      -9.855  13.482  68.442  1.00  0.00    -0.225 A  
HETATM    5  C   UNL     1      -9.342  14.774  68.270  1.00  0.00    -0.199 A  
HETATM    6  C   UNL     1      -8.451   5.109  67.555  1.00  0.00    -0.105 C  
HETATM    7  C   UNL     1      -7.984  15.063  67.996  1.00  0.00    -0.134 A  
HETATM    8  C   UNL     1      -9.077   6.269  68.284  1.00  0.00    -0.113 C  
HETATM    9  H   UNL     1      -5.917   6.348  69.176  1.00  0.00     0.000 HD 
HETATM   10  C   UNL     1      -7.137   5.091  67.291  1.00  0.00    -0.066 C  
HETATM   11  C   UNL     1      -7.110  13.984  67.805  1.00  0.00    -0.173 A  
HETATM   12  O   UNL     1      -6.249   6.612  65.756  1.00  0.00    -0.035 OA 
HETATM   13  O   UNL     1      -5.781  14.183  67.554  1.00  0.00    -0.345 OA 
HETATM   14  C   UNL     1      -7.579  12.660  67.899  1.00  0.00    -0.132 A  
HETATM   15  H   UNL     1      -5.188  13.452  67.425  1.00  0.00     0.000 HD 
HETATM   16  C   UNL     1      -6.652   6.455  66.908  1.00  0.00    -0.055 C  
HETATM   17  O   UNL     1      -5.697   7.231  68.904  1.00  0.00    -0.018 OA 
HETATM   18  C   UNL     1      -6.681  11.501  67.526  1.00  0.00    -0.087 C  
HETATM   19  C   UNL     1      -8.998   8.675  68.504  1.00  0.00    -0.139 C  
HETATM   20  C   UNL     1      -7.105  10.105  67.898  1.00  0.00    -0.085 C  
HETATM   21  O   UNL     1      -5.636  11.634  66.894  1.00  0.00    -0.111 OA 
HETATM   22  C   UNL     1      -6.400   9.005  67.531  1.00  0.00    -0.063 C  
HETATM   23  C   UNL     1      -8.120   7.443  68.713  1.00  0.00    -0.128 C  
HETATM   24  H   UNL     1     -10.263   4.480  66.865  1.00  0.00     0.000 HD 
HETATM   25  O   UNL     1      -9.332   4.467  66.678  1.00  0.00    -0.137 OA 
HETATM   26  C   UNL     1      -6.758   7.568  67.975  1.00  0.00    -0.059 C  
HETATM   27  O   UNL     1      -5.179   9.105  66.873  1.00  0.00    -0.038 OA 
HETATM   28  H   UNL     1      -4.684   8.335  66.617  1.00  0.00     0.000 HD 
ENDROOT
BRANCH   4  29
HETATM   29  N   UNL     1     -11.212  13.334  68.715  1.00  0.00    -0.262 NA 
HETATM   30  C   UNL     1     -11.836  13.630  70.001  1.00  0.00    -0.308 C  
HETATM   31  C   UNL     1     -12.156  13.135  67.615  1.00  0.00    -0.232 C  
ENDBRANCH   4  29
BRANCH   7  32
HETATM   32  C   UNL     1      -7.575  16.517  67.834  1.00  0.00    -0.152 C  
BRANCH  32  33
HETATM   33  N   UNL     1      -8.604  17.407  68.357  1.00  0.00    -0.264 NA 
HETATM   34  H   UNL     1      -8.811  17.182  69.330  1.00  0.00     0.000 HD 
BRANCH  33  35
HETATM   35  C   UNL     1      -8.297  18.824  68.217  1.00  0.00    -0.330 C  
BRANCH  35  36
HETATM   36  C   UNL     1      -8.980  19.406  66.946  1.00  0.00    -0.355 C  
HETATM   37  C   UNL     1      -9.971  18.396  66.333  1.00  0.00    -0.399 C  
HETATM   38  C   UNL     1      -7.919  19.780  65.892  1.00  0.00    -0.289 C  
HETATM   39  C   UNL     1      -9.761  20.674  67.331  1.00  0.00    -0.552 C  
ENDBRANCH  35  36
ENDBRANCH  33  35
ENDBRANCH  32  33
ENDBRANCH   7  32
BRANCH  10  40
HETATM   40  C   UNL     1      -6.450   4.228  68.301  1.00  0.00    -0.038 C  
HETATM   41  N   UNL     1      -5.597   3.273  67.854  1.00  0.00    -0.017 N  
HETATM   42  H2  UNL     1      -5.428   3.147  66.855  1.00  0.00     0.000 HD 
HETATM   43  H1  UNL     1      -5.129   2.684  68.543  1.00  0.00     0.000 HD 
HETATM   44  O   UNL     1      -6.654   4.304  69.513  1.00  0.00    -0.032 OA 
ENDBRANCH  10  40
BRANCH   8  45
HETATM   45  N   UNL     1      -9.943   5.956  69.444  1.00  0.00    -0.166 NA 
HETATM   46  C   UNL     1      -9.839   4.580  69.931  1.00  0.00    -0.227 C  
HETATM   47  C   UNL     1     -11.343   6.308  69.225  1.00  0.00    -0.341 C  
ENDBRANCH   8  45
TORSDOF 7
ENDMDL
MODEL       48
REMARK 921   NORMALIZED FREE ENERGY PREDICTED BY IDOCK:   -4.68 KCAL/MOL
REMARK 922        TOTAL FREE ENERGY PREDICTED BY IDOCK:   -7.35 KCAL/MOL
REMARK 923 INTER-LIGAND FREE ENERGY PREDICTED BY IDOCK:   -7.18 KCAL/MOL
REMARK 924 INTRA-LIGAND FREE ENERGY PREDICTED BY IDOCK:   -0.17 KCAL/MOL
REMARK 927      BINDING AFFINITY PREDICTED BY RF-SCORE:    0.00 PKD
ROOT
HETATM    1  C   UNL     1      -8.410   8.917  69.104  1.00  0.00    -0.124 C  
HETATM    2  C   UNL     1      -8.221   7.415  69.176  1.00  0.00    -0.121 C  
HETATM    3  C   UNL     1      -8.335   6.789  70.519  1.00  0.00    -0.129 A  
HETATM    4  C   UNL     1      -7.754   5.517  70.740  1.00  0.00    -0.091 A  
HETATM    5  C   UNL     1      -7.877   5.010  72.040  1.00  0.00    -0.110 A  
HETATM    6  C   UNL     1     -10.226  11.521  65.199  1.00  0.00    -0.274 C  
HETATM    7  C   UNL     1      -8.490   5.702  73.112  1.00  0.00    -0.117 A  
HETATM    8  C   UNL     1      -9.185  10.575  65.737  1.00  0.00    -0.182 C  
HETATM    9  H   UNL     1      -9.251  13.044  67.902  1.00  0.00     0.000 HD 
HETATM   10  C   UNL     1     -10.861  12.379  66.009  1.00  0.00    -0.308 C  
HETATM   11  C   UNL     1      -9.083   6.942  72.838  1.00  0.00    -0.130 A  
HETATM   12  O   UNL     1     -12.349  11.562  67.614  1.00  0.00    -0.273 OA 
HETATM   13  O   UNL     1      -9.678   7.678  73.825  1.00  0.00    -0.293 OA 
HETATM   14  C   UNL     1      -9.051   7.476  71.535  1.00  0.00    -0.146 A  
HETATM   15  H   UNL     1     -10.080   8.518  73.639  1.00  0.00     0.000 HD 
HETATM   16  C   UNL     1     -11.165  11.740  67.329  1.00  0.00    -0.305 C  
HETATM   17  O   UNL     1      -9.443  12.556  68.695  1.00  0.00    -0.132 OA 
HETATM   18  C   UNL     1      -9.835   8.726  71.200  1.00  0.00    -0.244 C  
HETATM   19  C   UNL     1      -8.648   9.180  67.637  1.00  0.00    -0.117 C  
HETATM   20  C   UNL     1      -9.564   9.425  69.896  1.00  0.00    -0.234 C  
HETATM   21  O   UNL     1     -10.718   9.182  71.924  1.00  0.00    -0.357 OA 
HETATM   22  C   UNL     1     -10.276  10.504  69.483  1.00  0.00    -0.200 C  
HETATM   23  C   UNL     1      -8.887  10.646  67.282  1.00  0.00    -0.137 C  
HETATM   24  H   UNL     1     -10.443  10.417  63.498  1.00  0.00     0.000 HD 
HETATM   25  O   UNL     1     -10.892  11.026  64.072  1.00  0.00    -0.361 OA 
HETATM   26  C   UNL     1      -9.963  11.298  68.194  1.00  0.00    -0.181 C  
HETATM   27  O   UNL     1     -11.240  11.097  70.291  1.00  0.00    -0.467 OA 
HETATM   28  H   UNL     1     -11.739  11.853  70.002  1.00  0.00     0.000 HD 
ENDROOT
BRANCH   4  29
HETATM   29  N   UNL     1      -7.122   4.736  69.777  1.00  0.00    -0.052 NA 
HETATM   30  C   UNL     1      -5.675   4.623  69.620  1.00  0.00    -0.016 C  
HETATM   31  C   UNL     1      -7.893   3.742  69.029  1.00  0.00    -0.052 C  
ENDBRANCH   4  29
BRANCH   7  32
HETATM   32  C   UNL     1      -8.550   5.022  74.469  1.00  0.00    -0.109 C  
BRANCH  32  33
HETATM   33  N   UNL     1      -9.718   4.156  74.565  1.00  0.00    -0.122 NA 
HETATM   34  H   UNL     1     -10.422   4.572  75.175  1.00  0.00     0.000 HD 
BRANCH  33  35
HETATM   35  C   UNL     1     -10.306   3.799  73.281  1.00  0.00    -0.167 C  
BRANCH  35  36
HETATM   36  C   UNL     1     -10.245   2.259  73.065  1.00  0.00    -0.212 C  
HETATM   37  C   UNL     1      -9.180   1.610  73.971  1.00  0.00    -0.068 C  
HETATM   38  C   UNL     1      -9.923   1.939  71.592  1.00  0.00    -0.201 C  
HETATM   39  C   UNL     1     -11.612   1.648  73.415  1.00  0.00    -0.287 C  
ENDBRANCH  35  36
ENDBRANCH  33  35
ENDBRANCH  32  33
ENDBRANCH   7  32
BRANCH  10  40
HETATM   40  C   UNL     1     -10.233  13.729  65.875  1.00  0.00    -0.313 C  
HETATM   41  N   UNL     1     -11.035  14.784  65.590  1.00  0.00    -0.330 N  
HETATM   42  H2  UNL     1     -12.041  14.660  65.470  1.00  0.00     0.000 HD 
HETATM   43  H1  UNL     1     -10.607  15.705  65.498  1.00  0.00     0.000 HD 
HETATM   44  O   UNL     1      -9.021  13.928  65.962  1.00  0.00     0.087 OA 
ENDBRANCH  10  40
BRANCH   8  45
HETATM   45  N   UNL     1      -7.881  10.526  65.036  1.00  0.00    -0.103 NA 
HETATM   46  C   UNL     1      -7.663   9.321  64.235  1.00  0.00    -0.119 C  
HETATM   47  C   UNL     1      -6.745  10.753  65.924  1.00  0.00    -0.084 C  
ENDBRANCH   8  45
TORSDOF 7
ENDMDL
MODEL       49
REMARK 921   NORMALIZED FREE ENERGY PREDICTED BY IDOCK:   -4.63 KCAL/MOL
REMARK 922        TOTAL FREE ENERGY PREDICTED BY IDOCK:   -7.29 KCAL/MOL
REMARK 923 INTER-LIGAND FREE ENERGY PREDICTED BY IDOCK:   -6.62 KCAL/MOL
REMARK 924 INTRA-LIGAND FREE ENERGY PREDICTED BY IDOCK:   -0.67 KCAL/MOL
REMARK 927      BINDING AFFINITY PREDICTED BY RF-SCORE:    0.00 PKD
ROOT
HETATM    1  C   UNL     1      -8.584  11.415  67.426  1.00  0.00    -0.142 C  
HETATM    2  C   UNL     1      -8.006  10.424  66.434  1.00  0.00    -0.130 C  
HETATM    3  C   UNL     1      -8.438   9.009  66.571  1.00  0.00    -0.124 A  
HETATM    4  C   UNL     1      -7.642   7.986  66.004  1.00  0.00    -0.085 A  
HETATM    5  C   UNL     1      -8.099   6.677  66.203  1.00  0.00    -0.118 A  
HETATM    6  C   UNL     1      -9.439  16.308  66.617  1.00  0.00    -0.248 C  
HETATM    7  C   UNL     1      -9.250   6.341  66.955  1.00  0.00    -0.130 A  
HETATM    8  C   UNL     1      -8.457  15.167  66.659  1.00  0.00    -0.195 C  
HETATM    9  H   UNL     1     -10.069  14.967  69.513  1.00  0.00     0.000 HD 
HETATM   10  C   UNL     1     -10.557  16.280  67.355  1.00  0.00    -0.307 C  
HETATM   11  C   UNL     1     -10.028   7.388  67.468  1.00  0.00    -0.173 A  
HETATM   12  O   UNL     1     -12.236  14.739  66.843  1.00  0.00    -0.230 OA 
HETATM   13  O   UNL     1     -11.144   7.143  68.219  1.00  0.00    -0.458 OA 
HETATM   14  C   UNL     1      -9.656   8.728  67.245  1.00  0.00    -0.214 A  
HETATM   15  H   UNL     1     -11.670   7.853  68.566  1.00  0.00     0.000 HD 
HETATM   16  C   UNL     1     -11.142  14.902  67.383  1.00  0.00    -0.325 C  
HETATM   17  O   UNL     1     -10.398  14.078  69.448  1.00  0.00    -0.045 OA 
HETATM   18  C   UNL     1     -10.581   9.857  67.647  1.00  0.00    -0.270 C  
HETATM   19  C   UNL     1      -8.306  12.758  66.797  1.00  0.00     0.010 C  
HETATM   20  C   UNL     1     -10.047  11.264  67.655  1.00  0.00    -0.201 C  
HETATM   21  O   UNL     1     -11.765   9.689  67.930  1.00  0.00     0.400 OA 
HETATM   22  C   UNL     1     -10.829  12.340  67.925  1.00  0.00    -0.218 C  
HETATM   23  C   UNL     1      -8.809  13.955  67.601  1.00  0.00    -0.191 C  
HETATM   24  H   UNL     1      -8.651  17.007  64.871  1.00  0.00     0.000 HD 
HETATM   25  O   UNL     1      -9.444  16.988  65.395  1.00  0.00    -0.326 OA 
HETATM   26  C   UNL     1     -10.292  13.786  68.032  1.00  0.00    -0.246 C  
HETATM   27  O   UNL     1     -12.157  12.200  68.314  1.00  0.00    -0.407 OA 
HETATM   28  H   UNL     1     -12.704  12.954  68.503  1.00  0.00     0.000 HD 
ENDROOT
BRANCH   4  29
HETATM   29  N   UNL     1      -6.489   8.181  65.247  1.00  0.00    -0.051 NA 
HETATM   30  C   UNL     1      -5.160   8.407  65.805  1.00  0.00    -0.027 C  
HETATM   31  C   UNL     1      -6.503   7.883  63.814  1.00  0.00    -0.062 C  
ENDBRANCH   4  29
BRANCH   7  32
HETATM   32  C   UNL     1      -9.624   4.874  67.085  1.00  0.00    -0.159 C  
BRANCH  32  33
HETATM   33  N   UNL     1      -9.430   4.407  68.452  1.00  0.00    -0.148 NA 
HETATM   34  H   UNL     1     -10.307   4.059  68.839  1.00  0.00     0.000 HD 
BRANCH  33  35
HETATM   35  C   UNL     1      -8.378   3.412  68.601  1.00  0.00    -0.073 C  
BRANCH  35  36
HETATM   36  C   UNL     1      -8.034   3.204  70.104  1.00  0.00    -0.050 C  
HETATM   37  C   UNL     1      -6.827   4.065  70.525  1.00  0.00    -0.033 C  
HETATM   38  C   UNL     1      -7.721   1.719  70.380  1.00  0.00    -0.039 C  
HETATM   39  C   UNL     1      -9.244   3.619  70.958  1.00  0.00    -0.196 C  
ENDBRANCH  35  36
ENDBRANCH  33  35
ENDBRANCH  32  33
ENDBRANCH   7  32
BRANCH  10  40
HETATM   40  C   UNL     1     -10.351  17.111  68.581  1.00  0.00    -0.359 C  
HETATM   41  N   UNL     1      -9.388  18.065  68.554  1.00  0.00    -0.300 N  
HETATM   42  H2  UNL     1      -8.819  18.212  67.720  1.00  0.00     0.000 HD 
HETATM   43  H1  UNL     1      -9.247  18.632  69.391  1.00  0.00     0.000 HD 
HETATM   44  O   UNL     1     -10.975  16.944  69.629  1.00  0.00    -0.236 OA 
ENDBRANCH  10  40
BRANCH   8  45
HETATM   45  N   UNL     1      -7.031  15.503  66.883  1.00  0.00    -0.192 NA 
HETATM   46  C   UNL     1      -6.532  15.187  68.222  1.00  0.00    -0.114 C  
HETATM   47  C   UNL     1      -6.708  16.884  66.538  1.00  0.00    -0.201 C  
ENDBRANCH   8  45
TORSDOF 7
ENDMDL
MODEL       50
REMARK 921   NORMALIZED FREE ENERGY PREDICTED BY IDOCK:   -4.54 KCAL/MOL
REMARK 922        TOTAL FREE ENERGY PREDICTED BY IDOCK:   -7.15 KCAL/MOL
REMARK 923 INTER-LIGAND FREE ENERGY PREDICTED BY IDOCK:   -6.92 KCAL/MOL
REMARK 924 INTRA-LIGAND FREE ENERGY PREDICTED BY IDOCK:   -0.23 KCAL/MOL
REMARK 927      BINDING AFFINITY PREDICTED BY RF-SCORE:    0.00 PKD
ROOT
HETATM    1  C   UNL     1      -9.030  12.021  68.919  1.00  0.00     0.200 C  
HETATM    2  C   UNL     1      -7.985  10.960  69.201  1.00  0.00    -0.114 C  
HETATM    3  C   UNL     1      -8.447   9.547  69.202  1.00  0.00    -0.131 A  
HETATM    4  C   UNL     1      -7.673   8.567  69.869  1.00  0.00    -0.091 A  
HETATM    5  C   UNL     1      -8.193   7.266  69.851  1.00  0.00    -0.133 A  
HETATM    6  C   UNL     1      -8.249  16.484  66.730  1.00  0.00    -0.243 C  
HETATM    7  C   UNL     1      -9.428   6.909  69.260  1.00  0.00    -0.147 A  
HETATM    8  C   UNL     1      -7.932  15.534  67.855  1.00  0.00    -0.136 C  
HETATM    9  H   UNL     1     -11.214  15.638  67.767  1.00  0.00     0.000 HD 
HETATM   10  C   UNL     1      -9.427  16.428  66.093  1.00  0.00    -0.363 C  
HETATM   11  C   UNL     1     -10.142   7.904  68.580  1.00  0.00    -0.197 A  
HETATM   12  O   UNL     1      -9.923  14.582  64.751  1.00  0.00    -0.260 OA 
HETATM   13  O   UNL     1     -11.352   7.640  68.000  1.00  0.00    -0.246 OA 
HETATM   14  C   UNL     1      -9.640   9.218  68.506  1.00  0.00    -0.155 A  
HETATM   15  H   UNL     1     -11.835   8.315  67.539  1.00  0.00     0.000 HD 
HETATM   16  C   UNL     1      -9.862  15.008  65.904  1.00  0.00    -0.338 C  
HETATM   17  O   UNL     1     -11.399  14.713  67.650  1.00  0.00    -0.307 OA 
HETATM   18  C   UNL     1     -10.320  10.249  67.631  1.00  0.00    -0.220 C  
HETATM   19  C   UNL     1      -8.217  13.247  68.582  1.00  0.00    -0.014 C  
HETATM   20  C   UNL     1      -9.937  11.696  67.785  1.00  0.00    -0.191 C  
HETATM   21  O   UNL     1     -11.143   9.961  66.765  1.00  0.00    -0.009 OA 
HETATM   22  C   UNL     1     -10.439  12.673  66.987  1.00  0.00    -0.232 C  
HETATM   23  C   UNL     1      -9.042  14.484  68.237  1.00  0.00    -0.196 C  
HETATM   24  H   UNL     1      -6.279  16.951  66.483  1.00  0.00     0.000 HD 
HETATM   25  O   UNL     1      -7.114  16.911  66.031  1.00  0.00    -0.133 OA 
HETATM   26  C   UNL     1     -10.137  14.177  67.178  1.00  0.00    -0.258 C  
HETATM   27  O   UNL     1     -11.421  12.410  66.038  1.00  0.00    -0.343 OA 
HETATM   28  H   UNL     1     -11.771  13.094  65.479  1.00  0.00     0.000 HD 
ENDROOT
BRANCH   4  29
HETATM   29  N   UNL     1      -6.447   8.787  70.490  1.00  0.00    -0.037 NA 
HETATM   30  C   UNL     1      -6.234   8.771  71.934  1.00  0.00    -0.073 C  
HETATM   31  C   UNL     1      -5.218   8.770  69.695  1.00  0.00    -0.030 C  
ENDBRANCH   4  29
BRANCH   7  32
HETATM   32  C   UNL     1      -9.861   5.454  69.319  1.00  0.00    -0.182 C  
BRANCH  32  33
HETATM   33  N   UNL     1      -9.047   4.633  68.431  1.00  0.00    -0.114 NA 
HETATM   34  H   UNL     1      -9.482   3.722  68.288  1.00  0.00     0.000 HD 
BRANCH  33  35
HETATM   35  C   UNL     1      -8.743   5.258  67.151  1.00  0.00    -0.107 C  
BRANCH  35  36
HETATM   36  C   UNL     1      -9.339   4.422  65.982  1.00  0.00    -0.160 C  
HETATM   37  C   UNL     1     -10.847   4.694  65.813  1.00  0.00    -0.077 C  
HETATM   38  C   UNL     1      -9.120   2.917  66.236  1.00  0.00    -0.140 C  
HETATM   39  C   UNL     1      -8.630   4.809  64.674  1.00  0.00    -0.147 C  
ENDBRANCH  35  36
ENDBRANCH  33  35
ENDBRANCH  32  33
ENDBRANCH   7  32
BRANCH  10  40
HETATM   40  C   UNL     1     -10.322  17.498  66.631  1.00  0.00    -0.319 C  
HETATM   41  N   UNL     1     -10.589  17.502  67.961  1.00  0.00    -0.389 N  
HETATM   42  H2  UNL     1     -10.190  16.793  68.577  1.00  0.00     0.000 HD 
HETATM   43  H1  UNL     1     -11.200  18.232  68.328  1.00  0.00     0.000 HD 
HETATM   44  O   UNL     1     -10.867  18.347  65.927  1.00  0.00    -0.283 OA 
ENDBRANCH  10  40
BRANCH   8  45
HETATM   45  N   UNL     1      -7.422  16.119  69.117  1.00  0.00    -0.214 NA 
HETATM   46  C   UNL     1      -7.093  17.543  69.042  1.00  0.00    -0.234 C  
HETATM   47  C   UNL     1      -6.301  15.372  69.681  1.00  0.00    -0.160 C  
ENDBRANCH   8  45
TORSDOF 7
ENDMDL
MODEL       51
REMARK 921   NORMALIZED FREE ENERGY PREDICTED BY IDOCK:   -4.49 KCAL/MOL
REMARK 922        TOTAL FREE ENERGY PREDICTED BY IDOCK:   -7.08 KCAL/MOL
REMARK 923 INTER-LIGAND FREE ENERGY PREDICTED BY IDOCK:   -7.20 KCAL/MOL
REMARK 924 INTRA-LIGAND FREE ENERGY PREDICTED BY IDOCK:    0.12 KCAL/MOL
REMARK 927      BINDING AFFINITY PREDICTED BY RF-SCORE:    0.00 PKD
ROOT
HETATM    1  C   UNL     1      -8.716  11.684  68.456  1.00  0.00    -0.130 C  
HETATM    2  C   UNL     1      -8.172  10.489  67.699  1.00  0.00    -0.111 C  
HETATM    3  C   UNL     1      -8.536   9.144  68.218  1.00  0.00    -0.129 A  
HETATM    4  C   UNL     1      -7.743   8.028  67.860  1.00  0.00    -0.114 A  
HETATM    5  C   UNL     1      -8.132   6.802  68.415  1.00  0.00    -0.119 A  
HETATM    6  C   UNL     1      -9.820  16.199  66.528  1.00  0.00    -0.267 C  
HETATM    7  C   UNL     1      -9.212   6.642  69.315  1.00  0.00    -0.140 A  
HETATM    8  C   UNL     1      -8.793  15.125  66.773  1.00  0.00    -0.271 C  
HETATM    9  H   UNL     1     -10.187  15.615  69.707  1.00  0.00     0.000 HD 
HETATM   10  C   UNL     1     -10.880  16.334  67.336  1.00  0.00    -0.242 C  
HETATM   11  C   UNL     1      -9.992   7.768  69.612  1.00  0.00    -0.190 A  
HETATM   12  O   UNL     1     -12.530  14.680  67.358  1.00  0.00    -0.058 OA 
HETATM   13  O   UNL     1     -11.040   7.696  70.487  1.00  0.00    -0.251 OA 
HETATM   14  C   UNL     1      -9.691   9.016  69.034  1.00  0.00    -0.167 A  
HETATM   15  H   UNL     1     -11.568   8.459  70.687  1.00  0.00     0.000 HD 
HETATM   16  C   UNL     1     -11.407  14.996  67.752  1.00  0.00    -0.330 C  
HETATM   17  O   UNL     1     -10.485  14.731  69.891  1.00  0.00    -0.142 OA 
HETATM   18  C   UNL     1     -10.628  10.190  69.215  1.00  0.00    -0.230 C  
HETATM   19  C   UNL     1      -8.538  12.832  67.494  1.00  0.00    -0.187 C  
HETATM   20  C   UNL     1     -10.152  11.565  68.831  1.00  0.00    -0.144 C  
HETATM   21  O   UNL     1     -11.781  10.075  69.624  1.00  0.00    -0.158 OA 
HETATM   22  C   UNL     1     -10.954  12.658  68.887  1.00  0.00    -0.229 C  
HETATM   23  C   UNL     1      -9.028  14.182  68.012  1.00  0.00    -0.183 C  
HETATM   24  H   UNL     1      -9.189  16.455  64.606  1.00  0.00     0.000 HD 
HETATM   25  O   UNL     1      -9.940  16.551  65.179  1.00  0.00    -0.481 OA 
HETATM   26  C   UNL     1     -10.469  14.096  68.588  1.00  0.00    -0.250 C  
HETATM   27  O   UNL     1     -12.244  12.594  69.403  1.00  0.00    -0.200 OA 
HETATM   28  H   UNL     1     -12.806  13.359  69.441  1.00  0.00     0.000 HD 
ENDROOT
BRANCH   4  29
HETATM   29  N   UNL     1      -6.656   8.051  66.990  1.00  0.00    -0.056 NA 
HETATM   30  C   UNL     1      -5.604   9.062  67.004  1.00  0.00    -0.041 C  
HETATM   31  C   UNL     1      -6.355   6.873  66.175  1.00  0.00    -0.050 C  
ENDBRANCH   4  29
BRANCH   7  32
HETATM   32  C   UNL     1      -9.518   5.247  69.834  1.00  0.00    -0.155 C  
BRANCH  32  33
HETATM   33  N   UNL     1      -9.635   5.248  71.288  1.00  0.00    -0.154 NA 
HETATM   34  H   UNL     1     -10.343   5.918  71.588  1.00  0.00     0.000 HD 
BRANCH  33  35
HETATM   35  C   UNL     1      -9.897   3.938  71.868  1.00  0.00    -0.178 C  
BRANCH  35  36
HETATM   36  C   UNL     1     -10.788   4.073  73.136  1.00  0.00    -0.274 C  
HETATM   37  C   UNL     1      -9.941   4.398  74.382  1.00  0.00    -0.218 C  
HETATM   38  C   UNL     1     -11.572   2.767  73.379  1.00  0.00    -0.114 C  
HETATM   39  C   UNL     1     -11.793   5.218  72.924  1.00  0.00    -0.159 C  
ENDBRANCH  35  36
ENDBRANCH  33  35
ENDBRANCH  32  33
ENDBRANCH   7  32
BRANCH  10  40
HETATM   40  C   UNL     1     -10.620  17.450  68.297  1.00  0.00    -0.366 C  
HETATM   41  N   UNL     1      -9.934  18.532  67.852  1.00  0.00    -0.329 N  
HETATM   42  H2  UNL     1      -9.604  18.583  66.888  1.00  0.00     0.000 HD 
HETATM   43  H1  UNL     1      -9.756  19.293  68.508  1.00  0.00     0.000 HD 
HETATM   44  O   UNL     1     -10.953  17.420  69.482  1.00  0.00     0.116 OA 
ENDBRANCH  10  40
BRANCH   8  45
HETATM   45  N   UNL     1      -7.369  15.536  66.793  1.00  0.00    -0.123 NA 
HETATM   46  C   UNL     1      -6.686  15.311  68.068  1.00  0.00    -0.144 C  
HETATM   47  C   UNL     1      -7.165  16.912  66.349  1.00  0.00    -0.234 C  
ENDBRANCH   8  45
TORSDOF 7
ENDMDL
MODEL       52
REMARK 921   NORMALIZED FREE ENERGY PREDICTED BY IDOCK:   -4.41 KCAL/MOL
REMARK 922        TOTAL FREE ENERGY PREDICTED BY IDOCK:   -6.97 KCAL/MOL
REMARK 923 INTER-LIGAND FREE ENERGY PREDICTED BY IDOCK:   -7.01 KCAL/MOL
REMARK 924 INTRA-LIGAND FREE ENERGY PREDICTED BY IDOCK:    0.04 KCAL/MOL
REMARK 927      BINDING AFFINITY PREDICTED BY RF-SCORE:    0.00 PKD
ROOT
HETATM    1  C   UNL     1      -8.574  11.552  67.028  1.00  0.00    -0.161 C  
HETATM    2  C   UNL     1      -7.948  10.777  65.885  1.00  0.00    -0.140 C  
HETATM    3  C   UNL     1      -8.223   9.318  65.834  1.00  0.00    -0.116 A  
HETATM    4  C   UNL     1      -7.356   8.476  65.098  1.00  0.00    -0.081 A  
HETATM    5  C   UNL     1      -7.665   7.110  65.125  1.00  0.00    -0.116 A  
HETATM    6  C   UNL     1      -9.969  16.386  66.958  1.00  0.00    -0.261 C  
HETATM    7  C   UNL     1      -8.736   6.550  65.862  1.00  0.00    -0.149 A  
HETATM    8  C   UNL     1      -8.874  15.365  66.801  1.00  0.00    -0.269 C  
HETATM    9  H   UNL     1     -10.309  14.597  69.653  1.00  0.00     0.000 HD 
HETATM   10  C   UNL     1     -11.040  16.134  67.724  1.00  0.00    -0.254 C  
HETATM   11  C   UNL     1      -9.590   7.424  66.546  1.00  0.00    -0.164 A  
HETATM   12  O   UNL     1     -12.575  14.504  67.058  1.00  0.00    -0.051 OA 
HETATM   13  O   UNL     1     -10.635   6.957  67.294  1.00  0.00    -0.244 OA 
HETATM   14  C   UNL     1      -9.370   8.815  66.504  1.00  0.00    -0.260 A  
HETATM   15  H   UNL     1     -11.213   7.550  67.758  1.00  0.00     0.000 HD 
HETATM   16  C   UNL     1     -11.477  14.710  67.576  1.00  0.00    -0.361 C  
HETATM   17  O   UNL     1     -10.548  13.695  69.474  1.00  0.00     0.038 OA 
HETATM   18  C   UNL     1     -10.385   9.769  67.096  1.00  0.00    -0.248 C  
HETATM   19  C   UNL     1      -8.469  12.991  66.589  1.00  0.00     0.091 C  
HETATM   20  C   UNL     1     -10.000  11.211  67.286  1.00  0.00    -0.211 C  
HETATM   21  O   UNL     1     -11.529   9.436  67.394  1.00  0.00     0.428 OA 
HETATM   22  C   UNL     1     -10.874  12.148  67.735  1.00  0.00    -0.224 C  
HETATM   23  C   UNL     1      -9.051  14.004  67.572  1.00  0.00    -0.196 C  
HETATM   24  H   UNL     1      -9.348  17.402  65.303  1.00  0.00     0.000 HD 
HETATM   25  O   UNL     1     -10.107  17.224  65.846  1.00  0.00    -0.478 OA 
HETATM   26  C   UNL     1     -10.485  13.615  68.027  1.00  0.00    -0.248 C  
HETATM   27  O   UNL     1     -12.159  11.811  68.147  1.00  0.00    -0.556 OA 
HETATM   28  H   UNL     1     -12.770  12.467  68.461  1.00  0.00     0.000 HD 
ENDROOT
BRANCH   4  29
HETATM   29  N   UNL     1      -6.270   8.899  64.336  1.00  0.00    -0.070 NA 
HETATM   30  C   UNL     1      -5.141   9.665  64.855  1.00  0.00    -0.045 C  
HETATM   31  C   UNL     1      -6.061   8.342  62.999  1.00  0.00    -0.081 C  
ENDBRANCH   4  29
BRANCH   7  32
HETATM   32  C   UNL     1      -8.949   5.047  65.794  1.00  0.00    -0.145 C  
BRANCH  32  33
HETATM   33  N   UNL     1      -9.806   4.695  64.667  1.00  0.00    -0.368 NA 
HETATM   34  H   UNL     1     -10.425   5.471  64.434  1.00  0.00     0.000 HD 
BRANCH  33  35
HETATM   35  C   UNL     1      -9.084   4.246  63.484  1.00  0.00    -0.138 C  
BRANCH  35  36
HETATM   36  C   UNL     1      -8.569   2.791  63.681  1.00  0.00    -0.086 C  
HETATM   37  C   UNL     1      -8.763   2.323  65.137  1.00  0.00    -0.116 C  
HETATM   38  C   UNL     1      -7.075   2.699  63.311  1.00  0.00    -0.040 C  
HETATM   39  C   UNL     1      -9.363   1.849  62.762  1.00  0.00    -0.090 C  
ENDBRANCH  35  36
ENDBRANCH  33  35
ENDBRANCH  32  33
ENDBRANCH   7  32
BRANCH  10  40
HETATM   40  C   UNL     1     -10.859  16.805  69.048  1.00  0.00    -0.291 C  
HETATM   41  N   UNL     1     -11.492  16.279  70.125  1.00  0.00    -0.415 N  
HETATM   42  H2  UNL     1     -12.076  15.448  70.035  1.00  0.00     0.000 HD 
HETATM   43  H1  UNL     1     -11.369  16.737  71.029  1.00  0.00     0.000 HD 
HETATM   44  O   UNL     1     -10.204  17.837  69.205  1.00  0.00    -0.346 OA 
ENDBRANCH  10  40
BRANCH   8  45
HETATM   45  N   UNL     1      -7.481  15.821  67.020  1.00  0.00    -0.218 NA 
HETATM   46  C   UNL     1      -7.122  16.037  68.422  1.00  0.00    -0.125 C  
HETATM   47  C   UNL     1      -7.131  16.993  66.223  1.00  0.00    -0.201 C  
ENDBRANCH   8  45
TORSDOF 7
ENDMDL
MODEL       53
REMARK 921   NORMALIZED FREE ENERGY PREDICTED BY IDOCK:   -4.35 KCAL/MOL
REMARK 922        TOTAL FREE ENERGY PREDICTED BY IDOCK:   -6.89 KCAL/MOL
REMARK 923 INTER-LIGAND FREE ENERGY PREDICTED BY IDOCK:   -5.91 KCAL/MOL
REMARK 924 INTRA-LIGAND FREE ENERGY PREDICTED BY IDOCK:   -0.97 KCAL/MOL
REMARK 927      BINDING AFFINITY PREDICTED BY RF-SCORE:    0.00 PKD
ROOT
HETATM    1  C   UNL     1      -9.332   7.086  69.245  1.00  0.00    -0.145 C  
HETATM    2  C   UNL     1      -8.293   7.858  68.455  1.00  0.00    -0.124 C  
HETATM    3  C   UNL     1      -8.589   9.287  68.176  1.00  0.00    -0.125 A  
HETATM    4  C   UNL     1      -7.921   9.935  67.110  1.00  0.00    -0.109 A  
HETATM    5  C   UNL     1      -8.277  11.272  66.891  1.00  0.00    -0.153 A  
HETATM    6  C   UNL     1      -8.473   3.202  72.326  1.00  0.00    -0.075 C  
HETATM    7  C   UNL     1      -9.268  11.964  67.628  1.00  0.00    -0.183 A  
HETATM    8  C   UNL     1      -8.367   3.791  70.944  1.00  0.00    -0.066 C  
HETATM    9  H   UNL     1     -11.500   4.270  71.804  1.00  0.00     0.000 HD 
HETATM   10  C   UNL     1      -9.427   3.606  73.175  1.00  0.00    -0.134 C  
HETATM   11  C   UNL     1      -9.877  11.294  68.697  1.00  0.00    -0.202 A  
HETATM   12  O   UNL     1      -9.354   5.774  74.041  1.00  0.00    -0.129 OA 
HETATM   13  O   UNL     1     -10.855  11.890  69.444  1.00  0.00    -0.420 OA 
HETATM   14  C   UNL     1      -9.514   9.970  69.009  1.00  0.00    -0.190 A  
HETATM   15  H   UNL     1     -11.268  11.435  70.169  1.00  0.00     0.000 HD 
HETATM   16  C   UNL     1      -9.646   5.083  73.065  1.00  0.00    -0.142 C  
HETATM   17  O   UNL     1     -11.550   5.214  71.704  1.00  0.00     0.314 OA 
HETATM   18  C   UNL     1     -10.042   9.306  70.263  1.00  0.00    -0.219 C  
HETATM   19  C   UNL     1      -8.593   5.856  69.708  1.00  0.00    -0.129 C  
HETATM   20  C   UNL     1      -9.868   7.820  70.425  1.00  0.00    -0.183 C  
HETATM   21  O   UNL     1     -10.573   9.926  71.181  1.00  0.00    -0.250 OA 
HETATM   22  C   UNL     1     -10.240   7.159  71.551  1.00  0.00    -0.197 C  
HETATM   23  C   UNL     1      -9.422   4.893  70.555  1.00  0.00    -0.232 C  
HETATM   24  H   UNL     1      -6.568   2.479  72.235  1.00  0.00     0.000 HD 
HETATM   25  O   UNL     1      -7.245   2.766  72.836  1.00  0.00    -0.038 OA 
HETATM   26  C   UNL     1     -10.159   5.624  71.712  1.00  0.00    -0.192 C  
HETATM   27  O   UNL     1     -10.903   7.802  72.591  1.00  0.00    -0.292 OA 
HETATM   28  H   UNL     1     -11.163   7.339  73.379  1.00  0.00     0.000 HD 
ENDROOT
BRANCH   4  29
HETATM   29  N   UNL     1      -6.932   9.370  66.309  1.00  0.00    -0.086 NA 
HETATM   30  C   UNL     1      -5.529   9.242  66.690  1.00  0.00    -0.042 C  
HETATM   31  C   UNL     1      -7.312   8.600  65.123  1.00  0.00    -0.088 C  
ENDBRANCH   4  29
BRANCH   7  32
HETATM   32  C   UNL     1      -9.546  13.416  67.276  1.00  0.00    -0.234 C  
BRANCH  32  33
HETATM   33  N   UNL     1     -10.743  13.530  66.451  1.00  0.00    -0.286 NA 
HETATM   34  H   UNL     1     -11.301  14.332  66.741  1.00  0.00     0.000 HD 
BRANCH  33  35
HETATM   35  C   UNL     1     -10.479  13.584  65.019  1.00  0.00    -0.376 C  
BRANCH  35  36
HETATM   36  C   UNL     1     -11.450  12.642  64.252  1.00  0.00    -0.420 C  
HETATM   37  C   UNL     1     -11.798  13.211  62.862  1.00  0.00     0.512 C  
HETATM   38  C   UNL     1     -12.749  12.441  65.058  1.00  0.00    -0.170 C  
HETATM   39  C   UNL     1     -10.775  11.274  64.057  1.00  0.00    -0.444 C  
ENDBRANCH  35  36
ENDBRANCH  33  35
ENDBRANCH  32  33
ENDBRANCH   7  32
BRANCH  10  40
HETATM   40  C   UNL     1     -10.540   2.608  73.167  1.00  0.00    -0.163 C  
HETATM   41  N   UNL     1     -10.388   1.485  72.422  1.00  0.00    -0.146 N  
HETATM   42  H2  UNL     1      -9.538   1.326  71.881  1.00  0.00     0.000 HD 
HETATM   43  H1  UNL     1     -11.148   0.803  72.416  1.00  0.00     0.000 HD 
HETATM   44  O   UNL     1     -11.606   2.771  73.762  1.00  0.00    -0.162 OA 
ENDBRANCH  10  40
BRANCH   8  45
HETATM   45  N   UNL     1      -8.273   2.846  69.806  1.00  0.00    -0.044 NA 
HETATM   46  C   UNL     1      -7.032   2.941  69.035  1.00  0.00    -0.044 C  
HETATM   47  C   UNL     1      -9.427   2.909  68.914  1.00  0.00    -0.104 C  
ENDBRANCH   8  45
TORSDOF 7
ENDMDL
MODEL       54
REMARK 921   NORMALIZED FREE ENERGY PREDICTED BY IDOCK:   -4.15 KCAL/MOL
REMARK 922        TOTAL FREE ENERGY PREDICTED BY IDOCK:   -6.61 KCAL/MOL
REMARK 923 INTER-LIGAND FREE ENERGY PREDICTED BY IDOCK:   -6.95 KCAL/MOL
REMARK 924 INTRA-LIGAND FREE ENERGY PREDICTED BY IDOCK:    0.35 KCAL/MOL
REMARK 927      BINDING AFFINITY PREDICTED BY RF-SCORE:    0.00 PKD
ROOT
HETATM    1  C   UNL     1      -7.471   9.413  68.142  1.00  0.00    -0.079 C  
HETATM    2  C   UNL     1      -7.133  10.563  69.070  1.00  0.00    -0.081 C  
HETATM    3  C   UNL     1      -7.420  11.933  68.572  1.00  0.00    -0.117 A  
HETATM    4  C   UNL     1      -6.753  13.036  69.157  1.00  0.00    -0.087 A  
HETATM    5  C   UNL     1      -7.054  14.290  68.611  1.00  0.00    -0.111 A  
HETATM    6  C   UNL     1      -8.820   4.761  69.506  1.00  0.00    -0.087 C  
HETATM    7  C   UNL     1      -7.925  14.493  67.515  1.00  0.00    -0.208 A  
HETATM    8  C   UNL     1      -7.796   5.865  69.551  1.00  0.00    -0.098 C  
HETATM    9  H   UNL     1      -8.529   5.553  66.365  1.00  0.00     0.000 HD 
HETATM   10  C   UNL     1      -9.683   4.664  68.486  1.00  0.00    -0.208 C  
HETATM   11  C   UNL     1      -8.592  13.378  66.991  1.00  0.00    -0.158 A  
HETATM   12  O   UNL     1     -11.339   6.290  68.220  1.00  0.00    -0.289 OA 
HETATM   13  O   UNL     1      -9.435  13.492  65.920  1.00  0.00    -0.479 OA 
HETATM   14  C   UNL     1      -8.381  12.098  67.539  1.00  0.00    -0.166 A  
HETATM   15  H   UNL     1      -9.886  12.736  65.565  1.00  0.00     0.000 HD 
HETATM   16  C   UNL     1     -10.150   6.019  68.053  1.00  0.00    -0.159 C  
HETATM   17  O   UNL     1      -8.808   6.442  66.178  1.00  0.00    -0.145 OA 
HETATM   18  C   UNL     1      -9.225  10.924  67.091  1.00  0.00    -0.148 C  
HETATM   19  C   UNL     1      -7.464   8.206  69.046  1.00  0.00    -0.088 C  
HETATM   20  C   UNL     1      -8.799   9.534  67.480  1.00  0.00    -0.130 C  
HETATM   21  O   UNL     1     -10.269  11.048  66.456  1.00  0.00    -0.218 OA 
HETATM   22  C   UNL     1      -9.539   8.435  67.188  1.00  0.00    -0.179 C  
HETATM   23  C   UNL     1      -7.795   6.886  68.352  1.00  0.00    -0.121 C  
HETATM   24  H   UNL     1      -8.598   4.387  71.499  1.00  0.00     0.000 HD 
HETATM   25  O   UNL     1      -9.209   4.317  70.775  1.00  0.00    -0.117 OA 
HETATM   26  C   UNL     1      -9.085   6.989  67.492  1.00  0.00    -0.122 C  
HETATM   27  O   UNL     1     -10.693   8.514  66.417  1.00  0.00    -0.168 OA 
HETATM   28  H   UNL     1     -11.212   7.744  66.212  1.00  0.00     0.000 HD 
ENDROOT
BRANCH   4  29
HETATM   29  N   UNL     1      -5.873  12.972  70.234  1.00  0.00    -0.159 NA 
HETATM   30  C   UNL     1      -5.643  14.057  71.183  1.00  0.00    -0.212 C  
HETATM   31  C   UNL     1      -5.324  11.679  70.647  1.00  0.00    -0.141 C  
ENDBRANCH   4  29
BRANCH   7  32
HETATM   32  C   UNL     1      -8.156  15.915  67.031  1.00  0.00    -0.230 C  
BRANCH  32  33
HETATM   33  N   UNL     1      -7.546  16.878  67.940  1.00  0.00    -0.168 NA 
HETATM   34  H   UNL     1      -6.874  16.415  68.552  1.00  0.00     0.000 HD 
BRANCH  33  35
HETATM   35  C   UNL     1      -6.929  18.019  67.277  1.00  0.00    -0.187 C  
BRANCH  35  36
HETATM   36  C   UNL     1      -7.667  19.334  67.659  1.00  0.00    -0.288 C  
HETATM   37  C   UNL     1      -8.721  19.085  68.756  1.00  0.00    -0.351 C  
HETATM   38  C   UNL     1      -8.355  19.939  66.419  1.00  0.00    -0.368 C  
HETATM   39  C   UNL     1      -6.642  20.347  68.196  1.00  0.00    -0.338 C  
ENDBRANCH  35  36
ENDBRANCH  33  35
ENDBRANCH  32  33
ENDBRANCH   7  32
BRANCH  10  40
HETATM   40  C   UNL     1      -9.194   3.620  67.534  1.00  0.00    -0.189 C  
HETATM   41  N   UNL     1      -9.796   3.524  66.322  1.00  0.00    -0.416 N  
HETATM   42  H2  UNL     1     -10.562   4.149  66.067  1.00  0.00     0.000 HD 
HETATM   43  H1  UNL     1      -9.462   2.812  65.673  1.00  0.00     0.000 HD 
HETATM   44  O   UNL     1      -8.307   2.811  67.807  1.00  0.00    -0.077 OA 
ENDBRANCH  10  40
BRANCH   8  45
HETATM   45  N   UNL     1      -6.389   5.479  69.807  1.00  0.00    -0.032 NA 
HETATM   46  C   UNL     1      -5.871   5.886  71.114  1.00  0.00    -0.025 C  
HETATM   47  C   UNL     1      -5.477   5.908  68.749  1.00  0.00    -0.007 C  
ENDBRANCH   8  45
TORSDOF 7
ENDMDL
MODEL       55
REMARK 921   NORMALIZED FREE ENERGY PREDICTED BY IDOCK:   -4.09 KCAL/MOL
REMARK 922        TOTAL FREE ENERGY PREDICTED BY IDOCK:   -6.52 KCAL/MOL
REMARK 923 INTER-LIGAND FREE ENERGY PREDICTED BY IDOCK:   -6.05 KCAL/MOL
REMARK 924 INTRA-LIGAND FREE ENERGY PREDICTED BY IDOCK:   -0.47 KCAL/MOL
REMARK 927      BINDING AFFINITY PREDICTED BY RF-SCORE:    0.00 PKD
ROOT
HETATM    1  C   UNL     1      -9.829   9.565  68.748  1.00  0.00    -0.177 C  
HETATM    2  C   UNL     1      -9.427   8.791  69.988  1.00  0.00    -0.176 C  
HETATM    3  C   UNL     1      -8.619   7.562  69.778  1.00  0.00    -0.140 A  
HETATM    4  C   UNL     1      -8.582   6.577  70.795  1.00  0.00    -0.135 A  
HETATM    5  C   UNL     1      -7.825   5.434  70.508  1.00  0.00    -0.093 A  
HETATM    6  C   UNL     1     -10.612  14.526  68.437  1.00  0.00    -0.244 C  
HETATM    7  C   UNL     1      -7.157   5.207  69.281  1.00  0.00    -0.056 A  
HETATM    8  C   UNL     1     -10.974  13.207  69.068  1.00  0.00    -0.197 C  
HETATM    9  H   UNL     1     -11.020  12.613  65.838  1.00  0.00     0.000 HD 
HETATM   10  C   UNL     1     -10.081  14.577  67.208  1.00  0.00    -0.247 C  
HETATM   11  C   UNL     1      -7.191   6.225  68.318  1.00  0.00    -0.085 A  
HETATM   12  O   UNL     1      -7.927  13.748  66.849  1.00  0.00    -0.013 OA 
HETATM   13  O   UNL     1      -6.586   6.072  67.101  1.00  0.00    -0.051 OA 
HETATM   14  C   UNL     1      -7.881   7.426  68.572  1.00  0.00    -0.122 A  
HETATM   15  H   UNL     1      -6.609   6.762  66.449  1.00  0.00     0.000 HD 
HETATM   16  C   UNL     1      -9.113  13.454  66.999  1.00  0.00    -0.243 C  
HETATM   17  O   UNL     1     -10.393  11.900  65.798  1.00  0.00    -0.232 OA 
HETATM   18  C   UNL     1      -7.776   8.588  67.610  1.00  0.00    -0.102 C  
HETATM   19  C   UNL     1     -10.250  10.911  69.283  1.00  0.00    -0.190 C  
HETATM   20  C   UNL     1      -8.732   9.741  67.757  1.00  0.00    -0.129 C  
HETATM   21  O   UNL     1      -6.918   8.662  66.733  1.00  0.00    -0.074 OA 
HETATM   22  C   UNL     1      -8.655  10.857  66.989  1.00  0.00    -0.136 C  
HETATM   23  C   UNL     1     -10.698  11.910  68.219  1.00  0.00    -0.253 C  
HETATM   24  H   UNL     1     -10.646  15.473  70.243  1.00  0.00     0.000 HD 
HETATM   25  O   UNL     1     -10.270  15.509  69.371  1.00  0.00    -0.227 OA 
HETATM   26  C   UNL     1      -9.676  12.016  67.053  1.00  0.00    -0.196 C  
HETATM   27  O   UNL     1      -7.746  10.963  65.941  1.00  0.00    -0.237 OA 
HETATM   28  H   UNL     1      -7.693  11.744  65.403  1.00  0.00     0.000 HD 
ENDROOT
BRANCH   4  29
HETATM   29  N   UNL     1      -9.195   6.676  72.041  1.00  0.00    -0.143 NA 
HETATM   30  C   UNL     1      -8.610   7.341  73.202  1.00  0.00    -0.133 C  
HETATM   31  C   UNL     1     -10.615   6.351  72.180  1.00  0.00    -0.220 C  
ENDBRANCH   4  29
BRANCH   7  32
HETATM   32  C   UNL     1      -6.372   3.918  69.115  1.00  0.00    -0.029 C  
BRANCH  32  33
HETATM   33  N   UNL     1      -7.245   2.827  68.697  1.00  0.00    -0.048 NA 
HETATM   34  H   UNL     1      -8.211   3.022  68.961  1.00  0.00     0.000 HD 
BRANCH  33  35
HETATM   35  C   UNL     1      -7.161   2.504  67.279  1.00  0.00    -0.052 C  
BRANCH  35  36
HETATM   36  C   UNL     1      -8.530   2.750  66.583  1.00  0.00    -0.102 C  
HETATM   37  C   UNL     1      -9.028   1.480  65.866  1.00  0.00    -0.102 C  
HETATM   38  C   UNL     1      -8.411   3.898  65.561  1.00  0.00    -0.105 C  
HETATM   39  C   UNL     1      -9.570   3.143  67.646  1.00  0.00    -0.105 C  
ENDBRANCH  35  36
ENDBRANCH  33  35
ENDBRANCH  32  33
ENDBRANCH   7  32
BRANCH  10  40
HETATM   40  C   UNL     1     -11.154  14.931  66.229  1.00  0.00    -0.340 C  
HETATM   41  N   UNL     1     -12.328  14.255  66.292  1.00  0.00    -0.428 N  
HETATM   42  H2  UNL     1     -12.475  13.524  66.989  1.00  0.00     0.000 HD 
HETATM   43  H1  UNL     1     -13.060  14.496  65.624  1.00  0.00     0.000 HD 
HETATM   44  O   UNL     1     -11.014  15.769  65.338  1.00  0.00    -0.345 OA 
ENDBRANCH  10  40
BRANCH   8  45
HETATM   45  N   UNL     1     -12.333  13.078  69.645  1.00  0.00    -0.127 NA 
HETATM   46  C   UNL     1     -13.021  14.349  69.877  1.00  0.00     0.252 C  
HETATM   47  C   UNL     1     -12.366  12.259  70.853  1.00  0.00    -0.267 C  
ENDBRANCH   8  45
TORSDOF 7
ENDMDL
MODEL       56
REMARK 921   NORMALIZED FREE ENERGY PREDICTED BY IDOCK:   -3.77 KCAL/MOL
REMARK 922        TOTAL FREE ENERGY PREDICTED BY IDOCK:   -6.07 KCAL/MOL
REMARK 923 INTER-LIGAND FREE ENERGY PREDICTED BY IDOCK:   -6.66 KCAL/MOL
REMARK 924 INTRA-LIGAND FREE ENERGY PREDICTED BY IDOCK:    0.58 KCAL/MOL
REMARK 927      BINDING AFFINITY PREDICTED BY RF-SCORE:    0.00 PKD
ROOT
HETATM    1  C   UNL     1      -8.557  12.278  68.354  1.00  0.00    -0.136 C  
HETATM    2  C   UNL     1      -9.397  11.264  69.107  1.00  0.00     0.082 C  
HETATM    3  C   UNL     1      -8.696  10.052  69.605  1.00  0.00    -0.210 A  
HETATM    4  C   UNL     1      -9.452   8.894  69.910  1.00  0.00    -0.170 A  
HETATM    5  C   UNL     1      -8.716   7.784  70.343  1.00  0.00    -0.139 A  
HETATM    6  C   UNL     1      -9.332  17.246  68.151  1.00  0.00    -0.274 C  
HETATM    7  C   UNL     1      -7.304   7.753  70.443  1.00  0.00    -0.069 A  
HETATM    8  C   UNL     1      -9.852  15.855  67.899  1.00  0.00    -0.218 C  
HETATM    9  H   UNL     1      -6.871  15.880  66.521  1.00  0.00     0.000 HD 
HETATM   10  C   UNL     1      -8.015  17.496  68.162  1.00  0.00    -0.250 C  
HETATM   11  C   UNL     1      -6.601   8.933  70.166  1.00  0.00    -0.040 A  
HETATM   12  O   UNL     1      -6.692  16.627  69.880  1.00  0.00    -0.112 OA 
HETATM   13  O   UNL     1      -5.235   8.976  70.224  1.00  0.00    -0.027 OA 
HETATM   14  C   UNL     1      -7.289  10.102  69.789  1.00  0.00    -0.159 A  
HETATM   15  H   UNL     1      -4.759   9.776  70.036  1.00  0.00     0.000 HD 
HETATM   16  C   UNL     1      -7.266  16.379  68.820  1.00  0.00    -0.191 C  
HETATM   17  O   UNL     1      -6.474  15.152  66.986  1.00  0.00    -0.227 OA 
HETATM   18  C   UNL     1      -6.551  11.417  69.658  1.00  0.00    -0.128 C  
HETATM   19  C   UNL     1      -9.411  13.522  68.352  1.00  0.00    -0.171 C  
HETATM   20  C   UNL     1      -7.244  12.574  68.990  1.00  0.00     0.002 C  
HETATM   21  O   UNL     1      -5.423  11.604  70.106  1.00  0.00    -0.086 OA 
HETATM   22  C   UNL     1      -6.686  13.808  68.903  1.00  0.00    -0.108 C  
HETATM   23  C   UNL     1      -8.782  14.726  67.655  1.00  0.00    -0.183 C  
HETATM   24  H   UNL     1     -11.114  17.838  68.946  1.00  0.00     0.000 HD 
HETATM   25  O   UNL     1     -10.180  18.016  68.954  1.00  0.00    -0.379 OA 
HETATM   26  C   UNL     1      -7.331  14.991  68.145  1.00  0.00    -0.115 C  
HETATM   27  O   UNL     1      -5.388  14.055  69.336  1.00  0.00    -0.082 OA 
HETATM   28  H   UNL     1      -4.997  14.919  69.274  1.00  0.00     0.000 HD 
ENDROOT
BRANCH   4  29
HETATM   29  N   UNL     1     -10.839   8.792  69.851  1.00  0.00    -0.226 NA 
HETATM   30  C   UNL     1     -11.605   7.632  70.297  1.00  0.00    -0.060 C  
HETATM   31  C   UNL     1     -11.644   9.987  69.590  1.00  0.00    -0.096 C  
ENDBRANCH   4  29
BRANCH   7  32
HETATM   32  C   UNL     1      -6.644   6.475  70.931  1.00  0.00    -0.053 C  
BRANCH  32  33
HETATM   33  N   UNL     1      -7.531   5.740  71.826  1.00  0.00    -0.093 NA 
HETATM   34  H   UNL     1      -8.454   6.174  71.848  1.00  0.00     0.000 HD 
BRANCH  33  35
HETATM   35  C   UNL     1      -7.643   4.320  71.523  1.00  0.00    -0.068 C  
BRANCH  35  36
HETATM   36  C   UNL     1      -8.929   3.727  72.169  1.00  0.00    -0.143 C  
HETATM   37  C   UNL     1     -10.102   4.724  72.094  1.00  0.00    -0.252 C  
HETATM   38  C   UNL     1      -8.666   3.360  73.643  1.00  0.00    -0.081 C  
HETATM   39  C   UNL     1      -9.331   2.452  71.408  1.00  0.00    -0.197 C  
ENDBRANCH  35  36
ENDBRANCH  33  35
ENDBRANCH  32  33
ENDBRANCH   7  32
BRANCH  10  40
HETATM   40  C   UNL     1      -7.622  18.087  66.846  1.00  0.00    -0.213 C  
HETATM   41  N   UNL     1      -6.380  18.618  66.727  1.00  0.00    -0.180 N  
HETATM   42  H2  UNL     1      -5.731  18.614  67.515  1.00  0.00     0.000 HD 
HETATM   43  H1  UNL     1      -6.112  19.021  65.829  1.00  0.00     0.000 HD 
HETATM   44  O   UNL     1      -8.381  18.161  65.879  1.00  0.00    -0.513 OA 
ENDBRANCH  10  40
BRANCH   8  45
HETATM   45  N   UNL     1     -10.906  15.698  66.870  1.00  0.00    -0.308 NA 
HETATM   46  C   UNL     1     -11.826  14.584  67.102  1.00  0.00    -0.387 C  
HETATM   47  C   UNL     1     -10.373  15.636  65.511  1.00  0.00    -0.396 C  
ENDBRANCH   8  45
TORSDOF 7
ENDMDL
MODEL       57
REMARK 921   NORMALIZED FREE ENERGY PREDICTED BY IDOCK:   -3.67 KCAL/MOL
REMARK 922        TOTAL FREE ENERGY PREDICTED BY IDOCK:   -5.93 KCAL/MOL
REMARK 923 INTER-LIGAND FREE ENERGY PREDICTED BY IDOCK:   -6.16 KCAL/MOL
REMARK 924 INTRA-LIGAND FREE ENERGY PREDICTED BY IDOCK:    0.23 KCAL/MOL
REMARK 927      BINDING AFFINITY PREDICTED BY RF-SCORE:    0.00 PKD
ROOT
HETATM    1  C   UNL     1     -10.235   9.580  68.750  1.00  0.00    -0.215 C  
HETATM    2  C   UNL     1      -9.881   8.702  69.935  1.00  0.00    -0.185 C  
HETATM    3  C   UNL     1      -9.236   7.398  69.633  1.00  0.00    -0.146 A  
HETATM    4  C   UNL     1      -9.279   6.366  70.601  1.00  0.00    -0.158 A  
HETATM    5  C   UNL     1      -8.676   5.157  70.229  1.00  0.00    -0.132 A  
HETATM    6  C   UNL     1     -10.426  14.608  68.702  1.00  0.00    -0.244 C  
HETATM    7  C   UNL     1      -8.090   4.915  68.964  1.00  0.00    -0.079 A  
HETATM    8  C   UNL     1     -10.919  13.311  69.287  1.00  0.00    -0.089 C  
HETATM    9  H   UNL     1     -11.162  12.891  66.039  1.00  0.00     0.000 HD 
HETATM   10  C   UNL     1      -9.940  14.659  67.454  1.00  0.00    -0.231 C  
HETATM   11  C   UNL     1      -8.037   5.977  68.051  1.00  0.00    -0.110 A  
HETATM   12  O   UNL     1      -7.917  13.599  66.962  1.00  0.00    -0.091 OA 
HETATM   13  O   UNL     1      -7.503   5.815  66.803  1.00  0.00    -0.081 OA 
HETATM   14  C   UNL     1      -8.568   7.236  68.391  1.00  0.00    -0.124 A  
HETATM   15  H   UNL     1      -7.468   6.535  66.185  1.00  0.00     0.000 HD 
HETATM   16  C   UNL     1      -9.124  13.441  67.151  1.00  0.00    -0.235 C  
HETATM   17  O   UNL     1     -10.627  12.112  65.939  1.00  0.00    -0.244 OA 
HETATM   18  C   UNL     1      -8.360   8.426  67.479  1.00  0.00    -0.129 C  
HETATM   19  C   UNL     1     -10.469  10.937  69.365  1.00  0.00    -0.205 C  
HETATM   20  C   UNL     1      -9.164   9.675  67.721  1.00  0.00    -0.135 C  
HETATM   21  O   UNL     1      -7.535   8.442  66.568  1.00  0.00    -0.080 OA 
HETATM   22  C   UNL     1      -8.983  10.811  67.002  1.00  0.00    -0.141 C  
HETATM   23  C   UNL     1     -10.835  12.035  68.368  1.00  0.00    -0.266 C  
HETATM   24  H   UNL     1     -10.275  15.459  70.549  1.00  0.00     0.000 HD 
HETATM   25  O   UNL     1      -9.931  15.495  69.664  1.00  0.00    -0.262 OA 
HETATM   26  C   UNL     1      -9.853  12.079  67.164  1.00  0.00    -0.196 C  
HETATM   27  O   UNL     1      -8.109  10.861  65.921  1.00  0.00    -0.171 OA 
HETATM   28  H   UNL     1      -7.982  11.657  65.417  1.00  0.00     0.000 HD 
ENDROOT
BRANCH   4  29
HETATM   29  N   UNL     1      -9.826   6.473  71.877  1.00  0.00    -0.158 NA 
HETATM   30  C   UNL     1      -9.048   6.610  73.104  1.00  0.00    -0.127 C  
HETATM   31  C   UNL     1     -11.257   6.741  72.032  1.00  0.00    -0.262 C  
ENDBRANCH   4  29
BRANCH   7  32
HETATM   32  C   UNL     1      -7.472   3.551  68.705  1.00  0.00    -0.053 C  
BRANCH  32  33
HETATM   33  N   UNL     1      -6.337   3.318  69.590  1.00  0.00    -0.028 NA 
HETATM   34  H   UNL     1      -5.987   4.202  69.962  1.00  0.00     0.000 HD 
BRANCH  33  35
HETATM   35  C   UNL     1      -6.605   2.381  70.672  1.00  0.00    -0.032 C  
BRANCH  35  36
HETATM   36  C   UNL     1      -6.170   2.988  72.037  1.00  0.00    -0.014 C  
HETATM   37  C   UNL     1      -5.201   2.049  72.782  1.00  0.00     0.000 C  
HETATM   38  C   UNL     1      -7.404   3.252  72.922  1.00  0.00    -0.050 C  
HETATM   39  C   UNL     1      -5.449   4.324  71.786  1.00  0.00     0.000 C  
ENDBRANCH  35  36
ENDBRANCH  33  35
ENDBRANCH  32  33
ENDBRANCH   7  32
BRANCH  10  40
HETATM   40  C   UNL     1     -11.000  15.186  66.541  1.00  0.00    -0.318 C  
HETATM   41  N   UNL     1     -12.286  14.828  66.777  1.00  0.00    -0.304 N  
HETATM   42  H2  UNL     1     -12.524  14.214  67.557  1.00  0.00     0.000 HD 
HETATM   43  H1  UNL     1     -13.010  15.187  66.154  1.00  0.00     0.000 HD 
HETATM   44  O   UNL     1     -10.764  15.889  65.558  1.00  0.00    -0.361 OA 
ENDBRANCH  10  40
BRANCH   8  45
HETATM   45  N   UNL     1     -12.260  13.315  69.918  1.00  0.00    -0.282 NA 
HETATM   46  C   UNL     1     -12.375  14.165  71.104  1.00  0.00    -0.372 C  
HETATM   47  C   UNL     1     -12.760  11.974  70.209  1.00  0.00     0.152 C  
ENDBRANCH   8  45
TORSDOF 7
ENDMDL
MODEL       58
REMARK 921   NORMALIZED FREE ENERGY PREDICTED BY IDOCK:   -3.63 KCAL/MOL
REMARK 922        TOTAL FREE ENERGY PREDICTED BY IDOCK:   -5.88 KCAL/MOL
REMARK 923 INTER-LIGAND FREE ENERGY PREDICTED BY IDOCK:   -6.38 KCAL/MOL
REMARK 924 INTRA-LIGAND FREE ENERGY PREDICTED BY IDOCK:    0.50 KCAL/MOL
REMARK 927      BINDING AFFINITY PREDICTED BY RF-SCORE:    0.00 PKD
ROOT
HETATM    1  C   UNL     1      -7.440  10.738  67.517  1.00  0.00    -0.093 C  
HETATM    2  C   UNL     1      -7.028  11.549  68.729  1.00  0.00    -0.096 C  
HETATM    3  C   UNL     1      -7.493  12.960  68.781  1.00  0.00    -0.047 A  
HETATM    4  C   UNL     1      -6.814  13.881  69.613  1.00  0.00     0.011 A  
HETATM    5  C   UNL     1      -7.293  15.197  69.582  1.00  0.00    -0.191 A  
HETATM    6  C   UNL     1      -8.201   5.766  67.361  1.00  0.00    -0.102 C  
HETATM    7  C   UNL     1      -8.354  15.641  68.757  1.00  0.00    -0.189 A  
HETATM    8  C   UNL     1      -7.266   6.912  67.642  1.00  0.00    -0.091 C  
HETATM    9  H   UNL     1      -8.517   7.580  64.680  1.00  0.00     0.000 HD 
HETATM   10  C   UNL     1      -9.219   5.904  66.500  1.00  0.00    -0.154 C  
HETATM   11  C   UNL     1      -9.021  14.686  67.977  1.00  0.00    -0.174 A  
HETATM   12  O   UNL     1     -11.007   7.305  67.047  1.00  0.00    -0.358 OA 
HETATM   13  O   UNL     1     -10.043  15.041  67.141  1.00  0.00    -0.237 OA 
HETATM   14  C   UNL     1      -8.629  13.334  68.014  1.00  0.00    -0.178 A  
HETATM   15  H   UNL     1     -10.495  14.394  66.613  1.00  0.00     0.000 HD 
HETATM   16  C   UNL     1      -9.849   7.256  66.633  1.00  0.00    -0.187 C  
HETATM   17  O   UNL     1      -8.886   8.439  64.853  1.00  0.00    -0.085 OA 
HETATM   18  C   UNL     1      -9.452  12.278  67.309  1.00  0.00    -0.186 C  
HETATM   19  C   UNL     1      -7.192   9.310  67.937  1.00  0.00    -0.079 C  
HETATM   20  C   UNL     1      -8.868  10.903  67.130  1.00  0.00    -0.135 C  
HETATM   21  O   UNL     1     -10.597  12.473  66.909  1.00  0.00    -0.233 OA 
HETATM   22  C   UNL     1      -9.569   9.878  66.581  1.00  0.00    -0.184 C  
HETATM   23  C   UNL     1      -7.544   8.264  66.883  1.00  0.00    -0.092 C  
HETATM   24  H   UNL     1      -7.611   4.786  69.049  1.00  0.00     0.000 HD 
HETATM   25  O   UNL     1      -8.332   4.883  68.438  1.00  0.00    -0.091 OA 
HETATM   26  C   UNL     1      -8.968   8.482  66.300  1.00  0.00    -0.168 C  
HETATM   27  O   UNL     1     -10.842  10.062  66.054  1.00  0.00     0.059 OA 
HETATM   28  H   UNL     1     -11.333   9.344  65.670  1.00  0.00     0.000 HD 
ENDROOT
BRANCH   4  29
HETATM   29  N   UNL     1      -5.758  13.576  70.468  1.00  0.00    -0.157 NA 
HETATM   30  C   UNL     1      -5.126  14.527  71.377  1.00  0.00    -0.142 C  
HETATM   31  C   UNL     1      -5.399  12.178  70.708  1.00  0.00    -0.155 C  
ENDBRANCH   4  29
BRANCH   7  32
HETATM   32  C   UNL     1      -8.764  17.101  68.833  1.00  0.00    -0.185 C  
BRANCH  32  33
HETATM   33  N   UNL     1      -8.269  17.841  67.678  1.00  0.00    -0.228 NA 
HETATM   34  H   UNL     1      -7.550  17.305  67.192  1.00  0.00     0.000 HD 
BRANCH  33  35
HETATM   35  C   UNL     1      -9.307  18.259  66.745  1.00  0.00    -0.295 C  
BRANCH  35  36
HETATM   36  C   UNL     1      -9.601  19.778  66.905  1.00  0.00    -0.494 C  
HETATM   37  C   UNL     1     -10.407  20.320  65.708  1.00  0.00    -0.267 C  
HETATM   38  C   UNL     1      -8.282  20.567  67.030  1.00  0.00    -0.314 C  
HETATM   39  C   UNL     1     -10.429  19.998  68.182  1.00  0.00    -0.428 C  
ENDBRANCH  35  36
ENDBRANCH  33  35
ENDBRANCH  32  33
ENDBRANCH   7  32
BRANCH  10  40
HETATM   40  C   UNL     1      -8.831   5.303  65.188  1.00  0.00    -0.129 C  
HETATM   41  N   UNL     1      -9.537   4.236  64.737  1.00  0.00    -0.166 N  
HETATM   42  H2  UNL     1     -10.312   3.854  65.279  1.00  0.00     0.000 HD 
HETATM   43  H1  UNL     1      -9.272   3.826  63.841  1.00  0.00     0.000 HD 
HETATM   44  O   UNL     1      -7.876   5.693  64.516  1.00  0.00    -0.100 OA 
ENDBRANCH  10  40
BRANCH   8  45
HETATM   45  N   UNL     1      -5.812   6.644  67.549  1.00  0.00    -0.016 NA 
HETATM   46  C   UNL     1      -5.462   5.415  66.834  1.00  0.00    -0.012 C  
HETATM   47  C   UNL     1      -5.139   6.681  68.845  1.00  0.00    -0.012 C  
ENDBRANCH   8  45
TORSDOF 7
ENDMDL
MODEL       59
REMARK 921   NORMALIZED FREE ENERGY PREDICTED BY IDOCK:   -3.43 KCAL/MOL
REMARK 922        TOTAL FREE ENERGY PREDICTED BY IDOCK:   -5.60 KCAL/MOL
REMARK 923 INTER-LIGAND FREE ENERGY PREDICTED BY IDOCK:   -6.25 KCAL/MOL
REMARK 924 INTRA-LIGAND FREE ENERGY PREDICTED BY IDOCK:    0.65 KCAL/MOL
REMARK 927      BINDING AFFINITY PREDICTED BY RF-SCORE:    0.00 PKD
ROOT
HETATM    1  C   UNL     1     -10.581  12.071  68.580  1.00  0.00    -0.252 C  
HETATM    2  C   UNL     1     -11.099  11.342  69.805  1.00  0.00    -0.198 C  
HETATM    3  C   UNL     1     -10.998   9.860  69.795  1.00  0.00    -0.304 A  
HETATM    4  C   UNL     1     -11.828   9.105  70.658  1.00  0.00    -0.175 A  
HETATM    5  C   UNL     1     -11.695   7.714  70.568  1.00  0.00    -0.148 A  
HETATM    6  C   UNL     1      -8.617  16.702  68.460  1.00  0.00    -0.234 C  
HETATM    7  C   UNL     1     -10.836   7.052  69.658  1.00  0.00    -0.275 A  
HETATM    8  C   UNL     1      -9.788  15.813  68.788  1.00  0.00    -0.214 C  
HETATM    9  H   UNL     1      -8.945  14.965  65.729  1.00  0.00     0.000 HD 
HETATM   10  C   UNL     1      -7.726  16.348  67.523  1.00  0.00    -0.164 C  
HETATM   11  C   UNL     1     -10.007   7.840  68.848  1.00  0.00    -0.182 A  
HETATM   12  O   UNL     1      -6.312  14.530  67.909  1.00  0.00    -0.136 OA 
HETATM   13  O   UNL     1      -9.164   7.274  67.932  1.00  0.00    -0.132 OA 
HETATM   14  C   UNL     1     -10.046   9.245  68.939  1.00  0.00    -0.207 A  
HETATM   15  H   UNL     1      -8.602   7.808  67.384  1.00  0.00     0.000 HD 
HETATM   16  C   UNL     1      -7.446  14.879  67.584  1.00  0.00    -0.185 C  
HETATM   17  O   UNL     1      -8.791  14.036  65.858  1.00  0.00     0.328 OA 
HETATM   18  C   UNL     1      -9.035  10.089  68.195  1.00  0.00    -0.122 C  
HETATM   19  C   UNL     1     -10.437  13.499  69.044  1.00  0.00    -0.075 C  
HETATM   20  C   UNL     1      -9.269  11.572  68.085  1.00  0.00    -0.181 C  
HETATM   21  O   UNL     1      -8.004   9.632  67.707  1.00  0.00    -0.104 OA 
HETATM   22  C   UNL     1      -8.374  12.411  67.505  1.00  0.00    -0.173 C  
HETATM   23  C   UNL     1      -9.906  14.464  67.986  1.00  0.00    -0.221 C  
HETATM   24  H   UNL     1      -8.830  17.736  70.204  1.00  0.00     0.000 HD 
HETATM   25  O   UNL     1      -8.198  17.486  69.540  1.00  0.00     0.272 OA 
HETATM   26  C   UNL     1      -8.625  13.922  67.294  1.00  0.00    -0.211 C  
HETATM   27  O   UNL     1      -7.224  11.937  66.881  1.00  0.00    -0.250 OA 
HETATM   28  H   UNL     1      -6.598  12.525  66.475  1.00  0.00     0.000 HD 
ENDROOT
BRANCH   4  29
HETATM   29  N   UNL     1     -12.714   9.631  71.595  1.00  0.00    -0.375 NA 
HETATM   30  C   UNL     1     -13.321   8.868  72.681  1.00  0.00    -0.318 C  
HETATM   31  C   UNL     1     -12.873  11.081  71.710  1.00  0.00    -0.391 C  
ENDBRANCH   4  29
BRANCH   7  32
HETATM   32  C   UNL     1     -10.798   5.534  69.676  1.00  0.00    -0.209 C  
BRANCH  32  33
HETATM   33  N   UNL     1      -9.937   5.048  70.748  1.00  0.00    -0.206 NA 
HETATM   34  H   UNL     1      -9.672   5.814  71.367  1.00  0.00     0.000 HD 
BRANCH  33  35
HETATM   35  C   UNL     1     -10.500   3.946  71.515  1.00  0.00     0.297 C  
BRANCH  35  36
HETATM   36  C   UNL     1      -9.625   3.653  72.768  1.00  0.00    -0.180 C  
HETATM   37  C   UNL     1      -9.721   2.171  73.181  1.00  0.00    -0.138 C  
HETATM   38  C   UNL     1     -10.068   4.540  73.948  1.00  0.00    -0.215 C  
HETATM   39  C   UNL     1      -8.156   3.967  72.439  1.00  0.00    -0.086 C  
ENDBRANCH  35  36
ENDBRANCH  33  35
ENDBRANCH  32  33
ENDBRANCH   7  32
BRANCH  10  40
HETATM   40  C   UNL     1      -8.040  17.074  66.254  1.00  0.00    -0.297 C  
HETATM   41  N   UNL     1      -7.052  17.791  65.664  1.00  0.00    -0.142 N  
HETATM   42  H2  UNL     1      -6.119  17.833  66.075  1.00  0.00     0.000 HD 
HETATM   43  H1  UNL     1      -7.266  18.286  64.799  1.00  0.00     0.000 HD 
HETATM   44  O   UNL     1      -9.159  17.096  65.742  1.00  0.00    -0.525 OA 
ENDBRANCH  10  40
BRANCH   8  45
HETATM   45  N   UNL     1     -11.132  16.436  68.809  1.00  0.00    -0.342 NA 
HETATM   46  C   UNL     1     -11.943  16.102  69.981  1.00  0.00    -0.044 C  
HETATM   47  C   UNL     1     -11.892  16.197  67.586  1.00  0.00     0.467 C  
ENDBRANCH   8  45
TORSDOF 7
ENDMDL
MODEL       60
REMARK 921   NORMALIZED FREE ENERGY PREDICTED BY IDOCK:   -3.29 KCAL/MOL
REMARK 922        TOTAL FREE ENERGY PREDICTED BY IDOCK:   -5.39 KCAL/MOL
REMARK 923 INTER-LIGAND FREE ENERGY PREDICTED BY IDOCK:   -7.10 KCAL/MOL
REMARK 924 INTRA-LIGAND FREE ENERGY PREDICTED BY IDOCK:    1.70 KCAL/MOL
REMARK 927      BINDING AFFINITY PREDICTED BY RF-SCORE:    0.00 PKD
ROOT
HETATM    1  C   UNL     1      -8.828   9.821  68.055  1.00  0.00    -0.119 C  
HETATM    2  C   UNL     1      -8.090  11.119  68.319  1.00  0.00    -0.131 C  
HETATM    3  C   UNL     1      -8.918  12.345  68.456  1.00  0.00    -0.058 A  
HETATM    4  C   UNL     1      -8.316  13.611  68.263  1.00  0.00    -0.165 A  
HETATM    5  C   UNL     1      -9.169  14.716  68.379  1.00  0.00    -0.197 A  
HETATM    6  C   UNL     1      -7.371   5.211  69.452  1.00  0.00    -0.057 C  
HETATM    7  C   UNL     1     -10.560  14.626  68.625  1.00  0.00    -0.252 A  
HETATM    8  C   UNL     1      -7.073   6.474  68.687  1.00  0.00    -0.083 C  
HETATM    9  H   UNL     1     -10.111   5.645  67.752  1.00  0.00     0.000 HD 
HETATM   10  C   UNL     1      -8.635   4.839  69.699  1.00  0.00    -0.100 C  
HETATM   11  C   UNL     1     -11.107  13.354  68.846  1.00  0.00    -0.266 A  
HETATM   12  O   UNL     1      -9.943   6.104  71.164  1.00  0.00    -0.179 OA 
HETATM   13  O   UNL     1     -12.445  13.185  69.072  1.00  0.00    -0.016 OA 
HETATM   14  C   UNL     1     -10.287  12.209  68.808  1.00  0.00    -0.168 A  
HETATM   15  H   UNL     1     -12.814  12.323  69.221  1.00  0.00     0.000 HD 
HETATM   16  C   UNL     1      -9.486   6.027  70.023  1.00  0.00    -0.156 C  
HETATM   17  O   UNL     1     -10.573   6.441  67.988  1.00  0.00    -0.196 OA 
HETATM   18  C   UNL     1     -10.838  10.860  69.214  1.00  0.00    -0.241 C  
HETATM   19  C   UNL     1      -7.809   8.755  68.374  1.00  0.00    -0.104 C  
HETATM   20  C   UNL     1     -10.037   9.625  68.901  1.00  0.00    -0.198 C  
HETATM   21  O   UNL     1     -11.894  10.719  69.827  1.00  0.00    -0.287 OA 
HETATM   22  C   UNL     1     -10.419   8.385  69.300  1.00  0.00    -0.215 C  
HETATM   23  C   UNL     1      -8.308   7.323  68.201  1.00  0.00    -0.124 C  
HETATM   24  H   UNL     1      -5.472   5.132  70.188  1.00  0.00     0.000 HD 
HETATM   25  O   UNL     1      -6.367   4.867  70.363  1.00  0.00    -0.024 OA 
HETATM   26  C   UNL     1      -9.668   7.090  68.916  1.00  0.00    -0.144 C  
HETATM   27  O   UNL     1     -11.635   8.165  69.938  1.00  0.00    -0.456 OA 
HETATM   28  H   UNL     1     -11.903   7.297  70.217  1.00  0.00     0.000 HD 
ENDROOT
BRANCH   4  29
HETATM   29  N   UNL     1      -6.965  13.836  68.013  1.00  0.00    -0.118 NA 
HETATM   30  C   UNL     1      -5.949  12.790  67.941  1.00  0.00    -0.118 C  
HETATM   31  C   UNL     1      -6.526  15.142  67.520  1.00  0.00    -0.109 C  
ENDBRANCH   4  29
BRANCH   7  32
HETATM   32  C   UNL     1     -11.359  15.914  68.726  1.00  0.00    -0.378 C  
BRANCH  32  33
HETATM   33  N   UNL     1     -11.786  16.155  70.099  1.00  0.00    -0.381 NA 
HETATM   34  H   UNL     1     -12.253  17.058  70.175  1.00  0.00     0.000 HD 
BRANCH  33  35
HETATM   35  C   UNL     1     -12.620  15.101  70.660  1.00  0.00    -0.395 C  
BRANCH  35  36
HETATM   36  C   UNL     1     -12.881  15.361  72.172  1.00  0.00    -0.466 C  
HETATM   37  C   UNL     1     -14.381  15.579  72.450  1.00  0.00    -0.475 C  
HETATM   38  C   UNL     1     -12.090  16.597  72.645  1.00  0.00    -0.237 C  
HETATM   39  C   UNL     1     -12.413  14.139  72.979  1.00  0.00    -0.111 C  
ENDBRANCH  35  36
ENDBRANCH  33  35
ENDBRANCH  32  33
ENDBRANCH   7  32
BRANCH  10  40
HETATM   40  C   UNL     1      -9.032   3.786  68.714  1.00  0.00    -0.124 C  
HETATM   41  N   UNL     1      -9.659   2.677  69.180  1.00  0.00    -0.065 N  
HETATM   42  H2  UNL     1      -9.853   2.564  70.175  1.00  0.00     0.000 HD 
HETATM   43  H1  UNL     1      -9.930   1.958  68.508  1.00  0.00     0.000 HD 
HETATM   44  O   UNL     1      -8.780   3.849  67.511  1.00  0.00    -0.099 OA 
ENDBRANCH  10  40
BRANCH   8  45
HETATM   45  N   UNL     1      -6.129   6.375  67.550  1.00  0.00    -0.023 NA 
HETATM   46  C   UNL     1      -6.741   6.538  66.231  1.00  0.00    -0.053 C  
HETATM   47  C   UNL     1      -5.319   5.160  67.583  1.00  0.00    -0.012 C  
ENDBRANCH   8  45
TORSDOF 7
ENDMDL
MODEL       61
REMARK 921   NORMALIZED FREE ENERGY PREDICTED BY IDOCK:   -3.27 KCAL/MOL
REMARK 922        TOTAL FREE ENERGY PREDICTED BY IDOCK:   -5.37 KCAL/MOL
REMARK 923 INTER-LIGAND FREE ENERGY PREDICTED BY IDOCK:   -5.49 KCAL/MOL
REMARK 924 INTRA-LIGAND FREE ENERGY PREDICTED BY IDOCK:    0.11 KCAL/MOL
REMARK 927      BINDING AFFINITY PREDICTED BY RF-SCORE:    0.00 PKD
ROOT
HETATM    1  C   UNL     1      -8.539  12.811  68.170  1.00  0.00    -0.185 C  
HETATM    2  C   UNL     1      -9.424  11.851  68.941  1.00  0.00     0.095 C  
HETATM    3  C   UNL     1      -8.790  10.598  69.427  1.00  0.00    -0.037 A  
HETATM    4  C   UNL     1      -9.609   9.489  69.748  1.00  0.00    -0.216 A  
HETATM    5  C   UNL     1      -8.934   8.336  70.168  1.00  0.00    -0.142 A  
HETATM    6  C   UNL     1      -9.010  17.817  67.975  1.00  0.00    -0.263 C  
HETATM    7  C   UNL     1      -7.525   8.218  70.240  1.00  0.00    -0.066 A  
HETATM    8  C   UNL     1      -9.620  16.461  67.736  1.00  0.00    -0.231 C  
HETATM    9  H   UNL     1      -6.672  16.302  66.297  1.00  0.00     0.000 HD 
HETATM   10  C   UNL     1      -7.681  17.986  67.959  1.00  0.00    -0.250 C  
HETATM   11  C   UNL     1      -6.757   9.352  69.948  1.00  0.00    -0.058 A  
HETATM   12  O   UNL     1      -6.380  17.038  69.651  1.00  0.00    -0.236 OA 
HETATM   13  O   UNL     1      -5.390   9.311  69.977  1.00  0.00    -0.028 OA 
HETATM   14  C   UNL     1      -7.379  10.562  69.582  1.00  0.00    -0.151 A  
HETATM   15  H   UNL     1      -4.869  10.080  69.779  1.00  0.00     0.000 HD 
HETATM   16  C   UNL     1      -6.989  16.825  68.603  1.00  0.00    -0.180 C  
HETATM   17  O   UNL     1      -6.311  15.551  66.756  1.00  0.00    -0.105 OA 
HETATM   18  C   UNL     1      -6.564  11.828  69.434  1.00  0.00    -0.113 C  
HETATM   19  C   UNL     1      -9.314  14.105  68.183  1.00  0.00    -0.206 C  
HETATM   20  C   UNL     1      -7.198  13.026  68.779  1.00  0.00    -0.082 C  
HETATM   21  O   UNL     1      -5.418  11.946  69.860  1.00  0.00    -0.077 OA 
HETATM   22  C   UNL     1      -6.566  14.223  68.678  1.00  0.00    -0.090 C  
HETATM   23  C   UNL     1      -8.626  15.268  67.471  1.00  0.00    -0.190 C  
HETATM   24  H   UNL     1     -10.736  18.519  68.805  1.00  0.00     0.000 HD 
HETATM   25  O   UNL     1      -9.794  18.639  68.793  1.00  0.00    -0.368 OA 
HETATM   26  C   UNL     1      -7.153  15.443  67.932  1.00  0.00    -0.140 C  
HETATM   27  O   UNL     1      -5.247  14.390  69.085  1.00  0.00    -0.079 OA 
HETATM   28  H   UNL     1      -4.805  15.229  69.014  1.00  0.00     0.000 HD 
ENDROOT
BRANCH   4  29
HETATM   29  N   UNL     1     -11.001   9.473  69.717  1.00  0.00    -0.233 NA 
HETATM   30  C   UNL     1     -11.852   9.197  70.870  1.00  0.00    -0.270 C  
HETATM   31  C   UNL     1     -11.707  10.022  68.559  1.00  0.00     0.367 C  
ENDBRANCH   4  29
BRANCH   7  32
HETATM   32  C   UNL     1      -6.935   6.902  70.716  1.00  0.00    -0.066 C  
BRANCH  32  33
HETATM   33  N   UNL     1      -6.345   6.165  69.605  1.00  0.00    -0.033 NA 
HETATM   34  H   UNL     1      -5.411   5.835  69.851  1.00  0.00     0.000 HD 
BRANCH  33  35
HETATM   35  C   UNL     1      -7.162   5.062  69.117  1.00  0.00    -0.057 C  
BRANCH  35  36
HETATM   36  C   UNL     1      -6.816   4.745  67.634  1.00  0.00    -0.060 C  
HETATM   37  C   UNL     1      -6.882   3.230  67.357  1.00  0.00    -0.046 C  
HETATM   38  C   UNL     1      -5.405   5.263  67.291  1.00  0.00    -0.012 C  
HETATM   39  C   UNL     1      -7.834   5.446  66.719  1.00  0.00    -0.101 C  
ENDBRANCH  35  36
ENDBRANCH  33  35
ENDBRANCH  32  33
ENDBRANCH   7  32
BRANCH  10  40
HETATM   40  C   UNL     1      -7.278  18.551  66.635  1.00  0.00    -0.216 C  
HETATM   41  N   UNL     1      -5.991  18.399  66.237  1.00  0.00    -0.158 N  
HETATM   42  H2  UNL     1      -5.315  17.911  66.826  1.00  0.00     0.000 HD 
HETATM   43  H1  UNL     1      -5.716  18.785  65.333  1.00  0.00     0.000 HD 
HETATM   44  O   UNL     1      -8.040  19.189  65.907  1.00  0.00    -0.449 OA 
ENDBRANCH  10  40
BRANCH   8  45
HETATM   45  N   UNL     1     -10.702  16.369  66.727  1.00  0.00    -0.239 NA 
HETATM   46  C   UNL     1     -10.805  15.071  66.059  1.00  0.00    -0.334 C  
HETATM   47  C   UNL     1     -10.656  17.443  65.739  1.00  0.00    -0.182 C  
ENDBRANCH   8  45
TORSDOF 7
ENDMDL
MODEL       62
REMARK 921   NORMALIZED FREE ENERGY PREDICTED BY IDOCK:   -3.23 KCAL/MOL
REMARK 922        TOTAL FREE ENERGY PREDICTED BY IDOCK:   -5.31 KCAL/MOL
REMARK 923 INTER-LIGAND FREE ENERGY PREDICTED BY IDOCK:   -5.12 KCAL/MOL
REMARK 924 INTRA-LIGAND FREE ENERGY PREDICTED BY IDOCK:   -0.19 KCAL/MOL
REMARK 927      BINDING AFFINITY PREDICTED BY RF-SCORE:    0.00 PKD
ROOT
HETATM    1  C   UNL     1     -10.036  12.156  68.728  1.00  0.00    -0.098 C  
HETATM    2  C   UNL     1     -10.918  11.562  69.809  1.00  0.00    -0.055 C  
HETATM    3  C   UNL     1     -10.711  10.126  70.129  1.00  0.00    -0.355 A  
HETATM    4  C   UNL     1     -11.744   9.406  70.774  1.00  0.00    -0.282 A  
HETATM    5  C   UNL     1     -11.484   8.050  71.013  1.00  0.00    -0.300 A  
HETATM    6  C   UNL     1      -8.519  16.943  68.397  1.00  0.00    -0.239 C  
HETATM    7  C   UNL     1     -10.302   7.383  70.613  1.00  0.00    -0.217 A  
HETATM    8  C   UNL     1      -9.658  15.959  68.460  1.00  0.00    -0.205 C  
HETATM    9  H   UNL     1      -7.676  14.771  66.126  1.00  0.00     0.000 HD 
HETATM   10  C   UNL     1      -7.320  16.576  67.924  1.00  0.00    -0.148 C  
HETATM   11  C   UNL     1      -9.291   8.143  70.010  1.00  0.00    -0.159 A  
HETATM   12  O   UNL     1      -6.020  15.059  69.135  1.00  0.00    -0.095 OA 
HETATM   13  O   UNL     1      -8.128   7.566  69.581  1.00  0.00    -0.122 OA 
HETATM   14  C   UNL     1      -9.466   9.525  69.803  1.00  0.00    -0.228 A  
HETATM   15  H   UNL     1      -7.444   8.082  69.172  1.00  0.00     0.000 HD 
HETATM   16  C   UNL     1      -6.974  15.189  68.368  1.00  0.00    -0.108 C  
HETATM   17  O   UNL     1      -7.513  13.905  66.482  1.00  0.00     0.748 OA 
HETATM   18  C   UNL     1      -8.316  10.377  69.311  1.00  0.00    -0.155 C  
HETATM   19  C   UNL     1     -10.182  13.645  68.921  1.00  0.00    -0.088 C  
HETATM   20  C   UNL     1      -8.601  11.776  68.836  1.00  0.00     0.110 C  
HETATM   21  O   UNL     1      -7.146  10.000  69.319  1.00  0.00    -0.062 OA 
HETATM   22  C   UNL     1      -7.619  12.633  68.455  1.00  0.00    -0.121 C  
HETATM   23  C   UNL     1      -9.369  14.498  67.950  1.00  0.00    -0.201 C  
HETATM   24  H   UNL     1      -9.442  18.196  69.714  1.00  0.00     0.000 HD 
HETATM   25  O   UNL     1      -8.592  17.936  69.379  1.00  0.00     0.203 OA 
HETATM   26  C   UNL     1      -7.885  14.041  67.877  1.00  0.00    -0.160 C  
HETATM   27  O   UNL     1      -6.289  12.235  68.383  1.00  0.00    -0.050 OA 
HETATM   28  H   UNL     1      -5.601  12.835  68.117  1.00  0.00     0.000 HD 
ENDROOT
BRANCH   4  29
HETATM   29  N   UNL     1     -12.952   9.940  71.214  1.00  0.00    -0.373 NA 
HETATM   30  C   UNL     1     -13.135  11.317  71.662  1.00  0.00    -0.408 C  
HETATM   31  C   UNL     1     -14.197   9.208  70.981  1.00  0.00     0.188 C  
ENDBRANCH   4  29
BRANCH   7  32
HETATM   32  C   UNL     1     -10.161   5.906  70.943  1.00  0.00    -0.197 C  
BRANCH  32  33
HETATM   33  N   UNL     1     -10.356   5.088  69.752  1.00  0.00    -0.267 NA 
HETATM   34  H   UNL     1     -10.174   5.633  68.910  1.00  0.00     0.000 HD 
BRANCH  33  35
HETATM   35  C   UNL     1      -9.578   3.856  69.738  1.00  0.00    -0.201 C  
BRANCH  35  36
HETATM   36  C   UNL     1      -8.771   3.738  68.414  1.00  0.00    -0.132 C  
HETATM   37  C   UNL     1      -7.259   3.902  68.665  1.00  0.00    -0.054 C  
HETATM   38  C   UNL     1      -9.238   4.808  67.406  1.00  0.00    -0.142 C  
HETATM   39  C   UNL     1      -9.009   2.348  67.802  1.00  0.00    -0.190 C  
ENDBRANCH  35  36
ENDBRANCH  33  35
ENDBRANCH  32  33
ENDBRANCH   7  32
BRANCH  10  40
HETATM   40  C   UNL     1      -7.191  17.043  66.510  1.00  0.00    -0.276 C  
HETATM   41  N   UNL     1      -5.946  17.176  65.989  1.00  0.00     0.057 N  
HETATM   42  H2  UNL     1      -5.119  16.963  66.548  1.00  0.00     0.000 HD 
HETATM   43  H1  UNL     1      -5.858  17.495  65.024  1.00  0.00     0.000 HD 
HETATM   44  O   UNL     1      -8.152  17.359  65.807  1.00  0.00    -0.543 OA 
ENDBRANCH  10  40
BRANCH   8  45
HETATM   45  N   UNL     1     -10.956  16.382  67.882  1.00  0.00    -0.328 NA 
HETATM   46  C   UNL     1     -10.904  17.620  67.103  1.00  0.00    -0.101 C  
HETATM   47  C   UNL     1     -12.026  16.454  68.872  1.00  0.00     0.240 C  
ENDBRANCH   8  45
TORSDOF 7
ENDMDL
MODEL       63
REMARK 921   NORMALIZED FREE ENERGY PREDICTED BY IDOCK:   -3.20 KCAL/MOL
REMARK 922        TOTAL FREE ENERGY PREDICTED BY IDOCK:   -5.26 KCAL/MOL
REMARK 923 INTER-LIGAND FREE ENERGY PREDICTED BY IDOCK:   -4.70 KCAL/MOL
REMARK 924 INTRA-LIGAND FREE ENERGY PREDICTED BY IDOCK:   -0.56 KCAL/MOL
REMARK 927      BINDING AFFINITY PREDICTED BY RF-SCORE:    0.00 PKD
ROOT
HETATM    1  C   UNL     1      -9.111  12.294  67.966  1.00  0.00    -0.191 C  
HETATM    2  C   UNL     1      -9.196  11.110  68.910  1.00  0.00    -0.106 C  
HETATM    3  C   UNL     1      -8.253   9.988  68.665  1.00  0.00    -0.111 A  
HETATM    4  C   UNL     1      -8.550   8.708  69.192  1.00  0.00    -0.129 A  
HETATM    5  C   UNL     1      -7.629   7.697  68.890  1.00  0.00    -0.101 A  
HETATM    6  C   UNL     1     -10.195  17.083  69.064  1.00  0.00    -0.313 C  
HETATM    7  C   UNL     1      -6.484   7.878  68.078  1.00  0.00    -0.052 A  
HETATM    8  C   UNL     1     -10.652  15.650  68.982  1.00  0.00    -0.234 C  
HETATM    9  H   UNL     1      -9.261  16.236  66.065  1.00  0.00     0.000 HD 
HETATM   10  C   UNL     1      -9.200  17.533  68.286  1.00  0.00    -0.277 C  
HETATM   11  C   UNL     1      -6.210   9.169  67.608  1.00  0.00    -0.058 A  
HETATM   12  O   UNL     1      -7.025  16.757  68.635  1.00  0.00    -0.161 OA 
HETATM   13  O   UNL     1      -5.134   9.419  66.803  1.00  0.00    -0.033 OA 
HETATM   14  C   UNL     1      -7.063  10.242  67.932  1.00  0.00    -0.084 A  
HETATM   15  H   UNL     1      -4.949  10.294  66.485  1.00  0.00     0.000 HD 
HETATM   16  C   UNL     1      -8.125  16.500  68.147  1.00  0.00    -0.172 C  
HETATM   17  O   UNL     1      -8.606  15.547  66.060  1.00  0.00    -0.192 OA 
HETATM   18  C   UNL     1      -6.680  11.661  67.572  1.00  0.00    -0.096 C  
HETATM   19  C   UNL     1      -9.855  13.387  68.691  1.00  0.00    -0.116 C  
HETATM   20  C   UNL     1      -7.722  12.742  67.675  1.00  0.00    -0.162 C  
HETATM   21  O   UNL     1      -5.544  11.988  67.237  1.00  0.00    -0.105 OA 
HETATM   22  C   UNL     1      -7.441  14.051  67.449  1.00  0.00    -0.127 C  
HETATM   23  C   UNL     1      -9.909  14.721  67.950  1.00  0.00    -0.212 C  
HETATM   24  H   UNL     1     -11.090  17.333  70.879  1.00  0.00     0.000 HD 
HETATM   25  O   UNL     1     -10.385  17.653  70.327  1.00  0.00     0.574 OA 
HETATM   26  C   UNL     1      -8.506  15.171  67.457  1.00  0.00    -0.170 C  
HETATM   27  O   UNL     1      -6.190  14.464  67.005  1.00  0.00    -0.240 OA 
HETATM   28  H   UNL     1      -5.993  15.381  66.846  1.00  0.00     0.000 HD 
ENDROOT
BRANCH   4  29
HETATM   29  N   UNL     1      -9.640   8.398  70.000  1.00  0.00    -0.167 NA 
HETATM   30  C   UNL     1      -9.822   8.877  71.367  1.00  0.00    -0.306 C  
HETATM   31  C   UNL     1     -10.830   7.783  69.409  1.00  0.00    -0.113 C  
ENDBRANCH   4  29
BRANCH   7  32
HETATM   32  C   UNL     1      -5.574   6.685  67.839  1.00  0.00    -0.012 C  
BRANCH  32  33
HETATM   33  N   UNL     1      -5.351   6.479  66.413  1.00  0.00    -0.013 NA 
HETATM   34  H   UNL     1      -4.869   5.595  66.251  1.00  0.00     0.000 HD 
BRANCH  33  35
HETATM   35  C   UNL     1      -6.559   6.556  65.602  1.00  0.00    -0.043 C  
BRANCH  35  36
HETATM   36  C   UNL     1      -6.963   5.142  65.093  1.00  0.00    -0.061 C  
HETATM   37  C   UNL     1      -7.411   5.186  63.619  1.00  0.00    -0.051 C  
HETATM   38  C   UNL     1      -8.105   4.570  65.956  1.00  0.00    -0.103 C  
HETATM   39  C   UNL     1      -5.749   4.204  65.200  1.00  0.00    -0.018 C  
ENDBRANCH  35  36
ENDBRANCH  33  35
ENDBRANCH  32  33
ENDBRANCH   7  32
BRANCH  10  40
HETATM   40  C   UNL     1      -9.787  18.271  67.126  1.00  0.00    -0.324 C  
HETATM   41  N   UNL     1      -9.206  19.437  66.748  1.00  0.00    -0.317 N  
HETATM   42  H2  UNL     1      -8.391  19.800  67.242  1.00  0.00     0.000 HD 
HETATM   43  H1  UNL     1      -9.606  19.941  65.956  1.00  0.00     0.000 HD 
HETATM   44  O   UNL     1     -10.796  17.903  66.524  1.00  0.00    -0.186 OA 
ENDBRANCH  10  40
BRANCH   8  45
HETATM   45  N   UNL     1     -12.106  15.407  68.831  1.00  0.00    -0.258 NA 
HETATM   46  C   UNL     1     -12.773  14.919  70.039  1.00  0.00    -0.153 C  
HETATM   47  C   UNL     1     -12.427  14.546  67.696  1.00  0.00     0.292 C  
ENDBRANCH   8  45
TORSDOF 7
ENDMDL
MODEL       64
REMARK 921   NORMALIZED FREE ENERGY PREDICTED BY IDOCK:   -3.11 KCAL/MOL
REMARK 922        TOTAL FREE ENERGY PREDICTED BY IDOCK:   -5.14 KCAL/MOL
REMARK 923 INTER-LIGAND FREE ENERGY PREDICTED BY IDOCK:   -6.22 KCAL/MOL
REMARK 924 INTRA-LIGAND FREE ENERGY PREDICTED BY IDOCK:    1.08 KCAL/MOL
REMARK 927      BINDING AFFINITY PREDICTED BY RF-SCORE:    0.00 PKD
ROOT
HETATM    1  C   UNL     1      -8.903  11.080  68.597  1.00  0.00    -0.164 C  
HETATM    2  C   UNL     1      -7.780  10.067  68.709  1.00  0.00    -0.085 C  
HETATM    3  C   UNL     1      -8.157   8.634  68.598  1.00  0.00    -0.117 A  
HETATM    4  C   UNL     1      -7.284   7.648  69.117  1.00  0.00    -0.080 A  
HETATM    5  C   UNL     1      -7.726   6.323  69.003  1.00  0.00    -0.100 A  
HETATM    6  C   UNL     1      -8.534  15.772  66.816  1.00  0.00    -0.269 C  
HETATM    7  C   UNL     1      -8.974   5.943  68.455  1.00  0.00    -0.113 A  
HETATM    8  C   UNL     1      -8.087  14.742  67.820  1.00  0.00    -0.152 C  
HETATM    9  H   UNL     1     -11.368  14.639  67.941  1.00  0.00     0.000 HD 
HETATM   10  C   UNL     1      -9.746  15.699  66.249  1.00  0.00    -0.328 C  
HETATM   11  C   UNL     1      -9.790   6.950  67.921  1.00  0.00    -0.135 A  
HETATM   12  O   UNL     1     -10.220  13.960  64.763  1.00  0.00    -0.412 OA 
HETATM   13  O   UNL     1     -11.017   6.663  67.391  1.00  0.00    -0.340 OA 
HETATM   14  C   UNL     1      -9.372   8.295  67.946  1.00  0.00    -0.150 A  
HETATM   15  H   UNL     1     -11.570   7.346  67.029  1.00  0.00     0.000 HD 
HETATM   16  C   UNL     1     -10.108  14.278  65.947  1.00  0.00    -0.326 C  
HETATM   17  O   UNL     1     -11.506  13.720  67.744  1.00  0.00    -0.287 OA 
HETATM   18  C   UNL     1     -10.168   9.357  67.220  1.00  0.00    -0.246 C  
HETATM   19  C   UNL     1      -8.188  12.382  68.334  1.00  0.00    -0.144 C  
HETATM   20  C   UNL     1      -9.863  10.805  67.493  1.00  0.00    -0.197 C  
HETATM   21  O   UNL     1     -11.029   9.100  66.382  1.00  0.00     0.229 OA 
HETATM   22  C   UNL     1     -10.473  11.819  66.827  1.00  0.00    -0.225 C  
HETATM   23  C   UNL     1      -9.106  13.591  68.163  1.00  0.00    -0.199 C  
HETATM   24  H   UNL     1      -6.616  16.387  66.497  1.00  0.00     0.000 HD 
HETATM   25  O   UNL     1      -7.475  16.336  66.096  1.00  0.00    -0.031 OA 
HETATM   26  C   UNL     1     -10.249  13.314  67.147  1.00  0.00    -0.246 C  
HETATM   27  O   UNL     1     -11.498  11.583  65.917  1.00  0.00    -0.237 OA 
HETATM   28  H   UNL     1     -11.925  12.293  65.451  1.00  0.00     0.000 HD 
ENDROOT
BRANCH   4  29
HETATM   29  N   UNL     1      -6.035   7.888  69.682  1.00  0.00    -0.026 NA 
HETATM   30  C   UNL     1      -5.421   7.062  70.718  1.00  0.00    -0.024 C  
HETATM   31  C   UNL     1      -5.125   8.846  69.052  1.00  0.00    -0.036 C  
ENDBRANCH   4  29
BRANCH   7  32
HETATM   32  C   UNL     1      -9.316   4.464  68.396  1.00  0.00    -0.147 C  
BRANCH  32  33
HETATM   33  N   UNL     1     -10.204   4.092  69.492  1.00  0.00     0.209 NA 
HETATM   34  H   UNL     1     -10.699   3.228  69.272  1.00  0.00     0.000 HD 
BRANCH  33  35
HETATM   35  C   UNL     1      -9.544   3.985  70.786  1.00  0.00    -0.193 C  
BRANCH  35  36
HETATM   36  C   UNL     1      -9.319   2.491  71.159  1.00  0.00    -0.212 C  
HETATM   37  C   UNL     1     -10.324   2.027  72.232  1.00  0.00    -0.199 C  
HETATM   38  C   UNL     1      -7.884   2.281  71.680  1.00  0.00    -0.044 C  
HETATM   39  C   UNL     1      -9.520   1.624  69.905  1.00  0.00    -0.134 C  
ENDBRANCH  35  36
ENDBRANCH  33  35
ENDBRANCH  32  33
ENDBRANCH   7  32
BRANCH  10  40
HETATM   40  C   UNL     1     -10.665  16.653  66.943  1.00  0.00    -0.153 C  
HETATM   41  N   UNL     1     -11.259  16.248  68.092  1.00  0.00    -0.333 N  
HETATM   42  H2  UNL     1     -11.084  15.318  68.474  1.00  0.00     0.000 HD 
HETATM   43  H1  UNL     1     -11.887  16.899  68.566  1.00  0.00     0.000 HD 
HETATM   44  O   UNL     1     -10.949  17.767  66.503  1.00  0.00    -0.047 OA 
ENDBRANCH  10  40
BRANCH   8  45
HETATM   45  N   UNL     1      -7.530  15.237  69.101  1.00  0.00    -0.162 NA 
HETATM   46  C   UNL     1      -7.166  16.654  69.102  1.00  0.00    -0.220 C  
HETATM   47  C   UNL     1      -6.415  14.430  69.589  1.00  0.00    -0.145 C  
ENDBRANCH   8  45
TORSDOF 7
ENDMDL
MODEL       65
REMARK 921   NORMALIZED FREE ENERGY PREDICTED BY IDOCK:   -2.83 KCAL/MOL
REMARK 922        TOTAL FREE ENERGY PREDICTED BY IDOCK:   -4.74 KCAL/MOL
REMARK 923 INTER-LIGAND FREE ENERGY PREDICTED BY IDOCK:   -4.60 KCAL/MOL
REMARK 924 INTRA-LIGAND FREE ENERGY PREDICTED BY IDOCK:   -0.14 KCAL/MOL
REMARK 927      BINDING AFFINITY PREDICTED BY RF-SCORE:    0.00 PKD
ROOT
HETATM    1  C   UNL     1     -10.199  11.450  67.955  1.00  0.00    -0.201 C  
HETATM    2  C   UNL     1      -9.535  10.305  68.694  1.00  0.00    -0.169 C  
HETATM    3  C   UNL     1      -9.283   9.063  67.918  1.00  0.00    -0.151 A  
HETATM    4  C   UNL     1      -9.089   7.844  68.610  1.00  0.00    -0.136 A  
HETATM    5  C   UNL     1      -8.888   6.713  67.807  1.00  0.00    -0.114 A  
HETATM    6  C   UNL     1      -9.601  16.360  68.884  1.00  0.00    -0.252 C  
HETATM    7  C   UNL     1      -8.914   6.726  66.392  1.00  0.00    -0.165 A  
HETATM    8  C   UNL     1     -10.010  14.999  69.385  1.00  0.00    -0.183 C  
HETATM    9  H   UNL     1     -11.618  15.345  66.542  1.00  0.00     0.000 HD 
HETATM   10  C   UNL     1      -9.665  16.659  67.579  1.00  0.00    -0.247 C  
HETATM   11  C   UNL     1      -9.072   7.961  65.750  1.00  0.00    -0.030 A  
HETATM   12  O   UNL     1      -8.213  15.606  66.083  1.00  0.00    -0.117 OA 
HETATM   13  O   UNL     1      -9.126   8.052  64.387  1.00  0.00    -0.032 OA 
HETATM   14  C   UNL     1      -9.213   9.144  66.502  1.00  0.00    -0.221 A  
HETATM   15  H   UNL     1      -9.233   8.889  63.952  1.00  0.00     0.000 HD 
HETATM   16  C   UNL     1      -9.245  15.491  66.743  1.00  0.00    -0.248 C  
HETATM   17  O   UNL     1     -11.300  14.575  66.085  1.00  0.00    -0.338 OA 
HETATM   18  C   UNL     1      -9.212  10.493  65.816  1.00  0.00    -0.182 C  
HETATM   19  C   UNL     1      -9.945  12.646  68.839  1.00  0.00     0.090 C  
HETATM   20  C   UNL     1      -9.640  11.705  66.599  1.00  0.00    -0.220 C  
HETATM   21  O   UNL     1      -8.838  10.659  64.658  1.00  0.00    -0.187 OA 
HETATM   22  C   UNL     1      -9.592  12.960  66.085  1.00  0.00    -0.210 C  
HETATM   23  C   UNL     1     -10.508  13.962  68.310  1.00  0.00    -0.252 C  
HETATM   24  H   UNL     1      -8.579  16.758  70.603  1.00  0.00     0.000 HD 
HETATM   25  O   UNL     1      -8.625  16.970  69.678  1.00  0.00     0.366 OA 
HETATM   26  C   UNL     1     -10.110  14.213  66.829  1.00  0.00    -0.262 C  
HETATM   27  O   UNL     1      -9.239  13.196  64.761  1.00  0.00     0.071 OA 
HETATM   28  H   UNL     1      -9.206  14.075  64.401  1.00  0.00     0.000 HD 
ENDROOT
BRANCH   4  29
HETATM   29  N   UNL     1      -9.044   7.695  69.994  1.00  0.00    -0.151 NA 
HETATM   30  C   UNL     1      -7.882   7.999  70.823  1.00  0.00    -0.091 C  
HETATM   31  C   UNL     1     -10.284   7.484  70.741  1.00  0.00    -0.194 C  
ENDBRANCH   4  29
BRANCH   7  32
HETATM   32  C   UNL     1      -8.678   5.419  65.655  1.00  0.00    -0.152 C  
BRANCH  32  33
HETATM   33  N   UNL     1      -7.998   4.455  66.512  1.00  0.00    -0.098 NA 
HETATM   34  H   UNL     1      -8.663   3.778  66.885  1.00  0.00     0.000 HD 
BRANCH  33  35
HETATM   35  C   UNL     1      -6.881   3.771  65.875  1.00  0.00    -0.057 C  
BRANCH  35  36
HETATM   36  C   UNL     1      -7.335   2.394  65.311  1.00  0.00    -0.063 C  
HETATM   37  C   UNL     1      -7.986   2.547  63.922  1.00  0.00    -0.081 C  
HETATM   38  C   UNL     1      -8.340   1.729  66.274  1.00  0.00    -0.091 C  
HETATM   39  C   UNL     1      -6.108   1.479  65.170  1.00  0.00    -0.017 C  
ENDBRANCH  35  36
ENDBRANCH  33  35
ENDBRANCH  32  33
ENDBRANCH   7  32
BRANCH  10  40
HETATM   40  C   UNL     1     -10.908  17.450  67.322  1.00  0.00    -0.126 C  
HETATM   41  N   UNL     1     -10.795  18.624  66.653  1.00  0.00    -0.228 N  
HETATM   42  H2  UNL     1      -9.886  18.958  66.333  1.00  0.00     0.000 HD 
HETATM   43  H1  UNL     1     -11.643  19.163  66.478  1.00  0.00     0.000 HD 
HETATM   44  O   UNL     1     -12.022  17.117  67.727  1.00  0.00     0.915 OA 
ENDBRANCH  10  40
BRANCH   8  45
HETATM   45  N   UNL     1     -10.958  14.950  70.522  1.00  0.00    -0.158 NA 
HETATM   46  C   UNL     1     -12.183  14.191  70.264  1.00  0.00    -0.349 C  
HETATM   47  C   UNL     1     -11.286  16.270  71.052  1.00  0.00    -0.272 C  
ENDBRANCH   8  45
TORSDOF 7
ENDMDL
MODEL       66
REMARK 921   NORMALIZED FREE ENERGY PREDICTED BY IDOCK:   -2.78 KCAL/MOL
REMARK 922        TOTAL FREE ENERGY PREDICTED BY IDOCK:   -4.67 KCAL/MOL
REMARK 923 INTER-LIGAND FREE ENERGY PREDICTED BY IDOCK:   -4.59 KCAL/MOL
REMARK 924 INTRA-LIGAND FREE ENERGY PREDICTED BY IDOCK:   -0.08 KCAL/MOL
REMARK 927      BINDING AFFINITY PREDICTED BY RF-SCORE:    0.00 PKD
ROOT
HETATM    1  C   UNL     1      -9.226  11.603  66.296  1.00  0.00    -0.225 C  
HETATM    2  C   UNL     1      -8.677  12.945  66.740  1.00  0.00    -0.112 C  
HETATM    3  C   UNL     1      -9.607  13.839  67.477  1.00  0.00    -0.219 A  
HETATM    4  C   UNL     1      -9.334  15.227  67.533  1.00  0.00    -0.204 A  
HETATM    5  C   UNL     1     -10.274  16.006  68.219  1.00  0.00    -0.237 A  
HETATM    6  C   UNL     1      -6.611   7.343  65.718  1.00  0.00    -0.045 C  
HETATM    7  C   UNL     1     -11.461  15.496  68.798  1.00  0.00    -0.363 A  
HETATM    8  C   UNL     1      -6.812   8.786  65.337  1.00  0.00    -0.072 C  
HETATM    9  H   UNL     1      -9.796   7.440  65.065  1.00  0.00     0.000 HD 
HETATM   10  C   UNL     1      -7.631   6.603  66.174  1.00  0.00    -0.086 C  
HETATM   11  C   UNL     1     -11.672  14.112  68.751  1.00  0.00    -0.345 A  
HETATM   12  O   UNL     1      -8.560   7.085  68.262  1.00  0.00    -0.128 OA 
HETATM   13  O   UNL     1     -12.803  13.547  69.272  1.00  0.00     0.127 OA 
HETATM   14  C   UNL     1     -10.730  13.267  68.132  1.00  0.00    -0.264 A  
HETATM   15  H   UNL     1     -12.946  12.609  69.239  1.00  0.00     0.000 HD 
HETATM   16  C   UNL     1      -8.512   7.410  67.076  1.00  0.00    -0.118 C  
HETATM   17  O   UNL     1     -10.280   8.005  65.656  1.00  0.00     0.811 OA 
HETATM   18  C   UNL     1     -10.869  11.763  68.229  1.00  0.00    -0.220 C  
HETATM   19  C   UNL     1      -7.992  10.799  65.971  1.00  0.00    -0.154 C  
HETATM   20  C   UNL     1     -10.022  10.897  67.337  1.00  0.00    -0.215 C  
HETATM   21  O   UNL     1     -11.613  11.206  69.033  1.00  0.00    -0.267 OA 
HETATM   22  C   UNL     1     -10.027   9.542  67.416  1.00  0.00    -0.189 C  
HETATM   23  C   UNL     1      -8.265   9.372  65.502  1.00  0.00    -0.127 C  
HETATM   24  H   UNL     1      -4.590   7.590  65.839  1.00  0.00     0.000 HD 
HETATM   25  O   UNL     1      -5.313   7.065  66.162  1.00  0.00    -0.022 OA 
HETATM   26  C   UNL     1      -9.239   8.623  66.454  1.00  0.00    -0.193 C  
HETATM   27  O   UNL     1     -10.896   8.862  68.262  1.00  0.00    -0.434 OA 
HETATM   28  H   UNL     1     -10.899   7.913  68.317  1.00  0.00     0.000 HD 
ENDROOT
BRANCH   4  29
HETATM   29  N   UNL     1      -8.208  15.853  67.004  1.00  0.00    -0.198 NA 
HETATM   30  C   UNL     1      -8.245  17.007  66.112  1.00  0.00    -0.249 C  
HETATM   31  C   UNL     1      -6.885  15.551  67.552  1.00  0.00    -0.195 C  
ENDBRANCH   4  29
BRANCH   7  32
HETATM   32  C   UNL     1     -12.387  16.464  69.514  1.00  0.00     0.901 C  
BRANCH  32  33
HETATM   33  N   UNL     1     -12.264  16.328  70.960  1.00  0.00    -0.471 NA 
HETATM   34  H   UNL     1     -12.070  17.234  71.389  1.00  0.00     0.000 HD 
BRANCH  33  35
HETATM   35  C   UNL     1     -13.409  15.697  71.602  1.00  0.00    -0.458 C  
BRANCH  35  36
HETATM   36  C   UNL     1     -12.935  14.619  72.619  1.00  0.00    -0.534 C  
HETATM   37  C   UNL     1     -12.754  15.221  74.026  1.00  0.00    -0.599 C  
HETATM   38  C   UNL     1     -11.603  13.996  72.156  1.00  0.00     1.271 C  
HETATM   39  C   UNL     1     -13.995  13.508  72.704  1.00  0.00    -0.388 C  
ENDBRANCH  35  36
ENDBRANCH  33  35
ENDBRANCH  32  33
ENDBRANCH   7  32
BRANCH  10  40
HETATM   40  C   UNL     1      -8.152   5.754  65.059  1.00  0.00    -0.131 C  
HETATM   41  N   UNL     1      -7.257   5.195  64.207  1.00  0.00    -0.053 N  
HETATM   42  H2  UNL     1      -6.255   5.350  64.324  1.00  0.00     0.000 HD 
HETATM   43  H1  UNL     1      -7.612   4.616  63.446  1.00  0.00     0.000 HD 
HETATM   44  O   UNL     1      -9.350   5.573  64.844  1.00  0.00     0.115 OA 
ENDBRANCH  10  40
BRANCH   8  45
HETATM   45  N   UNL     1      -6.308   9.218  64.013  1.00  0.00    -0.088 NA 
HETATM   46  C   UNL     1      -5.132  10.088  64.061  1.00  0.00    -0.084 C  
HETATM   47  C   UNL     1      -7.343   9.816  63.174  1.00  0.00    -0.121 C  
ENDBRANCH   8  45
TORSDOF 7
ENDMDL
MODEL       67
REMARK 921   NORMALIZED FREE ENERGY PREDICTED BY IDOCK:   -2.70 KCAL/MOL
REMARK 922        TOTAL FREE ENERGY PREDICTED BY IDOCK:   -4.56 KCAL/MOL
REMARK 923 INTER-LIGAND FREE ENERGY PREDICTED BY IDOCK:   -4.96 KCAL/MOL
REMARK 924 INTRA-LIGAND FREE ENERGY PREDICTED BY IDOCK:    0.40 KCAL/MOL
REMARK 927      BINDING AFFINITY PREDICTED BY RF-SCORE:    0.00 PKD
ROOT
HETATM    1  C   UNL     1      -8.008   9.460  68.260  1.00  0.00    -0.094 C  
HETATM    2  C   UNL     1      -7.603  10.754  68.940  1.00  0.00    -0.121 C  
HETATM    3  C   UNL     1      -8.220  12.004  68.423  1.00  0.00    -0.151 A  
HETATM    4  C   UNL     1      -7.590  13.244  68.685  1.00  0.00    -0.094 A  
HETATM    5  C   UNL     1      -8.216  14.372  68.138  1.00  0.00    -0.149 A  
HETATM    6  C   UNL     1      -8.211   4.901  70.379  1.00  0.00    -0.088 C  
HETATM    7  C   UNL     1      -9.377  14.326  67.330  1.00  0.00    -0.203 A  
HETATM    8  C   UNL     1      -7.393   6.114  70.022  1.00  0.00    -0.078 C  
HETATM    9  H   UNL     1      -8.923   5.304  67.231  1.00  0.00     0.000 HD 
HETATM   10  C   UNL     1      -9.298   4.570  69.669  1.00  0.00    -0.221 C  
HETATM   11  C   UNL     1      -9.986  13.081  67.128  1.00  0.00    -0.235 A  
HETATM   12  O   UNL     1     -11.188   5.941  69.750  1.00  0.00    -0.389 OA 
HETATM   13  O   UNL     1     -11.100  12.954  66.345  1.00  0.00    -0.274 OA 
HETATM   14  C   UNL     1      -9.442  11.917  67.706  1.00  0.00    -0.184 A  
HETATM   15  H   UNL     1     -11.513  12.109  66.208  1.00  0.00     0.000 HD 
HETATM   16  C   UNL     1     -10.064   5.793  69.269  1.00  0.00    -0.205 C  
HETATM   17  O   UNL     1      -9.373   6.121  67.053  1.00  0.00    -0.119 OA 
HETATM   18  C   UNL     1     -10.190  10.604  67.633  1.00  0.00    -0.194 C  
HETATM   19  C   UNL     1      -7.570   8.391  69.230  1.00  0.00    -0.089 C  
HETATM   20  C   UNL     1      -9.469   9.337  68.007  1.00  0.00    -0.152 C  
HETATM   21  O   UNL     1     -11.376  10.520  67.323  1.00  0.00    -0.359 OA 
HETATM   22  C   UNL     1     -10.087   8.129  68.045  1.00  0.00    -0.197 C  
HETATM   23  C   UNL     1      -7.877   6.963  68.787  1.00  0.00    -0.118 C  
HETATM   24  H   UNL     1      -7.393   4.819  72.246  1.00  0.00     0.000 HD 
HETATM   25  O   UNL     1      -8.163   4.584  71.741  1.00  0.00    -0.099 OA 
HETATM   26  C   UNL     1      -9.355   6.799  68.335  1.00  0.00    -0.124 C  
HETATM   27  O   UNL     1     -11.408   7.970  67.641  1.00  0.00    -0.176 OA 
HETATM   28  H   UNL     1     -11.841   7.124  67.668  1.00  0.00     0.000 HD 
ENDROOT
BRANCH   4  29
HETATM   29  N   UNL     1      -6.447  13.426  69.459  1.00  0.00    -0.105 NA 
HETATM   30  C   UNL     1      -5.749  12.359  70.170  1.00  0.00    -0.157 C  
HETATM   31  C   UNL     1      -5.704  14.684  69.372  1.00  0.00    -0.095 C  
ENDBRANCH   4  29
BRANCH   7  32
HETATM   32  C   UNL     1      -9.943  15.635  66.807  1.00  0.00    -0.250 C  
BRANCH  32  33
HETATM   33  N   UNL     1     -10.636  16.360  67.865  1.00  0.00    -0.310 NA 
HETATM   34  H   UNL     1     -10.931  17.279  67.534  1.00  0.00     0.000 HD 
BRANCH  33  35
HETATM   35  C   UNL     1     -11.764  15.642  68.443  1.00  0.00    -0.290 C  
BRANCH  35  36
HETATM   36  C   UNL     1     -11.644  15.598  69.993  1.00  0.00    -0.360 C  
HETATM   37  C   UNL     1     -10.293  14.997  70.431  1.00  0.00     0.063 C  
HETATM   38  C   UNL     1     -12.792  14.763  70.595  1.00  0.00    -0.398 C  
HETATM   39  C   UNL     1     -11.735  17.031  70.546  1.00  0.00     1.468 C  
ENDBRANCH  35  36
ENDBRANCH  33  35
ENDBRANCH  32  33
ENDBRANCH   7  32
BRANCH  10  40
HETATM   40  C   UNL     1      -8.940   3.475  68.715  1.00  0.00    -0.130 C  
HETATM   41  N   UNL     1      -9.835   3.147  67.751  1.00  0.00    -0.172 N  
HETATM   42  H2  UNL     1     -10.729   3.633  67.679  1.00  0.00     0.000 HD 
HETATM   43  H1  UNL     1      -9.591   2.399  67.101  1.00  0.00     0.000 HD 
HETATM   44  O   UNL     1      -7.898   2.824  68.787  1.00  0.00    -0.053 OA 
ENDBRANCH  10  40
BRANCH   8  45
HETATM   45  N   UNL     1      -5.928   5.934  69.890  1.00  0.00    -0.024 NA 
HETATM   46  C   UNL     1      -5.151   6.379  71.047  1.00  0.00    -0.018 C  
HETATM   47  C   UNL     1      -5.388   6.518  68.665  1.00  0.00    -0.015 C  
ENDBRANCH   8  45
TORSDOF 7
ENDMDL
MODEL       68
REMARK 921   NORMALIZED FREE ENERGY PREDICTED BY IDOCK:   -2.34 KCAL/MOL
REMARK 922        TOTAL FREE ENERGY PREDICTED BY IDOCK:   -4.05 KCAL/MOL
REMARK 923 INTER-LIGAND FREE ENERGY PREDICTED BY IDOCK:   -3.96 KCAL/MOL
REMARK 924 INTRA-LIGAND FREE ENERGY PREDICTED BY IDOCK:   -0.09 KCAL/MOL
REMARK 927      BINDING AFFINITY PREDICTED BY RF-SCORE:    0.00 PKD
ROOT
HETATM    1  C   UNL     1      -9.547  13.669  68.221  1.00  0.00    -0.215 C  
HETATM    2  C   UNL     1     -10.297  12.893  69.286  1.00  0.00     0.290 C  
HETATM    3  C   UNL     1     -10.022  11.435  69.372  1.00  0.00     0.207 A  
HETATM    4  C   UNL     1     -10.964  10.590  70.005  1.00  0.00    -0.286 A  
HETATM    5  C   UNL     1     -10.647   9.226  70.018  1.00  0.00    -0.256 A  
HETATM    6  C   UNL     1      -8.194  18.511  68.440  1.00  0.00    -0.328 C  
HETATM    7  C   UNL     1      -9.495   8.670  69.411  1.00  0.00    -0.161 A  
HETATM    8  C   UNL     1      -9.295  17.484  68.472  1.00  0.00    -0.286 C  
HETATM    9  H   UNL     1      -7.535  16.719  65.806  1.00  0.00     0.000 HD 
HETATM   10  C   UNL     1      -7.041  18.263  67.803  1.00  0.00    -0.213 C  
HETATM   11  C   UNL     1      -8.572   9.548  68.828  1.00  0.00    -0.123 A  
HETATM   12  O   UNL     1      -5.585  16.643  68.647  1.00  0.00    -0.116 OA 
HETATM   13  O   UNL     1      -7.446   9.085  68.207  1.00  0.00    -0.082 OA 
HETATM   14  C   UNL     1      -8.802  10.937  68.841  1.00  0.00    -0.143 A  
HETATM   15  H   UNL     1      -6.820   9.680  67.812  1.00  0.00     0.000 HD 
HETATM   16  C   UNL     1      -6.616  16.842  68.005  1.00  0.00    -0.140 C  
HETATM   17  O   UNL     1      -7.314  15.818  66.015  1.00  0.00     0.678 OA 
HETATM   18  C   UNL     1      -7.731  11.896  68.368  1.00  0.00    -0.131 C  
HETATM   19  C   UNL     1      -9.710  15.109  68.642  1.00  0.00    -0.216 C  
HETATM   20  C   UNL     1      -8.099  13.335  68.131  1.00  0.00    -0.159 C  
HETATM   21  O   UNL     1      -6.558  11.568  68.205  1.00  0.00    -0.055 OA 
HETATM   22  C   UNL     1      -7.184  14.276  67.784  1.00  0.00    -0.175 C  
HETATM   23  C   UNL     1      -9.023  16.122  67.729  1.00  0.00    -0.192 C  
HETATM   24  H   UNL     1      -9.008  19.527  70.009  1.00  0.00     0.000 HD 
HETATM   25  O   UNL     1      -8.190  19.352  69.558  1.00  0.00    -0.055 OA 
HETATM   26  C   UNL     1      -7.544  15.740  67.444  1.00  0.00    -0.191 C  
HETATM   27  O   UNL     1      -5.858  13.946  67.524  1.00  0.00    -0.334 OA 
HETATM   28  H   UNL     1      -5.218  14.604  67.281  1.00  0.00     0.000 HD 
ENDROOT
BRANCH   4  29
HETATM   29  N   UNL     1     -12.133  11.009  70.635  1.00  0.00    -0.350 NA 
HETATM   30  C   UNL     1     -13.147  11.861  70.021  1.00  0.00     0.901 C  
HETATM   31  C   UNL     1     -12.553  10.370  71.883  1.00  0.00    -0.288 C  
ENDBRANCH   4  29
BRANCH   7  32
HETATM   32  C   UNL     1      -9.283   7.169  69.507  1.00  0.00    -0.149 C  
BRANCH  32  33
HETATM   33  N   UNL     1      -8.119   6.860  70.329  1.00  0.00    -0.118 NA 
HETATM   34  H   UNL     1      -8.406   6.432  71.209  1.00  0.00     0.000 HD 
BRANCH  33  35
HETATM   35  C   UNL     1      -7.119   6.035  69.664  1.00  0.00    -0.069 C  
BRANCH  35  36
HETATM   36  C   UNL     1      -6.757   4.805  70.545  1.00  0.00    -0.036 C  
HETATM   37  C   UNL     1      -5.383   4.986  71.218  1.00  0.00    -0.004 C  
HETATM   38  C   UNL     1      -6.740   3.522  69.689  1.00  0.00    -0.034 C  
HETATM   39  C   UNL     1      -7.817   4.647  71.648  1.00  0.00    -0.097 C  
ENDBRANCH  35  36
ENDBRANCH  33  35
ENDBRANCH  32  33
ENDBRANCH   7  32
BRANCH  10  40
HETATM   40  C   UNL     1      -7.071  18.931  66.466  1.00  0.00    -0.217 C  
HETATM   41  N   UNL     1      -5.985  18.809  65.664  1.00  0.00    -0.186 N  
HETATM   42  H2  UNL     1      -5.168  18.276  65.965  1.00  0.00     0.000 HD 
HETATM   43  H1  UNL     1      -6.005  19.265  64.751  1.00  0.00     0.000 HD 
HETATM   44  O   UNL     1      -8.009  19.624  66.072  1.00  0.00    -0.338 OA 
ENDBRANCH  10  40
BRANCH   8  45
HETATM   45  N   UNL     1     -10.656  17.932  68.092  1.00  0.00    -0.374 NA 
HETATM   46  C   UNL     1     -11.324  17.084  67.104  1.00  0.00     0.506 C  
HETATM   47  C   UNL     1     -10.701  19.329  67.671  1.00  0.00    -0.425 C  
ENDBRANCH   8  45
TORSDOF 7
ENDMDL
MODEL       69
REMARK 921   NORMALIZED FREE ENERGY PREDICTED BY IDOCK:   -1.78 KCAL/MOL
REMARK 922        TOTAL FREE ENERGY PREDICTED BY IDOCK:   -3.26 KCAL/MOL
REMARK 923 INTER-LIGAND FREE ENERGY PREDICTED BY IDOCK:   -4.77 KCAL/MOL
REMARK 924 INTRA-LIGAND FREE ENERGY PREDICTED BY IDOCK:    1.51 KCAL/MOL
REMARK 927      BINDING AFFINITY PREDICTED BY RF-SCORE:    0.00 PKD
ROOT
HETATM    1  C   UNL     1      -8.635  11.394  67.049  1.00  0.00    -0.157 C  
HETATM    2  C   UNL     1      -9.267  10.022  67.187  1.00  0.00    -0.161 C  
HETATM    3  C   UNL     1      -8.395   8.931  67.694  1.00  0.00    -0.110 A  
HETATM    4  C   UNL     1      -8.755   7.585  67.440  1.00  0.00    -0.124 A  
HETATM    5  C   UNL     1      -7.866   6.616  67.922  1.00  0.00    -0.112 A  
HETATM    6  C   UNL     1     -10.978  15.827  67.475  1.00  0.00    -0.293 C  
HETATM    7  C   UNL     1      -6.650   6.909  68.586  1.00  0.00    -0.054 A  
HETATM    8  C   UNL     1     -10.866  14.496  66.777  1.00  0.00    -0.305 C  
HETATM    9  H   UNL     1      -7.804  15.685  66.775  1.00  0.00     0.000 HD 
HETATM   10  C   UNL     1      -9.914  16.382  68.072  1.00  0.00    -0.242 C  
HETATM   11  C   UNL     1      -6.353   8.253  68.847  1.00  0.00    -0.044 A  
HETATM   12  O   UNL     1      -9.019  15.387  69.987  1.00  0.00    -0.066 OA 
HETATM   13  O   UNL     1      -5.189   8.616  69.467  1.00  0.00    -0.030 OA 
HETATM   14  C   UNL     1      -7.239   9.271  68.445  1.00  0.00    -0.076 A  
HETATM   15  H   UNL     1      -4.988   9.527  69.643  1.00  0.00     0.000 HD 
HETATM   16  C   UNL     1      -9.085  15.340  68.758  1.00  0.00    -0.200 C  
HETATM   17  O   UNL     1      -7.357  14.973  67.218  1.00  0.00    -0.199 OA 
HETATM   18  C   UNL     1      -7.007  10.703  68.875  1.00  0.00    -0.073 C  
HETATM   19  C   UNL     1      -9.816  12.324  66.928  1.00  0.00    -0.216 C  
HETATM   20  C   UNL     1      -7.797  11.798  68.211  1.00  0.00    -0.137 C  
HETATM   21  O   UNL     1      -6.231  11.019  69.774  1.00  0.00    -0.082 OA 
HETATM   22  C   UNL     1      -7.708  13.098  68.592  1.00  0.00    -0.073 C  
HETATM   23  C   UNL     1      -9.453  13.801  66.788  1.00  0.00    -0.281 C  
HETATM   24  H   UNL     1     -13.010  15.683  67.563  1.00  0.00     0.000 HD 
HETATM   25  O   UNL     1     -12.256  16.077  67.986  1.00  0.00     0.304 OA 
HETATM   26  C   UNL     1      -8.435  14.256  67.871  1.00  0.00    -0.168 C  
HETATM   27  O   UNL     1      -6.799  13.516  69.557  1.00  0.00    -0.266 OA 
HETATM   28  H   UNL     1      -6.736  14.426  69.824  1.00  0.00     0.000 HD 
ENDROOT
BRANCH   4  29
HETATM   29  N   UNL     1      -9.917   7.164  66.799  1.00  0.00    -0.214 NA 
HETATM   30  C   UNL     1      -9.988   6.047  65.862  1.00  0.00     0.261 C  
HETATM   31  C   UNL     1     -11.217   7.656  67.256  1.00  0.00     0.433 C  
ENDBRANCH   4  29
BRANCH   7  32
HETATM   32  C   UNL     1      -5.787   5.750  69.054  1.00  0.00    -0.016 C  
BRANCH  32  33
HETATM   33  N   UNL     1      -5.629   5.772  70.503  1.00  0.00    -0.012 NA 
HETATM   34  H   UNL     1      -4.648   5.654  70.757  1.00  0.00     0.000 HD 
BRANCH  33  35
HETATM   35  C   UNL     1      -6.182   6.956  71.147  1.00  0.00    -0.037 C  
BRANCH  35  36
HETATM   36  C   UNL     1      -6.700   6.608  72.572  1.00  0.00    -0.063 C  
HETATM   37  C   UNL     1      -5.999   5.354  73.130  1.00  0.00    -0.031 C  
HETATM   38  C   UNL     1      -8.223   6.369  72.542  1.00  0.00    -0.105 C  
HETATM   39  C   UNL     1      -6.405   7.786  73.516  1.00  0.00    -0.075 C  
ENDBRANCH  35  36
ENDBRANCH  33  35
ENDBRANCH  32  33
ENDBRANCH   7  32
BRANCH  10  40
HETATM   40  C   UNL     1      -9.340  17.426  67.169  1.00  0.00    -0.245 C  
HETATM   41  N   UNL     1      -8.143  17.177  66.580  1.00  0.00    -0.233 N  
HETATM   42  H2  UNL     1      -7.649  16.301  66.749  1.00  0.00     0.000 HD 
HETATM   43  H1  UNL     1      -7.751  17.890  65.964  1.00  0.00     0.000 HD 
HETATM   44  O   UNL     1      -9.870  18.518  66.968  1.00  0.00    -0.301 OA 
ENDBRANCH  10  40
BRANCH   8  45
HETATM   45  N   UNL     1     -11.395  14.405  65.396  1.00  0.00    -0.328 NA 
HETATM   46  C   UNL     1     -11.082  15.553  64.545  1.00  0.00    -0.274 C  
HETATM   47  C   UNL     1     -12.826  14.118  65.349  1.00  0.00    -0.368 C  
ENDBRANCH   8  45
TORSDOF 7
ENDMDL
MODEL       70
REMARK 921   NORMALIZED FREE ENERGY PREDICTED BY IDOCK:   -0.83 KCAL/MOL
REMARK 922        TOTAL FREE ENERGY PREDICTED BY IDOCK:   -1.92 KCAL/MOL
REMARK 923 INTER-LIGAND FREE ENERGY PREDICTED BY IDOCK:   -3.16 KCAL/MOL
REMARK 924 INTRA-LIGAND FREE ENERGY PREDICTED BY IDOCK:    1.24 KCAL/MOL
REMARK 927      BINDING AFFINITY PREDICTED BY RF-SCORE:    0.00 PKD
ROOT
HETATM    1  C   UNL     1      -8.802   9.727  68.965  1.00  0.00    -0.153 C  
HETATM    2  C   UNL     1      -7.813   8.579  69.034  1.00  0.00    -0.104 C  
HETATM    3  C   UNL     1      -8.324   7.232  68.668  1.00  0.00    -0.125 A  
HETATM    4  C   UNL     1      -7.626   6.085  69.115  1.00  0.00    -0.090 A  
HETATM    5  C   UNL     1      -8.188   4.853  68.755  1.00  0.00    -0.083 A  
HETATM    6  C   UNL     1      -7.736  14.543  67.971  1.00  0.00    -0.135 C  
HETATM    7  C   UNL     1      -9.396   4.708  68.032  1.00  0.00    -0.173 A  
HETATM    8  C   UNL     1      -7.521  13.335  68.845  1.00  0.00     0.002 C  
HETATM    9  H   UNL     1     -10.786  13.615  68.618  1.00  0.00     0.000 HD 
HETATM   10  C   UNL     1      -8.874  14.698  67.280  1.00  0.00    -0.220 C  
HETATM   11  C   UNL     1     -10.032   5.871  67.579  1.00  0.00    -0.143 A  
HETATM   12  O   UNL     1      -9.350  13.256  65.506  1.00  0.00     0.098 OA 
HETATM   13  O   UNL     1     -11.213   5.813  66.891  1.00  0.00    -0.510 OA 
HETATM   14  C   UNL     1      -9.482   7.138  67.852  1.00  0.00    -0.135 A  
HETATM   15  H   UNL     1     -11.644   6.601  66.584  1.00  0.00     0.000 HD 
HETATM   16  C   UNL     1      -9.345  13.388  66.729  1.00  0.00    -0.256 C  
HETATM   17  O   UNL     1     -10.995  12.756  68.270  1.00  0.00    -0.230 OA 
HETATM   18  C   UNL     1     -10.071   8.381  67.221  1.00  0.00    -0.253 C  
HETATM   19  C   UNL     1      -7.929  10.957  68.979  1.00  0.00    -0.131 C  
HETATM   20  C   UNL     1      -9.649   9.729  67.741  1.00  0.00    -0.157 C  
HETATM   21  O   UNL     1     -10.850   8.350  66.270  1.00  0.00     0.485 OA 
HETATM   22  C   UNL     1     -10.067  10.892  67.180  1.00  0.00    -0.198 C  
HETATM   23  C   UNL     1      -8.688  12.279  68.903  1.00  0.00     0.264 C  
HETATM   24  H   UNL     1      -5.740  14.960  67.945  1.00  0.00     0.000 HD 
HETATM   25  O   UNL     1      -6.547  15.070  67.456  1.00  0.00    -0.178 OA 
HETATM   26  C   UNL     1      -9.726  12.289  67.747  1.00  0.00    -0.199 C  
HETATM   27  O   UNL     1     -10.997  10.913  66.147  1.00  0.00    -0.162 OA 
HETATM   28  H   UNL     1     -11.290  11.728  65.754  1.00  0.00     0.000 HD 
ENDROOT
BRANCH   4  29
HETATM   29  N   UNL     1      -6.433   6.089  69.832  1.00  0.00    -0.040 NA 
HETATM   30  C   UNL     1      -6.341   6.006  71.287  1.00  0.00    -0.044 C  
HETATM   31  C   UNL     1      -5.164   5.891  69.131  1.00  0.00    -0.004 C  
ENDBRANCH   4  29
BRANCH   7  32
HETATM   32  C   UNL     1      -9.882   3.304  67.713  1.00  0.00     0.253 C  
BRANCH  32  33
HETATM   33  N   UNL     1      -9.206   2.776  66.534  1.00  0.00    -0.307 NA 
HETATM   34  H   UNL     1      -9.558   1.846  66.307  1.00  0.00     0.000 HD 
BRANCH  33  35
HETATM   35  C   UNL     1      -9.272   3.645  65.367  1.00  0.00    -0.153 C  
BRANCH  35  36
HETATM   36  C   UNL     1      -7.845   4.101  64.947  1.00  0.00    -0.092 C  
HETATM   37  C   UNL     1      -6.815   2.974  65.158  1.00  0.00    -0.045 C  
HETATM   38  C   UNL     1      -7.419   5.340  65.759  1.00  0.00    -0.082 C  
HETATM   39  C   UNL     1      -7.855   4.470  63.454  1.00  0.00    -0.077 C  
ENDBRANCH  35  36
ENDBRANCH  33  35
ENDBRANCH  32  33
ENDBRANCH   7  32
BRANCH  10  40
HETATM   40  C   UNL     1      -9.763  15.649  68.016  1.00  0.00    -0.204 C  
HETATM   41  N   UNL     1      -9.381  16.947  68.103  1.00  0.00    -0.234 N  
HETATM   42  H2  UNL     1      -8.510  17.267  67.678  1.00  0.00     0.000 HD 
HETATM   43  H1  UNL     1      -9.987  17.596  68.605  1.00  0.00     0.000 HD 
HETATM   44  O   UNL     1     -10.799  15.309  68.587  1.00  0.00    -0.237 OA 
ENDBRANCH  10  40
BRANCH   8  45
HETATM   45  N   UNL     1      -7.069  13.573  70.236  1.00  0.00     0.739 NA 
HETATM   46  C   UNL     1      -6.686  14.956  70.526  1.00  0.00     0.141 C  
HETATM   47  C   UNL     1      -6.013  12.659  70.659  1.00  0.00     0.012 C  
ENDBRANCH   8  45
TORSDOF 7
ENDMDL
MODEL       71
REMARK 921   NORMALIZED FREE ENERGY PREDICTED BY IDOCK:   -0.08 KCAL/MOL
REMARK 922        TOTAL FREE ENERGY PREDICTED BY IDOCK:   -0.87 KCAL/MOL
REMARK 923 INTER-LIGAND FREE ENERGY PREDICTED BY IDOCK:   -4.25 KCAL/MOL
REMARK 924 INTRA-LIGAND FREE ENERGY PREDICTED BY IDOCK:    3.37 KCAL/MOL
REMARK 927      BINDING AFFINITY PREDICTED BY RF-SCORE:    0.00 PKD
ROOT
HETATM    1  C   UNL     1      -8.779  11.794  67.981  1.00  0.00    -0.167 C  
HETATM    2  C   UNL     1      -8.114  13.089  68.406  1.00  0.00    -0.131 C  
HETATM    3  C   UNL     1      -8.438  14.301  67.610  1.00  0.00    -0.185 A  
HETATM    4  C   UNL     1      -7.559  15.410  67.651  1.00  0.00    -0.167 A  
HETATM    5  C   UNL     1      -7.918  16.501  66.849  1.00  0.00    -0.260 A  
HETATM    6  C   UNL     1      -9.994   7.932  70.970  1.00  0.00    -0.181 C  
HETATM    7  C   UNL     1      -9.050  16.528  65.999  1.00  0.00    -0.290 A  
HETATM    8  C   UNL     1      -8.928   8.845  70.422  1.00  0.00    -0.182 C  
HETATM    9  H   UNL     1     -10.556   7.797  67.769  1.00  0.00     0.000 HD 
HETATM   10  C   UNL     1     -11.116   7.692  70.278  1.00  0.00    -0.256 C  
HETATM   11  C   UNL     1      -9.911  15.423  66.019  1.00  0.00    -0.324 A  
HETATM   12  O   UNL     1     -12.666   9.411  69.964  1.00  0.00     0.544 OA 
HETATM   13  O   UNL     1     -11.014  15.367  65.212  1.00  0.00    -0.353 OA 
HETATM   14  C   UNL     1      -9.640  14.321  66.854  1.00  0.00    -0.268 A  
HETATM   15  H   UNL     1     -11.598  14.618  65.226  1.00  0.00     0.000 HD 
HETATM   16  C   UNL     1     -11.594   8.934  69.592  1.00  0.00     0.412 C  
HETATM   17  O   UNL     1     -10.816   8.634  67.401  1.00  0.00    -0.211 OA 
HETATM   18  C   UNL     1     -10.653  13.207  67.005  1.00  0.00    -0.258 C  
HETATM   19  C   UNL     1      -8.596  10.887  69.173  1.00  0.00    -0.060 C  
HETATM   20  C   UNL     1     -10.228  11.927  67.671  1.00  0.00    -0.215 C  
HETATM   21  O   UNL     1     -11.824  13.308  66.648  1.00  0.00    -0.360 OA 
HETATM   22  C   UNL     1     -11.093  10.910  67.919  1.00  0.00    -0.302 C  
HETATM   23  C   UNL     1      -9.199   9.493  69.013  1.00  0.00    -0.155 C  
HETATM   24  H   UNL     1      -9.240   8.079  72.859  1.00  0.00     0.000 HD 
HETATM   25  O   UNL     1     -10.035   7.909  72.368  1.00  0.00    -0.191 OA 
HETATM   26  C   UNL     1     -10.670   9.549  68.517  1.00  0.00    -0.182 C  
HETATM   27  O   UNL     1     -12.411  10.948  67.477  1.00  0.00     0.607 OA 
HETATM   28  H   UNL     1     -13.017  10.236  67.650  1.00  0.00     0.000 HD 
ENDROOT
BRANCH   4  29
HETATM   29  N   UNL     1      -6.416  15.509  68.438  1.00  0.00    -0.109 NA 
HETATM   30  C   UNL     1      -5.126  14.911  68.107  1.00  0.00    -0.114 C  
HETATM   31  C   UNL     1      -6.370  16.481  69.532  1.00  0.00    -0.214 C  
ENDBRANCH   4  29
BRANCH   7  32
HETATM   32  C   UNL     1      -9.312  17.785  65.187  1.00  0.00     2.247 C  
BRANCH  32  33
HETATM   33  N   UNL     1     -10.730  18.126  65.203  1.00  0.00    -0.541 NA 
HETATM   34  H   UNL     1     -11.282  17.342  65.549  1.00  0.00     0.000 HD 
BRANCH  33  35
HETATM   35  C   UNL     1     -11.045  19.338  65.948  1.00  0.00     0.124 C  
BRANCH  35  36
HETATM   36  C   UNL     1     -10.095  19.486  67.171  1.00  0.00    -0.515 C  
HETATM   37  C   UNL     1     -10.483  20.702  68.035  1.00  0.00     0.079 C  
HETATM   38  C   UNL     1      -8.636  19.643  66.698  1.00  0.00    -0.380 C  
HETATM   39  C   UNL     1     -10.197  18.223  68.042  1.00  0.00    -0.402 C  
ENDBRANCH  35  36
ENDBRANCH  33  35
ENDBRANCH  32  33
ENDBRANCH   7  32
BRANCH  10  40
HETATM   40  C   UNL     1     -10.989   6.370  69.591  1.00  0.00    -0.358 C  
HETATM   41  N   UNL     1     -11.270   6.306  68.265  1.00  0.00    -0.461 N  
HETATM   42  H2  UNL     1     -11.560   7.139  67.751  1.00  0.00     0.000 HD 
HETATM   43  H1  UNL     1     -11.184   5.404  67.797  1.00  0.00     0.000 HD 
HETATM   44  O   UNL     1     -10.690   5.327  70.172  1.00  0.00    -0.276 OA 
ENDBRANCH  10  40
BRANCH   8  45
HETATM   45  N   UNL     1      -7.535   8.339  70.417  1.00  0.00    -0.065 NA 
HETATM   46  C   UNL     1      -6.760   8.694  69.227  1.00  0.00    -0.050 C  
HETATM   47  C   UNL     1      -7.447   6.903  70.665  1.00  0.00    -0.082 C  
ENDBRANCH   8  45
TORSDOF 7
ENDMDL
MODEL       72
REMARK 921   NORMALIZED FREE ENERGY PREDICTED BY IDOCK:   -0.08 KCAL/MOL
REMARK 922        TOTAL FREE ENERGY PREDICTED BY IDOCK:   -0.86 KCAL/MOL
REMARK 923 INTER-LIGAND FREE ENERGY PREDICTED BY IDOCK:   -3.64 KCAL/MOL
REMARK 924 INTRA-LIGAND FREE ENERGY PREDICTED BY IDOCK:    2.78 KCAL/MOL
REMARK 927      BINDING AFFINITY PREDICTED BY RF-SCORE:    0.00 PKD
ROOT
HETATM    1  C   UNL     1      -8.182  11.738  67.081  1.00  0.00    -0.169 C  
HETATM    2  C   UNL     1      -8.493  12.948  67.940  1.00  0.00    -0.181 C  
HETATM    3  C   UNL     1      -9.142  14.102  67.263  1.00  0.00    -0.218 A  
HETATM    4  C   UNL     1      -9.063  15.384  67.856  1.00  0.00    -0.178 A  
HETATM    5  C   UNL     1      -9.671  16.424  67.142  1.00  0.00    -0.241 A  
HETATM    6  C   UNL     1      -8.015   6.946  68.608  1.00  0.00    -0.120 C  
HETATM    7  C   UNL     1     -10.298  16.266  65.883  1.00  0.00    -0.381 A  
HETATM    8  C   UNL     1      -7.497   8.354  68.741  1.00  0.00    -0.092 C  
HETATM    9  H   UNL     1      -7.359   7.730  65.520  1.00  0.00     0.000 HD 
HETATM   10  C   UNL     1      -8.542   6.514  67.453  1.00  0.00    -0.118 C  
HETATM   11  C   UNL     1     -10.385  14.972  65.351  1.00  0.00    -0.383 A  
HETATM   12  O   UNL     1     -10.574   7.395  66.713  1.00  0.00    -0.310 OA 
HETATM   13  O   UNL     1     -10.959  14.742  64.132  1.00  0.00    -0.549 OA 
HETATM   14  C   UNL     1      -9.849  13.875  66.053  1.00  0.00    -0.306 A  
HETATM   15  H   UNL     1     -11.017  13.865  63.772  1.00  0.00     0.000 HD 
HETATM   16  C   UNL     1      -9.362   7.587  66.808  1.00  0.00    -0.165 C  
HETATM   17  O   UNL     1      -7.893   8.447  65.196  1.00  0.00    -0.103 OA 
HETATM   18  C   UNL     1     -10.092  12.462  65.567  1.00  0.00    -0.267 C  
HETATM   19  C   UNL     1      -7.934  10.639  68.083  1.00  0.00    -0.113 C  
HETATM   20  C   UNL     1      -9.286  11.341  66.166  1.00  0.00    -0.230 C  
HETATM   21  O   UNL     1     -10.946  12.174  64.733  1.00  0.00    -0.291 OA 
HETATM   22  C   UNL     1      -9.496  10.039  65.845  1.00  0.00    -0.205 C  
HETATM   23  C   UNL     1      -7.606   9.279  67.471  1.00  0.00    -0.088 C  
HETATM   24  H   UNL     1      -8.110   6.720  70.632  1.00  0.00     0.000 HD 
HETATM   25  O   UNL     1      -8.482   6.413  69.814  1.00  0.00    -0.124 OA 
HETATM   26  C   UNL     1      -8.626   8.874  66.372  1.00  0.00    -0.126 C  
HETATM   27  O   UNL     1     -10.404   9.665  64.861  1.00  0.00    -0.138 OA 
HETATM   28  H   UNL     1     -10.551   8.753  64.636  1.00  0.00     0.000 HD 
ENDROOT
BRANCH   4  29
HETATM   29  N   UNL     1      -8.474  15.675  69.085  1.00  0.00    -0.237 NA 
HETATM   30  C   UNL     1      -9.089  16.494  70.125  1.00  0.00     1.527 C  
HETATM   31  C   UNL     1      -7.296  14.924  69.521  1.00  0.00    -0.178 C  
ENDBRANCH   4  29
BRANCH   7  32
HETATM   32  C   UNL     1     -10.918  17.488  65.227  1.00  0.00     0.232 C  
BRANCH  32  33
HETATM   33  N   UNL     1     -10.048  18.650  65.367  1.00  0.00    -0.116 NA 
HETATM   34  H   UNL     1      -9.595  18.866  64.479  1.00  0.00     0.000 HD 
BRANCH  33  35
HETATM   35  C   UNL     1     -10.710  19.831  65.902  1.00  0.00    -0.383 C  
BRANCH  35  36
HETATM   36  C   UNL     1     -10.119  20.203  67.292  1.00  0.00    -0.572 C  
HETATM   37  C   UNL     1     -11.224  20.669  68.262  1.00  0.00     1.542 C  
HETATM   38  C   UNL     1      -9.068  21.321  67.144  1.00  0.00     0.301 C  
HETATM   39  C   UNL     1      -9.439  18.964  67.897  1.00  0.00    -0.346 C  
ENDBRANCH  35  36
ENDBRANCH  33  35
ENDBRANCH  32  33
ENDBRANCH   7  32
BRANCH  10  40
HETATM   40  C   UNL     1      -7.514   5.711  66.721  1.00  0.00    -0.087 C  
HETATM   41  N   UNL     1      -6.904   4.696  67.381  1.00  0.00    -0.058 N  
HETATM   42  H2  UNL     1      -7.140   4.486  68.352  1.00  0.00     0.000 HD 
HETATM   43  H1  UNL     1      -6.203   4.149  66.882  1.00  0.00     0.000 HD 
HETATM   44  O   UNL     1      -7.158   5.952  65.568  1.00  0.00    -0.065 OA 
ENDBRANCH  10  40
BRANCH   8  45
HETATM   45  N   UNL     1      -6.136   8.529  69.302  1.00  0.00    -0.041 NA 
HETATM   46  C   UNL     1      -5.983   8.078  70.685  1.00  0.00    -0.033 C  
HETATM   47  C   UNL     1      -5.628   9.890  69.156  1.00  0.00    -0.035 C  
ENDBRANCH   8  45
TORSDOF 7
ENDMDL
MODEL       73
REMARK 921   NORMALIZED FREE ENERGY PREDICTED BY IDOCK:   -0.02 KCAL/MOL
REMARK 922        TOTAL FREE ENERGY PREDICTED BY IDOCK:   -0.79 KCAL/MOL
REMARK 923 INTER-LIGAND FREE ENERGY PREDICTED BY IDOCK:   -0.89 KCAL/MOL
REMARK 924 INTRA-LIGAND FREE ENERGY PREDICTED BY IDOCK:    0.10 KCAL/MOL
REMARK 927      BINDING AFFINITY PREDICTED BY RF-SCORE:    0.00 PKD
ROOT
HETATM    1  C   UNL     1     -10.312  13.428  68.094  1.00  0.00    -0.249 C  
HETATM    2  C   UNL     1     -10.584  12.403  69.178  1.00  0.00    -0.003 C  
HETATM    3  C   UNL     1     -10.627  10.978  68.757  1.00  0.00    -0.232 A  
HETATM    4  C   UNL     1     -11.290  10.035  69.579  1.00  0.00    -0.169 A  
HETATM    5  C   UNL     1     -11.313   8.719  69.098  1.00  0.00     0.419 A  
HETATM    6  C   UNL     1      -8.014  17.866  68.680  1.00  0.00    -0.281 C  
HETATM    7  C   UNL     1     -10.765   8.314  67.858  1.00  0.00    -0.138 A  
HETATM    8  C   UNL     1      -9.148  16.949  69.056  1.00  0.00    -0.174 C  
HETATM    9  H   UNL     1      -9.152  16.955  65.772  1.00  0.00     0.000 HD 
HETATM   10  C   UNL     1      -7.413  17.762  67.487  1.00  0.00    -0.213 C  
HETATM   11  C   UNL     1     -10.086   9.274  67.096  1.00  0.00    -0.236 A  
HETATM   12  O   UNL     1      -6.122  15.875  67.008  1.00  0.00    -0.328 OA 
HETATM   13  O   UNL     1      -9.546   8.962  65.878  1.00  0.00    -0.303 OA 
HETATM   14  C   UNL     1      -9.972  10.600  67.556  1.00  0.00    -0.201 A  
HETATM   15  H   UNL     1      -9.086   9.613  65.362  1.00  0.00     0.000 HD 
HETATM   16  C   UNL     1      -7.264  16.327  67.088  1.00  0.00    -0.208 C  
HETATM   17  O   UNL     1      -9.059  16.023  65.611  1.00  0.00    -0.357 OA 
HETATM   18  C   UNL     1      -9.096  11.592  66.822  1.00  0.00    -0.186 C  
HETATM   19  C   UNL     1      -9.928  14.669  68.860  1.00  0.00    -0.228 C  
HETATM   20  C   UNL     1      -9.211  13.053  67.165  1.00  0.00    -0.226 C  
HETATM   21  O   UNL     1      -8.261  11.263  65.983  1.00  0.00    -0.142 OA 
HETATM   22  C   UNL     1      -8.409  13.998  66.613  1.00  0.00     0.253 C  
HETATM   23  C   UNL     1      -9.582  15.875  67.989  1.00  0.00    -0.211 C  
HETATM   24  H   UNL     1      -7.701  18.384  70.627  1.00  0.00     0.000 HD 
HETATM   25  O   UNL     1      -7.275  18.311  69.781  1.00  0.00     0.165 OA 
HETATM   26  C   UNL     1      -8.561  15.514  66.874  1.00  0.00    -0.256 C  
HETATM   27  O   UNL     1      -7.494  13.688  65.612  1.00  0.00     3.224 OA 
HETATM   28  H   UNL     1      -6.932  14.350  65.226  1.00  0.00     0.000 HD 
ENDROOT
BRANCH   4  29
HETATM   29  N   UNL     1     -11.871  10.303  70.815  1.00  0.00    -0.336 NA 
HETATM   30  C   UNL     1     -12.917  11.296  71.042  1.00  0.00    -0.211 C  
HETATM   31  C   UNL     1     -11.655   9.384  71.933  1.00  0.00    -0.278 C  
ENDBRANCH   4  29
BRANCH   7  32
HETATM   32  C   UNL     1     -10.865   6.849  67.470  1.00  0.00    -0.292 C  
BRANCH  32  33
HETATM   33  N   UNL     1      -9.992   6.549  66.341  1.00  0.00    -0.386 NA 
HETATM   34  H   UNL     1      -9.638   7.411  65.925  1.00  0.00     0.000 HD 
BRANCH  33  35
HETATM   35  C   UNL     1      -8.892   5.648  66.657  1.00  0.00    -0.119 C  
BRANCH  35  36
HETATM   36  C   UNL     1      -9.098   4.273  65.959  1.00  0.00    -0.133 C  
HETATM   37  C   UNL     1      -9.509   3.188  66.973  1.00  0.00    -0.128 C  
HETATM   38  C   UNL     1      -7.803   3.838  65.244  1.00  0.00    -0.086 C  
HETATM   39  C   UNL     1     -10.218   4.404  64.913  1.00  0.00    -0.129 C  
ENDBRANCH  35  36
ENDBRANCH  33  35
ENDBRANCH  32  33
ENDBRANCH   7  32
BRANCH  10  40
HETATM   40  C   UNL     1      -7.955  18.816  66.576  1.00  0.00    -0.279 C  
HETATM   41  N   UNL     1      -9.296  19.022  66.560  1.00  0.00    -0.331 N  
HETATM   42  H2  UNL     1      -9.917  18.472  67.154  1.00  0.00     0.000 HD 
HETATM   43  H1  UNL     1      -9.666  19.742  65.938  1.00  0.00     0.000 HD 
HETATM   44  O   UNL     1      -7.257  19.475  65.805  1.00  0.00    -0.284 OA 
ENDBRANCH  10  40
BRANCH   8  45
HETATM   45  N   UNL     1     -10.383  17.573  69.585  1.00  0.00     0.007 NA 
HETATM   46  C   UNL     1     -11.547  17.468  68.703  1.00  0.00     1.321 C  
HETATM   47  C   UNL     1     -10.190  18.960  70.000  1.00  0.00     1.053 C  
ENDBRANCH   8  45
TORSDOF 7
ENDMDL
MODEL       74
REMARK 921   NORMALIZED FREE ENERGY PREDICTED BY IDOCK:    2.22 KCAL/MOL
REMARK 922        TOTAL FREE ENERGY PREDICTED BY IDOCK:    2.37 KCAL/MOL
REMARK 923 INTER-LIGAND FREE ENERGY PREDICTED BY IDOCK:    2.04 KCAL/MOL
REMARK 924 INTRA-LIGAND FREE ENERGY PREDICTED BY IDOCK:    0.33 KCAL/MOL
REMARK 927      BINDING AFFINITY PREDICTED BY RF-SCORE:    0.00 PKD
ROOT
HETATM    1  C   UNL     1     -10.354   9.738  68.966  1.00  0.00    -0.222 C  
HETATM    2  C   UNL     1      -9.464   8.586  69.389  1.00  0.00    -0.161 C  
HETATM    3  C   UNL     1      -8.403   8.174  68.433  1.00  0.00    -0.126 A  
HETATM    4  C   UNL     1      -7.842   6.879  68.540  1.00  0.00    -0.118 A  
HETATM    5  C   UNL     1      -6.871   6.555  67.584  1.00  0.00    -0.076 A  
HETATM    6  C   UNL     1     -12.611  13.049  72.011  1.00  0.00     0.085 C  
HETATM    7  C   UNL     1      -6.472   7.412  66.530  1.00  0.00    -0.052 A  
HETATM    8  C   UNL     1     -12.411  11.614  71.598  1.00  0.00    -0.049 C  
HETATM    9  H   UNL     1     -13.034  13.197  68.789  1.00  0.00     0.000 HD 
HETATM   10  C   UNL     1     -12.420  14.048  71.138  1.00  0.00    -0.447 C  
HETATM   11  C   UNL     1      -7.027   8.698  66.486  1.00  0.00    -0.079 A  
HETATM   12  O   UNL     1     -10.264  14.508  70.366  1.00  0.00     0.437 OA 
HETATM   13  O   UNL     1      -6.706   9.576  65.488  1.00  0.00    -0.075 OA 
HETATM   14  C   UNL     1      -7.961   9.106  67.458  1.00  0.00    -0.100 A  
HETATM   15  H   UNL     1      -7.082  10.448  65.458  1.00  0.00     0.000 HD 
HETATM   16  C   UNL     1     -11.242  13.769  70.257  1.00  0.00     0.241 C  
HETATM   17  O   UNL     1     -12.252  12.967  68.300  1.00  0.00    -0.206 OA 
HETATM   18  C   UNL     1      -8.430  10.544  67.513  1.00  0.00    -0.118 C  
HETATM   19  C   UNL     1     -11.014  10.173  70.251  1.00  0.00    -0.380 C  
HETATM   20  C   UNL     1      -9.620  10.887  68.367  1.00  0.00    -0.177 C  
HETATM   21  O   UNL     1      -7.862  11.462  66.925  1.00  0.00    -0.147 OA 
HETATM   22  C   UNL     1     -10.057  12.161  68.536  1.00  0.00    -0.187 C  
HETATM   23  C   UNL     1     -11.972  11.354  70.109  1.00  0.00    -0.460 C  
HETATM   24  H   UNL     1     -12.498  12.564  73.988  1.00  0.00     0.000 HD 
HETATM   25  O   UNL     1     -12.364  13.273  73.369  1.00  0.00     1.114 OA 
HETATM   26  C   UNL     1     -11.328  12.535  69.331  1.00  0.00    -0.210 C  
HETATM   27  O   UNL     1      -9.490  13.225  67.843  1.00  0.00    -0.199 OA 
HETATM   28  H   UNL     1      -9.796  14.118  67.961  1.00  0.00     0.000 HD 
ENDROOT
BRANCH   4  29
HETATM   29  N   UNL     1      -8.147   5.941  69.523  1.00  0.00    -0.104 NA 
HETATM   30  C   UNL     1      -8.353   6.257  70.934  1.00  0.00    -0.127 C  
HETATM   31  C   UNL     1      -8.564   4.593  69.136  1.00  0.00    -0.079 C  
ENDBRANCH   4  29
BRANCH   7  32
HETATM   32  C   UNL     1      -5.404   6.923  65.568  1.00  0.00    -0.027 C  
BRANCH  32  33
HETATM   33  N   UNL     1      -5.857   5.739  64.847  1.00  0.00    -0.024 NA 
HETATM   34  H   UNL     1      -5.887   4.932  65.470  1.00  0.00     0.000 HD 
BRANCH  33  35
HETATM   35  C   UNL     1      -7.134   5.905  64.166  1.00  0.00    -0.053 C  
BRANCH  35  36
HETATM   36  C   UNL     1      -7.687   4.527  63.705  1.00  0.00    -0.072 C  
HETATM   37  C   UNL     1      -8.299   3.748  64.886  1.00  0.00    -0.100 C  
HETATM   38  C   UNL     1      -6.563   3.685  63.069  1.00  0.00    -0.030 C  
HETATM   39  C   UNL     1      -8.788   4.752  62.655  1.00  0.00    -0.124 C  
ENDBRANCH  35  36
ENDBRANCH  33  35
ENDBRANCH  32  33
ENDBRANCH   7  32
BRANCH  10  40
HETATM   40  C   UNL     1     -13.748  14.498  70.617  1.00  0.00     0.234 C  
HETATM   41  N   UNL     1     -14.302  15.614  71.151  1.00  0.00    -0.710 N  
HETATM   42  H2  UNL     1     -13.825  16.134  71.889  1.00  0.00     0.000 HD 
HETATM   43  H1  UNL     1     -15.207  15.921  70.796  1.00  0.00     0.000 HD 
HETATM   44  O   UNL     1     -14.388  13.883  69.764  1.00  0.00     3.731 OA 
ENDBRANCH  10  40
BRANCH   8  45
HETATM   45  N   UNL     1     -13.498  10.657  71.914  1.00  0.00    -0.316 NA 
HETATM   46  C   UNL     1     -13.208   9.748  73.024  1.00  0.00     1.033 C  
HETATM   47  C   UNL     1     -13.951   9.902  70.749  1.00  0.00     0.519 C  
ENDBRANCH   8  45
TORSDOF 7
ENDMDL
MODEL       75
REMARK 921   NORMALIZED FREE ENERGY PREDICTED BY IDOCK:    2.88 KCAL/MOL
REMARK 922        TOTAL FREE ENERGY PREDICTED BY IDOCK:    3.30 KCAL/MOL
REMARK 923 INTER-LIGAND FREE ENERGY PREDICTED BY IDOCK:    2.42 KCAL/MOL
REMARK 924 INTRA-LIGAND FREE ENERGY PREDICTED BY IDOCK:    0.88 KCAL/MOL
REMARK 927      BINDING AFFINITY PREDICTED BY RF-SCORE:    0.00 PKD
ROOT
HETATM    1  C   UNL     1      -9.451  10.323  67.121  1.00  0.00    -0.184 C  
HETATM    2  C   UNL     1     -10.488  11.116  67.892  1.00  0.00    -0.220 C  
HETATM    3  C   UNL     1     -10.536  12.580  67.639  1.00  0.00    -0.234 A  
HETATM    4  C   UNL     1     -11.138  13.428  68.599  1.00  0.00    -0.263 A  
HETATM    5  C   UNL     1     -11.116  14.796  68.302  1.00  0.00    -0.284 A  
HETATM    6  C   UNL     1      -9.813   5.510  65.699  1.00  0.00     0.165 C  
HETATM    7  C   UNL     1     -10.504  15.353  67.154  1.00  0.00    -0.290 A  
HETATM    8  C   UNL     1      -9.808   6.521  66.816  1.00  0.00    -0.162 C  
HETATM    9  H   UNL     1      -7.137   7.239  65.045  1.00  0.00     0.000 HD 
HETATM   10  C   UNL     1      -9.179   5.757  64.545  1.00  0.00     0.582 C  
HETATM   11  C   UNL     1      -9.952  14.473  66.213  1.00  0.00    -0.305 A  
HETATM   12  O   UNL     1      -9.990   7.421  63.120  1.00  0.00     4.557 OA 
HETATM   13  O   UNL     1      -9.328  14.936  65.088  1.00  0.00    -0.254 OA 
HETATM   14  C   UNL     1     -10.002  13.081  66.422  1.00  0.00    -0.277 A  
HETATM   15  H   UNL     1      -8.954  14.339  64.450  1.00  0.00     0.000 HD 
HETATM   16  C   UNL     1      -9.345   7.190  64.143  1.00  0.00     2.300 C  
HETATM   17  O   UNL     1      -7.322   8.148  64.839  1.00  0.00    -0.080 OA 
HETATM   18  C   UNL     1      -9.564  12.127  65.333  1.00  0.00    -0.096 C  
HETATM   19  C   UNL     1      -9.910   8.893  67.267  1.00  0.00    -0.256 C  
HETATM   20  C   UNL     1      -9.363  10.676  65.678  1.00  0.00    -0.239 C  
HETATM   21  O   UNL     1      -9.401  12.467  64.164  1.00  0.00     0.280 OA 
HETATM   22  C   UNL     1      -9.049   9.740  64.746  1.00  0.00    -0.241 C  
HETATM   23  C   UNL     1      -9.031   7.866  66.557  1.00  0.00    -0.192 C  
HETATM   24  H   UNL     1     -11.403   4.525  66.511  1.00  0.00     0.000 HD 
HETATM   25  O   UNL     1     -10.954   4.700  65.693  1.00  0.00    -0.253 OA 
HETATM   26  C   UNL     1      -8.747   8.261  65.082  1.00  0.00    -0.054 C  
HETATM   27  O   UNL     1      -8.791  10.083  63.423  1.00  0.00    -0.194 OA 
HETATM   28  H   UNL     1      -8.572   9.428  62.771  1.00  0.00     0.000 HD 
ENDROOT
BRANCH   4  29
HETATM   29  N   UNL     1     -11.770  13.009  69.767  1.00  0.00    -0.297 NA 
HETATM   30  C   UNL     1     -12.557  11.787  69.892  1.00  0.00     0.104 C  
HETATM   31  C   UNL     1     -11.437  13.649  71.041  1.00  0.00     0.853 C  
ENDBRANCH   4  29
BRANCH   7  32
HETATM   32  C   UNL     1     -10.560  16.859  66.965  1.00  0.00    -0.230 C  
BRANCH  32  33
HETATM   33  N   UNL     1      -9.224  17.410  66.775  1.00  0.00    -0.252 NA 
HETATM   34  H   UNL     1      -9.277  18.352  66.389  1.00  0.00     0.000 HD 
BRANCH  33  35
HETATM   35  C   UNL     1      -8.396  17.397  67.973  1.00  0.00    -0.231 C  
BRANCH  35  36
HETATM   36  C   UNL     1      -7.119  16.538  67.742  1.00  0.00    -0.154 C  
HETATM   37  C   UNL     1      -7.476  15.055  67.522  1.00  0.00    -0.226 C  
HETATM   38  C   UNL     1      -6.168  16.659  68.950  1.00  0.00    -0.159 C  
HETATM   39  C   UNL     1      -6.389  17.049  66.489  1.00  0.00    -0.219 C  
ENDBRANCH  35  36
ENDBRANCH  33  35
ENDBRANCH  32  33
ENDBRANCH   7  32
BRANCH  10  40
HETATM   40  C   UNL     1      -7.860   5.053  64.554  1.00  0.00    -0.093 C  
HETATM   41  N   UNL     1      -7.609   4.149  63.574  1.00  0.00    -0.064 N  
HETATM   42  H2  UNL     1      -8.302   3.955  62.850  1.00  0.00     0.000 HD 
HETATM   43  H1  UNL     1      -6.709   3.669  63.580  1.00  0.00     0.000 HD 
HETATM   44  O   UNL     1      -7.009   5.213  65.428  1.00  0.00    -0.059 OA 
ENDBRANCH  10  40
BRANCH   8  45
HETATM   45  N   UNL     1      -9.430   6.042  68.166  1.00  0.00    -0.114 NA 
HETATM   46  C   UNL     1      -8.038   6.302  68.539  1.00  0.00    -0.109 C  
HETATM   47  C   UNL     1      -9.756   4.636  68.387  1.00  0.00    -0.134 C  
ENDBRANCH   8  45
TORSDOF 7
ENDMDL
MODEL       76
REMARK 921   NORMALIZED FREE ENERGY PREDICTED BY IDOCK:    3.12 KCAL/MOL
REMARK 922        TOTAL FREE ENERGY PREDICTED BY IDOCK:    3.65 KCAL/MOL
REMARK 923 INTER-LIGAND FREE ENERGY PREDICTED BY IDOCK:    3.77 KCAL/MOL
REMARK 924 INTRA-LIGAND FREE ENERGY PREDICTED BY IDOCK:   -0.13 KCAL/MOL
REMARK 927      BINDING AFFINITY PREDICTED BY RF-SCORE:    0.00 PKD
ROOT
HETATM    1  C   UNL     1      -9.655  13.689  66.880  1.00  0.00    -0.262 C  
HETATM    2  C   UNL     1     -10.236  12.806  65.792  1.00  0.00    -0.302 C  
HETATM    3  C   UNL     1     -10.278  11.346  66.065  1.00  0.00    -0.289 A  
HETATM    4  C   UNL     1     -10.382  10.443  64.980  1.00  0.00    -0.179 A  
HETATM    5  C   UNL     1     -10.384   9.083  65.318  1.00  0.00     1.536 A  
HETATM    6  C   UNL     1     -10.897  18.470  67.837  1.00  0.00    -0.200 C  
HETATM    7  C   UNL     1     -10.249   8.589  66.637  1.00  0.00    -0.345 A  
HETATM    8  C   UNL     1     -10.372  17.452  66.859  1.00  0.00    -0.317 C  
HETATM    9  H   UNL     1      -8.597  16.970  69.580  1.00  0.00     0.000 HD 
HETATM   10  C   UNL     1     -10.766  18.286  69.158  1.00  0.00     0.572 C  
HETATM   11  C   UNL     1     -10.187   9.520  67.683  1.00  0.00    -0.220 A  
HETATM   12  O   UNL     1     -11.963  16.575  70.206  1.00  0.00     0.165 OA 
HETATM   13  O   UNL     1     -10.037   9.120  68.982  1.00  0.00    -0.179 OA 
HETATM   14  C   UNL     1     -10.245  10.901  67.413  1.00  0.00    -0.236 A  
HETATM   15  H   UNL     1      -9.995   9.751  69.690  1.00  0.00     0.000 HD 
HETATM   16  C   UNL     1     -10.979  16.849  69.519  1.00  0.00    -0.051 C  
HETATM   17  O   UNL     1      -8.785  16.051  69.732  1.00  0.00    -0.022 OA 
HETATM   18  C   UNL     1     -10.351  11.899  68.546  1.00  0.00    -0.218 C  
HETATM   19  C   UNL     1     -10.116  15.075  66.504  1.00  0.00    -0.286 C  
HETATM   20  C   UNL     1     -10.132  13.358  68.251  1.00  0.00    -0.247 C  
HETATM   21  O   UNL     1     -10.650  11.584  69.696  1.00  0.00    -0.027 OA 
HETATM   22  C   UNL     1     -10.286  14.325  69.191  1.00  0.00    -0.125 C  
HETATM   23  C   UNL     1      -9.672  16.177  67.463  1.00  0.00    -0.233 C  
HETATM   24  H   UNL     1     -12.091  19.315  66.416  1.00  0.00     0.000 HD 
HETATM   25  O   UNL     1     -11.998  19.185  67.352  1.00  0.00     1.302 OA 
HETATM   26  C   UNL     1      -9.980  15.820  68.943  1.00  0.00    -0.223 C  
HETATM   27  O   UNL     1     -10.559  14.017  70.519  1.00  0.00     0.174 OA 
HETATM   28  H   UNL     1     -10.668  14.694  71.177  1.00  0.00     0.000 HD 
ENDROOT
BRANCH   4  29
HETATM   29  N   UNL     1     -10.517  10.797  63.641  1.00  0.00    -0.224 NA 
HETATM   30  C   UNL     1     -11.345  11.897  63.153  1.00  0.00    -0.143 C  
HETATM   31  C   UNL     1      -9.593  10.247  62.648  1.00  0.00    -0.212 C  
ENDBRANCH   4  29
BRANCH   7  32
HETATM   32  C   UNL     1     -10.271   7.085  66.850  1.00  0.00    -0.248 C  
BRANCH  32  33
HETATM   33  N   UNL     1      -9.455   6.408  65.849  1.00  0.00    -0.378 NA 
HETATM   34  H   UNL     1      -9.138   7.069  65.140  1.00  0.00     0.000 HD 
BRANCH  33  35
HETATM   35  C   UNL     1      -8.327   5.668  66.397  1.00  0.00    -0.112 C  
BRANCH  35  36
HETATM   36  C   UNL     1      -7.052   5.907  65.539  1.00  0.00    -0.069 C  
HETATM   37  C   UNL     1      -6.702   4.662  64.700  1.00  0.00    -0.044 C  
HETATM   38  C   UNL     1      -5.856   6.262  66.445  1.00  0.00    -0.021 C  
HETATM   39  C   UNL     1      -7.306   7.080  64.577  1.00  0.00    -0.084 C  
ENDBRANCH  35  36
ENDBRANCH  33  35
ENDBRANCH  32  33
ENDBRANCH   7  32
BRANCH  10  40
HETATM   40  C   UNL     1      -9.609  19.095  69.649  1.00  0.00     0.255 C  
HETATM   41  N   UNL     1      -9.806  19.922  70.705  1.00  0.00     0.428 N  
HETATM   42  H2  UNL     1     -10.721  19.991  71.153  1.00  0.00     0.000 HD 
HETATM   43  H1  UNL     1      -9.016  20.474  71.040  1.00  0.00     0.000 HD 
HETATM   44  O   UNL     1      -8.498  19.086  69.117  1.00  0.00    -0.217 OA 
ENDBRANCH  10  40
BRANCH   8  45
HETATM   45  N   UNL     1      -9.516  17.946  65.755  1.00  0.00    -0.459 NA 
HETATM   46  C   UNL     1     -10.144  17.911  64.433  1.00  0.00     5.267 C  
HETATM   47  C   UNL     1      -8.209  17.298  65.709  1.00  0.00     0.244 C  
ENDBRANCH   8  45
TORSDOF 7
ENDMDL
MODEL       77
REMARK 921   NORMALIZED FREE ENERGY PREDICTED BY IDOCK:    3.37 KCAL/MOL
REMARK 922        TOTAL FREE ENERGY PREDICTED BY IDOCK:    3.99 KCAL/MOL
REMARK 923 INTER-LIGAND FREE ENERGY PREDICTED BY IDOCK:    0.59 KCAL/MOL
REMARK 924 INTRA-LIGAND FREE ENERGY PREDICTED BY IDOCK:    3.40 KCAL/MOL
REMARK 927      BINDING AFFINITY PREDICTED BY RF-SCORE:    0.00 PKD
ROOT
HETATM    1  C   UNL     1      -9.185   7.747  66.904  1.00  0.00    -0.187 C  
HETATM    2  C   UNL     1      -8.285   8.879  66.449  1.00  0.00    -0.115 C  
HETATM    3  C   UNL     1      -8.643  10.246  66.908  1.00  0.00    -0.127 A  
HETATM    4  C   UNL     1      -8.147  11.366  66.198  1.00  0.00    -0.011 A  
HETATM    5  C   UNL     1      -8.556  12.618  66.674  1.00  0.00    -0.035 A  
HETATM    6  C   UNL     1      -7.821   2.967  67.684  1.00  0.00    -0.068 C  
HETATM    7  C   UNL     1      -9.442  12.808  67.761  1.00  0.00    -0.205 A  
HETATM    8  C   UNL     1      -7.926   4.133  66.736  1.00  0.00    -0.097 C  
HETATM    9  H   UNL     1     -10.911   3.900  68.086  1.00  0.00     0.000 HD 
HETATM   10  C   UNL     1      -8.651   2.854  68.730  1.00  0.00    -0.112 C  
HETATM   11  C   UNL     1      -9.878  11.673  68.457  1.00  0.00    -0.193 A  
HETATM   12  O   UNL     1      -8.492   4.377  70.494  1.00  0.00    -0.075 OA 
HETATM   13  O   UNL     1     -10.749  11.774  69.506  1.00  0.00    -0.441 OA 
HETATM   14  C   UNL     1      -9.451  10.389  68.068  1.00  0.00    -0.152 A  
HETATM   15  H   UNL     1     -11.045  11.004  69.977  1.00  0.00     0.000 HD 
HETATM   16  C   UNL     1      -8.909   4.192  69.351  1.00  0.00    -0.094 C  
HETATM   17  O   UNL     1     -10.992   4.776  68.447  1.00  0.00     0.662 OA 
HETATM   18  C   UNL     1      -9.781   9.181  68.918  1.00  0.00    -0.162 C  
HETATM   19  C   UNL     1      -8.365   6.508  66.646  1.00  0.00    -0.113 C  
HETATM   20  C   UNL     1      -9.558   7.808  68.344  1.00  0.00    -0.157 C  
HETATM   21  O   UNL     1     -10.184   9.262  70.075  1.00  0.00    -0.191 OA 
HETATM   22  C   UNL     1      -9.752   6.675  69.066  1.00  0.00    -0.140 C  
HETATM   23  C   UNL     1      -9.046   5.198  67.037  1.00  0.00    -0.112 C  
HETATM   24  H   UNL     1      -5.937   2.529  67.039  1.00  0.00     0.000 HD 
HETATM   25  O   UNL     1      -6.525   2.448  67.781  1.00  0.00    -0.031 OA 
HETATM   26  C   UNL     1      -9.622   5.250  68.479  1.00  0.00    -0.135 C  
HETATM   27  O   UNL     1     -10.270   6.709  70.356  1.00  0.00    -0.185 OA 
HETATM   28  H   UNL     1     -10.406   5.915  70.861  1.00  0.00     0.000 HD 
ENDROOT
BRANCH   4  29
HETATM   29  N   UNL     1      -7.275  11.316  65.114  1.00  0.00     0.649 NA 
HETATM   30  C   UNL     1      -7.556  11.880  63.797  1.00  0.00     3.203 C  
HETATM   31  C   UNL     1      -5.878  10.932  65.324  1.00  0.00     0.020 C  
ENDBRANCH   4  29
BRANCH   7  32
HETATM   32  C   UNL     1      -9.794  14.229  68.165  1.00  0.00    -0.226 C  
BRANCH  32  33
HETATM   33  N   UNL     1      -8.634  14.912  68.726  1.00  0.00    -0.171 NA 
HETATM   34  H   UNL     1      -7.771  14.466  68.414  1.00  0.00     0.000 HD 
BRANCH  33  35
HETATM   35  C   UNL     1      -8.593  16.343  68.456  1.00  0.00    -0.223 C  
BRANCH  35  36
HETATM   36  C   UNL     1      -9.120  16.640  67.022  1.00  0.00    -0.232 C  
HETATM   37  C   UNL     1      -9.832  18.006  66.962  1.00  0.00    -0.318 C  
HETATM   38  C   UNL     1     -10.098  15.536  66.573  1.00  0.00    -0.290 C  
HETATM   39  C   UNL     1      -7.932  16.672  66.047  1.00  0.00    -0.052 C  
ENDBRANCH  35  36
ENDBRANCH  33  35
ENDBRANCH  32  33
ENDBRANCH   7  32
BRANCH  10  40
HETATM   40  C   UNL     1      -9.735   1.883  68.389  1.00  0.00     0.058 C  
HETATM   41  N   UNL     1      -9.842   1.468  67.102  1.00  0.00    -0.160 N  
HETATM   42  H2  UNL     1      -9.200   1.810  66.386  1.00  0.00     0.000 HD 
HETATM   43  H1  UNL     1     -10.582   0.805  66.869  1.00  0.00     0.000 HD 
HETATM   44  O   UNL     1     -10.565   1.475  69.202  1.00  0.00     1.137 OA 
ENDBRANCH  10  40
BRANCH   8  45
HETATM   45  N   UNL     1      -7.980   3.830  65.287  1.00  0.00    -0.092 NA 
HETATM   46  C   UNL     1      -8.914   4.658  64.524  1.00  0.00    -0.147 C  
HETATM   47  C   UNL     1      -8.215   2.416  65.006  1.00  0.00    -0.084 C  
ENDBRANCH   8  45
TORSDOF 7
ENDMDL
MODEL       78
REMARK 921   NORMALIZED FREE ENERGY PREDICTED BY IDOCK:    5.37 KCAL/MOL
REMARK 922        TOTAL FREE ENERGY PREDICTED BY IDOCK:    6.81 KCAL/MOL
REMARK 923 INTER-LIGAND FREE ENERGY PREDICTED BY IDOCK:    6.79 KCAL/MOL
REMARK 924 INTRA-LIGAND FREE ENERGY PREDICTED BY IDOCK:    0.02 KCAL/MOL
REMARK 927      BINDING AFFINITY PREDICTED BY RF-SCORE:    0.00 PKD
ROOT
HETATM    1  C   UNL     1      -8.698  13.697  67.825  1.00  0.00    -0.184 C  
HETATM    2  C   UNL     1      -7.893  12.444  68.110  1.00  0.00    -0.146 C  
HETATM    3  C   UNL     1      -8.264  11.222  67.350  1.00  0.00    -0.135 A  
HETATM    4  C   UNL     1      -7.885   9.954  67.853  1.00  0.00    -0.090 A  
HETATM    5  C   UNL     1      -8.299   8.851  67.096  1.00  0.00    -0.103 A  
HETATM    6  C   UNL     1      -7.065  18.445  68.164  1.00  0.00    -0.248 C  
HETATM    7  C   UNL     1      -9.087   8.938  65.924  1.00  0.00    -0.271 A  
HETATM    8  C   UNL     1      -7.308  17.120  68.839  1.00  0.00    -0.241 C  
HETATM    9  H   UNL     1     -10.141  17.801  67.323  1.00  0.00     0.000 HD 
HETATM   10  C   UNL     1      -7.788  18.816  67.098  1.00  0.00    -0.245 C  
HETATM   11  C   UNL     1      -9.408  10.215  65.443  1.00  0.00    -0.216 A  
HETATM   12  O   UNL     1      -7.530  17.674  65.078  1.00  0.00     0.854 OA 
HETATM   13  O   UNL     1     -10.181  10.380  64.327  1.00  0.00    -0.346 OA 
HETATM   14  C   UNL     1      -8.965  11.366  66.123  1.00  0.00    -0.207 A  
HETATM   15  H   UNL     1     -10.398  11.246  64.002  1.00  0.00     0.000 HD 
HETATM   16  C   UNL     1      -8.044  17.650  66.196  1.00  0.00    -0.193 C  
HETATM   17  O   UNL     1     -10.224  17.023  66.784  1.00  0.00    -0.284 OA 
HETATM   18  C   UNL     1      -9.162  12.738  65.516  1.00  0.00     0.375 C  
HETATM   19  C   UNL     1      -7.853  14.807  68.401  1.00  0.00    -0.128 C  
HETATM   20  C   UNL     1      -8.937  13.951  66.377  1.00  0.00    -0.017 C  
HETATM   21  O   UNL     1      -9.459  12.917  64.337  1.00  0.00     0.246 OA 
HETATM   22  C   UNL     1      -9.014  15.216  65.892  1.00  0.00     0.097 C  
HETATM   23  C   UNL     1      -8.438  16.207  68.233  1.00  0.00    -0.180 C  
HETATM   24  H   UNL     1      -5.233  18.629  69.040  1.00  0.00     0.000 HD 
HETATM   25  O   UNL     1      -5.745  18.893  68.284  1.00  0.00    -0.194 OA 
HETATM   26  C   UNL     1      -8.879  16.482  66.768  1.00  0.00    -0.226 C  
HETATM   27  O   UNL     1      -9.410  15.475  64.584  1.00  0.00     0.361 OA 
HETATM   28  H   UNL     1      -9.464  16.360  64.244  1.00  0.00     0.000 HD 
ENDROOT
BRANCH   4  29
HETATM   29  N   UNL     1      -7.116   9.731  68.992  1.00  0.00    -0.065 NA 
HETATM   30  C   UNL     1      -7.220  10.502  70.227  1.00  0.00     0.114 C  
HETATM   31  C   UNL     1      -6.337   8.497  69.111  1.00  0.00    -0.043 C  
ENDBRANCH   4  29
BRANCH   7  32
HETATM   32  C   UNL     1      -9.460   7.651  65.208  1.00  0.00     0.933 C  
BRANCH  32  33
HETATM   33  N   UNL     1      -8.268   6.956  64.736  1.00  0.00    -0.272 NA 
HETATM   34  H   UNL     1      -7.441   7.289  65.231  1.00  0.00     0.000 HD 
BRANCH  33  35
HETATM   35  C   UNL     1      -8.355   5.504  64.808  1.00  0.00    -0.136 C  
BRANCH  35  36
HETATM   36  C   UNL     1      -7.092   4.918  65.503  1.00  0.00    -0.067 C  
HETATM   37  C   UNL     1      -5.815   5.657  65.055  1.00  0.00    -0.021 C  
HETATM   38  C   UNL     1      -6.951   3.418  65.178  1.00  0.00    -0.053 C  
HETATM   39  C   UNL     1      -7.234   5.082  67.025  1.00  0.00    -0.077 C  
ENDBRANCH  35  36
ENDBRANCH  33  35
ENDBRANCH  32  33
ENDBRANCH   7  32
BRANCH  10  40
HETATM   40  C   UNL     1      -8.857  19.763  67.542  1.00  0.00    -0.326 C  
HETATM   41  N   UNL     1      -9.694  19.366  68.533  1.00  0.00    -0.395 N  
HETATM   42  H2  UNL     1      -9.596  18.447  68.964  1.00  0.00     0.000 HD 
HETATM   43  H1  UNL     1     -10.423  20.012  68.835  1.00  0.00     0.000 HD 
HETATM   44  O   UNL     1      -9.050  20.863  67.025  1.00  0.00    -0.218 OA 
ENDBRANCH  10  40
BRANCH   8  45
HETATM   45  N   UNL     1      -7.484  17.127  70.310  1.00  0.00     1.739 NA 
HETATM   46  C   UNL     1      -8.746  16.550  70.777  1.00  0.00     4.113 C  
HETATM   47  C   UNL     1      -7.283  18.446  70.904  1.00  0.00     3.286 C  
ENDBRANCH   8  45
TORSDOF 7
ENDMDL
MODEL       79
REMARK 921   NORMALIZED FREE ENERGY PREDICTED BY IDOCK:    5.63 KCAL/MOL
REMARK 922        TOTAL FREE ENERGY PREDICTED BY IDOCK:    7.18 KCAL/MOL
REMARK 923 INTER-LIGAND FREE ENERGY PREDICTED BY IDOCK:    0.51 KCAL/MOL
REMARK 924 INTRA-LIGAND FREE ENERGY PREDICTED BY IDOCK:    6.67 KCAL/MOL
REMARK 927      BINDING AFFINITY PREDICTED BY RF-SCORE:    0.00 PKD
ROOT
HETATM    1  C   UNL     1     -10.030   9.474  69.612  1.00  0.00    -0.220 C  
HETATM    2  C   UNL     1     -11.078   8.884  70.536  1.00  0.00    -0.288 C  
HETATM    3  C   UNL     1     -10.644   7.763  71.410  1.00  0.00    -0.242 A  
HETATM    4  C   UNL     1     -11.620   6.893  71.953  1.00  0.00    -0.286 A  
HETATM    5  C   UNL     1     -11.129   5.843  72.741  1.00  0.00    -0.321 A  
HETATM    6  C   UNL     1      -9.821  14.229  67.977  1.00  0.00    -0.224 C  
HETATM    7  C   UNL     1      -9.755   5.596  72.973  1.00  0.00    -0.166 A  
HETATM    8  C   UNL     1     -10.590  12.938  68.073  1.00  0.00    -0.227 C  
HETATM    9  H   UNL     1      -7.612  12.042  67.017  1.00  0.00     0.000 HD 
HETATM   10  C   UNL     1      -8.482  14.237  68.038  1.00  0.00    -0.164 C  
HETATM   11  C   UNL     1      -8.827   6.504  72.446  1.00  0.00    -0.133 A  
HETATM   12  O   UNL     1      -7.417  13.682  70.041  1.00  0.00     0.637 OA 
HETATM   13  O   UNL     1      -7.482   6.322  72.613  1.00  0.00    -0.097 OA 
HETATM   14  C   UNL     1      -9.261   7.617  71.700  1.00  0.00    -0.159 A  
HETATM   15  H   UNL     1      -6.853   6.938  72.255  1.00  0.00     0.000 HD 
HETATM   16  C   UNL     1      -7.988  13.244  69.043  1.00  0.00     0.259 C  
HETATM   17  O   UNL     1      -7.381  11.422  67.699  1.00  0.00    -0.093 OA 
HETATM   18  C   UNL     1      -8.279   8.687  71.279  1.00  0.00    -0.154 C  
HETATM   19  C   UNL     1     -10.626  10.794  69.189  1.00  0.00    -0.254 C  
HETATM   20  C   UNL     1      -8.709   9.706  70.258  1.00  0.00    -0.248 C  
HETATM   21  O   UNL     1      -7.153   8.796  71.759  1.00  0.00    -0.142 OA 
HETATM   22  C   UNL     1      -7.920  10.745  69.884  1.00  0.00     0.367 C  
HETATM   23  C   UNL     1      -9.751  11.617  68.247  1.00  0.00    -0.197 C  
HETATM   24  H   UNL     1     -11.482  15.327  68.413  1.00  0.00     0.000 HD 
HETATM   25  O   UNL     1     -10.533  15.333  68.456  1.00  0.00    -0.227 OA 
HETATM   26  C   UNL     1      -8.295  11.753  68.775  1.00  0.00    -0.009 C  
HETATM   27  O   UNL     1      -6.615  10.876  70.348  1.00  0.00    -0.326 OA 
HETATM   28  H   UNL     1      -6.062  11.603  70.086  1.00  0.00     0.000 HD 
ENDROOT
BRANCH   4  29
HETATM   29  N   UNL     1     -12.997   7.023  71.799  1.00  0.00    -0.351 NA 
HETATM   30  C   UNL     1     -13.749   8.247  72.059  1.00  0.00    -0.337 C  
HETATM   31  C   UNL     1     -13.748   5.991  71.082  1.00  0.00     2.428 C  
ENDBRANCH   4  29
BRANCH   7  32
HETATM   32  C   UNL     1      -9.373   4.417  73.852  1.00  0.00    -0.112 C  
BRANCH  32  33
HETATM   33  N   UNL     1     -10.046   3.201  73.411  1.00  0.00    -0.111 NA 
HETATM   34  H   UNL     1     -11.036   3.233  73.654  1.00  0.00     0.000 HD 
BRANCH  33  35
HETATM   35  C   UNL     1      -9.879   2.905  71.995  1.00  0.00    -0.172 C  
BRANCH  35  36
HETATM   36  C   UNL     1      -8.408   3.160  71.556  1.00  0.00    -0.081 C  
HETATM   37  C   UNL     1      -8.019   2.268  70.361  1.00  0.00    -0.051 C  
HETATM   38  C   UNL     1      -7.446   2.888  72.729  1.00  0.00    -0.049 C  
HETATM   39  C   UNL     1      -8.259   4.630  71.128  1.00  0.00    -0.092 C  
ENDBRANCH  35  36
ENDBRANCH  33  35
ENDBRANCH  32  33
ENDBRANCH   7  32
BRANCH  10  40
HETATM   40  C   UNL     1      -7.933  14.346  66.651  1.00  0.00     0.522 C  
HETATM   41  N   UNL     1      -6.989  13.453  66.264  1.00  0.00     2.120 N  
HETATM   42  H2  UNL     1      -6.662  12.726  66.901  1.00  0.00     0.000 HD 
HETATM   43  H1  UNL     1      -6.615  13.527  65.317  1.00  0.00     0.000 HD 
HETATM   44  O   UNL     1      -8.256  15.231  65.859  1.00  0.00     0.604 OA 
ENDBRANCH  10  40
BRANCH   8  45
HETATM   45  N   UNL     1     -11.616  12.678  67.035  1.00  0.00    -0.346 NA 
HETATM   46  C   UNL     1     -11.390  11.467  66.243  1.00  0.00    -0.153 C  
HETATM   47  C   UNL     1     -11.842  13.821  66.155  1.00  0.00    -0.398 C  
ENDBRANCH   8  45
TORSDOF 7
ENDMDL
MODEL       80
REMARK 921   NORMALIZED FREE ENERGY PREDICTED BY IDOCK:    8.15 KCAL/MOL
REMARK 922        TOTAL FREE ENERGY PREDICTED BY IDOCK:   10.73 KCAL/MOL
REMARK 923 INTER-LIGAND FREE ENERGY PREDICTED BY IDOCK:    9.37 KCAL/MOL
REMARK 924 INTRA-LIGAND FREE ENERGY PREDICTED BY IDOCK:    1.36 KCAL/MOL
REMARK 927      BINDING AFFINITY PREDICTED BY RF-SCORE:    0.00 PKD
ROOT
HETATM    1  C   UNL     1     -10.513   9.982  70.138  1.00  0.00    -0.338 C  
HETATM    2  C   UNL     1      -9.812   8.834  70.840  1.00  0.00    -0.278 C  
HETATM    3  C   UNL     1      -8.626   8.255  70.157  1.00  0.00    -0.128 A  
HETATM    4  C   UNL     1      -8.200   6.950  70.501  1.00  0.00    -0.120 A  
HETATM    5  C   UNL     1      -7.095   6.464  69.791  1.00  0.00    -0.072 A  
HETATM    6  C   UNL     1     -13.033  13.742  72.335  1.00  0.00    -0.345 C  
HETATM    7  C   UNL     1      -6.439   7.171  68.756  1.00  0.00    -0.036 A  
HETATM    8  C   UNL     1     -12.874  12.261  72.115  1.00  0.00    -0.047 C  
HETATM    9  H   UNL     1     -12.828  13.549  69.094  1.00  0.00     0.000 HD 
HETATM   10  C   UNL     1     -12.603  14.623  71.421  1.00  0.00    -0.404 C  
HETATM   11  C   UNL     1      -6.872   8.474  68.474  1.00  0.00    -0.064 A  
HETATM   12  O   UNL     1     -10.311  14.866  71.045  1.00  0.00     0.299 OA 
HETATM   13  O   UNL     1      -6.299   9.213  67.476  1.00  0.00    -0.061 OA 
HETATM   14  C   UNL     1      -7.936   9.044  69.199  1.00  0.00    -0.101 A  
HETATM   15  H   UNL     1      -6.593  10.096  67.286  1.00  0.00     0.000 HD 
HETATM   16  C   UNL     1     -11.306  14.178  70.821  1.00  0.00     0.205 C  
HETATM   17  O   UNL     1     -11.989  13.219  68.793  1.00  0.00    -0.325 OA 
HETATM   18  C   UNL     1      -8.292  10.503  69.017  1.00  0.00    -0.154 C  
HETATM   19  C   UNL     1     -11.367  10.597  71.219  1.00  0.00     0.389 C  
HETATM   20  C   UNL     1      -9.591  11.010  69.583  1.00  0.00     0.389 C  
HETATM   21  O   UNL     1      -7.552  11.314  68.463  1.00  0.00    -0.107 OA 
HETATM   22  C   UNL     1      -9.949  12.318  69.534  1.00  0.00     0.999 C  
HETATM   23  C   UNL     1     -12.184  11.808  70.774  1.00  0.00    -0.424 C  
HETATM   24  H   UNL     1     -13.334  13.479  74.335  1.00  0.00     0.000 HD 
HETATM   25  O   UNL     1     -13.030  14.104  73.686  1.00  0.00    -0.385 OA 
HETATM   26  C   UNL     1     -11.314  12.854  70.023  1.00  0.00     0.127 C  
HETATM   27  O   UNL     1      -9.179  13.262  68.863  1.00  0.00    -0.388 OA 
HETATM   28  H   UNL     1      -9.430  14.178  68.829  1.00  0.00     0.000 HD 
ENDROOT
BRANCH   4  29
HETATM   29  N   UNL     1      -8.759   6.150  71.494  1.00  0.00    -0.135 NA 
HETATM   30  C   UNL     1      -9.085   4.736  71.334  1.00  0.00    -0.135 C  
HETATM   31  C   UNL     1      -8.790   6.627  72.878  1.00  0.00    -0.125 C  
ENDBRANCH   4  29
BRANCH   7  32
HETATM   32  C   UNL     1      -5.250   6.515  68.075  1.00  0.00    -0.008 C  
BRANCH  32  33
HETATM   33  N   UNL     1      -5.625   5.227  67.502  1.00  0.00    -0.012 NA 
HETATM   34  H   UNL     1      -4.798   4.654  67.338  1.00  0.00     0.000 HD 
BRANCH  33  35
HETATM   35  C   UNL     1      -6.609   4.489  68.282  1.00  0.00    -0.046 C  
BRANCH  35  36
HETATM   36  C   UNL     1      -6.625   2.992  67.860  1.00  0.00    -0.037 C  
HETATM   37  C   UNL     1      -5.209   2.497  67.505  1.00  0.00    -0.012 C  
HETATM   38  C   UNL     1      -7.554   2.789  66.647  1.00  0.00    -0.075 C  
HETATM   39  C   UNL     1      -7.152   2.146  69.031  1.00  0.00    -0.040 C  
ENDBRANCH  35  36
ENDBRANCH  33  35
ENDBRANCH  32  33
ENDBRANCH   7  32
BRANCH  10  40
HETATM   40  C   UNL     1     -13.769  15.088  70.608  1.00  0.00     0.004 C  
HETATM   41  N   UNL     1     -14.321  16.290  70.906  1.00  0.00     1.284 N  
HETATM   42  H2  UNL     1     -13.950  16.863  71.665  1.00  0.00     0.000 HD 
HETATM   43  H1  UNL     1     -15.116  16.607  70.351  1.00  0.00     0.000 HD 
HETATM   44  O   UNL     1     -14.286  14.417  69.714  1.00  0.00     2.715 OA 
ENDBRANCH  10  40
BRANCH   8  45
HETATM   45  N   UNL     1     -14.073  11.411  72.306  1.00  0.00     0.556 NA 
HETATM   46  C   UNL     1     -14.073  10.622  73.539  1.00  0.00     4.777 C  
HETATM   47  C   UNL     1     -14.354  10.553  71.159  1.00  0.00     2.026 C  
ENDBRANCH   8  45
TORSDOF 7
ENDMDL
MODEL       81
REMARK 921   NORMALIZED FREE ENERGY PREDICTED BY IDOCK:   11.09 KCAL/MOL
REMARK 922        TOTAL FREE ENERGY PREDICTED BY IDOCK:   14.88 KCAL/MOL
REMARK 923 INTER-LIGAND FREE ENERGY PREDICTED BY IDOCK:   13.50 KCAL/MOL
REMARK 924 INTRA-LIGAND FREE ENERGY PREDICTED BY IDOCK:    1.37 KCAL/MOL
REMARK 927      BINDING AFFINITY PREDICTED BY RF-SCORE:    0.00 PKD
ROOT
HETATM    1  C   UNL     1      -9.246  15.145  69.078  1.00  0.00    -0.221 C  
HETATM    2  C   UNL     1      -8.078  14.313  69.569  1.00  0.00     0.366 C  
HETATM    3  C   UNL     1      -8.323  12.859  69.756  1.00  0.00     2.152 A  
HETATM    4  C   UNL     1      -7.464  12.116  70.601  1.00  0.00     3.918 A  
HETATM    5  C   UNL     1      -7.779  10.759  70.749  1.00  0.00     2.230 A  
HETATM    6  C   UNL     1      -8.979  19.329  66.295  1.00  0.00    -0.328 C  
HETATM    7  C   UNL     1      -8.899  10.132  70.154  1.00  0.00     0.100 A  
HETATM    8  C   UNL     1      -8.609  18.606  67.563  1.00  0.00    -0.269 C  
HETATM    9  H   UNL     1     -11.853  18.174  67.287  1.00  0.00     0.000 HD 
HETATM   10  C   UNL     1     -10.083  18.998  65.612  1.00  0.00     0.071 C  
HETATM   11  C   UNL     1      -9.701  10.897  69.296  1.00  0.00    -0.064 A  
HETATM   12  O   UNL     1     -10.195  16.929  64.535  1.00  0.00     0.445 OA 
HETATM   13  O   UNL     1     -10.810  10.366  68.699  1.00  0.00    -0.205 OA 
HETATM   14  C   UNL     1      -9.397  12.251  69.054  1.00  0.00     0.375 A  
HETATM   15  H   UNL     1     -11.353  10.885  68.118  1.00  0.00     0.000 HD 
HETATM   16  C   UNL     1     -10.286  17.515  65.613  1.00  0.00    -0.134 C  
HETATM   17  O   UNL     1     -11.889  17.224  67.299  1.00  0.00     1.084 OA 
HETATM   18  C   UNL     1     -10.155  13.029  68.001  1.00  0.00    -0.235 C  
HETATM   19  C   UNL     1      -8.603  16.426  68.607  1.00  0.00    -0.237 C  
HETATM   20  C   UNL     1     -10.006  14.526  67.958  1.00  0.00    -0.222 C  
HETATM   21  O   UNL     1     -10.859  12.497  67.146  1.00  0.00    -0.240 OA 
HETATM   22  C   UNL     1     -10.587  15.291  66.999  1.00  0.00    -0.306 C  
HETATM   23  C   UNL     1      -9.575  17.457  68.038  1.00  0.00    -0.276 C  
HETATM   24  H   UNL     1      -7.088  20.063  66.085  1.00  0.00     0.000 HD 
HETATM   25  O   UNL     1      -7.871  19.830  65.602  1.00  0.00    -0.381 OA 
HETATM   26  C   UNL     1     -10.529  16.835  66.980  1.00  0.00    -0.285 C  
HETATM   27  O   UNL     1     -11.444  14.746  66.049  1.00  0.00    -0.351 OA 
HETATM   28  H   UNL     1     -11.850  15.282  65.377  1.00  0.00     0.000 HD 
ENDROOT
BRANCH   4  29
HETATM   29  N   UNL     1      -6.334  12.612  71.246  1.00  0.00     0.748 NA 
HETATM   30  C   UNL     1      -5.178  13.190  70.568  1.00  0.00    -0.122 C  
HETATM   31  C   UNL     1      -6.366  12.841  72.692  1.00  0.00     3.801 C  
ENDBRANCH   4  29
BRANCH   7  32
HETATM   32  C   UNL     1      -9.113   8.649  70.405  1.00  0.00    -0.159 C  
BRANCH  32  33
HETATM   33  N   UNL     1      -8.419   7.847  69.405  1.00  0.00    -0.132 NA 
HETATM   34  H   UNL     1      -8.660   6.861  69.508  1.00  0.00     0.000 HD 
BRANCH  33  35
HETATM   35  C   UNL     1      -8.638   8.283  68.032  1.00  0.00    -0.132 C  
BRANCH  35  36
HETATM   36  C   UNL     1      -9.834   7.513  67.402  1.00  0.00    -0.221 C  
HETATM   37  C   UNL     1     -10.626   6.738  68.473  1.00  0.00    -0.265 C  
HETATM   38  C   UNL     1      -9.329   6.526  66.330  1.00  0.00    -0.144 C  
HETATM   39  C   UNL     1     -10.784   8.521  66.734  1.00  0.00    -0.081 C  
ENDBRANCH  35  36
ENDBRANCH  33  35
ENDBRANCH  32  33
ENDBRANCH   7  32
BRANCH  10  40
HETATM   40  C   UNL     1     -11.166  19.977  65.937  1.00  0.00     0.420 C  
HETATM   41  N   UNL     1     -11.755  19.900  67.156  1.00  0.00     0.967 N  
HETATM   42  H2  UNL     1     -11.467  19.193  67.834  1.00  0.00     0.000 HD 
HETATM   43  H1  UNL     1     -12.494  20.567  67.378  1.00  0.00     0.000 HD 
HETATM   44  O   UNL     1     -11.586  20.817  65.141  1.00  0.00     1.181 OA 
ENDBRANCH  10  40
BRANCH   8  45
HETATM   45  N   UNL     1      -8.288  19.433  68.750  1.00  0.00    -0.367 NA 
HETATM   46  C   UNL     1      -9.310  19.421  69.798  1.00  0.00     0.466 C  
HETATM   47  C   UNL     1      -7.933  20.808  68.410  1.00  0.00     0.558 C  
ENDBRANCH   8  45
TORSDOF 7
ENDMDL
MODEL       82
REMARK 921   NORMALIZED FREE ENERGY PREDICTED BY IDOCK:   15.79 KCAL/MOL
REMARK 922        TOTAL FREE ENERGY PREDICTED BY IDOCK:   21.50 KCAL/MOL
REMARK 923 INTER-LIGAND FREE ENERGY PREDICTED BY IDOCK:   15.17 KCAL/MOL
REMARK 924 INTRA-LIGAND FREE ENERGY PREDICTED BY IDOCK:    6.33 KCAL/MOL
REMARK 927      BINDING AFFINITY PREDICTED BY RF-SCORE:    0.00 PKD
ROOT
HETATM    1  C   UNL     1      -9.261  12.417  67.111  1.00  0.00    -0.199 C  
HETATM    2  C   UNL     1      -8.734  13.801  66.784  1.00  0.00    -0.108 C  
HETATM    3  C   UNL     1      -9.303  14.935  67.558  1.00  0.00    -0.193 A  
HETATM    4  C   UNL     1      -9.205  16.246  67.034  1.00  0.00    -0.214 A  
HETATM    5  C   UNL     1      -9.793  17.256  67.807  1.00  0.00    -0.281 A  
HETATM    6  C   UNL     1      -6.742   8.080  66.705  1.00  0.00    -0.064 C  
HETATM    7  C   UNL     1     -10.492  17.029  69.016  1.00  0.00    -0.337 A  
HETATM    8  C   UNL     1      -7.272   9.323  66.040  1.00  0.00    -0.091 C  
HETATM    9  H   UNL     1      -9.841   8.116  67.692  1.00  0.00     0.000 HD 
HETATM   10  C   UNL     1      -7.326   7.587  67.806  1.00  0.00    -0.103 C  
HETATM   11  C   UNL     1     -10.532  15.720  69.515  1.00  0.00    -0.270 A  
HETATM   12  O   UNL     1      -7.204   8.782  69.809  1.00  0.00    -0.049 OA 
HETATM   13  O   UNL     1     -11.204  15.419  70.667  1.00  0.00    -0.293 OA 
HETATM   14  C   UNL     1      -9.903  14.671  68.817  1.00  0.00    -0.227 A  
HETATM   15  H   UNL     1     -11.231  14.532  71.005  1.00  0.00     0.000 HD 
HETATM   16  C   UNL     1      -7.765   8.691  68.717  1.00  0.00    -0.097 C  
HETATM   17  O   UNL     1     -10.051   8.869  68.232  1.00  0.00    -0.173 OA 
HETATM   18  C   UNL     1      -9.797  13.294  69.436  1.00  0.00     0.805 C  
HETATM   19  C   UNL     1      -8.243  11.489  66.498  1.00  0.00    -0.129 C  
HETATM   20  C   UNL     1      -9.377  12.139  68.569  1.00  0.00    -0.108 C  
HETATM   21  O   UNL     1      -9.997  13.074  70.629  1.00  0.00     4.139 OA 
HETATM   22  C   UNL     1      -9.181  10.889  69.061  1.00  0.00    -0.115 C  
HETATM   23  C   UNL     1      -8.531  10.003  66.697  1.00  0.00    -0.126 C  
HETATM   24  H   UNL     1      -4.952   8.250  65.743  1.00  0.00     0.000 HD 
HETATM   25  O   UNL     1      -5.367   7.900  66.523  1.00  0.00    -0.024 OA 
HETATM   26  C   UNL     1      -8.840   9.664  68.182  1.00  0.00    -0.119 C  
HETATM   27  O   UNL     1      -9.456  10.574  70.387  1.00  0.00    -0.099 OA 
HETATM   28  H   UNL     1      -9.318   9.699  70.732  1.00  0.00     0.000 HD 
ENDROOT
BRANCH   4  29
HETATM   29  N   UNL     1      -8.550  16.603  65.858  1.00  0.00    -0.474 NA 
HETATM   30  C   UNL     1      -7.498  17.611  65.769  1.00  0.00    -0.008 C  
HETATM   31  C   UNL     1      -8.690  15.766  64.666  1.00  0.00     5.639 C  
ENDBRANCH   4  29
BRANCH   7  32
HETATM   32  C   UNL     1     -11.078  18.226  69.746  1.00  0.00     2.363 C  
BRANCH  32  33
HETATM   33  N   UNL     1     -10.481  18.369  71.069  1.00  0.00     1.620 NA 
HETATM   34  H   UNL     1      -9.990  17.516  71.334  1.00  0.00     0.000 HD 
BRANCH  33  35
HETATM   35  C   UNL     1      -9.605  19.525  71.208  1.00  0.00     2.777 C  
BRANCH  35  36
HETATM   36  C   UNL     1      -8.800  19.756  69.897  1.00  0.00     0.835 C  
HETATM   37  C   UNL     1      -7.406  20.343  70.195  1.00  0.00     0.800 C  
HETATM   38  C   UNL     1      -9.565  20.713  68.962  1.00  0.00     0.691 C  
HETATM   39  C   UNL     1      -8.612  18.410  69.178  1.00  0.00     0.075 C  
ENDBRANCH  35  36
ENDBRANCH  33  35
ENDBRANCH  32  33
ENDBRANCH   7  32
BRANCH  10  40
HETATM   40  C   UNL     1      -8.207   6.443  67.417  1.00  0.00    -0.116 C  
HETATM   41  N   UNL     1      -7.663   5.430  66.699  1.00  0.00    -0.099 N  
HETATM   42  H2  UNL     1      -6.678   5.447  66.431  1.00  0.00     0.000 HD 
HETATM   43  H1  UNL     1      -8.264   4.649  66.433  1.00  0.00     0.000 HD 
HETATM   44  O   UNL     1      -9.411   6.393  67.672  1.00  0.00    -0.119 OA 
ENDBRANCH  10  40
BRANCH   8  45
HETATM   45  N   UNL     1      -7.513   9.264  64.579  1.00  0.00    -0.100 NA 
HETATM   46  C   UNL     1      -7.558   7.911  64.022  1.00  0.00    -0.120 C  
HETATM   47  C   UNL     1      -6.587  10.093  63.813  1.00  0.00    -0.119 C  
ENDBRANCH   8  45
TORSDOF 7
ENDMDL
MODEL       83
REMARK 921   NORMALIZED FREE ENERGY PREDICTED BY IDOCK:   18.95 KCAL/MOL
REMARK 922        TOTAL FREE ENERGY PREDICTED BY IDOCK:   25.95 KCAL/MOL
REMARK 923 INTER-LIGAND FREE ENERGY PREDICTED BY IDOCK:    3.75 KCAL/MOL
REMARK 924 INTRA-LIGAND FREE ENERGY PREDICTED BY IDOCK:   22.20 KCAL/MOL
REMARK 927      BINDING AFFINITY PREDICTED BY RF-SCORE:    0.00 PKD
ROOT
HETATM    1  C   UNL     1     -10.158  10.198  69.458  1.00  0.00    -0.258 C  
HETATM    2  C   UNL     1     -11.068   9.303  70.277  1.00  0.00    -0.289 C  
HETATM    3  C   UNL     1     -10.585   7.925  70.549  1.00  0.00    -0.223 A  
HETATM    4  C   UNL     1     -11.519   6.922  70.903  1.00  0.00    -0.323 A  
HETATM    5  C   UNL     1     -10.989   5.642  71.112  1.00  0.00    -0.248 A  
HETATM    6  C   UNL     1      -9.826  15.210  69.761  1.00  0.00    -0.105 C  
HETATM    7  C   UNL     1      -9.623   5.309  70.949  1.00  0.00    -0.233 A  
HETATM    8  C   UNL     1     -10.678  13.994  69.509  1.00  0.00     0.027 C  
HETATM    9  H   UNL     1      -8.033  13.553  67.613  1.00  0.00     0.000 HD 
HETATM   10  C   UNL     1      -8.503  15.180  69.549  1.00  0.00    -0.144 C  
HETATM   11  C   UNL     1      -8.729   6.341  70.634  1.00  0.00    -0.140 A  
HETATM   12  O   UNL     1      -7.146  13.871  70.928  1.00  0.00     0.826 OA 
HETATM   13  O   UNL     1      -7.398   6.094  70.443  1.00  0.00    -0.083 OA 
HETATM   14  C   UNL     1      -9.191   7.662  70.475  1.00  0.00    -0.159 A  
HETATM   15  H   UNL     1      -6.792   6.793  70.229  1.00  0.00     0.000 HD 
HETATM   16  C   UNL     1      -7.926  13.866  69.975  1.00  0.00     1.441 C  
HETATM   17  O   UNL     1      -7.738  12.712  67.944  1.00  0.00    -0.115 OA 
HETATM   18  C   UNL     1      -8.210   8.801  70.306  1.00  0.00    -0.119 C  
HETATM   19  C   UNL     1     -10.701  11.584  69.703  1.00  0.00     0.035 C  
HETATM   20  C   UNL     1      -8.727  10.143  69.863  1.00  0.00    -0.091 C  
HETATM   21  O   UNL     1      -7.011   8.700  70.553  1.00  0.00    -0.037 OA 
HETATM   22  C   UNL     1      -7.929  11.237  69.764  1.00  0.00     0.736 C  
HETATM   23  C   UNL     1      -9.941  12.702  68.991  1.00  0.00     0.218 C  
HETATM   24  H   UNL     1     -11.276  16.067  70.910  1.00  0.00     0.000 HD 
HETATM   25  O   UNL     1     -10.339  16.046  70.759  1.00  0.00     0.190 OA 
HETATM   26  C   UNL     1      -8.408  12.604  69.225  1.00  0.00     0.838 C  
HETATM   27  O   UNL     1      -6.555  11.161  69.968  1.00  0.00    -0.171 OA 
HETATM   28  H   UNL     1      -5.996  11.927  69.899  1.00  0.00     0.000 HD 
ENDROOT
BRANCH   4  29
HETATM   29  N   UNL     1     -12.885   7.117  71.092  1.00  0.00    -0.345 NA 
HETATM   30  C   UNL     1     -13.573   8.392  70.914  1.00  0.00     0.317 C  
HETATM   31  C   UNL     1     -13.773   5.960  71.211  1.00  0.00     2.601 C  
ENDBRANCH   4  29
BRANCH   7  32
HETATM   32  C   UNL     1      -9.195   3.876  71.213  1.00  0.00    -0.130 C  
BRANCH  32  33
HETATM   33  N   UNL     1      -7.742   3.753  71.176  1.00  0.00    -0.057 NA 
HETATM   34  H   UNL     1      -7.454   2.825  71.487  1.00  0.00     0.000 HD 
BRANCH  33  35
HETATM   35  C   UNL     1      -7.148   4.063  69.883  1.00  0.00    -0.042 C  
BRANCH  35  36
HETATM   36  C   UNL     1      -8.254   4.432  68.852  1.00  0.00    -0.083 C  
HETATM   37  C   UNL     1      -7.804   5.592  67.942  1.00  0.00    -0.097 C  
HETATM   38  C   UNL     1      -9.553   4.830  69.581  1.00  0.00    -0.253 C  
HETATM   39  C   UNL     1      -8.542   3.208  67.965  1.00  0.00    -0.116 C  
ENDBRANCH  35  36
ENDBRANCH  33  35
ENDBRANCH  32  33
ENDBRANCH   7  32
BRANCH  10  40
HETATM   40  C   UNL     1      -8.208  15.818  68.230  1.00  0.00    -0.143 C  
HETATM   41  N   UNL     1      -8.122  15.021  67.136  1.00  0.00    -0.206 N  
HETATM   42  H2  UNL     1      -8.256  14.012  67.212  1.00  0.00     0.000 HD 
HETATM   43  H1  UNL     1      -7.921  15.456  66.236  1.00  0.00     0.000 HD 
HETATM   44  O   UNL     1      -7.992  17.022  68.089  1.00  0.00    -0.192 OA 
ENDBRANCH  10  40
BRANCH   8  45
HETATM   45  N   UNL     1     -11.893  14.173  68.681  1.00  0.00    -0.339 NA 
HETATM   46  C   UNL     1     -12.994  13.264  69.006  1.00  0.00     1.640 C  
HETATM   47  C   UNL     1     -11.619  14.139  67.247  1.00  0.00    -0.373 C  
ENDBRANCH   8  45
TORSDOF 7
ENDMDL
MODEL       84
REMARK 921   NORMALIZED FREE ENERGY PREDICTED BY IDOCK:   27.69 KCAL/MOL
REMARK 922        TOTAL FREE ENERGY PREDICTED BY IDOCK:   38.26 KCAL/MOL
REMARK 923 INTER-LIGAND FREE ENERGY PREDICTED BY IDOCK:   32.77 KCAL/MOL
REMARK 924 INTRA-LIGAND FREE ENERGY PREDICTED BY IDOCK:    5.49 KCAL/MOL
REMARK 927      BINDING AFFINITY PREDICTED BY RF-SCORE:    0.00 PKD
ROOT
HETATM    1  C   UNL     1     -10.136  10.616  65.765  1.00  0.00    -0.327 C  
HETATM    2  C   UNL     1     -10.936  11.491  66.711  1.00  0.00    -0.347 C  
HETATM    3  C   UNL     1     -11.433  12.783  66.170  1.00  0.00    -0.399 A  
HETATM    4  C   UNL     1     -11.785  13.818  67.069  1.00  0.00    -0.390 A  
HETATM    5  C   UNL     1     -12.214  15.015  66.481  1.00  0.00     0.268 A  
HETATM    6  C   UNL     1      -9.865   5.592  65.841  1.00  0.00     0.005 C  
HETATM    7  C   UNL     1     -12.267  15.243  65.085  1.00  0.00     0.218 A  
HETATM    8  C   UNL     1      -9.658   6.899  66.560  1.00  0.00    -0.143 C  
HETATM    9  H   UNL     1      -8.179   7.314  63.657  1.00  0.00     0.000 HD 
HETATM   10  C   UNL     1      -9.827   5.530  64.502  1.00  0.00     1.135 C  
HETATM   11  C   UNL     1     -11.944  14.178  64.233  1.00  0.00    -0.435 A  
HETATM   12  O   UNL     1     -11.515   6.552  63.253  1.00  0.00    10.724 OA 
HETATM   13  O   UNL     1     -11.954  14.327  62.874  1.00  0.00    -0.183 OA 
HETATM   14  C   UNL     1     -11.568  12.929  64.764  1.00  0.00    -0.373 A  
HETATM   15  H   UNL     1     -11.735  13.605  62.297  1.00  0.00     0.000 HD 
HETATM   16  C   UNL     1     -10.480   6.732  63.895  1.00  0.00     8.526 C  
HETATM   17  O   UNL     1      -8.644   8.084  63.350  1.00  0.00     0.068 OA 
HETATM   18  C   UNL     1     -11.387  11.734  63.854  1.00  0.00    -0.411 C  
HETATM   19  C   UNL     1     -10.139   9.264  66.434  1.00  0.00    -0.337 C  
HETATM   20  C   UNL     1     -10.722  10.500  64.401  1.00  0.00     0.249 C  
HETATM   21  O   UNL     1     -11.793  11.701  62.695  1.00  0.00     0.466 OA 
HETATM   22  C   UNL     1     -10.591   9.358  63.678  1.00  0.00     4.653 C  
HETATM   23  C   UNL     1      -9.398   8.171  65.668  1.00  0.00     0.032 C  
HETATM   24  H   UNL     1     -10.709   4.743  67.491  1.00  0.00     0.000 HD 
HETATM   25  O   UNL     1     -10.681   4.698  66.543  1.00  0.00    -0.152 OA 
HETATM   26  C   UNL     1      -9.834   8.107  64.178  1.00  0.00     3.826 C  
HETATM   27  O   UNL     1     -10.976   9.290  62.343  1.00  0.00     3.469 OA 
HETATM   28  H   UNL     1     -10.884   8.491  61.837  1.00  0.00     0.000 HD 
ENDROOT
BRANCH   4  29
HETATM   29  N   UNL     1     -11.775  13.724  68.458  1.00  0.00    -0.335 NA 
HETATM   30  C   UNL     1     -12.292  14.747  69.362  1.00  0.00    -0.149 C  
HETATM   31  C   UNL     1     -11.491  12.437  69.096  1.00  0.00    -0.302 C  
ENDBRANCH   4  29
BRANCH   7  32
HETATM   32  C   UNL     1     -12.755  16.595  64.594  1.00  0.00     3.602 C  
BRANCH  32  33
HETATM   33  N   UNL     1     -11.637  17.508  64.388  1.00  0.00     0.297 NA 
HETATM   34  H   UNL     1     -11.774  18.054  63.537  1.00  0.00     0.000 HD 
BRANCH  33  35
HETATM   35  C   UNL     1     -11.367  18.386  65.518  1.00  0.00     1.367 C  
BRANCH  35  36
HETATM   36  C   UNL     1     -10.308  17.747  66.462  1.00  0.00    -0.345 C  
HETATM   37  C   UNL     1     -10.633  18.035  67.941  1.00  0.00    -0.387 C  
HETATM   38  C   UNL     1      -8.903  18.290  66.134  1.00  0.00    -0.113 C  
HETATM   39  C   UNL     1     -10.307  16.223  66.256  1.00  0.00    -0.335 C  
ENDBRANCH  35  36
ENDBRANCH  33  35
ENDBRANCH  32  33
ENDBRANCH   7  32
BRANCH  10  40
HETATM   40  C   UNL     1      -8.487   5.018  64.078  1.00  0.00    -0.135 C  
HETATM   41  N   UNL     1      -7.509   4.931  65.012  1.00  0.00    -0.075 N  
HETATM   42  H2  UNL     1      -7.682   5.207  65.980  1.00  0.00     0.000 HD 
HETATM   43  H1  UNL     1      -6.595   4.583  64.723  1.00  0.00     0.000 HD 
HETATM   44  O   UNL     1      -8.210   4.717  62.917  1.00  0.00    -0.082 OA 
ENDBRANCH  10  40
BRANCH   8  45
HETATM   45  N   UNL     1      -8.667   6.920  67.662  1.00  0.00    -0.121 NA 
HETATM   46  C   UNL     1      -9.198   6.526  68.968  1.00  0.00    -0.130 C  
HETATM   47  C   UNL     1      -7.958   8.192  67.769  1.00  0.00    -0.127 C  
ENDBRANCH   8  45
TORSDOF 7
ENDMDL
MODEL       85
REMARK 921   NORMALIZED FREE ENERGY PREDICTED BY IDOCK:   33.69 KCAL/MOL
REMARK 922        TOTAL FREE ENERGY PREDICTED BY IDOCK:   46.71 KCAL/MOL
REMARK 923 INTER-LIGAND FREE ENERGY PREDICTED BY IDOCK:   45.73 KCAL/MOL
REMARK 924 INTRA-LIGAND FREE ENERGY PREDICTED BY IDOCK:    0.98 KCAL/MOL
REMARK 927      BINDING AFFINITY PREDICTED BY RF-SCORE:    0.00 PKD
ROOT
HETATM    1  C   UNL     1     -11.149  11.816  69.070  1.00  0.00    -0.301 C  
HETATM    2  C   UNL     1     -11.811  10.464  68.884  1.00  0.00    -0.046 C  
HETATM    3  C   UNL     1     -11.529   9.432  69.916  1.00  0.00    -0.054 A  
HETATM    4  C   UNL     1     -11.731   8.067  69.600  1.00  0.00     0.661 A  
HETATM    5  C   UNL     1     -11.413   7.155  70.615  1.00  0.00    -0.346 A  
HETATM    6  C   UNL     1     -12.943  16.263  67.546  1.00  0.00     3.953 C  
HETATM    7  C   UNL     1     -10.879   7.517  71.874  1.00  0.00    -0.264 A  
HETATM    8  C   UNL     1     -12.499  14.869  67.190  1.00  0.00     0.577 C  
HETATM    9  H   UNL     1     -10.063  16.058  69.045  1.00  0.00     0.000 HD 
HETATM   10  C   UNL     1     -12.467  16.879  68.637  1.00  0.00     2.563 C  
HETATM   11  C   UNL     1     -10.730   8.882  72.156  1.00  0.00    -0.253 A  
HETATM   12  O   UNL     1     -13.055  16.088  70.755  1.00  0.00    -0.362 OA 
HETATM   13  O   UNL     1     -10.204   9.309  73.343  1.00  0.00     2.375 OA 
HETATM   14  C   UNL     1     -11.094   9.851  71.201  1.00  0.00    -0.359 A  
HETATM   15  H   UNL     1     -10.103  10.234  73.533  1.00  0.00     0.000 HD 
HETATM   16  C   UNL     1     -12.330  15.916  69.775  1.00  0.00    -0.041 C  
HETATM   17  O   UNL     1     -10.045  15.397  69.727  1.00  0.00    -0.263 OA 
HETATM   18  C   UNL     1     -11.097  11.320  71.564  1.00  0.00     3.206 C  
HETATM   19  C   UNL     1     -11.923  12.726  68.150  1.00  0.00    -0.295 C  
HETATM   20  C   UNL     1     -11.215  12.339  70.462  1.00  0.00     1.052 C  
HETATM   21  O   UNL     1     -11.049  11.729  72.722  1.00  0.00     8.254 OA 
HETATM   22  C   UNL     1     -11.305  13.671  70.706  1.00  0.00     0.734 C  
HETATM   23  C   UNL     1     -11.461  14.182  68.155  1.00  0.00    -0.340 C  
HETATM   24  H   UNL     1     -14.574  16.124  66.330  1.00  0.00     0.000 HD 
HETATM   25  O   UNL     1     -14.236  16.561  67.103  1.00  0.00     7.956 OA 
HETATM   26  C   UNL     1     -11.335  14.747  69.597  1.00  0.00    -0.283 C  
HETATM   27  O   UNL     1     -11.191  14.189  71.992  1.00  0.00     0.586 OA 
HETATM   28  H   UNL     1     -11.254  15.122  72.163  1.00  0.00     0.000 HD 
ENDROOT
BRANCH   4  29
HETATM   29  N   UNL     1     -12.246   7.579  68.402  1.00  0.00     2.831 NA 
HETATM   30  C   UNL     1     -12.362   8.357  67.172  1.00  0.00     8.119 C  
HETATM   31  C   UNL     1     -12.446   6.140  68.231  1.00  0.00     6.001 C  
ENDBRANCH   4  29
BRANCH   7  32
HETATM   32  C   UNL     1     -10.584   6.414  72.876  1.00  0.00    -0.235 C  
BRANCH  32  33
HETATM   33  N   UNL     1      -9.521   6.814  73.791  1.00  0.00    -0.170 NA 
HETATM   34  H   UNL     1      -9.826   6.711  74.759  1.00  0.00     0.000 HD 
BRANCH  33  35
HETATM   35  C   UNL     1      -8.258   6.122  73.579  1.00  0.00    -0.111 C  
BRANCH  35  36
HETATM   36  C   UNL     1      -7.190   7.101  73.012  1.00  0.00    -0.073 C  
HETATM   37  C   UNL     1      -6.995   8.315  73.942  1.00  0.00    -0.170 C  
HETATM   38  C   UNL     1      -7.608   7.594  71.612  1.00  0.00    -0.085 C  
HETATM   39  C   UNL     1      -5.845   6.364  72.893  1.00  0.00    -0.042 C  
ENDBRANCH  35  36
ENDBRANCH  33  35
ENDBRANCH  32  33
ENDBRANCH   7  32
BRANCH  10  40
HETATM   40  C   UNL     1     -11.386  17.827  68.227  1.00  0.00     0.699 C  
HETATM   41  N   UNL     1     -11.231  18.090  66.906  1.00  0.00     0.355 N  
HETATM   42  H2  UNL     1     -11.836  17.654  66.210  1.00  0.00     0.000 HD 
HETATM   43  H1  UNL     1     -10.493  18.737  66.627  1.00  0.00     0.000 HD 
HETATM   44  O   UNL     1     -10.597  18.344  69.019  1.00  0.00    -0.040 OA 
ENDBRANCH  10  40
BRANCH   8  45
HETATM   45  N   UNL     1     -12.036  14.635  65.802  1.00  0.00    -0.257 NA 
HETATM   46  C   UNL     1     -12.675  15.482  64.794  1.00  0.00     0.622 C  
HETATM   47  C   UNL     1     -12.111  13.232  65.403  1.00  0.00    -0.422 C  
ENDBRANCH   8  45
TORSDOF 7
ENDMDL
MODEL       86
REMARK 921   NORMALIZED FREE ENERGY PREDICTED BY IDOCK:   36.09 KCAL/MOL
REMARK 922        TOTAL FREE ENERGY PREDICTED BY IDOCK:   50.10 KCAL/MOL
REMARK 923 INTER-LIGAND FREE ENERGY PREDICTED BY IDOCK:   45.74 KCAL/MOL
REMARK 924 INTRA-LIGAND FREE ENERGY PREDICTED BY IDOCK:    4.35 KCAL/MOL
REMARK 927      BINDING AFFINITY PREDICTED BY RF-SCORE:    0.00 PKD
ROOT
HETATM    1  C   UNL     1      -9.224   9.231  69.933  1.00  0.00    -0.209 C  
HETATM    2  C   UNL     1      -9.423  10.597  69.305  1.00  0.00    -0.152 C  
HETATM    3  C   UNL     1      -8.848  11.759  70.031  1.00  0.00     2.761 A  
HETATM    4  C   UNL     1      -9.349  13.056  69.767  1.00  0.00     2.327 A  
HETATM    5  C   UNL     1      -8.777  14.094  70.514  1.00  0.00     3.030 A  
HETATM    6  C   UNL     1      -8.875   4.840  67.501  1.00  0.00    -0.104 C  
HETATM    7  C   UNL     1      -7.792  13.907  71.514  1.00  0.00     5.950 A  
HETATM    8  C   UNL     1      -9.678   6.077  67.807  1.00  0.00    -0.115 C  
HETATM    9  H   UNL     1      -8.744   4.956  70.749  1.00  0.00     0.000 HD 
HETATM   10  C   UNL     1      -7.960   4.383  68.367  1.00  0.00    -0.078 C  
HETATM   11  C   UNL     1      -7.299  12.611  71.715  1.00  0.00     8.504 A  
HETATM   12  O   UNL     1      -6.017   5.621  68.750  1.00  0.00    -0.021 OA 
HETATM   13  O   UNL     1      -6.361  12.349  72.675  1.00  0.00     2.158 OA 
HETATM   14  C   UNL     1      -7.787  11.535  70.949  1.00  0.00     5.230 A  
HETATM   15  H   UNL     1      -6.027  11.470  72.811  1.00  0.00     0.000 HD 
HETATM   16  C   UNL     1      -7.217   5.515  69.004  1.00  0.00    -0.069 C  
HETATM   17  O   UNL     1      -8.292   5.725  71.076  1.00  0.00    -0.119 OA 
HETATM   18  C   UNL     1      -7.139  10.171  71.044  1.00  0.00     0.607 C  
HETATM   19  C   UNL     1      -9.530   8.271  68.811  1.00  0.00    -0.148 C  
HETATM   20  C   UNL     1      -7.845   8.988  70.437  1.00  0.00    -0.121 C  
HETATM   21  O   UNL     1      -6.039   9.982  71.557  1.00  0.00    -0.297 OA 
HETATM   22  C   UNL     1      -7.297   7.747  70.408  1.00  0.00    -0.069 C  
HETATM   23  C   UNL     1      -9.389   6.795  69.178  1.00  0.00    -0.135 C  
HETATM   24  H   UNL     1      -9.332   4.955  65.517  1.00  0.00     0.000 HD 
HETATM   25  O   UNL     1      -8.684   4.630  66.131  1.00  0.00    -0.113 OA 
HETATM   26  C   UNL     1      -8.033   6.496  69.876  1.00  0.00    -0.116 C  
HETATM   27  O   UNL     1      -6.086   7.467  71.031  1.00  0.00    -0.035 OA 
HETATM   28  H   UNL     1      -5.702   6.597  71.010  1.00  0.00     0.000 HD 
ENDROOT
BRANCH   4  29
HETATM   29  N   UNL     1     -10.315  13.374  68.816  1.00  0.00    -0.198 NA 
HETATM   30  C   UNL     1     -10.228  13.032  67.400  1.00  0.00    -0.231 C  
HETATM   31  C   UNL     1     -11.635  13.835  69.249  1.00  0.00    -0.312 C  
ENDBRANCH   4  29
BRANCH   7  32
HETATM   32  C   UNL     1      -7.263  15.131  72.242  1.00  0.00     4.044 C  
BRANCH  32  33
HETATM   33  N   UNL     1      -7.571  16.349  71.502  1.00  0.00     5.911 NA 
HETATM   34  H   UNL     1      -6.799  17.013  71.570  1.00  0.00     0.000 HD 
BRANCH  33  35
HETATM   35  C   UNL     1      -7.931  16.128  70.108  1.00  0.00     1.221 C  
BRANCH  35  36
HETATM   36  C   UNL     1      -6.654  15.908  69.246  1.00  0.00    -0.170 C  
HETATM   37  C   UNL     1      -5.383  16.310  70.019  1.00  0.00    -0.162 C  
HETATM   38  C   UNL     1      -6.740  16.731  67.945  1.00  0.00    -0.153 C  
HETATM   39  C   UNL     1      -6.545  14.418  68.880  1.00  0.00    -0.094 C  
ENDBRANCH  35  36
ENDBRANCH  33  35
ENDBRANCH  32  33
ENDBRANCH   7  32
BRANCH  10  40
HETATM   40  C   UNL     1      -8.549   3.247  69.141  1.00  0.00    -0.071 C  
HETATM   41  N   UNL     1      -8.782   3.426  70.465  1.00  0.00    -0.070 N  
HETATM   42  H2  UNL     1      -8.561   4.312  70.921  1.00  0.00     0.000 HD 
HETATM   43  H1  UNL     1      -9.184   2.651  70.993  1.00  0.00     0.000 HD 
HETATM   44  O   UNL     1      -8.790   2.143  68.653  1.00  0.00    -0.079 OA 
ENDBRANCH  10  40
BRANCH   8  45
HETATM   45  N   UNL     1     -11.149   5.989  67.654  1.00  0.00    -0.232 NA 
HETATM   46  C   UNL     1     -11.765   4.839  68.317  1.00  0.00     6.241 C  
HETATM   47  C   UNL     1     -11.585   6.061  66.262  1.00  0.00     1.435 C  
ENDBRANCH   8  45
TORSDOF 7
ENDMDL
MODEL       87
REMARK 921   NORMALIZED FREE ENERGY PREDICTED BY IDOCK:   38.04 KCAL/MOL
REMARK 922        TOTAL FREE ENERGY PREDICTED BY IDOCK:   52.86 KCAL/MOL
REMARK 923 INTER-LIGAND FREE ENERGY PREDICTED BY IDOCK:   46.04 KCAL/MOL
REMARK 924 INTRA-LIGAND FREE ENERGY PREDICTED BY IDOCK:    6.82 KCAL/MOL
REMARK 927      BINDING AFFINITY PREDICTED BY RF-SCORE:    0.00 PKD
ROOT
HETATM    1  C   UNL     1     -10.969   9.252  70.803  1.00  0.00    -0.349 C  
HETATM    2  C   UNL     1     -11.868   8.285  71.548  1.00  0.00    -0.335 C  
HETATM    3  C   UNL     1     -11.197   7.217  72.334  1.00  0.00    -0.309 A  
HETATM    4  C   UNL     1     -11.924   6.053  72.679  1.00  0.00    -0.057 A  
HETATM    5  C   UNL     1     -11.213   5.080  73.393  1.00  0.00    -0.391 A  
HETATM    6  C   UNL     1     -11.990  14.060  69.722  1.00  0.00    -0.334 C  
HETATM    7  C   UNL     1      -9.843   5.184  73.734  1.00  0.00    -0.173 A  
HETATM    8  C   UNL     1     -12.372  12.608  69.600  1.00  0.00     0.015 C  
HETATM    9  H   UNL     1      -9.199  12.696  68.756  1.00  0.00     0.000 HD 
HETATM   10  C   UNL     1     -10.714  14.420  69.917  1.00  0.00     0.049 C  
HETATM   11  C   UNL     1      -9.173   6.369  73.404  1.00  0.00    -0.131 A  
HETATM   12  O   UNL     1      -9.671  13.914  71.945  1.00  0.00     6.426 OA 
HETATM   13  O   UNL     1      -7.845   6.536  73.684  1.00  0.00    -0.092 OA 
HETATM   14  C   UNL     1      -9.851   7.412  72.744  1.00  0.00    -0.237 A  
HETATM   15  H   UNL     1      -7.392   7.340  73.460  1.00  0.00     0.000 HD 
HETATM   16  C   UNL     1     -10.030  13.473  70.853  1.00  0.00     5.476 C  
HETATM   17  O   UNL     1      -8.850  12.076  69.387  1.00  0.00     0.622 OA 
HETATM   18  C   UNL     1      -9.182   8.754  72.541  1.00  0.00     0.024 C  
HETATM   19  C   UNL     1     -11.881  10.406  70.468  1.00  0.00    -0.430 C  
HETATM   20  C   UNL     1      -9.812   9.744  71.599  1.00  0.00     1.131 C  
HETATM   21  O   UNL     1      -8.165   9.097  73.140  1.00  0.00     0.089 OA 
HETATM   22  C   UNL     1      -9.321  10.997  71.421  1.00  0.00     7.574 C  
HETATM   23  C   UNL     1     -11.210  11.551  69.713  1.00  0.00    -0.237 C  
HETATM   24  H   UNL     1     -13.918  14.602  70.106  1.00  0.00     0.000 HD 
HETATM   25  O   UNL     1     -13.013  14.858  70.244  1.00  0.00    -0.267 OA 
HETATM   26  C   UNL     1      -9.889  12.004  70.395  1.00  0.00     4.151 C  
HETATM   27  O   UNL     1      -8.139  11.412  72.025  1.00  0.00     9.131 OA 
HETATM   28  H   UNL     1      -7.795  12.290  71.900  1.00  0.00     0.000 HD 
ENDROOT
BRANCH   4  29
HETATM   29  N   UNL     1     -13.270   5.825  72.403  1.00  0.00     0.595 NA 
HETATM   30  C   UNL     1     -13.898   4.508  72.369  1.00  0.00     3.726 C  
HETATM   31  C   UNL     1     -14.211   6.947  72.407  1.00  0.00     0.244 C  
ENDBRANCH   4  29
BRANCH   7  32
HETATM   32  C   UNL     1      -9.206   4.046  74.513  1.00  0.00    -0.102 C  
BRANCH  32  33
HETATM   33  N   UNL     1      -9.685   2.755  74.034  1.00  0.00    -0.092 NA 
HETATM   34  H   UNL     1     -10.624   2.570  74.385  1.00  0.00     0.000 HD 
BRANCH  33  35
HETATM   35  C   UNL     1      -9.644   2.602  72.586  1.00  0.00    -0.110 C  
BRANCH  35  36
HETATM   36  C   UNL     1      -8.367   3.276  72.004  1.00  0.00    -0.074 C  
HETATM   37  C   UNL     1      -8.731   4.399  71.012  1.00  0.00    -0.136 C  
HETATM   38  C   UNL     1      -7.490   2.230  71.289  1.00  0.00    -0.033 C  
HETATM   39  C   UNL     1      -7.557   3.894  73.155  1.00  0.00    -0.074 C  
ENDBRANCH  35  36
ENDBRANCH  33  35
ENDBRANCH  32  33
ENDBRANCH   7  32
BRANCH  10  40
HETATM   40  C   UNL     1     -10.127  14.855  68.613  1.00  0.00    -0.237 C  
HETATM   41  N   UNL     1     -10.917  15.543  67.752  1.00  0.00    -0.309 N  
HETATM   42  H2  UNL     1     -11.886  15.759  67.988  1.00  0.00     0.000 HD 
HETATM   43  H1  UNL     1     -10.516  15.840  66.861  1.00  0.00     0.000 HD 
HETATM   44  O   UNL     1      -8.981  14.581  68.257  1.00  0.00    -0.171 OA 
ENDBRANCH  10  40
BRANCH   8  45
HETATM   45  N   UNL     1     -13.213  12.220  68.443  1.00  0.00     3.045 NA 
HETATM   46  C   UNL     1     -12.772  11.011  67.745  1.00  0.00     3.610 C  
HETATM   47  C   UNL     1     -13.410  13.308  67.489  1.00  0.00     4.813 C  
ENDBRANCH   8  45
TORSDOF 7
ENDMDL
MODEL       88
REMARK 921   NORMALIZED FREE ENERGY PREDICTED BY IDOCK:   69.23 KCAL/MOL
REMARK 922        TOTAL FREE ENERGY PREDICTED BY IDOCK:   96.80 KCAL/MOL
REMARK 923 INTER-LIGAND FREE ENERGY PREDICTED BY IDOCK:   95.72 KCAL/MOL
REMARK 924 INTRA-LIGAND FREE ENERGY PREDICTED BY IDOCK:    1.08 KCAL/MOL
REMARK 927      BINDING AFFINITY PREDICTED BY RF-SCORE:    0.00 PKD
ROOT
HETATM    1  C   UNL     1     -11.190  11.855  69.077  1.00  0.00    -0.316 C  
HETATM    2  C   UNL     1     -11.982  10.588  68.820  1.00  0.00     0.031 C  
HETATM    3  C   UNL     1     -11.685   9.423  69.694  1.00  0.00     0.279 A  
HETATM    4  C   UNL     1     -12.035   8.124  69.257  1.00  0.00     1.708 A  
HETATM    5  C   UNL     1     -11.694   7.077  70.123  1.00  0.00    -0.238 A  
HETATM    6  C   UNL     1     -12.741  16.572  68.259  1.00  0.00     2.653 C  
HETATM    7  C   UNL     1     -11.003   7.248  71.346  1.00  0.00    -0.256 A  
HETATM    8  C   UNL     1     -12.459  15.200  67.705  1.00  0.00     0.782 C  
HETATM    9  H   UNL     1      -9.750  15.979  69.392  1.00  0.00     0.000 HD 
HETATM   10  C   UNL     1     -12.103  17.018  69.350  1.00  0.00     2.170 C  
HETATM   11  C   UNL     1     -10.708   8.555  71.756  1.00  0.00    -0.303 A  
HETATM   12  O   UNL     1     -12.535  16.028  71.421  1.00  0.00    -0.446 OA 
HETATM   13  O   UNL     1     -10.026   8.799  72.916  1.00  0.00    -0.036 OA 
HETATM   14  C   UNL     1     -11.084   9.654  70.960  1.00  0.00    -0.438 A  
HETATM   15  H   UNL     1      -9.827   9.685  73.194  1.00  0.00     0.000 HD 
HETATM   16  C   UNL     1     -11.933  15.919  70.353  1.00  0.00    -0.313 C  
HETATM   17  O   UNL     1      -9.718  15.242  69.991  1.00  0.00    -0.190 OA 
HETATM   18  C   UNL     1     -10.922  11.066  71.479  1.00  0.00     2.966 C  
HETATM   19  C   UNL     1     -11.973  12.922  68.354  1.00  0.00    -0.289 C  
HETATM   20  C   UNL     1     -11.065  12.214  70.516  1.00  0.00     1.318 C  
HETATM   21  O   UNL     1     -10.719  11.331  72.662  1.00  0.00     8.468 OA 
HETATM   22  C   UNL     1     -11.014  13.511  70.912  1.00  0.00     2.148 C  
HETATM   23  C   UNL     1     -11.390  14.329  68.466  1.00  0.00    -0.309 C  
HETATM   24  H   UNL     1     -14.495  16.698  67.227  1.00  0.00     0.000 HD 
HETATM   25  O   UNL     1     -14.043  17.015  68.000  1.00  0.00     6.173 OA 
HETATM   26  C   UNL     1     -11.066  14.710  69.937  1.00  0.00    -0.201 C  
HETATM   27  O   UNL     1     -10.723  13.864  72.225  1.00  0.00     3.172 OA 
HETATM   28  H   UNL     1     -10.688  14.772  72.503  1.00  0.00     0.000 HD 
ENDROOT
BRANCH   4  29
HETATM   29  N   UNL     1     -12.712   7.820  68.078  1.00  0.00     6.920 NA 
HETATM   30  C   UNL     1     -14.164   7.733  67.955  1.00  0.00    22.982 C  
HETATM   31  C   UNL     1     -11.995   7.847  66.802  1.00  0.00     5.078 C  
ENDBRANCH   4  29
BRANCH   7  32
HETATM   32  C   UNL     1     -10.702   6.016  72.182  1.00  0.00    -0.226 C  
BRANCH  32  33
HETATM   33  N   UNL     1     -10.005   5.008  71.391  1.00  0.00    -0.185 NA 
HETATM   34  H   UNL     1      -9.146   4.719  71.858  1.00  0.00     0.000 HD 
BRANCH  33  35
HETATM   35  C   UNL     1     -10.817   3.846  71.054  1.00  0.00     1.551 C  
BRANCH  35  36
HETATM   36  C   UNL     1     -11.137   3.830  69.532  1.00  0.00     5.004 C  
HETATM   37  C   UNL     1     -10.665   2.517  68.876  1.00  0.00     4.001 C  
HETATM   38  C   UNL     1     -10.456   5.022  68.830  1.00  0.00    -0.044 C  
HETATM   39  C   UNL     1     -12.658   3.946  69.336  1.00  0.00    20.518 C  
ENDBRANCH  35  36
ENDBRANCH  33  35
ENDBRANCH  32  33
ENDBRANCH   7  32
BRANCH  10  40
HETATM   40  C   UNL     1     -10.992  17.924  68.926  1.00  0.00     0.606 C  
HETATM   41  N   UNL     1      -9.930  18.067  69.757  1.00  0.00     0.258 N  
HETATM   42  H2  UNL     1      -9.889  17.570  70.646  1.00  0.00     0.000 HD 
HETATM   43  H1  UNL     1      -9.172  18.686  69.468  1.00  0.00     0.000 HD 
HETATM   44  O   UNL     1     -11.011  18.585  67.887  1.00  0.00    -0.286 OA 
ENDBRANCH  10  40
BRANCH   8  45
HETATM   45  N   UNL     1     -12.164  15.097  66.257  1.00  0.00     0.265 NA 
HETATM   46  C   UNL     1     -11.245  14.017  65.895  1.00  0.00    -0.308 C  
HETATM   47  C   UNL     1     -11.714  16.358  65.674  1.00  0.00     1.049 C  
ENDBRANCH   8  45
TORSDOF 7
ENDMDL
MODEL       89
REMARK 921   NORMALIZED FREE ENERGY PREDICTED BY IDOCK:  109.46 KCAL/MOL
REMARK 922        TOTAL FREE ENERGY PREDICTED BY IDOCK:  153.50 KCAL/MOL
REMARK 923 INTER-LIGAND FREE ENERGY PREDICTED BY IDOCK:   82.67 KCAL/MOL
REMARK 924 INTRA-LIGAND FREE ENERGY PREDICTED BY IDOCK:   70.83 KCAL/MOL
REMARK 927      BINDING AFFINITY PREDICTED BY RF-SCORE:    0.00 PKD
ROOT
HETATM    1  C   UNL     1     -10.221  13.893  68.492  1.00  0.00    -0.240 C  
HETATM    2  C   UNL     1      -9.259  13.377  69.544  1.00  0.00     1.324 C  
HETATM    3  C   UNL     1      -9.200  11.904  69.733  1.00  0.00     1.954 A  
HETATM    4  C   UNL     1      -8.688  11.383  70.945  1.00  0.00     6.610 A  
HETATM    5  C   UNL     1      -8.695   9.987  71.059  1.00  0.00     1.294 A  
HETATM    6  C   UNL     1      -9.705  18.089  65.763  1.00  0.00     0.200 C  
HETATM    7  C   UNL     1      -9.212   9.109  70.076  1.00  0.00    -0.209 A  
HETATM    8  C   UNL     1      -9.812  17.447  67.122  1.00  0.00    -0.278 C  
HETATM    9  H   UNL     1     -12.328  16.197  65.421  1.00  0.00     0.000 HD 
HETATM   10  C   UNL     1     -10.240  17.506  64.683  1.00  0.00     2.649 C  
HETATM   11  C   UNL     1      -9.675   9.667  68.877  1.00  0.00    -0.162 A  
HETATM   12  O   UNL     1      -9.324  15.513  63.877  1.00  0.00     4.391 OA 
HETATM   13  O   UNL     1     -10.206   8.886  67.888  1.00  0.00    -0.198 OA 
HETATM   14  C   UNL     1      -9.633  11.061  68.676  1.00  0.00    -0.198 A  
HETATM   15  H   UNL     1     -10.519   9.265  67.076  1.00  0.00     0.000 HD 
HETATM   16  C   UNL     1     -10.051  16.021  64.731  1.00  0.00     0.685 C  
HETATM   17  O   UNL     1     -12.133  15.271  65.505  1.00  0.00     0.084 OA 
HETATM   18  C   UNL     1      -9.971  11.649  67.323  1.00  0.00    -0.191 C  
HETATM   19  C   UNL     1      -9.766  15.311  68.251  1.00  0.00    -0.210 C  
HETATM   20  C   UNL     1     -10.189  13.134  67.212  1.00  0.00    -0.243 C  
HETATM   21  O   UNL     1     -10.036  10.980  66.294  1.00  0.00    -0.219 OA 
HETATM   22  C   UNL     1     -10.416  13.752  66.025  1.00  0.00    -0.297 C  
HETATM   23  C   UNL     1     -10.574  16.072  67.203  1.00  0.00    -0.305 C  
HETATM   24  H   UNL     1      -8.181  19.296  66.382  1.00  0.00     0.000 HD 
HETATM   25  O   UNL     1      -8.561  18.882  65.616  1.00  0.00    -0.319 OA 
HETATM   26  C   UNL     1     -10.734  15.259  65.889  1.00  0.00    -0.334 C  
HETATM   27  O   UNL     1     -10.564  13.034  64.843  1.00  0.00    -0.306 OA 
HETATM   28  H   UNL     1     -10.723  13.467  64.012  1.00  0.00     0.000 HD 
ENDROOT
BRANCH   4  29
HETATM   29  N   UNL     1      -8.154  12.134  71.989  1.00  0.00    13.949 NA 
HETATM   30  C   UNL     1      -8.482  11.945  73.399  1.00  0.00    22.495 C  
HETATM   31  C   UNL     1      -6.994  12.992  71.746  1.00  0.00     5.286 C  
ENDBRANCH   4  29
BRANCH   7  32
HETATM   32  C   UNL     1      -9.151   7.615  70.340  1.00  0.00    -0.152 C  
BRANCH  32  33
HETATM   33  N   UNL     1      -9.068   6.869  69.089  1.00  0.00    -0.136 NA 
HETATM   34  H   UNL     1      -9.151   5.868  69.264  1.00  0.00     0.000 HD 
BRANCH  33  35
HETATM   35  C   UNL     1     -10.028   7.290  68.078  1.00  0.00    -0.157 C  
BRANCH  35  36
HETATM   36  C   UNL     1     -10.167   8.840  68.073  1.00  0.00    -0.264 C  
HETATM   37  C   UNL     1     -10.363   9.378  66.642  1.00  0.00    -0.284 C  
HETATM   38  C   UNL     1      -8.916   9.491  68.695  1.00  0.00    -0.132 C  
HETATM   39  C   UNL     1     -11.396   9.236  68.909  1.00  0.00     0.283 C  
ENDBRANCH  35  36
ENDBRANCH  33  35
ENDBRANCH  32  33
ENDBRANCH   7  32
BRANCH  10  40
HETATM   40  C   UNL     1     -11.550  18.158  64.376  1.00  0.00     4.687 C  
HETATM   41  N   UNL     1     -11.675  18.824  63.202  1.00  0.00    13.437 N  
HETATM   42  H2  UNL     1     -10.896  18.878  62.544  1.00  0.00     0.000 HD 
HETATM   43  H1  UNL     1     -12.569  19.270  62.993  1.00  0.00     0.000 HD 
HETATM   44  O   UNL     1     -12.505  18.165  65.153  1.00  0.00     5.858 OA 
ENDBRANCH  10  40
BRANCH   8  45
HETATM   45  N   UNL     1     -10.299  18.291  68.238  1.00  0.00    -0.372 NA 
HETATM   46  C   UNL     1      -9.606  18.082  69.510  1.00  0.00     0.399 C  
HETATM   47  C   UNL     1     -11.744  18.205  68.431  1.00  0.00     2.294 C  
ENDBRANCH   8  45
TORSDOF 7
ENDMDL
