MODEL        1
REMARK 921   NORMALIZED FREE ENERGY PREDICTED BY IDOCK:   -7.93 KCAL/MOL
REMARK 922        TOTAL FREE ENERGY PREDICTED BY IDOCK:   -8.59 KCAL/MOL
REMARK 923 INTER-LIGAND FREE ENERGY PREDICTED BY IDOCK:   -8.85 KCAL/MOL
REMARK 924 INTRA-LIGAND FREE ENERGY PREDICTED BY IDOCK:    0.27 KCAL/MOL
REMARK 927      BINDING AFFINITY PREDICTED BY RF-SCORE:    0.00 PKD
ROOT
HETATM    1  C   UNL     1     -12.709  10.511  71.375  1.00  0.00    -0.442 C  
HETATM    2  N   UNL     1     -12.493  11.770  70.694  1.00  0.00    -0.307 NA 
HETATM    3  C   UNL     1     -11.911  11.941  69.465  1.00  0.00    -0.331 A  
HETATM    4  C   UNL     1     -11.820  13.300  69.219  1.00  0.00    -0.383 A  
HETATM    5  C   UNL     1     -12.432  13.979  70.305  1.00  0.00    -0.403 A  
HETATM    6  C   UNL     1     -11.168  13.806  68.017  1.00  0.00    -0.267 C  
HETATM    7  C   UNL     1     -10.353  12.761  67.245  1.00  0.00    -0.235 C  
HETATM    8  C   UNL     1     -12.662  15.337  70.607  1.00  0.00    -0.470 A  
HETATM    9  O   UNL     1     -11.213  14.986  67.681  1.00  0.00    -0.306 OA 
HETATM   10  C   UNL     1     -11.162  11.446  67.157  1.00  0.00    -0.363 C  
HETATM   11  C   UNL     1     -13.440  13.342  72.445  1.00  0.00    -0.685 A  
HETATM   12  C   UNL     1     -13.273  15.681  71.817  1.00  0.00    -0.548 A  
HETATM   13  C   UNL     1     -11.421  10.860  68.558  1.00  0.00    -0.380 C  
HETATM   14  C   UNL     1     -13.652  14.696  72.723  1.00  0.00    -0.538 A  
HETATM   15  C   UNL     1     -12.829  13.002  71.226  1.00  0.00    -0.281 A  
ENDROOT
BRANCH   7  16
HETATM   16  C   UNL     1      -9.951  13.322  65.881  1.00  0.00    -0.272 C  
BRANCH  16  17
HETATM   17  N   UNL     1     -10.958  13.115  64.855  1.00  0.00    -0.304 NA 
HETATM   18  C   UNL     1     -11.308  11.900  64.326  1.00  0.00    -0.353 A  
HETATM   19  C   UNL     1     -12.343  12.169  63.465  1.00  0.00    -0.574 A  
HETATM   20  N   UNL     1     -12.608  13.510  63.435  1.00  0.00    -0.761 NA 
HETATM   21  C   UNL     1     -11.748  14.071  64.261  1.00  0.00    -0.367 A  
HETATM   22  C   UNL     1     -11.637  15.527  64.532  1.00  0.00    -0.283 C  
ENDBRANCH  16  17
ENDBRANCH   7  16
TORSDOF 2
ENDMDL
MODEL        2
REMARK 921   NORMALIZED FREE ENERGY PREDICTED BY IDOCK:   -7.82 KCAL/MOL
REMARK 922        TOTAL FREE ENERGY PREDICTED BY IDOCK:   -8.47 KCAL/MOL
REMARK 923 INTER-LIGAND FREE ENERGY PREDICTED BY IDOCK:   -8.05 KCAL/MOL
REMARK 924 INTRA-LIGAND FREE ENERGY PREDICTED BY IDOCK:   -0.42 KCAL/MOL
REMARK 927      BINDING AFFINITY PREDICTED BY RF-SCORE:    0.00 PKD
ROOT
HETATM    1  C   UNL     1     -14.144  13.521  72.543  1.00  0.00    -0.356 C  
HETATM    2  N   UNL     1     -13.152  13.102  71.576  1.00  0.00    -0.353 NA 
HETATM    3  C   UNL     1     -12.452  13.916  70.724  1.00  0.00    -0.375 A  
HETATM    4  C   UNL     1     -11.670  13.114  69.911  1.00  0.00    -0.327 A  
HETATM    5  C   UNL     1     -11.847  11.769  70.329  1.00  0.00    -0.382 A  
HETATM    6  C   UNL     1     -10.864  13.687  68.839  1.00  0.00    -0.235 C  
HETATM    7  C   UNL     1     -11.190  15.148  68.507  1.00  0.00    -0.301 C  
HETATM    8  C   UNL     1     -11.312  10.534  69.910  1.00  0.00    -0.380 A  
HETATM    9  O   UNL     1     -10.035  13.037  68.209  1.00  0.00    -0.228 OA 
HETATM   10  C   UNL     1     -11.357  15.945  69.821  1.00  0.00    -0.347 C  
HETATM   11  C   UNL     1     -13.230  10.599  71.979  1.00  0.00    -0.473 A  
HETATM   12  C   UNL     1     -11.739   9.352  70.524  1.00  0.00    -0.254 A  
HETATM   13  C   UNL     1     -12.538  15.405  70.650  1.00  0.00    -0.491 C  
HETATM   14  C   UNL     1     -12.688   9.387  71.540  1.00  0.00    -0.444 A  
HETATM   15  C   UNL     1     -12.794  11.783  71.361  1.00  0.00    -0.335 A  
ENDROOT
BRANCH   7  16
HETATM   16  C   UNL     1     -10.118  15.719  67.578  1.00  0.00    -0.245 C  
BRANCH  16  17
HETATM   17  N   UNL     1     -10.605  15.985  66.235  1.00  0.00    -0.304 NA 
HETATM   18  C   UNL     1     -11.051  15.035  65.355  1.00  0.00    -0.374 A  
HETATM   19  C   UNL     1     -11.486  15.739  64.259  1.00  0.00    -0.198 A  
HETATM   20  N   UNL     1     -11.289  17.080  64.438  1.00  0.00    -1.052 NA 
HETATM   21  C   UNL     1     -10.735  17.212  65.627  1.00  0.00    -0.136 A  
HETATM   22  C   UNL     1     -10.309  18.494  66.242  1.00  0.00    -0.459 C  
ENDBRANCH  16  17
ENDBRANCH   7  16
TORSDOF 2
ENDMDL
MODEL        3
REMARK 921   NORMALIZED FREE ENERGY PREDICTED BY IDOCK:   -7.56 KCAL/MOL
REMARK 922        TOTAL FREE ENERGY PREDICTED BY IDOCK:   -8.17 KCAL/MOL
REMARK 923 INTER-LIGAND FREE ENERGY PREDICTED BY IDOCK:   -7.76 KCAL/MOL
REMARK 924 INTRA-LIGAND FREE ENERGY PREDICTED BY IDOCK:   -0.41 KCAL/MOL
REMARK 927      BINDING AFFINITY PREDICTED BY RF-SCORE:    0.00 PKD
ROOT
HETATM    1  C   UNL     1     -11.950  10.810  69.597  1.00  0.00    -0.313 C  
HETATM    2  N   UNL     1     -12.034  12.252  69.507  1.00  0.00    -0.295 NA 
HETATM    3  C   UNL     1     -11.605  13.028  68.462  1.00  0.00    -0.328 A  
HETATM    4  C   UNL     1     -11.793  14.355  68.809  1.00  0.00    -0.360 A  
HETATM    5  C   UNL     1     -12.423  14.386  70.081  1.00  0.00    -0.395 A  
HETATM    6  C   UNL     1     -11.356  15.433  67.928  1.00  0.00    -0.325 C  
HETATM    7  C   UNL     1     -10.431  14.989  66.788  1.00  0.00    -0.283 C  
HETATM    8  C   UNL     1     -12.876  15.421  70.925  1.00  0.00    -0.536 A  
HETATM    9  O   UNL     1     -11.651  16.609  68.118  1.00  0.00    -0.111 OA 
HETATM   10  C   UNL     1     -10.984  13.690  66.158  1.00  0.00    -0.285 C  
HETATM   11  C   UNL     1     -13.101  12.734  71.757  1.00  0.00    -0.455 A  
HETATM   12  C   UNL     1     -13.432  15.104  72.168  1.00  0.00    -0.525 A  
HETATM   13  C   UNL     1     -11.003  12.542  67.185  1.00  0.00    -0.302 C  
HETATM   14  C   UNL     1     -13.537  13.779  72.578  1.00  0.00    -0.680 A  
HETATM   15  C   UNL     1     -12.547  13.058  70.507  1.00  0.00    -0.147 A  
ENDROOT
BRANCH   7  16
HETATM   16  C   UNL     1     -10.263  16.131  65.785  1.00  0.00    -0.374 C  
BRANCH  16  17
HETATM   17  N   UNL     1      -9.160  17.021  66.108  1.00  0.00    -0.456 NA 
HETATM   18  C   UNL     1      -7.868  16.626  66.335  1.00  0.00    -0.312 A  
HETATM   19  C   UNL     1      -7.165  17.791  66.517  1.00  0.00    -0.243 A  
HETATM   20  N   UNL     1      -7.996  18.874  66.438  1.00  0.00    -0.278 NA 
HETATM   21  C   UNL     1      -9.203  18.392  66.214  1.00  0.00    -0.207 A  
HETATM   22  C   UNL     1     -10.443  19.197  66.085  1.00  0.00    -0.558 C  
ENDBRANCH  16  17
ENDBRANCH   7  16
TORSDOF 2
ENDMDL
MODEL        4
REMARK 921   NORMALIZED FREE ENERGY PREDICTED BY IDOCK:   -7.51 KCAL/MOL
REMARK 922        TOTAL FREE ENERGY PREDICTED BY IDOCK:   -8.12 KCAL/MOL
REMARK 923 INTER-LIGAND FREE ENERGY PREDICTED BY IDOCK:   -7.66 KCAL/MOL
REMARK 924 INTRA-LIGAND FREE ENERGY PREDICTED BY IDOCK:   -0.46 KCAL/MOL
REMARK 927      BINDING AFFINITY PREDICTED BY RF-SCORE:    0.00 PKD
ROOT
HETATM    1  C   UNL     1     -13.562  12.896  72.453  1.00  0.00    -0.478 C  
HETATM    2  N   UNL     1     -12.820  12.129  71.475  1.00  0.00    -0.347 NA 
HETATM    3  C   UNL     1     -12.246  12.612  70.328  1.00  0.00    -0.271 A  
HETATM    4  C   UNL     1     -11.708  11.541  69.635  1.00  0.00    -0.419 A  
HETATM    5  C   UNL     1     -11.901  10.375  70.421  1.00  0.00    -0.418 A  
HETATM    6  C   UNL     1     -11.093  11.724  68.325  1.00  0.00    -0.240 C  
HETATM    7  C   UNL     1     -11.365  13.088  67.678  1.00  0.00    -0.342 C  
HETATM    8  C   UNL     1     -11.558   9.017  70.259  1.00  0.00    -0.082 A  
HETATM    9  O   UNL     1     -10.461  10.839  67.757  1.00  0.00    -0.186 OA 
HETATM   10  C   UNL     1     -11.202  14.199  68.740  1.00  0.00    -0.294 C  
HETATM   11  C   UNL     1     -13.008   9.834  72.538  1.00  0.00    -0.166 A  
HETATM   12  C   UNL     1     -11.942   8.087  71.230  1.00  0.00    -0.321 A  
HETATM   13  C   UNL     1     -12.230  14.035  69.876  1.00  0.00    -0.399 C  
HETATM   14  C   UNL     1     -12.661   8.492  72.351  1.00  0.00    -0.394 A  
HETATM   15  C   UNL     1     -12.616  10.763  71.560  1.00  0.00    -0.395 A  
ENDROOT
BRANCH   7  16
HETATM   16  C   UNL     1     -10.462  13.271  66.458  1.00  0.00    -0.281 C  
BRANCH  16  17
HETATM   17  N   UNL     1     -11.184  13.228  65.198  1.00  0.00    -0.297 NA 
HETATM   18  C   UNL     1     -11.569  12.086  64.547  1.00  0.00    -0.317 A  
HETATM   19  C   UNL     1     -12.286  12.518  63.458  1.00  0.00    -0.558 A  
HETATM   20  N   UNL     1     -12.320  13.884  63.415  1.00  0.00    -0.752 NA 
HETATM   21  C   UNL     1     -11.631  14.300  64.460  1.00  0.00    -0.387 A  
HETATM   22  C   UNL     1     -11.367  15.718  64.810  1.00  0.00    -0.319 C  
ENDBRANCH  16  17
ENDBRANCH   7  16
TORSDOF 2
ENDMDL
MODEL        5
REMARK 921   NORMALIZED FREE ENERGY PREDICTED BY IDOCK:   -7.42 KCAL/MOL
REMARK 922        TOTAL FREE ENERGY PREDICTED BY IDOCK:   -8.02 KCAL/MOL
REMARK 923 INTER-LIGAND FREE ENERGY PREDICTED BY IDOCK:   -7.81 KCAL/MOL
REMARK 924 INTRA-LIGAND FREE ENERGY PREDICTED BY IDOCK:   -0.21 KCAL/MOL
REMARK 927      BINDING AFFINITY PREDICTED BY RF-SCORE:    0.00 PKD
ROOT
HETATM    1  C   UNL     1     -10.422  16.992  69.506  1.00  0.00    -0.182 C  
HETATM    2  N   UNL     1     -10.987  15.664  69.627  1.00  0.00    -0.262 NA 
HETATM    3  C   UNL     1     -10.848  14.637  68.731  1.00  0.00    -0.255 A  
HETATM    4  C   UNL     1     -11.608  13.570  69.180  1.00  0.00    -0.359 A  
HETATM    5  C   UNL     1     -12.174  13.937  70.429  1.00  0.00    -0.438 A  
HETATM    6  C   UNL     1     -11.730  12.348  68.394  1.00  0.00    -0.336 C  
HETATM    7  C   UNL     1     -11.223  12.464  66.952  1.00  0.00    -0.359 C  
HETATM    8  C   UNL     1     -13.004  13.279  71.360  1.00  0.00    -0.398 A  
HETATM    9  O   UNL     1     -12.252  11.326  68.829  1.00  0.00    -0.532 OA 
HETATM   10  C   UNL     1      -9.877  13.225  66.943  1.00  0.00    -0.247 C  
HETATM   11  C   UNL     1     -12.213  15.947  71.830  1.00  0.00    -0.551 A  
HETATM   12  C   UNL     1     -13.428  13.957  72.508  1.00  0.00    -0.676 A  
HETATM   13  C   UNL     1     -10.051  14.663  67.468  1.00  0.00    -0.224 C  
HETATM   14  C   UNL     1     -13.040  15.274  72.734  1.00  0.00    -0.561 A  
HETATM   15  C   UNL     1     -11.787  15.259  70.681  1.00  0.00    -0.335 A  
ENDROOT
BRANCH   7  16
HETATM   16  C   UNL     1     -11.143  11.075  66.318  1.00  0.00    -0.037 C  
BRANCH  16  17
HETATM   17  N   UNL     1     -10.494  11.074  65.017  1.00  0.00    -0.291 NA 
HETATM   18  C   UNL     1      -9.246  10.572  64.759  1.00  0.00    -0.227 A  
HETATM   19  C   UNL     1      -9.081  10.706  63.402  1.00  0.00    -0.241 A  
HETATM   20  N   UNL     1     -10.177  11.299  62.839  1.00  0.00    -0.222 NA 
HETATM   21  C   UNL     1     -11.013  11.537  63.830  1.00  0.00    -0.401 A  
HETATM   22  C   UNL     1     -12.333  12.204  63.704  1.00  0.00    -0.673 C  
ENDBRANCH  16  17
ENDBRANCH   7  16
TORSDOF 2
ENDMDL
MODEL        6
REMARK 921   NORMALIZED FREE ENERGY PREDICTED BY IDOCK:   -7.42 KCAL/MOL
REMARK 922        TOTAL FREE ENERGY PREDICTED BY IDOCK:   -8.02 KCAL/MOL
REMARK 923 INTER-LIGAND FREE ENERGY PREDICTED BY IDOCK:   -7.69 KCAL/MOL
REMARK 924 INTRA-LIGAND FREE ENERGY PREDICTED BY IDOCK:   -0.33 KCAL/MOL
REMARK 927      BINDING AFFINITY PREDICTED BY RF-SCORE:    0.00 PKD
ROOT
HETATM    1  C   UNL     1     -10.861  10.217  67.668  1.00  0.00    -0.307 C  
HETATM    2  N   UNL     1     -11.205  11.545  68.131  1.00  0.00    -0.248 NA 
HETATM    3  C   UNL     1     -10.973  12.722  67.469  1.00  0.00    -0.249 A  
HETATM    4  C   UNL     1     -11.378  13.762  68.290  1.00  0.00    -0.317 A  
HETATM    5  C   UNL     1     -11.939  13.194  69.464  1.00  0.00    -0.354 A  
HETATM    6  C   UNL     1     -11.183  15.152  67.895  1.00  0.00    -0.329 C  
HETATM    7  C   UNL     1     -10.252  15.350  66.693  1.00  0.00    -0.281 C  
HETATM    8  C   UNL     1     -12.527  13.731  70.627  1.00  0.00    -0.429 A  
HETATM    9  O   UNL     1     -11.674  16.094  68.511  1.00  0.00    -0.348 OA 
HETATM   10  C   UNL     1     -10.595  14.307  65.604  1.00  0.00    -0.328 C  
HETATM   11  C   UNL     1     -12.229  10.937  70.370  1.00  0.00    -0.453 A  
HETATM   12  C   UNL     1     -12.956  12.872  71.644  1.00  0.00    -0.410 A  
HETATM   13  C   UNL     1     -10.358  12.874  66.117  1.00  0.00    -0.286 C  
HETATM   14  C   UNL     1     -12.803  11.495  71.517  1.00  0.00    -0.485 A  
HETATM   15  C   UNL     1     -11.804  11.805  69.351  1.00  0.00    -0.334 A  
ENDROOT
BRANCH   7  16
HETATM   16  C   UNL     1     -10.340  16.796  66.203  1.00  0.00    -0.330 C  
BRANCH  16  17
HETATM   17  N   UNL     1      -9.057  17.478  66.198  1.00  0.00    -0.489 NA 
HETATM   18  C   UNL     1      -7.835  16.862  66.252  1.00  0.00    -0.311 A  
HETATM   19  C   UNL     1      -6.917  17.877  66.139  1.00  0.00    -0.301 A  
HETATM   20  N   UNL     1      -7.545  19.088  66.049  1.00  0.00    -0.373 NA 
HETATM   21  C   UNL     1      -8.838  18.834  66.110  1.00  0.00    -0.132 A  
HETATM   22  C   UNL     1      -9.919  19.851  66.083  1.00  0.00    -0.593 C  
ENDBRANCH  16  17
ENDBRANCH   7  16
TORSDOF 2
ENDMDL
MODEL        7
REMARK 921   NORMALIZED FREE ENERGY PREDICTED BY IDOCK:   -7.40 KCAL/MOL
REMARK 922        TOTAL FREE ENERGY PREDICTED BY IDOCK:   -8.00 KCAL/MOL
REMARK 923 INTER-LIGAND FREE ENERGY PREDICTED BY IDOCK:   -7.83 KCAL/MOL
REMARK 924 INTRA-LIGAND FREE ENERGY PREDICTED BY IDOCK:   -0.17 KCAL/MOL
REMARK 927      BINDING AFFINITY PREDICTED BY RF-SCORE:    0.00 PKD
ROOT
HETATM    1  C   UNL     1     -12.872  10.597  71.743  1.00  0.00    -0.444 C  
HETATM    2  N   UNL     1     -12.603  11.783  70.958  1.00  0.00    -0.359 NA 
HETATM    3  C   UNL     1     -11.992  11.825  69.732  1.00  0.00    -0.322 A  
HETATM    4  C   UNL     1     -11.854  13.154  69.368  1.00  0.00    -0.383 A  
HETATM    5  C   UNL     1     -12.465  13.946  70.376  1.00  0.00    -0.404 A  
HETATM    6  C   UNL     1     -11.163  13.531  68.140  1.00  0.00    -0.272 C  
HETATM    7  C   UNL     1     -10.367  12.397  67.483  1.00  0.00    -0.223 C  
HETATM    8  C   UNL     1     -12.659  15.331  70.550  1.00  0.00    -0.450 A  
HETATM    9  O   UNL     1     -11.165  14.676  67.699  1.00  0.00    -0.295 OA 
HETATM   10  C   UNL     1     -11.215  11.104  67.495  1.00  0.00    -0.369 C  
HETATM   11  C   UNL     1     -13.535  13.533  72.541  1.00  0.00    -0.660 A  
HETATM   12  C   UNL     1     -13.283  15.800  71.710  1.00  0.00    -0.474 A  
HETATM   13  C   UNL     1     -11.518  10.654  68.936  1.00  0.00    -0.334 C  
HETATM   14  C   UNL     1     -13.709  14.912  72.692  1.00  0.00    -0.552 A  
HETATM   15  C   UNL     1     -12.911  13.067  71.371  1.00  0.00    -0.292 A  
ENDROOT
BRANCH   7  16
HETATM   16  C   UNL     1      -9.920  12.822  66.084  1.00  0.00    -0.266 C  
BRANCH  16  17
HETATM   17  N   UNL     1      -9.659  11.699  65.199  1.00  0.00    -0.217 NA 
HETATM   18  C   UNL     1      -8.675  10.763  65.382  1.00  0.00    -0.181 A  
HETATM   19  C   UNL     1      -8.851   9.856  64.365  1.00  0.00    -0.217 A  
HETATM   20  N   UNL     1      -9.890  10.232  63.558  1.00  0.00    -0.208 NA 
HETATM   21  C   UNL     1     -10.353  11.359  64.061  1.00  0.00    -0.362 A  
HETATM   22  C   UNL     1     -11.469  12.160  63.497  1.00  0.00    -0.544 C  
ENDBRANCH  16  17
ENDBRANCH   7  16
TORSDOF 2
ENDMDL
MODEL        8
REMARK 921   NORMALIZED FREE ENERGY PREDICTED BY IDOCK:   -7.30 KCAL/MOL
REMARK 922        TOTAL FREE ENERGY PREDICTED BY IDOCK:   -7.88 KCAL/MOL
REMARK 923 INTER-LIGAND FREE ENERGY PREDICTED BY IDOCK:   -7.47 KCAL/MOL
REMARK 924 INTRA-LIGAND FREE ENERGY PREDICTED BY IDOCK:   -0.41 KCAL/MOL
REMARK 927      BINDING AFFINITY PREDICTED BY RF-SCORE:    0.00 PKD
ROOT
HETATM    1  C   UNL     1      -9.515  10.128  64.214  1.00  0.00    -0.305 C  
HETATM    2  N   UNL     1     -10.221  10.793  65.289  1.00  0.00    -0.284 NA 
HETATM    3  C   UNL     1     -10.273  10.391  66.599  1.00  0.00    -0.234 A  
HETATM    4  C   UNL     1     -11.117  11.253  67.278  1.00  0.00    -0.367 A  
HETATM    5  C   UNL     1     -11.538  12.256  66.366  1.00  0.00    -0.445 A  
HETATM    6  C   UNL     1     -11.441  11.037  68.683  1.00  0.00    -0.308 C  
HETATM    7  C   UNL     1     -11.037   9.662  69.228  1.00  0.00    -0.149 C  
HETATM    8  C   UNL     1     -12.365  13.393  66.473  1.00  0.00    -0.354 A  
HETATM    9  O   UNL     1     -12.045  11.863  69.362  1.00  0.00    -0.280 OA 
HETATM   10  C   UNL     1      -9.615   9.313  68.729  1.00  0.00    -0.157 C  
HETATM   11  C   UNL     1     -11.231  12.715  63.979  1.00  0.00    -0.459 A  
HETATM   12  C   UNL     1     -12.616  14.173  65.340  1.00  0.00    -0.485 A  
HETATM   13  C   UNL     1      -9.578   9.210  67.192  1.00  0.00    -0.215 C  
HETATM   14  C   UNL     1     -12.060  13.834  64.111  1.00  0.00    -0.478 A  
HETATM   15  C   UNL     1     -10.980  11.937  65.122  1.00  0.00    -0.312 A  
ENDROOT
BRANCH   7  16
HETATM   16  C   UNL     1     -11.170   9.648  70.751  1.00  0.00    -0.336 C  
BRANCH  16  17
HETATM   17  N   UNL     1     -12.339   8.923  71.218  1.00  0.00    -0.305 NA 
HETATM   18  C   UNL     1     -13.477   9.499  71.719  1.00  0.00    -0.402 A  
HETATM   19  C   UNL     1     -14.335   8.452  71.951  1.00  0.00    -0.473 A  
HETATM   20  N   UNL     1     -13.740   7.262  71.635  1.00  0.00    -0.381 NA 
HETATM   21  C   UNL     1     -12.527   7.560  71.216  1.00  0.00    -0.323 A  
HETATM   22  C   UNL     1     -11.496   6.580  70.791  1.00  0.00    -0.419 C  
ENDBRANCH  16  17
ENDBRANCH   7  16
TORSDOF 2
ENDMDL
MODEL        9
REMARK 921   NORMALIZED FREE ENERGY PREDICTED BY IDOCK:   -7.29 KCAL/MOL
REMARK 922        TOTAL FREE ENERGY PREDICTED BY IDOCK:   -7.88 KCAL/MOL
REMARK 923 INTER-LIGAND FREE ENERGY PREDICTED BY IDOCK:   -7.52 KCAL/MOL
REMARK 924 INTRA-LIGAND FREE ENERGY PREDICTED BY IDOCK:   -0.35 KCAL/MOL
REMARK 927      BINDING AFFINITY PREDICTED BY RF-SCORE:    0.00 PKD
ROOT
HETATM    1  C   UNL     1     -10.840  16.621  69.567  1.00  0.00    -0.285 C  
HETATM    2  N   UNL     1     -11.109  15.348  68.933  1.00  0.00    -0.258 NA 
HETATM    3  C   UNL     1     -11.633  14.234  69.536  1.00  0.00    -0.301 A  
HETATM    4  C   UNL     1     -11.652  13.211  68.603  1.00  0.00    -0.356 A  
HETATM    5  C   UNL     1     -11.189  13.740  67.370  1.00  0.00    -0.330 A  
HETATM    6  C   UNL     1     -12.083  11.867  68.968  1.00  0.00    -0.186 C  
HETATM    7  C   UNL     1     -12.206  11.624  70.477  1.00  0.00    -0.451 C  
HETATM    8  C   UNL     1     -11.009  13.202  66.079  1.00  0.00    -0.295 A  
HETATM    9  O   UNL     1     -12.273  10.980  68.140  1.00  0.00    -0.578 OA 
HETATM   10  C   UNL     1     -12.906  12.836  71.134  1.00  0.00    -0.315 C  
HETATM   11  C   UNL     1     -10.300  15.886  66.590  1.00  0.00    -0.302 A  
HETATM   12  C   UNL     1     -10.479  14.005  65.064  1.00  0.00    -0.440 A  
HETATM   13  C   UNL     1     -12.073  14.119  70.958  1.00  0.00    -0.411 C  
HETATM   14  C   UNL     1     -10.126  15.327  65.320  1.00  0.00    -0.362 A  
HETATM   15  C   UNL     1     -10.836  15.075  67.604  1.00  0.00    -0.291 A  
ENDROOT
BRANCH   7  16
HETATM   16  C   UNL     1     -12.918  10.295  70.732  1.00  0.00    -0.330 C  
BRANCH  16  17
HETATM   17  N   UNL     1     -12.061   9.291  71.338  1.00  0.00    -0.326 NA 
HETATM   18  C   UNL     1     -10.717   9.435  71.566  1.00  0.00    -0.297 A  
HETATM   19  C   UNL     1     -10.342   8.289  72.223  1.00  0.00    -0.316 A  
HETATM   20  N   UNL     1     -11.409   7.447  72.373  1.00  0.00    -0.281 NA 
HETATM   21  C   UNL     1     -12.435   8.055  71.813  1.00  0.00    -0.324 A  
HETATM   22  C   UNL     1     -13.810   7.505  71.704  1.00  0.00    -0.486 C  
ENDBRANCH  16  17
ENDBRANCH   7  16
TORSDOF 2
ENDMDL
MODEL       10
REMARK 921   NORMALIZED FREE ENERGY PREDICTED BY IDOCK:   -7.25 KCAL/MOL
REMARK 922        TOTAL FREE ENERGY PREDICTED BY IDOCK:   -7.83 KCAL/MOL
REMARK 923 INTER-LIGAND FREE ENERGY PREDICTED BY IDOCK:   -7.59 KCAL/MOL
REMARK 924 INTRA-LIGAND FREE ENERGY PREDICTED BY IDOCK:   -0.24 KCAL/MOL
REMARK 927      BINDING AFFINITY PREDICTED BY RF-SCORE:    0.00 PKD
ROOT
HETATM    1  C   UNL     1     -14.023  13.485  72.410  1.00  0.00    -0.536 C  
HETATM    2  N   UNL     1     -13.076  13.129  71.374  1.00  0.00    -0.310 NA 
HETATM    3  C   UNL     1     -12.503  13.982  70.468  1.00  0.00    -0.359 A  
HETATM    4  C   UNL     1     -11.726  13.230  69.604  1.00  0.00    -0.369 A  
HETATM    5  C   UNL     1     -11.772  11.880  70.043  1.00  0.00    -0.366 A  
HETATM    6  C   UNL     1     -11.046  13.848  68.471  1.00  0.00    -0.265 C  
HETATM    7  C   UNL     1     -11.502  15.277  68.155  1.00  0.00    -0.357 C  
HETATM    8  C   UNL     1     -11.179  10.683  69.592  1.00  0.00    -0.351 A  
HETATM    9  O   UNL     1     -10.219  13.253  67.785  1.00  0.00    -0.220 OA 
HETATM   10  C   UNL     1     -11.631  16.076  69.473  1.00  0.00    -0.304 C  
HETATM   11  C   UNL     1     -12.939  10.632  71.797  1.00  0.00    -0.577 A  
HETATM   12  C   UNL     1     -11.471   9.481  70.243  1.00  0.00    -0.256 A  
HETATM   13  C   UNL     1     -12.704  15.460  70.391  1.00  0.00    -0.407 C  
HETATM   14  C   UNL     1     -12.342   9.458  71.328  1.00  0.00    -0.422 A  
HETATM   15  C   UNL     1     -12.638  11.838  71.141  1.00  0.00    -0.309 A  
ENDROOT
BRANCH   7  16
HETATM   16  C   UNL     1     -10.547  15.914  67.146  1.00  0.00    -0.316 C  
BRANCH  16  17
HETATM   17  N   UNL     1      -9.570  16.798  67.759  1.00  0.00    -0.238 NA 
HETATM   18  C   UNL     1      -8.415  16.392  68.373  1.00  0.00    -0.204 A  
HETATM   19  C   UNL     1      -7.770  17.553  68.725  1.00  0.00    -0.252 A  
HETATM   20  N   UNL     1      -8.513  18.644  68.369  1.00  0.00    -0.330 NA 
HETATM   21  C   UNL     1      -9.609  18.172  67.808  1.00  0.00    -0.286 A  
HETATM   22  C   UNL     1     -10.733  18.991  67.290  1.00  0.00    -0.556 C  
ENDBRANCH  16  17
ENDBRANCH   7  16
TORSDOF 2
ENDMDL
MODEL       11
REMARK 921   NORMALIZED FREE ENERGY PREDICTED BY IDOCK:   -7.19 KCAL/MOL
REMARK 922        TOTAL FREE ENERGY PREDICTED BY IDOCK:   -7.76 KCAL/MOL
REMARK 923 INTER-LIGAND FREE ENERGY PREDICTED BY IDOCK:   -7.40 KCAL/MOL
REMARK 924 INTRA-LIGAND FREE ENERGY PREDICTED BY IDOCK:   -0.36 KCAL/MOL
REMARK 927      BINDING AFFINITY PREDICTED BY RF-SCORE:    0.00 PKD
ROOT
HETATM    1  C   UNL     1      -9.365   9.852  63.971  1.00  0.00    -0.223 C  
HETATM    2  N   UNL     1     -10.071  10.589  64.998  1.00  0.00    -0.316 NA 
HETATM    3  C   UNL     1     -10.086  10.303  66.338  1.00  0.00    -0.234 A  
HETATM    4  C   UNL     1     -10.945  11.196  66.956  1.00  0.00    -0.348 A  
HETATM    5  C   UNL     1     -11.414  12.101  65.968  1.00  0.00    -0.427 A  
HETATM    6  C   UNL     1     -11.236  11.097  68.382  1.00  0.00    -0.262 C  
HETATM    7  C   UNL     1     -10.777   9.788  69.037  1.00  0.00    -0.238 C  
HETATM    8  C   UNL     1     -12.275  13.218  65.992  1.00  0.00    -0.483 A  
HETATM    9  O   UNL     1     -11.853  11.961  68.997  1.00  0.00    -0.294 OA 
HETATM   10  C   UNL     1      -9.355   9.439  68.540  1.00  0.00    -0.139 C  
HETATM   11  C   UNL     1     -11.167  12.355  63.545  1.00  0.00    -0.540 A  
HETATM   12  C   UNL     1     -12.572  13.886  64.801  1.00  0.00    -0.329 A  
HETATM   13  C   UNL     1      -9.343   9.201  67.018  1.00  0.00    -0.188 C  
HETATM   14  C   UNL     1     -12.028  13.456  63.595  1.00  0.00    -0.504 A  
HETATM   15  C   UNL     1     -10.869  11.690  64.746  1.00  0.00    -0.308 A  
ENDROOT
BRANCH   7  16
HETATM   16  C   UNL     1     -10.882   9.906  70.558  1.00  0.00    -0.326 C  
BRANCH  16  17
HETATM   17  N   UNL     1     -12.078   9.285  71.100  1.00  0.00    -0.307 NA 
HETATM   18  C   UNL     1     -12.338   7.940  71.100  1.00  0.00    -0.230 A  
HETATM   19  C   UNL     1     -13.523   7.804  71.781  1.00  0.00    -0.322 A  
HETATM   20  N   UNL     1     -14.001   9.027  72.165  1.00  0.00    -0.442 NA 
HETATM   21  C   UNL     1     -13.130   9.914  71.726  1.00  0.00    -0.452 A  
HETATM   22  C   UNL     1     -13.245  11.385  71.881  1.00  0.00    -0.485 C  
ENDBRANCH  16  17
ENDBRANCH   7  16
TORSDOF 2
ENDMDL
MODEL       12
REMARK 921   NORMALIZED FREE ENERGY PREDICTED BY IDOCK:   -7.15 KCAL/MOL
REMARK 922        TOTAL FREE ENERGY PREDICTED BY IDOCK:   -7.71 KCAL/MOL
REMARK 923 INTER-LIGAND FREE ENERGY PREDICTED BY IDOCK:   -7.28 KCAL/MOL
REMARK 924 INTRA-LIGAND FREE ENERGY PREDICTED BY IDOCK:   -0.44 KCAL/MOL
REMARK 927      BINDING AFFINITY PREDICTED BY RF-SCORE:    0.00 PKD
ROOT
HETATM    1  C   UNL     1      -9.033   9.092  68.361  1.00  0.00    -0.133 C  
HETATM    2  N   UNL     1     -10.071   9.350  69.336  1.00  0.00    -0.189 NA 
HETATM    3  C   UNL     1     -10.787  10.510  69.475  1.00  0.00    -0.256 A  
HETATM    4  C   UNL     1     -11.616  10.373  70.575  1.00  0.00    -0.433 A  
HETATM    5  C   UNL     1     -11.450   9.058  71.082  1.00  0.00    -0.376 A  
HETATM    6  C   UNL     1     -12.451  11.479  71.030  1.00  0.00    -0.356 C  
HETATM    7  C   UNL     1     -12.109  12.837  70.405  1.00  0.00    -0.382 C  
HETATM    8  C   UNL     1     -12.026   8.340  72.150  1.00  0.00    -0.429 A  
HETATM    9  O   UNL     1     -13.317  11.349  71.890  1.00  0.00    -0.435 OA 
HETATM   10  C   UNL     1     -11.874  12.656  68.888  1.00  0.00    -0.345 C  
HETATM   11  C   UNL     1     -10.028   7.131  70.565  1.00  0.00    -0.191 A  
HETATM   12  C   UNL     1     -11.600   7.034  72.413  1.00  0.00    -0.284 A  
HETATM   13  C   UNL     1     -10.673  11.729  68.620  1.00  0.00    -0.252 C  
HETATM   14  C   UNL     1     -10.611   6.443  71.633  1.00  0.00    -0.261 A  
HETATM   15  C   UNL     1     -10.464   8.441  70.303  1.00  0.00    -0.218 A  
ENDROOT
BRANCH   7  16
HETATM   16  C   UNL     1     -13.204  13.850  70.738  1.00  0.00    -0.067 C  
BRANCH  16  17
HETATM   17  N   UNL     1     -12.820  14.791  71.777  1.00  0.00    -0.309 NA 
HETATM   18  C   UNL     1     -13.227  14.733  73.084  1.00  0.00    -0.436 A  
HETATM   19  C   UNL     1     -12.560  15.756  73.712  1.00  0.00    -0.610 A  
HETATM   20  N   UNL     1     -11.788  16.447  72.820  1.00  0.00    -0.523 NA 
HETATM   21  C   UNL     1     -11.972  15.867  71.651  1.00  0.00    -0.480 A  
HETATM   22  C   UNL     1     -11.358  16.296  70.369  1.00  0.00    -0.313 C  
ENDBRANCH  16  17
ENDBRANCH   7  16
TORSDOF 2
ENDMDL
MODEL       13
REMARK 921   NORMALIZED FREE ENERGY PREDICTED BY IDOCK:   -7.13 KCAL/MOL
REMARK 922        TOTAL FREE ENERGY PREDICTED BY IDOCK:   -7.69 KCAL/MOL
REMARK 923 INTER-LIGAND FREE ENERGY PREDICTED BY IDOCK:   -7.30 KCAL/MOL
REMARK 924 INTRA-LIGAND FREE ENERGY PREDICTED BY IDOCK:   -0.40 KCAL/MOL
REMARK 927      BINDING AFFINITY PREDICTED BY RF-SCORE:    0.00 PKD
ROOT
HETATM    1  C   UNL     1     -13.670  13.033  72.297  1.00  0.00    -0.512 C  
HETATM    2  N   UNL     1     -12.857  12.275  71.370  1.00  0.00    -0.339 NA 
HETATM    3  C   UNL     1     -12.233  12.761  70.250  1.00  0.00    -0.277 A  
HETATM    4  C   UNL     1     -11.631  11.697  69.600  1.00  0.00    -0.401 A  
HETATM    5  C   UNL     1     -11.836  10.535  70.389  1.00  0.00    -0.431 A  
HETATM    6  C   UNL     1     -10.951  11.883  68.324  1.00  0.00    -0.230 C  
HETATM    7  C   UNL     1     -11.222  13.231  67.646  1.00  0.00    -0.307 C  
HETATM    8  C   UNL     1     -11.451   9.184  70.262  1.00  0.00    -0.174 A  
HETATM    9  O   UNL     1     -10.266  11.008  67.801  1.00  0.00    -0.176 OA 
HETATM   10  C   UNL     1     -11.146  14.358  68.702  1.00  0.00    -0.269 C  
HETATM   11  C   UNL     1     -13.044   9.988  72.449  1.00  0.00    -0.243 A  
HETATM   12  C   UNL     1     -11.863   8.256  71.223  1.00  0.00    -0.319 A  
HETATM   13  C   UNL     1     -12.229  14.179  69.782  1.00  0.00    -0.397 C  
HETATM   14  C   UNL     1     -12.652   8.654  72.297  1.00  0.00    -0.457 A  
HETATM   15  C   UNL     1     -12.623  10.917  71.483  1.00  0.00    -0.375 A  
ENDROOT
BRANCH   7  16
HETATM   16  C   UNL     1     -10.259  13.425  66.475  1.00  0.00    -0.282 C  
BRANCH  16  17
HETATM   17  N   UNL     1     -10.845  13.092  65.188  1.00  0.00    -0.292 NA 
HETATM   18  C   UNL     1     -11.900  13.746  64.608  1.00  0.00    -0.402 A  
HETATM   19  C   UNL     1     -12.057  13.153  63.379  1.00  0.00    -0.486 A  
HETATM   20  N   UNL     1     -11.151  12.143  63.212  1.00  0.00    -0.388 NA 
HETATM   21  C   UNL     1     -10.441  12.102  64.322  1.00  0.00    -0.339 A  
HETATM   22  C   UNL     1      -9.351  11.137  64.614  1.00  0.00    -0.200 C  
ENDBRANCH  16  17
ENDBRANCH   7  16
TORSDOF 2
ENDMDL
MODEL       14
REMARK 921   NORMALIZED FREE ENERGY PREDICTED BY IDOCK:   -7.05 KCAL/MOL
REMARK 922        TOTAL FREE ENERGY PREDICTED BY IDOCK:   -7.61 KCAL/MOL
REMARK 923 INTER-LIGAND FREE ENERGY PREDICTED BY IDOCK:   -7.26 KCAL/MOL
REMARK 924 INTRA-LIGAND FREE ENERGY PREDICTED BY IDOCK:   -0.35 KCAL/MOL
REMARK 927      BINDING AFFINITY PREDICTED BY RF-SCORE:    0.00 PKD
ROOT
HETATM    1  C   UNL     1     -11.969  16.427  72.089  1.00  0.00    -0.403 C  
HETATM    2  N   UNL     1     -11.920  15.419  71.051  1.00  0.00    -0.323 NA 
HETATM    3  C   UNL     1     -12.323  14.114  71.165  1.00  0.00    -0.372 A  
HETATM    4  C   UNL     1     -12.030  13.469  69.975  1.00  0.00    -0.410 A  
HETATM    5  C   UNL     1     -11.494  14.433  69.081  1.00  0.00    -0.328 A  
HETATM    6  C   UNL     1     -12.270  12.040  69.814  1.00  0.00    -0.159 C  
HETATM    7  C   UNL     1     -12.564  11.291  71.120  1.00  0.00    -0.501 C  
HETATM    8  C   UNL     1     -11.040  14.386  67.747  1.00  0.00    -0.299 A  
HETATM    9  O   UNL     1     -12.182  11.468  68.731  1.00  0.00    -0.457 OA 
HETATM   10  C   UNL     1     -13.550  12.121  71.973  1.00  0.00    -0.263 C  
HETATM   11  C   UNL     1     -10.889  16.804  69.193  1.00  0.00    -0.287 A  
HETATM   12  C   UNL     1     -10.518  15.540  67.154  1.00  0.00    -0.286 A  
HETATM   13  C   UNL     1     -12.936  13.477  72.369  1.00  0.00    -0.399 C  
HETATM   14  C   UNL     1     -10.440  16.729  67.871  1.00  0.00    -0.335 A  
HETATM   15  C   UNL     1     -11.416  15.642  69.782  1.00  0.00    -0.342 A  
ENDROOT
BRANCH   7  16
HETATM   16  C   UNL     1     -13.063   9.881  70.806  1.00  0.00    -0.192 C  
BRANCH  16  17
HETATM   17  N   UNL     1     -12.243   8.837  71.397  1.00  0.00    -0.301 NA 
HETATM   18  C   UNL     1     -10.903   8.942  71.663  1.00  0.00    -0.349 A  
HETATM   19  C   UNL     1     -10.569   7.765  72.287  1.00  0.00    -0.259 A  
HETATM   20  N   UNL     1     -11.657   6.942  72.378  1.00  0.00    -0.262 NA 
HETATM   21  C   UNL     1     -12.656   7.593  71.815  1.00  0.00    -0.331 A  
HETATM   22  C   UNL     1     -14.038   7.077  71.652  1.00  0.00    -0.404 C  
ENDBRANCH  16  17
ENDBRANCH   7  16
TORSDOF 2
ENDMDL
MODEL       15
REMARK 921   NORMALIZED FREE ENERGY PREDICTED BY IDOCK:   -7.04 KCAL/MOL
REMARK 922        TOTAL FREE ENERGY PREDICTED BY IDOCK:   -7.60 KCAL/MOL
REMARK 923 INTER-LIGAND FREE ENERGY PREDICTED BY IDOCK:   -7.36 KCAL/MOL
REMARK 924 INTRA-LIGAND FREE ENERGY PREDICTED BY IDOCK:   -0.24 KCAL/MOL
REMARK 927      BINDING AFFINITY PREDICTED BY RF-SCORE:    0.00 PKD
ROOT
HETATM    1  C   UNL     1     -10.838  13.492  68.313  1.00  0.00    -0.259 C  
HETATM    2  N   UNL     1     -11.518  12.921  69.457  1.00  0.00    -0.254 NA 
HETATM    3  C   UNL     1     -11.545  11.598  69.810  1.00  0.00    -0.315 A  
HETATM    4  C   UNL     1     -12.371  11.465  70.913  1.00  0.00    -0.483 A  
HETATM    5  C   UNL     1     -12.807  12.764  71.287  1.00  0.00    -0.355 A  
HETATM    6  C   UNL     1     -12.667  10.154  71.480  1.00  0.00    -0.436 C  
HETATM    7  C   UNL     1     -12.256   8.970  70.596  1.00  0.00    -0.017 C  
HETATM    8  C   UNL     1     -13.627  13.262  72.320  1.00  0.00    -0.703 A  
HETATM    9  O   UNL     1     -13.253  10.007  72.548  1.00  0.00    -0.265 OA 
HETATM   10  C   UNL     1     -10.847   9.230  70.015  1.00  0.00    -0.264 C  
HETATM   11  C   UNL     1     -12.548  15.035  70.407  1.00  0.00    -0.399 A  
HETATM   12  C   UNL     1     -13.899  14.632  72.385  1.00  0.00    -0.580 A  
HETATM   13  C   UNL     1     -10.842  10.479  69.113  1.00  0.00    -0.277 C  
HETATM   14  C   UNL     1     -13.369  15.504  71.438  1.00  0.00    -0.592 A  
HETATM   15  C   UNL     1     -12.276  13.658  70.350  1.00  0.00    -0.363 A  
ENDROOT
BRANCH   7  16
HETATM   16  C   UNL     1     -12.358   7.669  71.393  1.00  0.00    -0.333 C  
BRANCH  16  17
HETATM   17  N   UNL     1     -11.085   7.231  71.941  1.00  0.00    -0.234 NA 
HETATM   18  C   UNL     1     -10.525   7.694  73.102  1.00  0.00    -0.374 A  
HETATM   19  C   UNL     1      -9.382   6.951  73.269  1.00  0.00    -0.145 A  
HETATM   20  N   UNL     1      -9.219   6.077  72.230  1.00  0.00    -0.144 NA 
HETATM   21  C   UNL     1     -10.244   6.274  71.423  1.00  0.00    -0.201 A  
HETATM   22  C   UNL     1     -10.477   5.569  70.138  1.00  0.00    -0.370 C  
ENDBRANCH  16  17
ENDBRANCH   7  16
TORSDOF 2
ENDMDL
MODEL       16
REMARK 921   NORMALIZED FREE ENERGY PREDICTED BY IDOCK:   -6.99 KCAL/MOL
REMARK 922        TOTAL FREE ENERGY PREDICTED BY IDOCK:   -7.54 KCAL/MOL
REMARK 923 INTER-LIGAND FREE ENERGY PREDICTED BY IDOCK:   -7.15 KCAL/MOL
REMARK 924 INTRA-LIGAND FREE ENERGY PREDICTED BY IDOCK:   -0.39 KCAL/MOL
REMARK 927      BINDING AFFINITY PREDICTED BY RF-SCORE:    0.00 PKD
ROOT
HETATM    1  C   UNL     1     -12.724  15.685  71.334  1.00  0.00    -0.471 C  
HETATM    2  N   UNL     1     -12.379  14.567  70.480  1.00  0.00    -0.316 NA 
HETATM    3  C   UNL     1     -12.499  13.238  70.793  1.00  0.00    -0.324 A  
HETATM    4  C   UNL     1     -11.984  12.503  69.738  1.00  0.00    -0.359 A  
HETATM    5  C   UNL     1     -11.603  13.415  68.719  1.00  0.00    -0.363 A  
HETATM    6  C   UNL     1     -11.896  11.049  69.806  1.00  0.00    -0.347 C  
HETATM    7  C   UNL     1     -12.120  10.461  71.205  1.00  0.00    -0.487 C  
HETATM    8  C   UNL     1     -11.050  13.268  67.430  1.00  0.00    -0.300 A  
HETATM    9  O   UNL     1     -11.606  10.353  68.837  1.00  0.00    -0.225 OA 
HETATM   10  C   UNL     1     -13.324  11.167  71.870  1.00  0.00    -0.409 C  
HETATM   11  C   UNL     1     -11.535  15.850  68.462  1.00  0.00    -0.377 A  
HETATM   12  C   UNL     1     -10.746  14.406  66.676  1.00  0.00    -0.292 A  
HETATM   13  C   UNL     1     -13.049  12.671  72.060  1.00  0.00    -0.471 C  
HETATM   14  C   UNL     1     -10.982  15.677  67.189  1.00  0.00    -0.270 A  
HETATM   15  C   UNL     1     -11.841  14.703  69.213  1.00  0.00    -0.321 A  
ENDROOT
BRANCH   7  16
HETATM   16  C   UNL     1     -12.278   8.943  71.109  1.00  0.00    -0.255 C  
BRANCH  16  17
HETATM   17  N   UNL     1     -11.044   8.221  71.368  1.00  0.00    -0.243 NA 
HETATM   18  C   UNL     1     -10.084   8.595  72.271  1.00  0.00    -0.292 A  
HETATM   19  C   UNL     1      -9.151   7.588  72.240  1.00  0.00    -0.137 A  
HETATM   20  N   UNL     1      -9.503   6.633  71.326  1.00  0.00    -0.163 NA 
HETATM   21  C   UNL     1     -10.636   7.041  70.790  1.00  0.00    -0.219 A  
HETATM   22  C   UNL     1     -11.385   6.337  69.718  1.00  0.00    -0.506 C  
ENDBRANCH  16  17
ENDBRANCH   7  16
TORSDOF 2
ENDMDL
MODEL       17
REMARK 921   NORMALIZED FREE ENERGY PREDICTED BY IDOCK:   -6.94 KCAL/MOL
REMARK 922        TOTAL FREE ENERGY PREDICTED BY IDOCK:   -7.49 KCAL/MOL
REMARK 923 INTER-LIGAND FREE ENERGY PREDICTED BY IDOCK:   -7.12 KCAL/MOL
REMARK 924 INTRA-LIGAND FREE ENERGY PREDICTED BY IDOCK:   -0.36 KCAL/MOL
REMARK 927      BINDING AFFINITY PREDICTED BY RF-SCORE:    0.00 PKD
ROOT
HETATM    1  C   UNL     1     -12.157  15.053  68.775  1.00  0.00    -0.180 C  
HETATM    2  N   UNL     1     -11.880  13.808  68.090  1.00  0.00    -0.362 NA 
HETATM    3  C   UNL     1     -11.669  12.588  68.676  1.00  0.00    -0.325 A  
HETATM    4  C   UNL     1     -11.357  11.681  67.678  1.00  0.00    -0.362 A  
HETATM    5  C   UNL     1     -11.449  12.358  66.433  1.00  0.00    -0.427 A  
HETATM    6  C   UNL     1     -10.999  10.304  67.996  1.00  0.00    -0.289 C  
HETATM    7  C   UNL     1     -10.706  10.047  69.479  1.00  0.00    -0.269 C  
HETATM    8  C   UNL     1     -11.270  11.968  65.090  1.00  0.00    -0.368 A  
HETATM    9  O   UNL     1     -10.879   9.432  67.140  1.00  0.00    -0.219 OA 
HETATM   10  C   UNL     1     -11.775  10.758  70.341  1.00  0.00    -0.445 C  
HETATM   11  C   UNL     1     -11.886  14.654  65.699  1.00  0.00    -0.273 A  
HETATM   12  C   UNL     1     -11.399  12.918  64.072  1.00  0.00    -0.466 A  
HETATM   13  C   UNL     1     -11.726  12.284  70.137  1.00  0.00    -0.280 C  
HETATM   14  C   UNL     1     -11.698  14.242  64.376  1.00  0.00    -0.405 A  
HETATM   15  C   UNL     1     -11.759  13.694  66.717  1.00  0.00    -0.392 A  
ENDROOT
BRANCH   7  16
HETATM   16  C   UNL     1     -10.616   8.542  69.736  1.00  0.00    -0.224 C  
BRANCH  16  17
HETATM   17  N   UNL     1     -10.428   8.210  71.138  1.00  0.00    -0.197 NA 
HETATM   18  C   UNL     1      -9.307   8.493  71.873  1.00  0.00    -0.267 A  
HETATM   19  C   UNL     1      -9.602   8.079  73.149  1.00  0.00    -0.274 A  
HETATM   20  N   UNL     1     -10.853   7.529  73.201  1.00  0.00    -0.395 NA 
HETATM   21  C   UNL     1     -11.331   7.593  71.974  1.00  0.00    -0.278 A  
HETATM   22  C   UNL     1     -12.655   7.084  71.536  1.00  0.00    -0.426 C  
ENDBRANCH  16  17
ENDBRANCH   7  16
TORSDOF 2
ENDMDL
MODEL       18
REMARK 921   NORMALIZED FREE ENERGY PREDICTED BY IDOCK:   -6.83 KCAL/MOL
REMARK 922        TOTAL FREE ENERGY PREDICTED BY IDOCK:   -7.36 KCAL/MOL
REMARK 923 INTER-LIGAND FREE ENERGY PREDICTED BY IDOCK:   -7.60 KCAL/MOL
REMARK 924 INTRA-LIGAND FREE ENERGY PREDICTED BY IDOCK:    0.24 KCAL/MOL
REMARK 927      BINDING AFFINITY PREDICTED BY RF-SCORE:    0.00 PKD
ROOT
HETATM    1  C   UNL     1     -12.063  13.886  66.637  1.00  0.00    -0.448 C  
HETATM    2  N   UNL     1     -11.542  12.557  66.879  1.00  0.00    -0.352 NA 
HETATM    3  C   UNL     1     -11.548  11.886  68.074  1.00  0.00    -0.332 A  
HETATM    4  C   UNL     1     -10.882  10.686  67.895  1.00  0.00    -0.328 A  
HETATM    5  C   UNL     1     -10.520  10.591  66.526  1.00  0.00    -0.276 A  
HETATM    6  C   UNL     1     -10.651   9.778  69.013  1.00  0.00    -0.219 C  
HETATM    7  C   UNL     1     -10.919  10.388  70.395  1.00  0.00    -0.320 C  
HETATM    8  C   UNL     1      -9.858   9.615  65.753  1.00  0.00    -0.373 A  
HETATM    9  O   UNL     1     -10.218   8.639  68.868  1.00  0.00    -0.198 OA 
HETATM   10  C   UNL     1     -12.236  11.196  70.350  1.00  0.00    -0.457 C  
HETATM   11  C   UNL     1     -10.682  12.032  64.551  1.00  0.00    -0.358 A  
HETATM   12  C   UNL     1      -9.616   9.856  64.397  1.00  0.00    -0.257 A  
HETATM   13  C   UNL     1     -12.131  12.371  69.360  1.00  0.00    -0.237 C  
HETATM   14  C   UNL     1     -10.019  11.050  63.808  1.00  0.00    -0.404 A  
HETATM   15  C   UNL     1     -10.926  11.782  65.912  1.00  0.00    -0.304 A  
ENDROOT
BRANCH   7  16
HETATM   16  C   UNL     1     -10.913   9.287  71.456  1.00  0.00    -0.375 C  
BRANCH  16  17
HETATM   17  N   UNL     1     -12.223   8.699  71.680  1.00  0.00    -0.315 NA 
HETATM   18  C   UNL     1     -13.287   9.340  72.259  1.00  0.00    -0.477 A  
HETATM   19  C   UNL     1     -14.325   8.443  72.190  1.00  0.00    -0.427 A  
HETATM   20  N   UNL     1     -13.914   7.273  71.614  1.00  0.00    -0.396 NA 
HETATM   21  C   UNL     1     -12.636   7.434  71.333  1.00  0.00    -0.370 A  
HETATM   22  C   UNL     1     -11.752   6.409  70.723  1.00  0.00    -0.378 C  
ENDBRANCH  16  17
ENDBRANCH   7  16
TORSDOF 2
ENDMDL
MODEL       19
REMARK 921   NORMALIZED FREE ENERGY PREDICTED BY IDOCK:   -6.82 KCAL/MOL
REMARK 922        TOTAL FREE ENERGY PREDICTED BY IDOCK:   -7.35 KCAL/MOL
REMARK 923 INTER-LIGAND FREE ENERGY PREDICTED BY IDOCK:   -6.98 KCAL/MOL
REMARK 924 INTRA-LIGAND FREE ENERGY PREDICTED BY IDOCK:   -0.37 KCAL/MOL
REMARK 927      BINDING AFFINITY PREDICTED BY RF-SCORE:    0.00 PKD
ROOT
HETATM    1  C   UNL     1     -13.781   9.278  72.433  1.00  0.00    -0.452 C  
HETATM    2  N   UNL     1     -12.686   9.483  71.509  1.00  0.00    -0.348 NA 
HETATM    3  C   UNL     1     -12.344  10.663  70.903  1.00  0.00    -0.401 A  
HETATM    4  C   UNL     1     -11.294  10.411  70.036  1.00  0.00    -0.384 A  
HETATM    5  C   UNL     1     -10.939   9.043  70.171  1.00  0.00    -0.256 A  
HETATM    6  C   UNL     1     -10.756  11.461  69.179  1.00  0.00    -0.189 C  
HETATM    7  C   UNL     1     -11.621  12.725  69.099  1.00  0.00    -0.373 C  
HETATM    8  C   UNL     1      -9.956   8.223  69.581  1.00  0.00    -0.193 A  
HETATM    9  O   UNL     1      -9.727  11.324  68.524  1.00  0.00    -0.187 OA 
HETATM   10  C   UNL     1     -12.112  13.098  70.517  1.00  0.00    -0.385 C  
HETATM   11  C   UNL     1     -11.786   7.113  71.420  1.00  0.00    -0.344 A  
HETATM   12  C   UNL     1      -9.898   6.866  69.913  1.00  0.00    -0.172 A  
HETATM   13  C   UNL     1     -13.004  11.988  71.104  1.00  0.00    -0.252 C  
HETATM   14  C   UNL     1     -10.805   6.320  70.817  1.00  0.00    -0.339 A  
HETATM   15  C   UNL     1     -11.836   8.477  71.085  1.00  0.00    -0.284 A  
ENDROOT
BRANCH   7  16
HETATM   16  C   UNL     1     -10.840  13.844  68.408  1.00  0.00    -0.254 C  
BRANCH  16  17
HETATM   17  N   UNL     1     -11.250  14.064  67.032  1.00  0.00    -0.304 NA 
HETATM   18  C   UNL     1     -12.371  13.537  66.448  1.00  0.00    -0.357 A  
HETATM   19  C   UNL     1     -12.402  14.072  65.184  1.00  0.00    -0.453 A  
HETATM   20  N   UNL     1     -11.319  14.880  64.976  1.00  0.00    -0.382 NA 
HETATM   21  C   UNL     1     -10.619  14.848  66.093  1.00  0.00    -0.318 A  
HETATM   22  C   UNL     1      -9.334  15.553  66.327  1.00  0.00    -0.355 C  
ENDBRANCH  16  17
ENDBRANCH   7  16
TORSDOF 2
ENDMDL
MODEL       20
REMARK 921   NORMALIZED FREE ENERGY PREDICTED BY IDOCK:   -6.82 KCAL/MOL
REMARK 922        TOTAL FREE ENERGY PREDICTED BY IDOCK:   -7.35 KCAL/MOL
REMARK 923 INTER-LIGAND FREE ENERGY PREDICTED BY IDOCK:   -7.18 KCAL/MOL
REMARK 924 INTRA-LIGAND FREE ENERGY PREDICTED BY IDOCK:   -0.17 KCAL/MOL
REMARK 927      BINDING AFFINITY PREDICTED BY RF-SCORE:    0.00 PKD
ROOT
HETATM    1  C   UNL     1     -13.208  11.737  72.060  1.00  0.00    -0.355 C  
HETATM    2  N   UNL     1     -12.298  11.285  71.029  1.00  0.00    -0.380 NA 
HETATM    3  C   UNL     1     -11.828  12.027  69.977  1.00  0.00    -0.314 A  
HETATM    4  C   UNL     1     -11.053  11.200  69.182  1.00  0.00    -0.306 A  
HETATM    5  C   UNL     1     -10.992   9.927  69.810  1.00  0.00    -0.304 A  
HETATM    6  C   UNL     1     -10.474  11.682  67.934  1.00  0.00    -0.192 C  
HETATM    7  C   UNL     1     -11.033  13.024  67.447  1.00  0.00    -0.284 C  
HETATM    8  C   UNL     1     -10.352   8.711  69.497  1.00  0.00    -0.214 A  
HETATM    9  O   UNL     1      -9.650  11.038  67.289  1.00  0.00    -0.164 OA 
HETATM   10  C   UNL     1     -11.140  13.997  68.644  1.00  0.00    -0.286 C  
HETATM   11  C   UNL     1     -11.985   8.886  71.792  1.00  0.00    -0.429 A  
HETATM   12  C   UNL     1     -10.534   7.602  70.329  1.00  0.00    -0.224 A  
HETATM   13  C   UNL     1     -12.123  13.465  69.704  1.00  0.00    -0.349 C  
HETATM   14  C   UNL     1     -11.344   7.690  71.457  1.00  0.00    -0.286 A  
HETATM   15  C   UNL     1     -11.795   9.998  70.955  1.00  0.00    -0.368 A  
ENDROOT
BRANCH   7  16
HETATM   16  C   UNL     1     -10.174  13.558  66.301  1.00  0.00    -0.299 C  
BRANCH  16  17
HETATM   17  N   UNL     1     -10.897  14.449  65.409  1.00  0.00    -0.324 NA 
HETATM   18  C   UNL     1     -10.597  15.769  65.198  1.00  0.00    -0.411 A  
HETATM   19  C   UNL     1     -11.477  16.185  64.229  1.00  0.00    -0.094 A  
HETATM   20  N   UNL     1     -12.317  15.167  63.870  1.00  0.00    -0.664 NA 
HETATM   21  C   UNL     1     -11.970  14.131  64.608  1.00  0.00    -0.445 A  
HETATM   22  C   UNL     1     -12.628  12.800  64.588  1.00  0.00    -0.491 C  
ENDBRANCH  16  17
ENDBRANCH   7  16
TORSDOF 2
ENDMDL
MODEL       21
REMARK 921   NORMALIZED FREE ENERGY PREDICTED BY IDOCK:   -6.80 KCAL/MOL
REMARK 922        TOTAL FREE ENERGY PREDICTED BY IDOCK:   -7.33 KCAL/MOL
REMARK 923 INTER-LIGAND FREE ENERGY PREDICTED BY IDOCK:   -6.93 KCAL/MOL
REMARK 924 INTRA-LIGAND FREE ENERGY PREDICTED BY IDOCK:   -0.40 KCAL/MOL
REMARK 927      BINDING AFFINITY PREDICTED BY RF-SCORE:    0.00 PKD
ROOT
HETATM    1  C   UNL     1      -9.606  10.116  64.310  1.00  0.00    -0.290 C  
HETATM    2  N   UNL     1     -10.282  10.810  65.385  1.00  0.00    -0.277 NA 
HETATM    3  C   UNL     1     -10.312  10.435  66.703  1.00  0.00    -0.231 A  
HETATM    4  C   UNL     1     -11.133  11.319  67.381  1.00  0.00    -0.358 A  
HETATM    5  C   UNL     1     -11.562  12.309  66.458  1.00  0.00    -0.440 A  
HETATM    6  C   UNL     1     -11.431  11.135  68.797  1.00  0.00    -0.299 C  
HETATM    7  C   UNL     1     -11.031   9.767  69.361  1.00  0.00    -0.241 C  
HETATM    8  C   UNL     1     -12.374  13.457  66.559  1.00  0.00    -0.354 A  
HETATM    9  O   UNL     1     -12.013  11.981  69.471  1.00  0.00    -0.303 OA 
HETATM   10  C   UNL     1      -9.623   9.392  68.841  1.00  0.00    -0.155 C  
HETATM   11  C   UNL     1     -11.298  12.717  64.057  1.00  0.00    -0.466 A  
HETATM   12  C   UNL     1     -12.640  14.217  65.416  1.00  0.00    -0.485 A  
HETATM   13  C   UNL     1      -9.618   9.258  67.306  1.00  0.00    -0.200 C  
HETATM   14  C   UNL     1     -12.112  13.847  64.182  1.00  0.00    -0.464 A  
HETATM   15  C   UNL     1     -11.032  11.959  65.210  1.00  0.00    -0.302 A  
ENDROOT
BRANCH   7  16
HETATM   16  C   UNL     1     -11.133   9.785  70.886  1.00  0.00    -0.357 C  
BRANCH  16  17
HETATM   17  N   UNL     1     -11.365   8.471  71.461  1.00  0.00    -0.265 NA 
HETATM   18  C   UNL     1     -12.485   7.708  71.259  1.00  0.00    -0.298 A  
HETATM   19  C   UNL     1     -12.237   6.527  71.917  1.00  0.00    -0.324 A  
HETATM   20  N   UNL     1     -11.018   6.566  72.534  1.00  0.00    -0.238 NA 
HETATM   21  C   UNL     1     -10.513   7.755  72.269  1.00  0.00    -0.246 A  
HETATM   22  C   UNL     1      -9.208   8.266  72.760  1.00  0.00    -0.336 C  
ENDBRANCH  16  17
ENDBRANCH   7  16
TORSDOF 2
ENDMDL
MODEL       22
REMARK 921   NORMALIZED FREE ENERGY PREDICTED BY IDOCK:   -6.79 KCAL/MOL
REMARK 922        TOTAL FREE ENERGY PREDICTED BY IDOCK:   -7.32 KCAL/MOL
REMARK 923 INTER-LIGAND FREE ENERGY PREDICTED BY IDOCK:   -6.88 KCAL/MOL
REMARK 924 INTRA-LIGAND FREE ENERGY PREDICTED BY IDOCK:   -0.45 KCAL/MOL
REMARK 927      BINDING AFFINITY PREDICTED BY RF-SCORE:    0.00 PKD
ROOT
HETATM    1  C   UNL     1      -5.333  16.888  69.782  1.00  0.00    -0.174 C  
HETATM    2  N   UNL     1      -6.543  17.398  69.172  1.00  0.00    -0.238 NA 
HETATM    3  C   UNL     1      -7.737  16.736  69.056  1.00  0.00    -0.213 A  
HETATM    4  C   UNL     1      -8.606  17.541  68.340  1.00  0.00    -0.275 A  
HETATM    5  C   UNL     1      -7.940  18.766  68.071  1.00  0.00    -0.306 A  
HETATM    6  C   UNL     1      -9.941  17.076  67.980  1.00  0.00    -0.283 C  
HETATM    7  C   UNL     1     -10.168  15.573  68.182  1.00  0.00    -0.227 C  
HETATM    8  C   UNL     1      -8.309  19.958  67.414  1.00  0.00    -0.366 A  
HETATM    9  O   UNL     1     -10.795  17.813  67.497  1.00  0.00    -0.344 OA 
HETATM   10  C   UNL     1      -9.570  15.143  69.541  1.00  0.00    -0.158 C  
HETATM   11  C   UNL     1      -5.700  19.680  68.453  1.00  0.00    -0.235 A  
HETATM   12  C   UNL     1      -7.376  20.991  67.283  1.00  0.00    -0.320 A  
HETATM   13  C   UNL     1      -8.047  15.369  69.572  1.00  0.00    -0.207 C  
HETATM   14  C   UNL     1      -6.089  20.849  67.792  1.00  0.00    -0.373 A  
HETATM   15  C   UNL     1      -6.644  18.647  68.585  1.00  0.00    -0.257 A  
ENDROOT
BRANCH   7  16
HETATM   16  C   UNL     1     -11.656  15.251  68.039  1.00  0.00    -0.312 C  
BRANCH  16  17
HETATM   17  N   UNL     1     -11.929  14.228  67.044  1.00  0.00    -0.431 NA 
HETATM   18  C   UNL     1     -12.243  14.467  65.732  1.00  0.00    -0.343 A  
HETATM   19  C   UNL     1     -12.333  13.224  65.154  1.00  0.00    -0.466 A  
HETATM   20  N   UNL     1     -12.114  12.244  66.082  1.00  0.00    -0.627 NA 
HETATM   21  C   UNL     1     -11.895  12.864  67.224  1.00  0.00    -0.356 A  
HETATM   22  C   UNL     1     -11.639  12.204  68.529  1.00  0.00    -0.366 C  
ENDBRANCH  16  17
ENDBRANCH   7  16
TORSDOF 2
ENDMDL
MODEL       23
REMARK 921   NORMALIZED FREE ENERGY PREDICTED BY IDOCK:   -6.78 KCAL/MOL
REMARK 922        TOTAL FREE ENERGY PREDICTED BY IDOCK:   -7.30 KCAL/MOL
REMARK 923 INTER-LIGAND FREE ENERGY PREDICTED BY IDOCK:   -6.92 KCAL/MOL
REMARK 924 INTRA-LIGAND FREE ENERGY PREDICTED BY IDOCK:   -0.38 KCAL/MOL
REMARK 927      BINDING AFFINITY PREDICTED BY RF-SCORE:    0.00 PKD
ROOT
HETATM    1  C   UNL     1      -9.491   8.826  68.521  1.00  0.00    -0.145 C  
HETATM    2  N   UNL     1     -10.402   9.837  69.014  1.00  0.00    -0.199 NA 
HETATM    3  C   UNL     1     -10.527  11.118  68.543  1.00  0.00    -0.191 A  
HETATM    4  C   UNL     1     -11.446  11.779  69.340  1.00  0.00    -0.371 A  
HETATM    5  C   UNL     1     -11.949  10.848  70.286  1.00  0.00    -0.448 A  
HETATM    6  C   UNL     1     -11.738  13.194  69.138  1.00  0.00    -0.325 C  
HETATM    7  C   UNL     1     -10.752  13.923  68.216  1.00  0.00    -0.261 C  
HETATM    8  C   UNL     1     -12.902  10.923  71.323  1.00  0.00    -0.536 A  
HETATM    9  O   UNL     1     -12.659  13.772  69.707  1.00  0.00    -0.233 OA 
HETATM   10  C   UNL     1     -10.457  13.039  66.982  1.00  0.00    -0.249 C  
HETATM   11  C   UNL     1     -11.501   8.514  70.877  1.00  0.00    -0.302 A  
HETATM   12  C   UNL     1     -13.143   9.800  72.121  1.00  0.00    -0.513 A  
HETATM   13  C   UNL     1      -9.782  11.718  67.396  1.00  0.00    -0.186 C  
HETATM   14  C   UNL     1     -12.447   8.615  71.902  1.00  0.00    -0.412 A  
HETATM   15  C   UNL     1     -11.267   9.644  70.076  1.00  0.00    -0.231 A  
ENDROOT
BRANCH   7  16
HETATM   16  C   UNL     1     -11.302  15.305  67.860  1.00  0.00    -0.334 C  
BRANCH  16  17
HETATM   17  N   UNL     1     -10.303  16.189  67.284  1.00  0.00    -0.282 NA 
HETATM   18  C   UNL     1      -9.313  16.825  67.986  1.00  0.00    -0.229 A  
HETATM   19  C   UNL     1      -8.564  17.476  67.036  1.00  0.00    -0.235 A  
HETATM   20  N   UNL     1      -9.088  17.278  65.789  1.00  0.00    -0.510 NA 
HETATM   21  C   UNL     1     -10.152  16.518  65.957  1.00  0.00    -0.348 A  
HETATM   22  C   UNL     1     -11.067  16.065  64.879  1.00  0.00    -0.381 C  
ENDBRANCH  16  17
ENDBRANCH   7  16
TORSDOF 2
ENDMDL
MODEL       24
REMARK 921   NORMALIZED FREE ENERGY PREDICTED BY IDOCK:   -6.77 KCAL/MOL
REMARK 922        TOTAL FREE ENERGY PREDICTED BY IDOCK:   -7.30 KCAL/MOL
REMARK 923 INTER-LIGAND FREE ENERGY PREDICTED BY IDOCK:   -6.90 KCAL/MOL
REMARK 924 INTRA-LIGAND FREE ENERGY PREDICTED BY IDOCK:   -0.40 KCAL/MOL
REMARK 927      BINDING AFFINITY PREDICTED BY RF-SCORE:    0.00 PKD
ROOT
HETATM    1  C   UNL     1      -8.157   8.949  70.842  1.00  0.00    -0.166 C  
HETATM    2  N   UNL     1      -9.311   9.550  70.208  1.00  0.00    -0.246 NA 
HETATM    3  C   UNL     1      -9.324  10.226  69.016  1.00  0.00    -0.189 A  
HETATM    4  C   UNL     1     -10.606  10.709  68.812  1.00  0.00    -0.234 A  
HETATM    5  C   UNL     1     -11.418  10.251  69.883  1.00  0.00    -0.340 A  
HETATM    6  C   UNL     1     -10.921  11.546  67.660  1.00  0.00    -0.242 C  
HETATM    7  C   UNL     1      -9.697  12.077  66.904  1.00  0.00    -0.213 C  
HETATM    8  C   UNL     1     -12.782  10.394  70.209  1.00  0.00    -0.221 A  
HETATM    9  O   UNL     1     -12.069  11.853  67.354  1.00  0.00    -0.577 OA 
HETATM   10  C   UNL     1      -8.664  10.938  66.738  1.00  0.00    -0.147 C  
HETATM   11  C   UNL     1     -11.066   8.982  71.948  1.00  0.00    -0.433 A  
HETATM   12  C   UNL     1     -13.271   9.834  71.394  1.00  0.00    -0.482 A  
HETATM   13  C   UNL     1      -8.160  10.445  68.108  1.00  0.00    -0.111 C  
HETATM   14  C   UNL     1     -12.422   9.143  72.252  1.00  0.00    -0.403 A  
HETATM   15  C   UNL     1     -10.582   9.543  70.755  1.00  0.00    -0.317 A  
ENDROOT
BRANCH   7  16
HETATM   16  C   UNL     1     -10.138  12.700  65.579  1.00  0.00    -0.265 C  
BRANCH  16  17
HETATM   17  N   UNL     1     -10.231  14.149  65.629  1.00  0.00    -0.324 NA 
HETATM   18  C   UNL     1      -9.400  14.969  66.346  1.00  0.00    -0.303 A  
HETATM   19  C   UNL     1      -9.800  16.245  66.034  1.00  0.00    -0.343 A  
HETATM   20  N   UNL     1     -10.865  16.220  65.176  1.00  0.00    -0.534 NA 
HETATM   21  C   UNL     1     -11.129  14.947  64.959  1.00  0.00    -0.414 A  
HETATM   22  C   UNL     1     -12.231  14.428  64.110  1.00  0.00    -0.393 C  
ENDBRANCH  16  17
ENDBRANCH   7  16
TORSDOF 2
ENDMDL
MODEL       25
REMARK 921   NORMALIZED FREE ENERGY PREDICTED BY IDOCK:   -6.76 KCAL/MOL
REMARK 922        TOTAL FREE ENERGY PREDICTED BY IDOCK:   -7.29 KCAL/MOL
REMARK 923 INTER-LIGAND FREE ENERGY PREDICTED BY IDOCK:   -6.85 KCAL/MOL
REMARK 924 INTRA-LIGAND FREE ENERGY PREDICTED BY IDOCK:   -0.44 KCAL/MOL
REMARK 927      BINDING AFFINITY PREDICTED BY RF-SCORE:    0.00 PKD
ROOT
HETATM    1  C   UNL     1      -6.913  17.202  69.328  1.00  0.00    -0.186 C  
HETATM    2  N   UNL     1      -8.046  17.042  68.442  1.00  0.00    -0.235 NA 
HETATM    3  C   UNL     1      -8.631  15.858  68.075  1.00  0.00    -0.164 A  
HETATM    4  C   UNL     1      -9.626  16.138  67.154  1.00  0.00    -0.235 A  
HETATM    5  C   UNL     1      -9.696  17.549  67.008  1.00  0.00    -0.284 A  
HETATM    6  C   UNL     1     -10.381  15.068  66.513  1.00  0.00    -0.284 C  
HETATM    7  C   UNL     1      -9.790  13.667  66.703  1.00  0.00    -0.284 C  
HETATM    8  C   UNL     1     -10.507  18.415  66.247  1.00  0.00    -0.421 A  
HETATM    9  O   UNL     1     -11.376  15.276  65.824  1.00  0.00    -0.293 OA 
HETATM   10  C   UNL     1      -9.354  13.492  68.177  1.00  0.00    -0.213 C  
HETATM   11  C   UNL     1      -8.453  19.478  67.864  1.00  0.00    -0.353 A  
HETATM   12  C   UNL     1     -10.284  19.795  66.301  1.00  0.00    -0.615 A  
HETATM   13  C   UNL     1      -8.246  14.495  68.549  1.00  0.00    -0.154 C  
HETATM   14  C   UNL     1      -9.268  20.316  67.096  1.00  0.00    -0.519 A  
HETATM   15  C   UNL     1      -8.685  18.093  67.809  1.00  0.00    -0.255 A  
ENDROOT
BRANCH   7  16
HETATM   16  C   UNL     1     -10.793  12.613  66.234  1.00  0.00    -0.273 C  
BRANCH  16  17
HETATM   17  N   UNL     1     -10.343  11.871  65.068  1.00  0.00    -0.277 NA 
HETATM   18  C   UNL     1      -9.321  10.960  65.059  1.00  0.00    -0.226 A  
HETATM   19  C   UNL     1      -9.304  10.454  63.782  1.00  0.00    -0.288 A  
HETATM   20  N   UNL     1     -10.263  11.053  63.014  1.00  0.00    -0.257 NA 
HETATM   21  C   UNL     1     -10.867  11.924  63.797  1.00  0.00    -0.418 A  
HETATM   22  C   UNL     1     -11.964  12.837  63.387  1.00  0.00    -0.613 C  
ENDBRANCH  16  17
ENDBRANCH   7  16
TORSDOF 2
ENDMDL
MODEL       26
REMARK 921   NORMALIZED FREE ENERGY PREDICTED BY IDOCK:   -6.76 KCAL/MOL
REMARK 922        TOTAL FREE ENERGY PREDICTED BY IDOCK:   -7.28 KCAL/MOL
REMARK 923 INTER-LIGAND FREE ENERGY PREDICTED BY IDOCK:   -6.83 KCAL/MOL
REMARK 924 INTRA-LIGAND FREE ENERGY PREDICTED BY IDOCK:   -0.45 KCAL/MOL
REMARK 927      BINDING AFFINITY PREDICTED BY RF-SCORE:    0.00 PKD
ROOT
HETATM    1  C   UNL     1     -13.153   9.327  72.316  1.00  0.00    -0.441 C  
HETATM    2  N   UNL     1     -12.181   9.163  71.255  1.00  0.00    -0.317 NA 
HETATM    3  C   UNL     1     -11.820  10.108  70.330  1.00  0.00    -0.288 A  
HETATM    4  C   UNL     1     -10.929   9.523  69.446  1.00  0.00    -0.192 A  
HETATM    5  C   UNL     1     -10.686   8.197  69.890  1.00  0.00    -0.241 A  
HETATM    6  C   UNL     1     -10.421  10.257  68.293  1.00  0.00    -0.199 C  
HETATM    7  C   UNL     1     -11.169  11.560  67.987  1.00  0.00    -0.335 C  
HETATM    8  C   UNL     1      -9.873   7.142  69.426  1.00  0.00    -0.161 A  
HETATM    9  O   UNL     1      -9.510   9.838  67.586  1.00  0.00    -0.142 OA 
HETATM   10  C   UNL     1     -11.423  12.327  69.306  1.00  0.00    -0.352 C  
HETATM   11  C   UNL     1     -11.524   6.751  71.681  1.00  0.00    -0.322 A  
HETATM   12  C   UNL     1      -9.894   5.911  70.089  1.00  0.00    -0.226 A  
HETATM   13  C   UNL     1     -12.322  11.512  70.255  1.00  0.00    -0.355 C  
HETATM   14  C   UNL     1     -10.713   5.719  71.197  1.00  0.00    -0.327 A  
HETATM   15  C   UNL     1     -11.495   7.986  71.013  1.00  0.00    -0.279 A  
ENDROOT
BRANCH   7  16
HETATM   16  C   UNL     1     -10.393  12.371  66.949  1.00  0.00    -0.224 C  
BRANCH  16  17
HETATM   17  N   UNL     1     -10.962  12.291  65.614  1.00  0.00    -0.289 NA 
HETATM   18  C   UNL     1     -10.539  11.442  64.626  1.00  0.00    -0.318 A  
HETATM   19  C   UNL     1     -11.407  11.649  63.581  1.00  0.00    -0.394 A  
HETATM   20  N   UNL     1     -12.320  12.617  63.897  1.00  0.00    -0.591 NA 
HETATM   21  C   UNL     1     -12.024  13.012  65.120  1.00  0.00    -0.402 A  
HETATM   22  C   UNL     1     -12.729  14.077  65.875  1.00  0.00    -0.436 C  
ENDBRANCH  16  17
ENDBRANCH   7  16
TORSDOF 2
ENDMDL
MODEL       27
REMARK 921   NORMALIZED FREE ENERGY PREDICTED BY IDOCK:   -6.73 KCAL/MOL
REMARK 922        TOTAL FREE ENERGY PREDICTED BY IDOCK:   -7.25 KCAL/MOL
REMARK 923 INTER-LIGAND FREE ENERGY PREDICTED BY IDOCK:   -6.96 KCAL/MOL
REMARK 924 INTRA-LIGAND FREE ENERGY PREDICTED BY IDOCK:   -0.29 KCAL/MOL
REMARK 927      BINDING AFFINITY PREDICTED BY RF-SCORE:    0.00 PKD
ROOT
HETATM    1  C   UNL     1     -11.451  15.034  68.068  1.00  0.00    -0.342 C  
HETATM    2  N   UNL     1     -11.700  14.000  69.050  1.00  0.00    -0.307 NA 
HETATM    3  C   UNL     1     -11.168  12.737  69.054  1.00  0.00    -0.264 A  
HETATM    4  C   UNL     1     -11.725  12.041  70.113  1.00  0.00    -0.316 A  
HETATM    5  C   UNL     1     -12.573  12.933  70.820  1.00  0.00    -0.314 A  
HETATM    6  C   UNL     1     -11.416  10.633  70.335  1.00  0.00    -0.334 C  
HETATM    7  C   UNL     1     -10.703   9.944  69.165  1.00  0.00    -0.247 C  
HETATM    8  C   UNL     1     -13.377  12.815  71.973  1.00  0.00    -0.565 A  
HETATM    9  O   UNL     1     -11.753  10.029  71.349  1.00  0.00    -0.367 OA 
HETATM   10  C   UNL     1      -9.593  10.875  68.623  1.00  0.00    -0.192 C  
HETATM   11  C   UNL     1     -13.328  15.247  70.543  1.00  0.00    -0.208 A  
HETATM   12  C   UNL     1     -14.143  13.905  72.395  1.00  0.00    -0.586 A  
HETATM   13  C   UNL     1     -10.189  12.184  68.071  1.00  0.00    -0.203 C  
HETATM   14  C   UNL     1     -14.121  15.102  71.685  1.00  0.00    -0.645 A  
HETATM   15  C   UNL     1     -12.557  14.149  70.126  1.00  0.00    -0.268 A  
ENDROOT
BRANCH   7  16
HETATM   16  C   UNL     1     -10.189   8.574  69.606  1.00  0.00    -0.209 C  
BRANCH  16  17
HETATM   17  N   UNL     1     -10.500   7.513  68.662  1.00  0.00    -0.199 NA 
HETATM   18  C   UNL     1     -10.644   7.679  67.309  1.00  0.00    -0.318 A  
HETATM   19  C   UNL     1     -10.847   6.413  66.814  1.00  0.00    -0.291 A  
HETATM   20  N   UNL     1     -10.859   5.495  67.828  1.00  0.00    -0.109 NA 
HETATM   21  C   UNL     1     -10.672   6.177  68.940  1.00  0.00    -0.312 A  
HETATM   22  C   UNL     1     -10.642   5.603  70.309  1.00  0.00    -0.370 C  
ENDBRANCH  16  17
ENDBRANCH   7  16
TORSDOF 2
ENDMDL
MODEL       28
REMARK 921   NORMALIZED FREE ENERGY PREDICTED BY IDOCK:   -6.72 KCAL/MOL
REMARK 922        TOTAL FREE ENERGY PREDICTED BY IDOCK:   -7.24 KCAL/MOL
REMARK 923 INTER-LIGAND FREE ENERGY PREDICTED BY IDOCK:   -6.80 KCAL/MOL
REMARK 924 INTRA-LIGAND FREE ENERGY PREDICTED BY IDOCK:   -0.44 KCAL/MOL
REMARK 927      BINDING AFFINITY PREDICTED BY RF-SCORE:    0.00 PKD
ROOT
HETATM    1  C   UNL     1      -9.997   8.312  66.823  1.00  0.00    -0.285 C  
HETATM    2  N   UNL     1     -10.512   9.140  67.893  1.00  0.00    -0.238 NA 
HETATM    3  C   UNL     1     -10.942  10.436  67.782  1.00  0.00    -0.309 A  
HETATM    4  C   UNL     1     -11.274  10.887  69.049  1.00  0.00    -0.327 A  
HETATM    5  C   UNL     1     -11.105   9.804  69.952  1.00  0.00    -0.293 A  
HETATM    6  C   UNL     1     -11.693  12.265  69.272  1.00  0.00    -0.330 C  
HETATM    7  C   UNL     1     -11.443  13.208  68.089  1.00  0.00    -0.349 C  
HETATM    8  C   UNL     1     -11.301   9.646  71.339  1.00  0.00    -0.444 A  
HETATM    9  O   UNL     1     -12.153  12.657  70.341  1.00  0.00    -0.364 OA 
HETATM   10  C   UNL     1     -11.862  12.504  66.777  1.00  0.00    -0.416 C  
HETATM   11  C   UNL     1     -10.293   7.497  69.813  1.00  0.00    -0.221 A  
HETATM   12  C   UNL     1     -10.993   8.424  71.945  1.00  0.00    -0.375 A  
HETATM   13  C   UNL     1     -11.010  11.244  66.529  1.00  0.00    -0.303 C  
HETATM   14  C   UNL     1     -10.491   7.368  71.191  1.00  0.00    -0.220 A  
HETATM   15  C   UNL     1     -10.609   8.726  69.209  1.00  0.00    -0.197 A  
ENDROOT
BRANCH   7  16
HETATM   16  C   UNL     1     -12.161  14.537  68.325  1.00  0.00    -0.199 C  
BRANCH  16  17
HETATM   17  N   UNL     1     -11.255  15.670  68.413  1.00  0.00    -0.334 NA 
HETATM   18  C   UNL     1     -10.545  16.196  67.366  1.00  0.00    -0.311 A  
HETATM   19  C   UNL     1      -9.898  17.290  67.886  1.00  0.00    -0.283 A  
HETATM   20  N   UNL     1     -10.172  17.424  69.219  1.00  0.00    -0.266 NA 
HETATM   21  C   UNL     1     -10.974  16.424  69.529  1.00  0.00    -0.317 A  
HETATM   22  C   UNL     1     -11.514  16.139  70.882  1.00  0.00    -0.421 C  
ENDBRANCH  16  17
ENDBRANCH   7  16
TORSDOF 2
ENDMDL
MODEL       29
REMARK 921   NORMALIZED FREE ENERGY PREDICTED BY IDOCK:   -6.70 KCAL/MOL
REMARK 922        TOTAL FREE ENERGY PREDICTED BY IDOCK:   -7.22 KCAL/MOL
REMARK 923 INTER-LIGAND FREE ENERGY PREDICTED BY IDOCK:   -6.80 KCAL/MOL
REMARK 924 INTRA-LIGAND FREE ENERGY PREDICTED BY IDOCK:   -0.43 KCAL/MOL
REMARK 927      BINDING AFFINITY PREDICTED BY RF-SCORE:    0.00 PKD
ROOT
HETATM    1  C   UNL     1      -7.147  17.053  69.186  1.00  0.00    -0.221 C  
HETATM    2  N   UNL     1      -8.232  16.976  68.231  1.00  0.00    -0.218 NA 
HETATM    3  C   UNL     1      -8.821  15.832  67.760  1.00  0.00    -0.171 A  
HETATM    4  C   UNL     1      -9.756  16.193  66.805  1.00  0.00    -0.255 A  
HETATM    5  C   UNL     1      -9.787  17.611  66.743  1.00  0.00    -0.304 A  
HETATM    6  C   UNL     1     -10.498  15.184  66.058  1.00  0.00    -0.319 C  
HETATM    7  C   UNL     1      -9.950  13.759  66.193  1.00  0.00    -0.318 C  
HETATM    8  C   UNL     1     -10.534  18.543  65.994  1.00  0.00    -0.433 A  
HETATM    9  O   UNL     1     -11.448  15.459  65.330  1.00  0.00    -0.271 OA 
HETATM   10  C   UNL     1      -9.602  13.483  67.674  1.00  0.00    -0.222 C  
HETATM   11  C   UNL     1      -8.552  19.452  67.785  1.00  0.00    -0.349 A  
HETATM   12  C   UNL     1     -10.284  19.910  66.147  1.00  0.00    -0.611 A  
HETATM   13  C   UNL     1      -8.494  14.433  68.168  1.00  0.00    -0.160 C  
HETATM   14  C   UNL     1      -9.303  20.356  67.027  1.00  0.00    -0.511 A  
HETATM   15  C   UNL     1      -8.811  18.080  67.630  1.00  0.00    -0.254 A  
ENDROOT
BRANCH   7  16
HETATM   16  C   UNL     1     -10.949  12.762  65.604  1.00  0.00    -0.273 C  
BRANCH  16  17
HETATM   17  N   UNL     1     -10.327  11.760  64.755  1.00  0.00    -0.274 NA 
HETATM   18  C   UNL     1     -10.041  11.922  63.424  1.00  0.00    -0.438 A  
HETATM   19  C   UNL     1      -9.391  10.769  63.056  1.00  0.00    -0.330 A  
HETATM   20  N   UNL     1      -9.304   9.906  64.113  1.00  0.00    -0.269 NA 
HETATM   21  C   UNL     1      -9.894  10.509  65.126  1.00  0.00    -0.297 A  
HETATM   22  C   UNL     1     -10.071   9.937  66.484  1.00  0.00    -0.298 C  
ENDBRANCH  16  17
ENDBRANCH   7  16
TORSDOF 2
ENDMDL
MODEL       30
REMARK 921   NORMALIZED FREE ENERGY PREDICTED BY IDOCK:   -6.68 KCAL/MOL
REMARK 922        TOTAL FREE ENERGY PREDICTED BY IDOCK:   -7.19 KCAL/MOL
REMARK 923 INTER-LIGAND FREE ENERGY PREDICTED BY IDOCK:   -6.89 KCAL/MOL
REMARK 924 INTRA-LIGAND FREE ENERGY PREDICTED BY IDOCK:   -0.31 KCAL/MOL
REMARK 927      BINDING AFFINITY PREDICTED BY RF-SCORE:    0.00 PKD
ROOT
HETATM    1  C   UNL     1     -13.328   9.033  72.341  1.00  0.00    -0.460 C  
HETATM    2  N   UNL     1     -12.041   9.219  71.705  1.00  0.00    -0.369 NA 
HETATM    3  C   UNL     1     -11.782   9.996  70.607  1.00  0.00    -0.337 A  
HETATM    4  C   UNL     1     -10.449   9.834  70.272  1.00  0.00    -0.345 A  
HETATM    5  C   UNL     1      -9.859   8.982  71.242  1.00  0.00    -0.376 A  
HETATM    6  C   UNL     1      -9.886  10.474  69.089  1.00  0.00    -0.218 C  
HETATM    7  C   UNL     1     -10.925  11.057  68.123  1.00  0.00    -0.301 C  
HETATM    8  C   UNL     1      -8.556   8.481  71.444  1.00  0.00    -0.224 A  
HETATM    9  O   UNL     1      -8.682  10.493  68.851  1.00  0.00    -0.138 OA 
HETATM   10  C   UNL     1     -12.010  11.806  68.931  1.00  0.00    -0.332 C  
HETATM   11  C   UNL     1     -10.639   7.712  73.186  1.00  0.00    -0.438 A  
HETATM   12  C   UNL     1      -8.310   7.605  72.506  1.00  0.00    -0.153 A  
HETATM   13  C   UNL     1     -12.766  10.843  69.868  1.00  0.00    -0.110 C  
HETATM   14  C   UNL     1      -9.340   7.224  73.361  1.00  0.00    -0.241 A  
HETATM   15  C   UNL     1     -10.879   8.594  72.120  1.00  0.00    -0.354 A  
ENDROOT
BRANCH   7  16
HETATM   16  C   UNL     1     -10.229  11.931  67.079  1.00  0.00    -0.210 C  
BRANCH  16  17
HETATM   17  N   UNL     1     -10.889  11.913  65.785  1.00  0.00    -0.286 NA 
HETATM   18  C   UNL     1     -11.979  12.670  65.445  1.00  0.00    -0.446 A  
HETATM   19  C   UNL     1     -12.205  12.395  64.118  1.00  0.00    -0.468 A  
HETATM   20  N   UNL     1     -11.305  11.475  63.656  1.00  0.00    -0.391 NA 
HETATM   21  C   UNL     1     -10.531  11.176  64.680  1.00  0.00    -0.335 A  
HETATM   22  C   UNL     1      -9.421  10.190  64.663  1.00  0.00    -0.357 C  
ENDBRANCH  16  17
ENDBRANCH   7  16
TORSDOF 2
ENDMDL
MODEL       31
REMARK 921   NORMALIZED FREE ENERGY PREDICTED BY IDOCK:   -6.68 KCAL/MOL
REMARK 922        TOTAL FREE ENERGY PREDICTED BY IDOCK:   -7.19 KCAL/MOL
REMARK 923 INTER-LIGAND FREE ENERGY PREDICTED BY IDOCK:   -6.79 KCAL/MOL
REMARK 924 INTRA-LIGAND FREE ENERGY PREDICTED BY IDOCK:   -0.40 KCAL/MOL
REMARK 927      BINDING AFFINITY PREDICTED BY RF-SCORE:    0.00 PKD
ROOT
HETATM    1  C   UNL     1     -13.578   9.027  72.567  1.00  0.00    -0.435 C  
HETATM    2  N   UNL     1     -12.520   8.950  71.582  1.00  0.00    -0.326 NA 
HETATM    3  C   UNL     1     -12.157   9.934  70.700  1.00  0.00    -0.257 A  
HETATM    4  C   UNL     1     -11.163   9.429  69.879  1.00  0.00    -0.180 A  
HETATM    5  C   UNL     1     -10.861   8.114  70.323  1.00  0.00    -0.244 A  
HETATM    6  C   UNL     1     -10.622  10.217  68.778  1.00  0.00    -0.209 C  
HETATM    7  C   UNL     1     -11.434  11.471  68.432  1.00  0.00    -0.364 C  
HETATM    8  C   UNL     1      -9.944   7.127  69.909  1.00  0.00    -0.184 A  
HETATM    9  O   UNL     1      -9.632   9.875  68.138  1.00  0.00    -0.138 OA 
HETATM   10  C   UNL     1     -11.840  12.194  69.738  1.00  0.00    -0.397 C  
HETATM   11  C   UNL     1     -11.729   6.581  72.025  1.00  0.00    -0.367 A  
HETATM   12  C   UNL     1      -9.929   5.885  70.552  1.00  0.00    -0.243 A  
HETATM   13  C   UNL     1     -12.749  11.302  70.604  1.00  0.00    -0.314 C  
HETATM   14  C   UNL     1     -10.814   5.617  71.592  1.00  0.00    -0.301 A  
HETATM   15  C   UNL     1     -11.737   7.828  71.378  1.00  0.00    -0.282 A  
ENDROOT
BRANCH   7  16
HETATM   16  C   UNL     1     -10.640  12.352  67.467  1.00  0.00    -0.219 C  
BRANCH  16  17
HETATM   17  N   UNL     1     -11.428  12.826  66.342  1.00  0.00    -0.337 NA 
HETATM   18  C   UNL     1     -12.281  13.898  66.372  1.00  0.00    -0.449 A  
HETATM   19  C   UNL     1     -12.737  14.027  65.083  1.00  0.00    -0.389 A  
HETATM   20  N   UNL     1     -12.210  13.050  64.284  1.00  0.00    -0.466 NA 
HETATM   21  C   UNL     1     -11.440  12.318  65.064  1.00  0.00    -0.336 A  
HETATM   22  C   UNL     1     -10.679  11.115  64.640  1.00  0.00    -0.350 C  
ENDBRANCH  16  17
ENDBRANCH   7  16
TORSDOF 2
ENDMDL
MODEL       32
REMARK 921   NORMALIZED FREE ENERGY PREDICTED BY IDOCK:   -6.64 KCAL/MOL
REMARK 922        TOTAL FREE ENERGY PREDICTED BY IDOCK:   -7.15 KCAL/MOL
REMARK 923 INTER-LIGAND FREE ENERGY PREDICTED BY IDOCK:   -7.00 KCAL/MOL
REMARK 924 INTRA-LIGAND FREE ENERGY PREDICTED BY IDOCK:   -0.15 KCAL/MOL
REMARK 927      BINDING AFFINITY PREDICTED BY RF-SCORE:    0.00 PKD
ROOT
HETATM    1  C   UNL     1      -8.840  11.987  67.054  1.00  0.00    -0.197 C  
HETATM    2  N   UNL     1      -9.499  13.069  66.353  1.00  0.00    -0.249 NA 
HETATM    3  C   UNL     1      -9.275  14.409  66.533  1.00  0.00    -0.244 A  
HETATM    4  C   UNL     1     -10.166  15.103  65.732  1.00  0.00    -0.365 A  
HETATM    5  C   UNL     1     -10.911  14.151  64.986  1.00  0.00    -0.408 A  
HETATM    6  C   UNL     1     -10.230  16.560  65.763  1.00  0.00    -0.329 C  
HETATM    7  C   UNL     1      -9.481  17.206  66.934  1.00  0.00    -0.267 C  
HETATM    8  C   UNL     1     -11.925  14.247  64.012  1.00  0.00    -0.328 A  
HETATM    9  O   UNL     1     -10.882  17.215  64.955  1.00  0.00    -0.751 OA 
HETATM   10  C   UNL     1      -8.107  16.516  67.105  1.00  0.00    -0.213 C  
HETATM   11  C   UNL     1     -11.058  11.708  64.887  1.00  0.00    -0.317 A  
HETATM   12  C   UNL     1     -12.493  13.081  63.489  1.00  0.00    -0.388 A  
HETATM   13  C   UNL     1      -8.277  15.026  67.456  1.00  0.00    -0.199 C  
HETATM   14  C   UNL     1     -12.067  11.830  63.926  1.00  0.00    -0.414 A  
HETATM   15  C   UNL     1     -10.489  12.884  65.405  1.00  0.00    -0.292 A  
ENDROOT
BRANCH   7  16
HETATM   16  C   UNL     1      -9.383  18.716  66.715  1.00  0.00    -0.308 C  
BRANCH  16  17
HETATM   17  N   UNL     1      -8.245  19.321  67.387  1.00  0.00    -0.278 NA 
HETATM   18  C   UNL     1      -8.067  19.375  68.744  1.00  0.00    -0.353 A  
HETATM   19  C   UNL     1      -6.833  19.951  68.921  1.00  0.00    -0.324 A  
HETATM   20  N   UNL     1      -6.274  20.273  67.715  1.00  0.00    -0.222 NA 
HETATM   21  C   UNL     1      -7.149  19.908  66.798  1.00  0.00    -0.224 A  
HETATM   22  C   UNL     1      -6.990  20.091  65.334  1.00  0.00    -0.332 C  
ENDBRANCH  16  17
ENDBRANCH   7  16
TORSDOF 2
ENDMDL
MODEL       33
REMARK 921   NORMALIZED FREE ENERGY PREDICTED BY IDOCK:   -6.62 KCAL/MOL
REMARK 922        TOTAL FREE ENERGY PREDICTED BY IDOCK:   -7.13 KCAL/MOL
REMARK 923 INTER-LIGAND FREE ENERGY PREDICTED BY IDOCK:   -6.88 KCAL/MOL
REMARK 924 INTRA-LIGAND FREE ENERGY PREDICTED BY IDOCK:   -0.25 KCAL/MOL
REMARK 927      BINDING AFFINITY PREDICTED BY RF-SCORE:    0.00 PKD
ROOT
HETATM    1  C   UNL     1     -11.054  15.909  70.585  1.00  0.00    -0.346 C  
HETATM    2  N   UNL     1     -10.940  15.936  69.142  1.00  0.00    -0.262 NA 
HETATM    3  C   UNL     1     -11.047  14.862  68.298  1.00  0.00    -0.282 A  
HETATM    4  C   UNL     1     -10.794  15.303  67.010  1.00  0.00    -0.321 A  
HETATM    5  C   UNL     1     -10.595  16.708  67.064  1.00  0.00    -0.247 A  
HETATM    6  C   UNL     1     -10.754  14.371  65.889  1.00  0.00    -0.306 C  
HETATM    7  C   UNL     1     -10.705  12.892  66.291  1.00  0.00    -0.292 C  
HETATM    8  C   UNL     1     -10.329  17.697  66.095  1.00  0.00    -0.334 A  
HETATM    9  O   UNL     1     -10.700  14.738  64.719  1.00  0.00    -0.407 OA 
HETATM   10  C   UNL     1     -11.715  12.640  67.434  1.00  0.00    -0.432 C  
HETATM   11  C   UNL     1     -10.482  18.410  68.821  1.00  0.00    -0.081 A  
HETATM   12  C   UNL     1     -10.142  19.024  66.497  1.00  0.00    -0.463 A  
HETATM   13  C   UNL     1     -11.344  13.452  68.689  1.00  0.00    -0.322 C  
HETATM   14  C   UNL     1     -10.213  19.371  67.842  1.00  0.00    -0.530 A  
HETATM   15  C   UNL     1     -10.673  17.080  68.411  1.00  0.00    -0.361 A  
ENDROOT
BRANCH   7  16
HETATM   16  C   UNL     1     -10.942  12.014  65.062  1.00  0.00    -0.306 C  
BRANCH  16  17
HETATM   17  N   UNL     1     -10.077  10.847  65.014  1.00  0.00    -0.279 NA 
HETATM   18  C   UNL     1      -9.903   9.952  66.036  1.00  0.00    -0.264 A  
HETATM   19  C   UNL     1      -9.076   8.981  65.525  1.00  0.00    -0.214 A  
HETATM   20  N   UNL     1      -8.722   9.279  64.238  1.00  0.00    -0.195 NA 
HETATM   21  C   UNL     1      -9.314  10.421  63.951  1.00  0.00    -0.279 A  
HETATM   22  C   UNL     1      -9.194  11.156  62.667  1.00  0.00    -0.357 C  
ENDBRANCH  16  17
ENDBRANCH   7  16
TORSDOF 2
ENDMDL
MODEL       34
REMARK 921   NORMALIZED FREE ENERGY PREDICTED BY IDOCK:   -6.56 KCAL/MOL
REMARK 922        TOTAL FREE ENERGY PREDICTED BY IDOCK:   -7.06 KCAL/MOL
REMARK 923 INTER-LIGAND FREE ENERGY PREDICTED BY IDOCK:   -6.96 KCAL/MOL
REMARK 924 INTRA-LIGAND FREE ENERGY PREDICTED BY IDOCK:   -0.10 KCAL/MOL
REMARK 927      BINDING AFFINITY PREDICTED BY RF-SCORE:    0.00 PKD
ROOT
HETATM    1  C   UNL     1      -9.475   7.377  67.985  1.00  0.00    -0.141 C  
HETATM    2  N   UNL     1     -10.234   8.346  68.749  1.00  0.00    -0.204 NA 
HETATM    3  C   UNL     1     -10.601   9.599  68.335  1.00  0.00    -0.225 A  
HETATM    4  C   UNL     1     -11.240  10.229  69.390  1.00  0.00    -0.292 A  
HETATM    5  C   UNL     1     -11.325   9.300  70.461  1.00  0.00    -0.306 A  
HETATM    6  C   UNL     1     -11.681  11.615  69.285  1.00  0.00    -0.331 C  
HETATM    7  C   UNL     1     -11.120  12.373  68.076  1.00  0.00    -0.288 C  
HETATM    8  C   UNL     1     -11.874   9.350  71.759  1.00  0.00    -0.452 A  
HETATM    9  O   UNL     1     -12.393  12.153  70.128  1.00  0.00    -0.237 OA 
HETATM   10  C   UNL     1     -11.199  11.468  66.824  1.00  0.00    -0.350 C  
HETATM   11  C   UNL     1     -10.542   7.019  70.888  1.00  0.00    -0.238 A  
HETATM   12  C   UNL     1     -11.750   8.242  72.603  1.00  0.00    -0.406 A  
HETATM   13  C   UNL     1     -10.332  10.206  66.997  1.00  0.00    -0.303 C  
HETATM   14  C   UNL     1     -11.089   7.096  72.173  1.00  0.00    -0.282 A  
HETATM   15  C   UNL     1     -10.672   8.134  70.044  1.00  0.00    -0.243 A  
ENDROOT
BRANCH   7  16
HETATM   16  C   UNL     1     -11.853  13.705  67.914  1.00  0.00    -0.366 C  
BRANCH  16  17
HETATM   17  N   UNL     1     -11.765  14.248  66.569  1.00  0.00    -0.379 NA 
HETATM   18  C   UNL     1     -12.684  14.042  65.574  1.00  0.00    -0.486 A  
HETATM   19  C   UNL     1     -12.244  14.803  64.518  1.00  0.00    -0.428 A  
HETATM   20  N   UNL     1     -11.075  15.437  64.835  1.00  0.00    -0.425 NA 
HETATM   21  C   UNL     1     -10.785  15.073  66.069  1.00  0.00    -0.326 A  
HETATM   22  C   UNL     1      -9.580  15.489  66.830  1.00  0.00    -0.251 C  
ENDBRANCH  16  17
ENDBRANCH   7  16
TORSDOF 2
ENDMDL
MODEL       35
REMARK 921   NORMALIZED FREE ENERGY PREDICTED BY IDOCK:   -6.51 KCAL/MOL
REMARK 922        TOTAL FREE ENERGY PREDICTED BY IDOCK:   -7.01 KCAL/MOL
REMARK 923 INTER-LIGAND FREE ENERGY PREDICTED BY IDOCK:   -6.60 KCAL/MOL
REMARK 924 INTRA-LIGAND FREE ENERGY PREDICTED BY IDOCK:   -0.41 KCAL/MOL
REMARK 927      BINDING AFFINITY PREDICTED BY RF-SCORE:    0.00 PKD
ROOT
HETATM    1  C   UNL     1     -13.285  10.325  72.072  1.00  0.00    -0.411 C  
HETATM    2  N   UNL     1     -12.783  11.402  71.245  1.00  0.00    -0.415 NA 
HETATM    3  C   UNL     1     -11.950  11.275  70.164  1.00  0.00    -0.369 A  
HETATM    4  C   UNL     1     -11.645  12.547  69.708  1.00  0.00    -0.291 A  
HETATM    5  C   UNL     1     -12.372  13.476  70.496  1.00  0.00    -0.412 A  
HETATM    6  C   UNL     1     -10.708  12.747  68.608  1.00  0.00    -0.246 C  
HETATM    7  C   UNL     1      -9.891  11.505  68.231  1.00  0.00    -0.203 C  
HETATM    8  C   UNL     1     -12.488  14.882  70.495  1.00  0.00    -0.419 A  
HETATM    9  O   UNL     1     -10.539  13.836  68.067  1.00  0.00    -0.242 OA 
HETATM   10  C   UNL     1     -10.823  10.271  68.201  1.00  0.00    -0.312 C  
HETATM   11  C   UNL     1     -13.859  13.363  72.439  1.00  0.00    -0.665 A  
HETATM   12  C   UNL     1     -13.282  15.509  71.461  1.00  0.00    -0.589 A  
HETATM   13  C   UNL     1     -11.426   9.999  69.592  1.00  0.00    -0.210 C  
HETATM   14  C   UNL     1     -13.953  14.758  72.421  1.00  0.00    -0.575 A  
HETATM   15  C   UNL     1     -13.063  12.738  71.464  1.00  0.00    -0.286 A  
ENDROOT
BRANCH   7  16
HETATM   16  C   UNL     1      -9.158  11.749  66.911  1.00  0.00    -0.192 C  
BRANCH  16  17
HETATM   17  N   UNL     1      -7.743  12.030  67.085  1.00  0.00    -0.165 NA 
HETATM   18  C   UNL     1      -7.219  13.234  67.475  1.00  0.00    -0.150 A  
HETATM   19  C   UNL     1      -5.867  13.017  67.587  1.00  0.00    -0.133 A  
HETATM   20  N   UNL     1      -5.556  11.730  67.248  1.00  0.00    -0.099 NA 
HETATM   21  C   UNL     1      -6.696  11.152  66.924  1.00  0.00    -0.128 A  
HETATM   22  C   UNL     1      -6.850   9.751  66.456  1.00  0.00    -0.084 C  
ENDBRANCH  16  17
ENDBRANCH   7  16
TORSDOF 2
ENDMDL
MODEL       36
REMARK 921   NORMALIZED FREE ENERGY PREDICTED BY IDOCK:   -6.46 KCAL/MOL
REMARK 922        TOTAL FREE ENERGY PREDICTED BY IDOCK:   -6.95 KCAL/MOL
REMARK 923 INTER-LIGAND FREE ENERGY PREDICTED BY IDOCK:   -6.70 KCAL/MOL
REMARK 924 INTRA-LIGAND FREE ENERGY PREDICTED BY IDOCK:   -0.25 KCAL/MOL
REMARK 927      BINDING AFFINITY PREDICTED BY RF-SCORE:    0.00 PKD
ROOT
HETATM    1  C   UNL     1     -10.192  12.043  63.692  1.00  0.00    -0.444 C  
HETATM    2  N   UNL     1     -10.380  12.315  65.102  1.00  0.00    -0.280 NA 
HETATM    3  C   UNL     1     -10.510  13.550  65.681  1.00  0.00    -0.293 A  
HETATM    4  C   UNL     1     -10.586  13.375  67.052  1.00  0.00    -0.264 A  
HETATM    5  C   UNL     1     -10.573  11.979  67.312  1.00  0.00    -0.252 A  
HETATM    6  C   UNL     1     -10.650  14.518  67.955  1.00  0.00    -0.237 C  
HETATM    7  C   UNL     1     -10.321  15.866  67.303  1.00  0.00    -0.293 C  
HETATM    8  C   UNL     1     -10.646  11.200  68.485  1.00  0.00    -0.219 A  
HETATM    9  O   UNL     1     -10.885  14.406  69.155  1.00  0.00    -0.252 OA 
HETATM   10  C   UNL     1     -11.033  15.958  65.933  1.00  0.00    -0.151 C  
HETATM   11  C   UNL     1     -10.335   9.936  65.981  1.00  0.00    -0.202 A  
HETATM   12  C   UNL     1     -10.562   9.807  68.395  1.00  0.00    -0.264 A  
HETATM   13  C   UNL     1     -10.528  14.865  64.972  1.00  0.00    -0.429 C  
HETATM   14  C   UNL     1     -10.404   9.187  67.159  1.00  0.00    -0.337 A  
HETATM   15  C   UNL     1     -10.424  11.335  66.077  1.00  0.00    -0.257 A  
ENDROOT
BRANCH   7  16
HETATM   16  C   UNL     1     -10.682  17.005  68.257  1.00  0.00    -0.372 C  
BRANCH  16  17
HETATM   17  N   UNL     1     -10.149  18.291  67.842  1.00  0.00    -0.343 NA 
HETATM   18  C   UNL     1     -10.881  19.304  67.279  1.00  0.00    -0.449 A  
HETATM   19  C   UNL     1      -9.997  20.344  67.130  1.00  0.00    -0.428 A  
HETATM   20  N   UNL     1      -8.749  19.981  67.557  1.00  0.00    -0.336 NA 
HETATM   21  C   UNL     1      -8.851  18.731  67.962  1.00  0.00    -0.300 A  
HETATM   22  C   UNL     1      -7.737  17.900  68.483  1.00  0.00    -0.299 C  
ENDBRANCH  16  17
ENDBRANCH   7  16
TORSDOF 2
ENDMDL
MODEL       37
REMARK 921   NORMALIZED FREE ENERGY PREDICTED BY IDOCK:   -6.45 KCAL/MOL
REMARK 922        TOTAL FREE ENERGY PREDICTED BY IDOCK:   -6.94 KCAL/MOL
REMARK 923 INTER-LIGAND FREE ENERGY PREDICTED BY IDOCK:   -6.47 KCAL/MOL
REMARK 924 INTRA-LIGAND FREE ENERGY PREDICTED BY IDOCK:   -0.47 KCAL/MOL
REMARK 927      BINDING AFFINITY PREDICTED BY RF-SCORE:    0.00 PKD
ROOT
HETATM    1  C   UNL     1     -13.495  12.693  72.171  1.00  0.00    -0.460 C  
HETATM    2  N   UNL     1     -12.723  11.916  71.225  1.00  0.00    -0.356 NA 
HETATM    3  C   UNL     1     -12.563  10.555  71.230  1.00  0.00    -0.426 A  
HETATM    4  C   UNL     1     -11.686  10.223  70.211  1.00  0.00    -0.388 A  
HETATM    5  C   UNL     1     -11.356  11.417  69.517  1.00  0.00    -0.357 A  
HETATM    6  C   UNL     1     -11.251   8.846  70.010  1.00  0.00    -0.110 C  
HETATM    7  C   UNL     1     -11.586   7.896  71.167  1.00  0.00    -0.302 C  
HETATM    8  C   UNL     1     -10.545  11.709  68.401  1.00  0.00    -0.235 A  
HETATM    9  O   UNL     1     -10.613   8.485  69.025  1.00  0.00    -0.216 OA 
HETATM   10  C   UNL     1     -13.034   8.158  71.640  1.00  0.00    -0.352 C  
HETATM   11  C   UNL     1     -11.853  13.802  69.770  1.00  0.00    -0.394 A  
HETATM   12  C   UNL     1     -10.396  13.036  67.985  1.00  0.00    -0.237 A  
HETATM   13  C   UNL     1     -13.187   9.591  72.185  1.00  0.00    -0.539 C  
HETATM   14  C   UNL     1     -11.039  14.066  68.664  1.00  0.00    -0.286 A  
HETATM   15  C   UNL     1     -12.001  12.467  70.181  1.00  0.00    -0.298 A  
ENDROOT
BRANCH   7  16
HETATM   16  C   UNL     1     -11.336   6.450  70.738  1.00  0.00    -0.350 C  
BRANCH  16  17
HETATM   17  N   UNL     1     -10.145   5.872  71.336  1.00  0.00    -0.192 NA 
HETATM   18  C   UNL     1      -8.892   5.895  70.780  1.00  0.00    -0.138 A  
HETATM   19  C   UNL     1      -8.074   5.315  71.719  1.00  0.00    -0.117 A  
HETATM   20  N   UNL     1      -8.797   4.915  72.808  1.00  0.00    -0.121 NA 
HETATM   21  C   UNL     1     -10.050   5.237  72.552  1.00  0.00    -0.181 A  
HETATM   22  C   UNL     1     -11.208   4.966  73.441  1.00  0.00    -0.415 C  
ENDBRANCH  16  17
ENDBRANCH   7  16
TORSDOF 2
ENDMDL
MODEL       38
REMARK 921   NORMALIZED FREE ENERGY PREDICTED BY IDOCK:   -6.45 KCAL/MOL
REMARK 922        TOTAL FREE ENERGY PREDICTED BY IDOCK:   -6.93 KCAL/MOL
REMARK 923 INTER-LIGAND FREE ENERGY PREDICTED BY IDOCK:   -6.70 KCAL/MOL
REMARK 924 INTRA-LIGAND FREE ENERGY PREDICTED BY IDOCK:   -0.23 KCAL/MOL
REMARK 927      BINDING AFFINITY PREDICTED BY RF-SCORE:    0.00 PKD
ROOT
HETATM    1  C   UNL     1     -13.631  12.638  72.304  1.00  0.00    -0.409 C  
HETATM    2  N   UNL     1     -12.821  11.923  71.340  1.00  0.00    -0.364 NA 
HETATM    3  C   UNL     1     -12.235  12.451  70.220  1.00  0.00    -0.267 A  
HETATM    4  C   UNL     1     -11.623  11.419  69.529  1.00  0.00    -0.399 A  
HETATM    5  C   UNL     1     -11.784  10.232  70.292  1.00  0.00    -0.388 A  
HETATM    6  C   UNL     1     -10.976  11.652  68.243  1.00  0.00    -0.226 C  
HETATM    7  C   UNL     1     -11.294  13.010  67.606  1.00  0.00    -0.342 C  
HETATM    8  C   UNL     1     -11.370   8.895  70.122  1.00  0.00    -0.119 A  
HETATM    9  O   UNL     1     -10.283  10.807  67.683  1.00  0.00    -0.177 OA 
HETATM   10  C   UNL     1     -11.219  14.112  68.689  1.00  0.00    -0.291 C  
HETATM   11  C   UNL     1     -12.931   9.605  72.363  1.00  0.00    -0.358 A  
HETATM   12  C   UNL     1     -11.739   7.933  71.068  1.00  0.00    -0.293 A  
HETATM   13  C   UNL     1     -12.274  13.880  69.788  1.00  0.00    -0.388 C  
HETATM   14  C   UNL     1     -12.513   8.285  72.169  1.00  0.00    -0.398 A  
HETATM   15  C   UNL     1     -12.553  10.568  71.412  1.00  0.00    -0.434 A  
ENDROOT
BRANCH   7  16
HETATM   16  C   UNL     1     -10.362  13.256  66.419  1.00  0.00    -0.286 C  
BRANCH  16  17
HETATM   17  N   UNL     1      -9.242  14.124  66.740  1.00  0.00    -0.265 NA 
HETATM   18  C   UNL     1      -8.081  13.723  67.346  1.00  0.00    -0.177 A  
HETATM   19  C   UNL     1      -7.285  14.843  67.373  1.00  0.00    -0.183 A  
HETATM   20  N   UNL     1      -7.941  15.913  66.829  1.00  0.00    -0.248 NA 
HETATM   21  C   UNL     1      -9.130  15.469  66.472  1.00  0.00    -0.302 A  
HETATM   22  C   UNL     1     -10.208  16.287  65.862  1.00  0.00    -0.384 C  
ENDBRANCH  16  17
ENDBRANCH   7  16
TORSDOF 2
ENDMDL
MODEL       39
REMARK 921   NORMALIZED FREE ENERGY PREDICTED BY IDOCK:   -6.39 KCAL/MOL
REMARK 922        TOTAL FREE ENERGY PREDICTED BY IDOCK:   -6.87 KCAL/MOL
REMARK 923 INTER-LIGAND FREE ENERGY PREDICTED BY IDOCK:   -6.63 KCAL/MOL
REMARK 924 INTRA-LIGAND FREE ENERGY PREDICTED BY IDOCK:   -0.24 KCAL/MOL
REMARK 927      BINDING AFFINITY PREDICTED BY RF-SCORE:    0.00 PKD
ROOT
HETATM    1  C   UNL     1     -10.441  19.926  65.707  1.00  0.00    -0.414 C  
HETATM    2  N   UNL     1      -9.470  18.967  66.189  1.00  0.00    -0.455 NA 
HETATM    3  C   UNL     1      -9.576  17.602  66.128  1.00  0.00    -0.188 A  
HETATM    4  C   UNL     1      -8.478  17.058  66.772  1.00  0.00    -0.265 A  
HETATM    5  C   UNL     1      -7.639  18.129  67.179  1.00  0.00    -0.225 A  
HETATM    6  C   UNL     1      -8.344  15.616  66.944  1.00  0.00    -0.252 C  
HETATM    7  C   UNL     1      -9.617  14.817  66.643  1.00  0.00    -0.289 C  
HETATM    8  C   UNL     1      -6.398  18.203  67.845  1.00  0.00    -0.182 A  
HETATM    9  O   UNL     1      -7.316  15.087  67.356  1.00  0.00    -0.189 OA 
HETATM   10  C   UNL     1     -10.265  15.355  65.346  1.00  0.00    -0.408 C  
HETATM   11  C   UNL     1      -7.742  20.575  67.117  1.00  0.00    -0.368 A  
HETATM   12  C   UNL     1      -5.846  19.453  68.138  1.00  0.00    -0.228 A  
HETATM   13  C   UNL     1     -10.693  16.826  65.511  1.00  0.00    -0.206 C  
HETATM   14  C   UNL     1      -6.513  20.621  67.782  1.00  0.00    -0.353 A  
HETATM   15  C   UNL     1      -8.289  19.316  66.821  1.00  0.00    -0.296 A  
ENDROOT
BRANCH   7  16
HETATM   16  C   UNL     1      -9.291  13.324  66.588  1.00  0.00    -0.242 C  
BRANCH  16  17
HETATM   17  N   UNL     1     -10.259  12.498  67.290  1.00  0.00    -0.216 NA 
HETATM   18  C   UNL     1     -10.082  11.963  68.539  1.00  0.00    -0.206 A  
HETATM   19  C   UNL     1     -11.269  11.338  68.832  1.00  0.00    -0.253 A  
HETATM   20  N   UNL     1     -12.145  11.453  67.788  1.00  0.00    -0.564 NA 
HETATM   21  C   UNL     1     -11.513  12.136  66.855  1.00  0.00    -0.351 A  
HETATM   22  C   UNL     1     -12.061  12.482  65.519  1.00  0.00    -0.481 C  
ENDBRANCH  16  17
ENDBRANCH   7  16
TORSDOF 2
ENDMDL
MODEL       40
REMARK 921   NORMALIZED FREE ENERGY PREDICTED BY IDOCK:   -6.36 KCAL/MOL
REMARK 922        TOTAL FREE ENERGY PREDICTED BY IDOCK:   -6.84 KCAL/MOL
REMARK 923 INTER-LIGAND FREE ENERGY PREDICTED BY IDOCK:   -6.75 KCAL/MOL
REMARK 924 INTRA-LIGAND FREE ENERGY PREDICTED BY IDOCK:   -0.08 KCAL/MOL
REMARK 927      BINDING AFFINITY PREDICTED BY RF-SCORE:    0.00 PKD
ROOT
HETATM    1  C   UNL     1      -9.592  20.205  67.094  1.00  0.00    -0.420 C  
HETATM    2  N   UNL     1      -8.846  18.974  67.249  1.00  0.00    -0.279 NA 
HETATM    3  C   UNL     1      -9.181  17.750  66.733  1.00  0.00    -0.273 A  
HETATM    4  C   UNL     1      -8.251  16.827  67.181  1.00  0.00    -0.210 A  
HETATM    5  C   UNL     1      -7.276  17.527  67.938  1.00  0.00    -0.194 A  
HETATM    6  C   UNL     1      -8.384  15.410  66.865  1.00  0.00    -0.255 C  
HETATM    7  C   UNL     1      -9.748  15.010  66.289  1.00  0.00    -0.316 C  
HETATM    8  C   UNL     1      -6.100  17.143  68.615  1.00  0.00    -0.153 A  
HETATM    9  O   UNL     1      -7.501  14.590  67.097  1.00  0.00    -0.153 OA 
HETATM   10  C   UNL     1     -10.183  16.053  65.233  1.00  0.00    -0.245 C  
HETATM   11  C   UNL     1      -6.947  19.834  68.693  1.00  0.00    -0.363 A  
HETATM   12  C   UNL     1      -5.365  18.102  69.320  1.00  0.00    -0.196 A  
HETATM   13  C   UNL     1     -10.362  17.444  65.871  1.00  0.00    -0.276 C  
HETATM   14  C   UNL     1      -5.788  19.427  69.361  1.00  0.00    -0.279 A  
HETATM   15  C   UNL     1      -7.679  18.867  67.984  1.00  0.00    -0.271 A  
ENDROOT
BRANCH   7  16
HETATM   16  C   UNL     1      -9.682  13.582  65.746  1.00  0.00    -0.136 C  
BRANCH  16  17
HETATM   17  N   UNL     1     -10.888  13.179  65.042  1.00  0.00    -0.302 NA 
HETATM   18  C   UNL     1     -10.940  12.767  63.737  1.00  0.00    -0.402 A  
HETATM   19  C   UNL     1     -12.250  12.411  63.526  1.00  0.00    -0.563 A  
HETATM   20  N   UNL     1     -12.995  12.624  64.652  1.00  0.00    -0.844 NA 
HETATM   21  C   UNL     1     -12.164  13.110  65.553  1.00  0.00    -0.461 A  
HETATM   22  C   UNL     1     -12.531  13.526  66.930  1.00  0.00    -0.162 C  
ENDBRANCH  16  17
ENDBRANCH   7  16
TORSDOF 2
ENDMDL
MODEL       41
REMARK 921   NORMALIZED FREE ENERGY PREDICTED BY IDOCK:   -6.34 KCAL/MOL
REMARK 922        TOTAL FREE ENERGY PREDICTED BY IDOCK:   -6.82 KCAL/MOL
REMARK 923 INTER-LIGAND FREE ENERGY PREDICTED BY IDOCK:   -6.56 KCAL/MOL
REMARK 924 INTRA-LIGAND FREE ENERGY PREDICTED BY IDOCK:   -0.26 KCAL/MOL
REMARK 927      BINDING AFFINITY PREDICTED BY RF-SCORE:    0.00 PKD
ROOT
HETATM    1  C   UNL     1      -7.179   9.258  70.440  1.00  0.00    -0.097 C  
HETATM    2  N   UNL     1      -8.594   9.522  70.285  1.00  0.00    -0.215 NA 
HETATM    3  C   UNL     1      -9.172  10.323  69.335  1.00  0.00    -0.189 A  
HETATM    4  C   UNL     1     -10.533  10.372  69.588  1.00  0.00    -0.279 A  
HETATM    5  C   UNL     1     -10.801   9.515  70.688  1.00  0.00    -0.371 A  
HETATM    6  C   UNL     1     -11.416  11.214  68.790  1.00  0.00    -0.299 C  
HETATM    7  C   UNL     1     -10.695  12.230  67.897  1.00  0.00    -0.243 C  
HETATM    8  C   UNL     1     -11.974   9.143  71.376  1.00  0.00    -0.410 A  
HETATM    9  O   UNL     1     -12.640  11.159  68.871  1.00  0.00    -0.358 OA 
HETATM   10  C   UNL     1      -9.496  11.542  67.204  1.00  0.00    -0.186 C  
HETATM   11  C   UNL     1      -9.474   8.149  72.227  1.00  0.00    -0.312 A  
HETATM   12  C   UNL     1     -11.885   8.284  72.476  1.00  0.00    -0.439 A  
HETATM   13  C   UNL     1      -8.466  11.051  68.239  1.00  0.00    -0.138 C  
HETATM   14  C   UNL     1     -10.651   7.799  72.896  1.00  0.00    -0.428 A  
HETATM   15  C   UNL     1      -9.570   9.009  71.120  1.00  0.00    -0.286 A  
ENDROOT
BRANCH   7  16
HETATM   16  C   UNL     1     -11.688  12.857  66.918  1.00  0.00    -0.382 C  
BRANCH  16  17
HETATM   17  N   UNL     1     -11.269  14.160  66.430  1.00  0.00    -0.321 NA 
HETATM   18  C   UNL     1     -10.824  14.420  65.160  1.00  0.00    -0.386 A  
HETATM   19  C   UNL     1     -10.623  15.779  65.124  1.00  0.00    -0.411 A  
HETATM   20  N   UNL     1     -10.903  16.340  66.339  1.00  0.00    -0.175 NA 
HETATM   21  C   UNL     1     -11.270  15.347  67.124  1.00  0.00    -0.256 A  
HETATM   22  C   UNL     1     -11.641  15.472  68.556  1.00  0.00    -0.379 C  
ENDBRANCH  16  17
ENDBRANCH   7  16
TORSDOF 2
ENDMDL
MODEL       42
REMARK 921   NORMALIZED FREE ENERGY PREDICTED BY IDOCK:   -6.33 KCAL/MOL
REMARK 922        TOTAL FREE ENERGY PREDICTED BY IDOCK:   -6.80 KCAL/MOL
REMARK 923 INTER-LIGAND FREE ENERGY PREDICTED BY IDOCK:   -6.35 KCAL/MOL
REMARK 924 INTRA-LIGAND FREE ENERGY PREDICTED BY IDOCK:   -0.45 KCAL/MOL
REMARK 927      BINDING AFFINITY PREDICTED BY RF-SCORE:    0.00 PKD
ROOT
HETATM    1  C   UNL     1      -8.985   9.678  63.601  1.00  0.00    -0.216 C  
HETATM    2  N   UNL     1      -9.643   9.891  64.872  1.00  0.00    -0.297 NA 
HETATM    3  C   UNL     1     -10.313  11.021  65.262  1.00  0.00    -0.275 A  
HETATM    4  C   UNL     1     -10.720  10.847  66.574  1.00  0.00    -0.270 A  
HETATM    5  C   UNL     1     -10.344   9.538  66.974  1.00  0.00    -0.319 A  
HETATM    6  C   UNL     1     -11.393  11.917  67.301  1.00  0.00    -0.329 C  
HETATM    7  C   UNL     1     -11.331  13.289  66.621  1.00  0.00    -0.353 C  
HETATM    8  C   UNL     1     -10.501   8.794  68.161  1.00  0.00    -0.243 A  
HETATM    9  O   UNL     1     -11.915  11.749  68.400  1.00  0.00    -0.443 OA 
HETATM   10  C   UNL     1     -11.614  13.123  65.109  1.00  0.00    -0.347 C  
HETATM   11  C   UNL     1      -9.109   7.672  65.978  1.00  0.00    -0.152 A  
HETATM   12  C   UNL     1      -9.963   7.506  68.245  1.00  0.00    -0.193 A  
HETATM   13  C   UNL     1     -10.539  12.247  64.439  1.00  0.00    -0.360 C  
HETATM   14  C   UNL     1      -9.273   6.957  67.169  1.00  0.00    -0.153 A  
HETATM   15  C   UNL     1      -9.655   8.964  65.899  1.00  0.00    -0.223 A  
ENDROOT
BRANCH   7  16
HETATM   16  C   UNL     1     -12.288  14.257  67.318  1.00  0.00    -0.105 C  
BRANCH  16  17
HETATM   17  N   UNL     1     -11.608  15.245  68.138  1.00  0.00    -0.345 NA 
HETATM   18  C   UNL     1     -10.730  16.188  67.672  1.00  0.00    -0.318 A  
HETATM   19  C   UNL     1     -10.405  16.947  68.769  1.00  0.00    -0.324 A  
HETATM   20  N   UNL     1     -11.035  16.474  69.887  1.00  0.00    -0.336 NA 
HETATM   21  C   UNL     1     -11.740  15.431  69.495  1.00  0.00    -0.346 A  
HETATM   22  C   UNL     1     -12.569  14.570  70.375  1.00  0.00    -0.405 C  
ENDBRANCH  16  17
ENDBRANCH   7  16
TORSDOF 2
ENDMDL
MODEL       43
REMARK 921   NORMALIZED FREE ENERGY PREDICTED BY IDOCK:   -6.26 KCAL/MOL
REMARK 922        TOTAL FREE ENERGY PREDICTED BY IDOCK:   -6.72 KCAL/MOL
REMARK 923 INTER-LIGAND FREE ENERGY PREDICTED BY IDOCK:   -6.49 KCAL/MOL
REMARK 924 INTRA-LIGAND FREE ENERGY PREDICTED BY IDOCK:   -0.23 KCAL/MOL
REMARK 927      BINDING AFFINITY PREDICTED BY RF-SCORE:    0.00 PKD
ROOT
HETATM    1  C   UNL     1     -11.074  16.188  68.591  1.00  0.00    -0.356 C  
HETATM    2  N   UNL     1     -11.443  14.895  69.128  1.00  0.00    -0.285 NA 
HETATM    3  C   UNL     1     -11.140  13.673  68.586  1.00  0.00    -0.272 A  
HETATM    4  C   UNL     1     -11.748  12.699  69.360  1.00  0.00    -0.387 A  
HETATM    5  C   UNL     1     -12.385  13.347  70.451  1.00  0.00    -0.382 A  
HETATM    6  C   UNL     1     -11.677  11.290  68.990  1.00  0.00    -0.342 C  
HETATM    7  C   UNL     1     -11.163  11.029  67.569  1.00  0.00    -0.372 C  
HETATM    8  C   UNL     1     -13.129  12.895  71.560  1.00  0.00    -0.390 A  
HETATM    9  O   UNL     1     -12.055  10.387  69.731  1.00  0.00    -0.228 OA 
HETATM   10  C   UNL     1      -9.941  11.935  67.293  1.00  0.00    -0.200 C  
HETATM   11  C   UNL     1     -12.740  15.662  71.168  1.00  0.00    -0.525 A  
HETATM   12  C   UNL     1     -13.668  13.825  72.455  1.00  0.00    -0.692 A  
HETATM   13  C   UNL     1     -10.330  13.424  67.356  1.00  0.00    -0.240 C  
HETATM   14  C   UNL     1     -13.479  15.189  72.256  1.00  0.00    -0.539 A  
HETATM   15  C   UNL     1     -12.197  14.723  70.275  1.00  0.00    -0.338 A  
ENDROOT
BRANCH   7  16
HETATM   16  C   UNL     1     -10.872   9.538  67.390  1.00  0.00    -0.145 C  
BRANCH  16  17
HETATM   17  N   UNL     1      -9.482   9.192  67.632  1.00  0.00    -0.138 NA 
HETATM   18  C   UNL     1      -8.894   9.104  68.867  1.00  0.00    -0.139 A  
HETATM   19  C   UNL     1      -7.613   8.673  68.623  1.00  0.00    -0.097 A  
HETATM   20  N   UNL     1      -7.400   8.529  67.280  1.00  0.00    -0.087 NA 
HETATM   21  C   UNL     1      -8.531   8.868  66.693  1.00  0.00    -0.119 A  
HETATM   22  C   UNL     1      -8.766   8.898  65.227  1.00  0.00    -0.220 C  
ENDBRANCH  16  17
ENDBRANCH   7  16
TORSDOF 2
ENDMDL
MODEL       44
REMARK 921   NORMALIZED FREE ENERGY PREDICTED BY IDOCK:   -6.22 KCAL/MOL
REMARK 922        TOTAL FREE ENERGY PREDICTED BY IDOCK:   -6.68 KCAL/MOL
REMARK 923 INTER-LIGAND FREE ENERGY PREDICTED BY IDOCK:   -6.55 KCAL/MOL
REMARK 924 INTRA-LIGAND FREE ENERGY PREDICTED BY IDOCK:   -0.13 KCAL/MOL
REMARK 927      BINDING AFFINITY PREDICTED BY RF-SCORE:    0.00 PKD
ROOT
HETATM    1  C   UNL     1     -11.472  15.208  68.149  1.00  0.00    -0.342 C  
HETATM    2  N   UNL     1     -11.735  14.155  69.107  1.00  0.00    -0.304 NA 
HETATM    3  C   UNL     1     -11.282  12.863  69.040  1.00  0.00    -0.267 A  
HETATM    4  C   UNL     1     -11.826  12.162  70.103  1.00  0.00    -0.368 A  
HETATM    5  C   UNL     1     -12.581  13.077  70.884  1.00  0.00    -0.364 A  
HETATM    6  C   UNL     1     -11.593  10.732  70.261  1.00  0.00    -0.338 C  
HETATM    7  C   UNL     1     -10.983  10.046  69.032  1.00  0.00    -0.249 C  
HETATM    8  C   UNL     1     -13.331  12.964  72.072  1.00  0.00    -0.579 A  
HETATM    9  O   UNL     1     -11.914  10.112  71.270  1.00  0.00    -0.355 OA 
HETATM   10  C   UNL     1      -9.847  10.928  68.465  1.00  0.00    -0.188 C  
HETATM   11  C   UNL     1     -13.206  15.440  70.725  1.00  0.00    -0.440 A  
HETATM   12  C   UNL     1     -14.007  14.082  72.571  1.00  0.00    -0.553 A  
HETATM   13  C   UNL     1     -10.389  12.289  67.990  1.00  0.00    -0.220 C  
HETATM   14  C   UNL     1     -13.948  15.300  71.902  1.00  0.00    -0.644 A  
HETATM   15  C   UNL     1     -12.526  14.314  70.231  1.00  0.00    -0.361 A  
ENDROOT
BRANCH   7  16
HETATM   16  C   UNL     1     -10.533   8.631  69.400  1.00  0.00    -0.218 C  
BRANCH  16  17
HETATM   17  N   UNL     1      -9.186   8.581  69.943  1.00  0.00    -0.152 NA 
HETATM   18  C   UNL     1      -8.851   8.843  71.245  1.00  0.00    -0.231 A  
HETATM   19  C   UNL     1      -7.502   8.595  71.324  1.00  0.00    -0.103 A  
HETATM   20  N   UNL     1      -7.009   8.221  70.105  1.00  0.00    -0.039 NA 
HETATM   21  C   UNL     1      -8.033   8.240  69.275  1.00  0.00    -0.114 A  
HETATM   22  C   UNL     1      -7.973   7.933  67.824  1.00  0.00    -0.124 C  
ENDBRANCH  16  17
ENDBRANCH   7  16
TORSDOF 2
ENDMDL
MODEL       45
REMARK 921   NORMALIZED FREE ENERGY PREDICTED BY IDOCK:   -6.22 KCAL/MOL
REMARK 922        TOTAL FREE ENERGY PREDICTED BY IDOCK:   -6.68 KCAL/MOL
REMARK 923 INTER-LIGAND FREE ENERGY PREDICTED BY IDOCK:   -6.36 KCAL/MOL
REMARK 924 INTRA-LIGAND FREE ENERGY PREDICTED BY IDOCK:   -0.32 KCAL/MOL
REMARK 927      BINDING AFFINITY PREDICTED BY RF-SCORE:    0.00 PKD
ROOT
HETATM    1  C   UNL     1     -12.763  10.398  71.579  1.00  0.00    -0.459 C  
HETATM    2  N   UNL     1     -12.420  11.630  70.900  1.00  0.00    -0.377 NA 
HETATM    3  C   UNL     1     -11.517  11.770  69.878  1.00  0.00    -0.206 A  
HETATM    4  C   UNL     1     -11.424  13.117  69.571  1.00  0.00    -0.291 A  
HETATM    5  C   UNL     1     -12.354  13.813  70.386  1.00  0.00    -0.423 A  
HETATM    6  C   UNL     1     -10.478  13.597  68.570  1.00  0.00    -0.244 C  
HETATM    7  C   UNL     1      -9.427  12.567  68.139  1.00  0.00    -0.214 C  
HETATM    8  C   UNL     1     -12.726  15.167  70.512  1.00  0.00    -0.416 A  
HETATM    9  O   UNL     1     -10.481  14.751  68.151  1.00  0.00    -0.234 OA 
HETATM   10  C   UNL     1     -10.113  11.198  67.920  1.00  0.00    -0.195 C  
HETATM   11  C   UNL     1     -13.905  13.230  72.191  1.00  0.00    -0.555 A  
HETATM   12  C   UNL     1     -13.676  15.537  71.469  1.00  0.00    -0.553 A  
HETATM   13  C   UNL     1     -10.736  10.676  69.228  1.00  0.00    -0.275 C  
HETATM   14  C   UNL     1     -14.252  14.580  72.299  1.00  0.00    -0.563 A  
HETATM   15  C   UNL     1     -12.953  12.864  71.224  1.00  0.00    -0.228 A  
ENDROOT
BRANCH   7  16
HETATM   16  C   UNL     1      -8.676  13.077  66.909  1.00  0.00    -0.152 C  
BRANCH  16  17
HETATM   17  N   UNL     1      -7.439  13.766  67.237  1.00  0.00    -0.107 NA 
HETATM   18  C   UNL     1      -7.309  15.121  67.399  1.00  0.00    -0.205 A  
HETATM   19  C   UNL     1      -6.004  15.312  67.780  1.00  0.00    -0.137 A  
HETATM   20  N   UNL     1      -5.335  14.120  67.824  1.00  0.00    -0.303 NA 
HETATM   21  C   UNL     1      -6.208  13.198  67.470  1.00  0.00    -0.122 A  
HETATM   22  C   UNL     1      -5.926  11.746  67.342  1.00  0.00    -0.105 C  
ENDBRANCH  16  17
ENDBRANCH   7  16
TORSDOF 2
ENDMDL
MODEL       46
REMARK 921   NORMALIZED FREE ENERGY PREDICTED BY IDOCK:   -6.20 KCAL/MOL
REMARK 922        TOTAL FREE ENERGY PREDICTED BY IDOCK:   -6.65 KCAL/MOL
REMARK 923 INTER-LIGAND FREE ENERGY PREDICTED BY IDOCK:   -6.21 KCAL/MOL
REMARK 924 INTRA-LIGAND FREE ENERGY PREDICTED BY IDOCK:   -0.44 KCAL/MOL
REMARK 927      BINDING AFFINITY PREDICTED BY RF-SCORE:    0.00 PKD
ROOT
HETATM    1  C   UNL     1     -11.274   7.236  70.980  1.00  0.00    -0.266 C  
HETATM    2  N   UNL     1     -10.682   7.376  69.666  1.00  0.00    -0.239 NA 
HETATM    3  C   UNL     1     -10.534   8.542  68.961  1.00  0.00    -0.200 A  
HETATM    4  C   UNL     1     -10.002   8.228  67.722  1.00  0.00    -0.235 A  
HETATM    5  C   UNL     1      -9.753   6.831  67.698  1.00  0.00    -0.146 A  
HETATM    6  C   UNL     1      -9.801   9.256  66.707  1.00  0.00    -0.225 C  
HETATM    7  C   UNL     1     -10.492  10.592  67.006  1.00  0.00    -0.304 C  
HETATM    8  C   UNL     1      -9.210   5.949  66.742  1.00  0.00    -0.139 A  
HETATM    9  O   UNL     1      -9.183   9.052  65.666  1.00  0.00    -0.216 OA 
HETATM   10  C   UNL     1     -10.272  10.959  68.492  1.00  0.00    -0.197 C  
HETATM   11  C   UNL     1     -10.138   4.941  69.209  1.00  0.00    -0.248 A  
HETATM   12  C   UNL     1      -9.138   4.581  67.026  1.00  0.00    -0.133 A  
HETATM   13  C   UNL     1     -10.913   9.911  69.422  1.00  0.00    -0.263 C  
HETATM   14  C   UNL     1      -9.601   4.087  68.241  1.00  0.00    -0.188 A  
HETATM   15  C   UNL     1     -10.204   6.315  68.919  1.00  0.00    -0.181 A  
ENDROOT
BRANCH   7  16
HETATM   16  C   UNL     1      -9.994  11.661  66.033  1.00  0.00    -0.228 C  
BRANCH  16  17
HETATM   17  N   UNL     1     -11.040  12.182  65.169  1.00  0.00    -0.314 NA 
HETATM   18  C   UNL     1     -11.249  11.807  63.868  1.00  0.00    -0.414 A  
HETATM   19  C   UNL     1     -12.379  12.483  63.478  1.00  0.00    -0.525 A  
HETATM   20  N   UNL     1     -12.841  13.275  64.492  1.00  0.00    -0.680 NA 
HETATM   21  C   UNL     1     -12.009  13.101  65.499  1.00  0.00    -0.412 A  
HETATM   22  C   UNL     1     -12.091  13.786  66.814  1.00  0.00    -0.460 C  
ENDBRANCH  16  17
ENDBRANCH   7  16
TORSDOF 2
ENDMDL
MODEL       47
REMARK 921   NORMALIZED FREE ENERGY PREDICTED BY IDOCK:   -6.14 KCAL/MOL
REMARK 922        TOTAL FREE ENERGY PREDICTED BY IDOCK:   -6.59 KCAL/MOL
REMARK 923 INTER-LIGAND FREE ENERGY PREDICTED BY IDOCK:   -6.27 KCAL/MOL
REMARK 924 INTRA-LIGAND FREE ENERGY PREDICTED BY IDOCK:   -0.33 KCAL/MOL
REMARK 927      BINDING AFFINITY PREDICTED BY RF-SCORE:    0.00 PKD
ROOT
HETATM    1  C   UNL     1      -6.587  11.911  66.986  1.00  0.00    -0.128 C  
HETATM    2  N   UNL     1      -7.965  11.542  67.232  1.00  0.00    -0.145 NA 
HETATM    3  C   UNL     1      -8.935  12.342  67.778  1.00  0.00    -0.177 A  
HETATM    4  C   UNL     1     -10.086  11.584  67.918  1.00  0.00    -0.202 A  
HETATM    5  C   UNL     1      -9.827  10.298  67.375  1.00  0.00    -0.214 A  
HETATM    6  C   UNL     1     -11.279  12.136  68.549  1.00  0.00    -0.260 C  
HETATM    7  C   UNL     1     -11.054  13.460  69.290  1.00  0.00    -0.216 C  
HETATM    8  C   UNL     1     -10.599   9.129  67.214  1.00  0.00    -0.303 A  
HETATM    9  O   UNL     1     -12.363  11.560  68.543  1.00  0.00    -0.459 OA 
HETATM   10  C   UNL     1     -10.172  14.388  68.422  1.00  0.00    -0.243 C  
HETATM   11  C   UNL     1      -7.892   9.142  66.416  1.00  0.00    -0.100 A  
HETATM   12  C   UNL     1     -10.013   7.986  66.661  1.00  0.00    -0.326 A  
HETATM   13  C   UNL     1      -8.781  13.769  68.189  1.00  0.00    -0.183 C  
HETATM   14  C   UNL     1      -8.677   7.994  66.273  1.00  0.00    -0.174 A  
HETATM   15  C   UNL     1      -8.487  10.288  66.969  1.00  0.00    -0.129 A  
ENDROOT
BRANCH   7  16
HETATM   16  C   UNL     1     -12.401  14.077  69.668  1.00  0.00    -0.260 C  
BRANCH  16  17
HETATM   17  N   UNL     1     -12.393  14.717  70.973  1.00  0.00    -0.309 NA 
HETATM   18  C   UNL     1     -11.857  15.949  71.243  1.00  0.00    -0.449 A  
HETATM   19  C   UNL     1     -12.148  16.182  72.566  1.00  0.00    -0.550 A  
HETATM   20  N   UNL     1     -12.814  15.118  73.108  1.00  0.00    -0.454 NA 
HETATM   21  C   UNL     1     -12.934  14.231  72.140  1.00  0.00    -0.373 A  
HETATM   22  C   UNL     1     -13.566  12.894  72.270  1.00  0.00    -0.611 C  
ENDBRANCH  16  17
ENDBRANCH   7  16
TORSDOF 2
ENDMDL
MODEL       48
REMARK 921   NORMALIZED FREE ENERGY PREDICTED BY IDOCK:   -6.14 KCAL/MOL
REMARK 922        TOTAL FREE ENERGY PREDICTED BY IDOCK:   -6.59 KCAL/MOL
REMARK 923 INTER-LIGAND FREE ENERGY PREDICTED BY IDOCK:   -6.38 KCAL/MOL
REMARK 924 INTRA-LIGAND FREE ENERGY PREDICTED BY IDOCK:   -0.21 KCAL/MOL
REMARK 927      BINDING AFFINITY PREDICTED BY RF-SCORE:    0.00 PKD
ROOT
HETATM    1  C   UNL     1      -9.779  11.856  63.380  1.00  0.00    -0.270 C  
HETATM    2  N   UNL     1      -9.958  11.203  64.659  1.00  0.00    -0.269 NA 
HETATM    3  C   UNL     1     -10.595  11.724  65.755  1.00  0.00    -0.268 A  
HETATM    4  C   UNL     1     -10.472  10.815  66.793  1.00  0.00    -0.305 A  
HETATM    5  C   UNL     1      -9.798   9.672  66.291  1.00  0.00    -0.323 A  
HETATM    6  C   UNL     1     -10.982  11.120  68.125  1.00  0.00    -0.238 C  
HETATM    7  C   UNL     1     -11.363  12.590  68.341  1.00  0.00    -0.333 C  
HETATM    8  C   UNL     1      -9.410   8.438  66.852  1.00  0.00    -0.221 A  
HETATM    9  O   UNL     1     -11.044  10.285  69.022  1.00  0.00    -0.225 OA 
HETATM   10  C   UNL     1     -12.145  13.102  67.109  1.00  0.00    -0.343 C  
HETATM   11  C   UNL     1      -8.754   9.025  64.171  1.00  0.00    -0.126 A  
HETATM   12  C   UNL     1      -8.703   7.517  66.073  1.00  0.00    -0.178 A  
HETATM   13  C   UNL     1     -11.272  13.052  65.840  1.00  0.00    -0.315 C  
HETATM   14  C   UNL     1      -8.376   7.811  64.753  1.00  0.00    -0.051 A  
HETATM   15  C   UNL     1      -9.468   9.944  64.958  1.00  0.00    -0.280 A  
ENDROOT
BRANCH   7  16
HETATM   16  C   UNL     1     -12.131  12.738  69.655  1.00  0.00    -0.222 C  
BRANCH  16  17
HETATM   17  N   UNL     1     -11.937  14.030  70.290  1.00  0.00    -0.325 NA 
HETATM   18  C   UNL     1     -11.103  15.017  69.834  1.00  0.00    -0.274 A  
HETATM   19  C   UNL     1     -11.301  16.075  70.687  1.00  0.00    -0.399 A  
HETATM   20  N   UNL     1     -12.205  15.749  71.659  1.00  0.00    -0.418 NA 
HETATM   21  C   UNL     1     -12.563  14.502  71.421  1.00  0.00    -0.341 A  
HETATM   22  C   UNL     1     -13.510  13.706  72.241  1.00  0.00    -0.652 C  
ENDBRANCH  16  17
ENDBRANCH   7  16
TORSDOF 2
ENDMDL
MODEL       49
REMARK 921   NORMALIZED FREE ENERGY PREDICTED BY IDOCK:   -6.12 KCAL/MOL
REMARK 922        TOTAL FREE ENERGY PREDICTED BY IDOCK:   -6.57 KCAL/MOL
REMARK 923 INTER-LIGAND FREE ENERGY PREDICTED BY IDOCK:   -6.38 KCAL/MOL
REMARK 924 INTRA-LIGAND FREE ENERGY PREDICTED BY IDOCK:   -0.19 KCAL/MOL
REMARK 927      BINDING AFFINITY PREDICTED BY RF-SCORE:    0.00 PKD
ROOT
HETATM    1  C   UNL     1      -5.132  17.018  69.323  1.00  0.00    -0.133 C  
HETATM    2  N   UNL     1      -6.400  17.559  68.881  1.00  0.00    -0.200 NA 
HETATM    3  C   UNL     1      -7.610  16.917  68.904  1.00  0.00    -0.234 A  
HETATM    4  C   UNL     1      -8.548  17.751  68.319  1.00  0.00    -0.277 A  
HETATM    5  C   UNL     1      -7.900  18.971  67.991  1.00  0.00    -0.319 A  
HETATM    6  C   UNL     1      -9.925  17.314  68.122  1.00  0.00    -0.303 C  
HETATM    7  C   UNL     1     -10.153  15.811  68.322  1.00  0.00    -0.222 C  
HETATM    8  C   UNL     1      -8.327  20.181  67.408  1.00  0.00    -0.390 A  
HETATM    9  O   UNL     1     -10.820  18.074  67.764  1.00  0.00    -0.383 OA 
HETATM   10  C   UNL     1      -9.396  15.344  69.588  1.00  0.00    -0.208 C  
HETATM   11  C   UNL     1      -5.613  19.842  68.104  1.00  0.00    -0.226 A  
HETATM   12  C   UNL     1      -7.399  21.202  67.179  1.00  0.00    -0.202 A  
HETATM   13  C   UNL     1      -7.877  15.545  69.430  1.00  0.00    -0.231 C  
HETATM   14  C   UNL     1      -6.061  21.030  67.519  1.00  0.00    -0.381 A  
HETATM   15  C   UNL     1      -6.551  18.821  68.335  1.00  0.00    -0.233 A  
ENDROOT
BRANCH   7  16
HETATM   16  C   UNL     1     -11.652  15.515  68.363  1.00  0.00    -0.357 C  
BRANCH  16  17
HETATM   17  N   UNL     1     -11.982  14.330  69.137  1.00  0.00    -0.335 NA 
HETATM   18  C   UNL     1     -11.789  13.038  68.723  1.00  0.00    -0.317 A  
HETATM   19  C   UNL     1     -12.160  12.261  69.793  1.00  0.00    -0.229 A  
HETATM   20  N   UNL     1     -12.598  13.041  70.827  1.00  0.00    -0.286 NA 
HETATM   21  C   UNL     1     -12.507  14.288  70.408  1.00  0.00    -0.362 A  
HETATM   22  C   UNL     1     -12.904  15.489  71.184  1.00  0.00    -0.551 C  
ENDBRANCH  16  17
ENDBRANCH   7  16
TORSDOF 2
ENDMDL
MODEL       50
REMARK 921   NORMALIZED FREE ENERGY PREDICTED BY IDOCK:   -6.11 KCAL/MOL
REMARK 922        TOTAL FREE ENERGY PREDICTED BY IDOCK:   -6.55 KCAL/MOL
REMARK 923 INTER-LIGAND FREE ENERGY PREDICTED BY IDOCK:   -6.10 KCAL/MOL
REMARK 924 INTRA-LIGAND FREE ENERGY PREDICTED BY IDOCK:   -0.45 KCAL/MOL
REMARK 927      BINDING AFFINITY PREDICTED BY RF-SCORE:    0.00 PKD
ROOT
HETATM    1  C   UNL     1     -11.141  16.500  64.779  1.00  0.00    -0.186 C  
HETATM    2  N   UNL     1     -10.344  15.631  65.619  1.00  0.00    -0.357 NA 
HETATM    3  C   UNL     1     -10.683  14.371  66.039  1.00  0.00    -0.302 A  
HETATM    4  C   UNL     1      -9.688  13.921  66.889  1.00  0.00    -0.268 A  
HETATM    5  C   UNL     1      -8.674  14.913  66.934  1.00  0.00    -0.276 A  
HETATM    6  C   UNL     1      -9.802  12.635  67.567  1.00  0.00    -0.203 C  
HETATM    7  C   UNL     1     -11.197  12.001  67.503  1.00  0.00    -0.357 C  
HETATM    8  C   UNL     1      -7.431  15.016  67.593  1.00  0.00    -0.202 A  
HETATM    9  O   UNL     1      -8.875  12.127  68.192  1.00  0.00    -0.176 OA 
HETATM   10  C   UNL     1     -11.755  12.140  66.068  1.00  0.00    -0.388 C  
HETATM   11  C   UNL     1      -8.355  17.158  66.005  1.00  0.00    -0.169 A  
HETATM   12  C   UNL     1      -6.670  16.180  67.453  1.00  0.00    -0.218 A  
HETATM   13  C   UNL     1     -11.923  13.621  65.680  1.00  0.00    -0.422 C  
HETATM   14  C   UNL     1      -7.130  17.236  66.674  1.00  0.00    -0.279 A  
HETATM   15  C   UNL     1      -9.114  15.984  66.146  1.00  0.00    -0.351 A  
ENDROOT
BRANCH   7  16
HETATM   16  C   UNL     1     -11.132  10.555  67.996  1.00  0.00    -0.300 C  
BRANCH  16  17
HETATM   17  N   UNL     1     -11.531  10.405  69.385  1.00  0.00    -0.242 NA 
HETATM   18  C   UNL     1     -12.713  10.848  69.919  1.00  0.00    -0.045 A  
HETATM   19  C   UNL     1     -12.699  10.419  71.224  1.00  0.00    -0.432 A  
HETATM   20  N   UNL     1     -11.534   9.759  71.502  1.00  0.00    -0.366 NA 
HETATM   21  C   UNL     1     -10.829   9.778  70.388  1.00  0.00    -0.311 A  
HETATM   22  C   UNL     1      -9.469   9.206  70.219  1.00  0.00    -0.253 C  
ENDBRANCH  16  17
ENDBRANCH   7  16
TORSDOF 2
ENDMDL
MODEL       51
REMARK 921   NORMALIZED FREE ENERGY PREDICTED BY IDOCK:   -6.10 KCAL/MOL
REMARK 922        TOTAL FREE ENERGY PREDICTED BY IDOCK:   -6.55 KCAL/MOL
REMARK 923 INTER-LIGAND FREE ENERGY PREDICTED BY IDOCK:   -6.46 KCAL/MOL
REMARK 924 INTRA-LIGAND FREE ENERGY PREDICTED BY IDOCK:   -0.09 KCAL/MOL
REMARK 927      BINDING AFFINITY PREDICTED BY RF-SCORE:    0.00 PKD
ROOT
HETATM    1  C   UNL     1     -12.358   8.785  71.214  1.00  0.00    -0.270 C  
HETATM    2  N   UNL     1     -12.038  10.045  70.577  1.00  0.00    -0.269 NA 
HETATM    3  C   UNL     1     -11.211  10.224  69.498  1.00  0.00    -0.261 A  
HETATM    4  C   UNL     1     -11.110  11.583  69.257  1.00  0.00    -0.305 A  
HETATM    5  C   UNL     1     -11.960  12.252  70.177  1.00  0.00    -0.377 A  
HETATM    6  C   UNL     1     -10.231  12.100  68.214  1.00  0.00    -0.208 C  
HETATM    7  C   UNL     1      -9.240  11.075  67.649  1.00  0.00    -0.151 C  
HETATM    8  C   UNL     1     -12.289  13.604  70.403  1.00  0.00    -0.415 A  
HETATM    9  O   UNL     1     -10.238  13.275  67.858  1.00  0.00    -0.222 OA 
HETATM   10  C   UNL     1      -9.972   9.734  67.411  1.00  0.00    -0.239 C  
HETATM   11  C   UNL     1     -13.384  11.600  72.061  1.00  0.00    -0.405 A  
HETATM   12  C   UNL     1     -13.155  13.938  71.448  1.00  0.00    -0.413 A  
HETATM   13  C   UNL     1     -10.507   9.152  68.733  1.00  0.00    -0.236 C  
HETATM   14  C   UNL     1     -13.690  12.949  72.267  1.00  0.00    -0.553 A  
HETATM   15  C   UNL     1     -12.516  11.270  71.006  1.00  0.00    -0.400 A  
ENDROOT
BRANCH   7  16
HETATM   16  C   UNL     1      -8.572  11.638  66.395  1.00  0.00    -0.143 C  
BRANCH  16  17
HETATM   17  N   UNL     1      -9.356  11.438  65.188  1.00  0.00    -0.191 NA 
HETATM   18  C   UNL     1     -10.442  12.188  64.820  1.00  0.00    -0.294 A  
HETATM   19  C   UNL     1     -10.809  11.705  63.588  1.00  0.00    -0.432 A  
HETATM   20  N   UNL     1      -9.999  10.669  63.215  1.00  0.00    -0.306 NA 
HETATM   21  C   UNL     1      -9.141  10.503  64.202  1.00  0.00    -0.231 A  
HETATM   22  C   UNL     1      -8.081   9.465  64.258  1.00  0.00    -0.140 C  
ENDBRANCH  16  17
ENDBRANCH   7  16
TORSDOF 2
ENDMDL
MODEL       52
REMARK 921   NORMALIZED FREE ENERGY PREDICTED BY IDOCK:   -6.09 KCAL/MOL
REMARK 922        TOTAL FREE ENERGY PREDICTED BY IDOCK:   -6.53 KCAL/MOL
REMARK 923 INTER-LIGAND FREE ENERGY PREDICTED BY IDOCK:   -6.15 KCAL/MOL
REMARK 924 INTRA-LIGAND FREE ENERGY PREDICTED BY IDOCK:   -0.38 KCAL/MOL
REMARK 927      BINDING AFFINITY PREDICTED BY RF-SCORE:    0.00 PKD
ROOT
HETATM    1  C   UNL     1     -12.742  10.402  71.591  1.00  0.00    -0.455 C  
HETATM    2  N   UNL     1     -12.417  11.662  70.956  1.00  0.00    -0.374 NA 
HETATM    3  C   UNL     1     -11.559  11.845  69.903  1.00  0.00    -0.256 A  
HETATM    4  C   UNL     1     -11.467  13.205  69.657  1.00  0.00    -0.261 A  
HETATM    5  C   UNL     1     -12.354  13.867  70.545  1.00  0.00    -0.439 A  
HETATM    6  C   UNL     1     -10.562  13.726  68.639  1.00  0.00    -0.253 C  
HETATM    7  C   UNL     1      -9.541  12.710  68.113  1.00  0.00    -0.219 C  
HETATM    8  C   UNL     1     -12.707  15.217  70.752  1.00  0.00    -0.463 A  
HETATM    9  O   UNL     1     -10.572  14.898  68.276  1.00  0.00    -0.233 OA 
HETATM   10  C   UNL     1     -10.248  11.359  67.859  1.00  0.00    -0.201 C  
HETATM   11  C   UNL     1     -13.829  13.209  72.387  1.00  0.00    -0.583 A  
HETATM   12  C   UNL     1     -13.610  15.546  71.767  1.00  0.00    -0.578 A  
HETATM   13  C   UNL     1     -10.818  10.778  69.168  1.00  0.00    -0.281 C  
HETATM   14  C   UNL     1     -14.158  14.555  72.575  1.00  0.00    -0.435 A  
HETATM   15  C   UNL     1     -12.924  12.884  71.363  1.00  0.00    -0.270 A  
ENDROOT
BRANCH   7  16
HETATM   16  C   UNL     1      -8.840  13.274  66.877  1.00  0.00    -0.178 C  
BRANCH  16  17
HETATM   17  N   UNL     1      -7.588  13.946  67.184  1.00  0.00    -0.041 NA 
HETATM   18  C   UNL     1      -6.493  13.352  67.754  1.00  0.00    -0.162 A  
HETATM   19  C   UNL     1      -5.529  14.331  67.779  1.00  0.00    -0.014 A  
HETATM   20  N   UNL     1      -6.018  15.502  67.271  1.00  0.00    -0.324 NA 
HETATM   21  C   UNL     1      -7.270  15.261  66.937  1.00  0.00     0.221 A  
HETATM   22  C   UNL     1      -8.217  16.253  66.369  1.00  0.00    -0.354 C  
ENDBRANCH  16  17
ENDBRANCH   7  16
TORSDOF 2
ENDMDL
MODEL       53
REMARK 921   NORMALIZED FREE ENERGY PREDICTED BY IDOCK:   -6.08 KCAL/MOL
REMARK 922        TOTAL FREE ENERGY PREDICTED BY IDOCK:   -6.52 KCAL/MOL
REMARK 923 INTER-LIGAND FREE ENERGY PREDICTED BY IDOCK:   -6.17 KCAL/MOL
REMARK 924 INTRA-LIGAND FREE ENERGY PREDICTED BY IDOCK:   -0.35 KCAL/MOL
REMARK 927      BINDING AFFINITY PREDICTED BY RF-SCORE:    0.00 PKD
ROOT
HETATM    1  C   UNL     1     -10.315  19.761  66.185  1.00  0.00    -0.524 C  
HETATM    2  N   UNL     1      -9.529  18.652  66.681  1.00  0.00    -0.309 NA 
HETATM    3  C   UNL     1      -9.714  17.327  66.384  1.00  0.00    -0.290 A  
HETATM    4  C   UNL     1      -8.807  16.590  67.127  1.00  0.00    -0.213 A  
HETATM    5  C   UNL     1      -7.995  17.504  67.849  1.00  0.00    -0.227 A  
HETATM    6  C   UNL     1      -8.810  15.133  67.089  1.00  0.00    -0.216 C  
HETATM    7  C   UNL     1     -10.049  14.514  66.431  1.00  0.00    -0.293 C  
HETATM    8  C   UNL     1      -6.910  17.360  68.739  1.00  0.00    -0.228 A  
HETATM    9  O   UNL     1      -7.923  14.452  67.597  1.00  0.00    -0.149 OA 
HETATM   10  C   UNL     1     -10.385  15.294  65.139  1.00  0.00    -0.413 C  
HETATM   11  C   UNL     1      -7.915  19.933  68.160  1.00  0.00    -0.297 A  
HETATM   12  C   UNL     1      -6.343  18.495  69.326  1.00  0.00    -0.272 A  
HETATM   13  C   UNL     1     -10.735  16.761  65.453  1.00  0.00    -0.201 C  
HETATM   14  C   UNL     1      -6.844  19.762  69.043  1.00  0.00    -0.372 A  
HETATM   15  C   UNL     1      -8.477  18.788  67.570  1.00  0.00    -0.270 A  
ENDROOT
BRANCH   7  16
HETATM   16  C   UNL     1      -9.821  13.020  66.201  1.00  0.00    -0.273 C  
BRANCH  16  17
HETATM   17  N   UNL     1     -10.456  12.181  67.203  1.00  0.00    -0.217 NA 
HETATM   18  C   UNL     1     -11.156  12.641  68.288  1.00  0.00    -0.261 A  
HETATM   19  C   UNL     1     -11.642  11.514  68.904  1.00  0.00    -0.320 A  
HETATM   20  N   UNL     1     -11.233  10.389  68.243  1.00  0.00    -0.285 NA 
HETATM   21  C   UNL     1     -10.498  10.807  67.231  1.00  0.00    -0.237 A  
HETATM   22  C   UNL     1      -9.810   9.934  66.247  1.00  0.00    -0.308 C  
ENDBRANCH  16  17
ENDBRANCH   7  16
TORSDOF 2
ENDMDL
MODEL       54
REMARK 921   NORMALIZED FREE ENERGY PREDICTED BY IDOCK:   -6.08 KCAL/MOL
REMARK 922        TOTAL FREE ENERGY PREDICTED BY IDOCK:   -6.52 KCAL/MOL
REMARK 923 INTER-LIGAND FREE ENERGY PREDICTED BY IDOCK:   -6.12 KCAL/MOL
REMARK 924 INTRA-LIGAND FREE ENERGY PREDICTED BY IDOCK:   -0.40 KCAL/MOL
REMARK 927      BINDING AFFINITY PREDICTED BY RF-SCORE:    0.00 PKD
ROOT
HETATM    1  C   UNL     1      -8.311   7.566  65.708  1.00  0.00    -0.142 C  
HETATM    2  N   UNL     1      -9.249   8.226  66.591  1.00  0.00    -0.167 NA 
HETATM    3  C   UNL     1      -9.911   9.400  66.342  1.00  0.00    -0.276 A  
HETATM    4  C   UNL     1     -10.644   9.726  67.471  1.00  0.00    -0.335 A  
HETATM    5  C   UNL     1     -10.478   8.677  68.413  1.00  0.00    -0.220 A  
HETATM    6  C   UNL     1     -11.399  10.971  67.546  1.00  0.00    -0.257 C  
HETATM    7  C   UNL     1     -11.068  11.984  66.443  1.00  0.00    -0.365 C  
HETATM    8  C   UNL     1     -10.981   8.434  69.708  1.00  0.00    -0.130 A  
HETATM    9  O   UNL     1     -12.189  11.218  68.452  1.00  0.00    -0.604 OA 
HETATM   10  C   UNL     1     -10.975  11.250  65.086  1.00  0.00    -0.216 C  
HETATM   11  C   UNL     1      -9.172   6.609  68.543  1.00  0.00    -0.127 A  
HETATM   12  C   UNL     1     -10.576   7.290  70.402  1.00  0.00    -0.240 A  
HETATM   13  C   UNL     1      -9.833  10.215  65.094  1.00  0.00    -0.394 C  
HETATM   14  C   UNL     1      -9.680   6.394  69.827  1.00  0.00    -0.172 A  
HETATM   15  C   UNL     1      -9.585   7.758  67.848  1.00  0.00    -0.146 A  
ENDROOT
BRANCH   7  16
HETATM   16  C   UNL     1     -12.096  13.117  66.455  1.00  0.00    -0.358 C  
BRANCH  16  17
HETATM   17  N   UNL     1     -11.638  14.299  67.165  1.00  0.00    -0.361 NA 
HETATM   18  C   UNL     1     -12.024  14.659  68.430  1.00  0.00    -0.254 A  
HETATM   19  C   UNL     1     -11.287  15.781  68.722  1.00  0.00    -0.362 A  
HETATM   20  N   UNL     1     -10.493  16.126  67.664  1.00  0.00    -0.286 NA 
HETATM   21  C   UNL     1     -10.733  15.235  66.722  1.00  0.00    -0.313 A  
HETATM   22  C   UNL     1     -10.120  15.224  65.370  1.00  0.00    -0.397 C  
ENDBRANCH  16  17
ENDBRANCH   7  16
TORSDOF 2
ENDMDL
MODEL       55
REMARK 921   NORMALIZED FREE ENERGY PREDICTED BY IDOCK:   -6.06 KCAL/MOL
REMARK 922        TOTAL FREE ENERGY PREDICTED BY IDOCK:   -6.50 KCAL/MOL
REMARK 923 INTER-LIGAND FREE ENERGY PREDICTED BY IDOCK:   -6.16 KCAL/MOL
REMARK 924 INTRA-LIGAND FREE ENERGY PREDICTED BY IDOCK:   -0.34 KCAL/MOL
REMARK 927      BINDING AFFINITY PREDICTED BY RF-SCORE:    0.00 PKD
ROOT
HETATM    1  C   UNL     1     -12.546  14.635  70.256  1.00  0.00    -0.318 C  
HETATM    2  N   UNL     1     -12.114  13.484  69.492  1.00  0.00    -0.317 NA 
HETATM    3  C   UNL     1     -12.040  12.192  69.941  1.00  0.00    -0.253 A  
HETATM    4  C   UNL     1     -11.501  11.417  68.928  1.00  0.00    -0.363 A  
HETATM    5  C   UNL     1     -11.306  12.254  67.799  1.00  0.00    -0.362 A  
HETATM    6  C   UNL     1     -11.221  10.000  69.132  1.00  0.00    -0.149 C  
HETATM    7  C   UNL     1     -11.279   9.542  70.594  1.00  0.00    -0.364 C  
HETATM    8  C   UNL     1     -10.820  12.040  66.493  1.00  0.00    -0.314 A  
HETATM    9  O   UNL     1     -10.904   9.246  68.216  1.00  0.00    -0.179 OA 
HETATM   10  C   UNL     1     -12.521  10.161  71.275  1.00  0.00    -0.510 C  
HETATM   11  C   UNL     1     -11.570  14.638  67.300  1.00  0.00    -0.404 A  
HETATM   12  C   UNL     1     -10.714  13.119  65.610  1.00  0.00    -0.294 A  
HETATM   13  C   UNL     1     -12.431  11.699  71.296  1.00  0.00    -0.371 C  
HETATM   14  C   UNL     1     -11.080  14.400  66.012  1.00  0.00    -0.324 A  
HETATM   15  C   UNL     1     -11.678  13.549  68.181  1.00  0.00    -0.361 A  
ENDROOT
BRANCH   7  16
HETATM   16  C   UNL     1     -11.244   8.015  70.660  1.00  0.00    -0.261 C  
BRANCH  16  17
HETATM   17  N   UNL     1      -9.907   7.479  70.854  1.00  0.00    -0.177 NA 
HETATM   18  C   UNL     1      -9.134   6.915  69.874  1.00  0.00    -0.144 A  
HETATM   19  C   UNL     1      -7.936   6.631  70.483  1.00  0.00    -0.111 A  
HETATM   20  N   UNL     1      -7.973   6.978  71.805  1.00  0.00    -0.098 NA 
HETATM   21  C   UNL     1      -9.178   7.467  72.020  1.00  0.00    -0.132 A  
HETATM   22  C   UNL     1      -9.693   7.948  73.327  1.00  0.00    -0.352 C  
ENDBRANCH  16  17
ENDBRANCH   7  16
TORSDOF 2
ENDMDL
MODEL       56
REMARK 921   NORMALIZED FREE ENERGY PREDICTED BY IDOCK:   -6.05 KCAL/MOL
REMARK 922        TOTAL FREE ENERGY PREDICTED BY IDOCK:   -6.49 KCAL/MOL
REMARK 923 INTER-LIGAND FREE ENERGY PREDICTED BY IDOCK:   -6.03 KCAL/MOL
REMARK 924 INTRA-LIGAND FREE ENERGY PREDICTED BY IDOCK:   -0.46 KCAL/MOL
REMARK 927      BINDING AFFINITY PREDICTED BY RF-SCORE:    0.00 PKD
ROOT
HETATM    1  C   UNL     1     -11.233   6.321  69.536  1.00  0.00    -0.430 C  
HETATM    2  N   UNL     1     -10.565   6.770  68.333  1.00  0.00    -0.210 NA 
HETATM    3  C   UNL     1     -10.421   8.068  67.919  1.00  0.00    -0.197 A  
HETATM    4  C   UNL     1      -9.797   8.057  66.683  1.00  0.00    -0.322 A  
HETATM    5  C   UNL     1      -9.489   6.708  66.365  1.00  0.00    -0.166 A  
HETATM    6  C   UNL     1      -9.575   9.292  65.940  1.00  0.00    -0.275 C  
HETATM    7  C   UNL     1     -10.338  10.508  66.480  1.00  0.00    -0.294 C  
HETATM    8  C   UNL     1      -8.849   6.080  65.277  1.00  0.00     0.005 A  
HETATM    9  O   UNL     1      -8.883   9.345  64.928  1.00  0.00    -0.182 OA 
HETATM   10  C   UNL     1     -10.230  10.535  68.023  1.00  0.00    -0.195 C  
HETATM   11  C   UNL     1      -9.891   4.517  67.383  1.00  0.00    -0.204 A  
HETATM   12  C   UNL     1      -8.739   4.686  65.252  1.00  0.00    -0.137 A  
HETATM   13  C   UNL     1     -10.885   9.288  68.646  1.00  0.00    -0.120 C  
HETATM   14  C   UNL     1      -9.257   3.918  66.290  1.00  0.00    -0.167 A  
HETATM   15  C   UNL     1      -9.995   5.918  67.404  1.00  0.00    -0.149 A  
ENDROOT
BRANCH   7  16
HETATM   16  C   UNL     1      -9.825  11.782  65.809  1.00  0.00    -0.240 C  
BRANCH  16  17
HETATM   17  N   UNL     1     -10.839  12.465  65.024  1.00  0.00    -0.285 NA 
HETATM   18  C   UNL     1     -11.011  12.333  63.671  1.00  0.00    -0.471 A  
HETATM   19  C   UNL     1     -12.122  13.085  63.377  1.00  0.00    -0.515 A  
HETATM   20  N   UNL     1     -12.606  13.690  64.503  1.00  0.00    -0.643 NA 
HETATM   21  C   UNL     1     -11.807  13.326  65.486  1.00  0.00    -0.370 A  
HETATM   22  C   UNL     1     -11.923  13.765  66.900  1.00  0.00    -0.460 C  
ENDBRANCH  16  17
ENDBRANCH   7  16
TORSDOF 2
ENDMDL
MODEL       57
REMARK 921   NORMALIZED FREE ENERGY PREDICTED BY IDOCK:   -6.03 KCAL/MOL
REMARK 922        TOTAL FREE ENERGY PREDICTED BY IDOCK:   -6.47 KCAL/MOL
REMARK 923 INTER-LIGAND FREE ENERGY PREDICTED BY IDOCK:   -6.50 KCAL/MOL
REMARK 924 INTRA-LIGAND FREE ENERGY PREDICTED BY IDOCK:    0.04 KCAL/MOL
REMARK 927      BINDING AFFINITY PREDICTED BY RF-SCORE:    0.00 PKD
ROOT
HETATM    1  C   UNL     1      -6.879   9.924  69.068  1.00  0.00    -0.054 C  
HETATM    2  N   UNL     1      -8.288  10.219  69.222  1.00  0.00    -0.153 NA 
HETATM    3  C   UNL     1      -9.013  11.126  68.494  1.00  0.00    -0.168 A  
HETATM    4  C   UNL     1     -10.297  11.162  69.011  1.00  0.00    -0.214 A  
HETATM    5  C   UNL     1     -10.375  10.193  70.045  1.00  0.00    -0.301 A  
HETATM    6  C   UNL     1     -11.290  12.097  68.495  1.00  0.00    -0.275 C  
HETATM    7  C   UNL     1     -10.722  13.197  67.590  1.00  0.00    -0.250 C  
HETATM    8  C   UNL     1     -11.404   9.760  70.907  1.00  0.00    -0.439 A  
HETATM    9  O   UNL     1     -12.477  12.047  68.807  1.00  0.00    -0.085 OA 
HETATM   10  C   UNL     1      -9.703  12.575  66.608  1.00  0.00    -0.244 C  
HETATM   11  C   UNL     1      -8.820   8.650  71.142  1.00  0.00    -0.249 A  
HETATM   12  C   UNL     1     -11.133   8.785  71.871  1.00  0.00    -0.434 A  
HETATM   13  C   UNL     1      -8.509  11.962  67.364  1.00  0.00    -0.166 C  
HETATM   14  C   UNL     1      -9.857   8.243  71.988  1.00  0.00    -0.327 A  
HETATM   15  C   UNL     1      -9.100   9.628  70.173  1.00  0.00    -0.240 A  
ENDROOT
BRANCH   7  16
HETATM   16  C   UNL     1     -11.866  13.938  66.897  1.00  0.00    -0.423 C  
BRANCH  16  17
HETATM   17  N   UNL     1     -12.055  13.536  65.513  1.00  0.00    -0.392 NA 
HETATM   18  C   UNL     1     -12.340  12.263  65.094  1.00  0.00    -0.205 A  
HETATM   19  C   UNL     1     -12.514  12.364  63.735  1.00  0.00    -0.492 A  
HETATM   20  N   UNL     1     -12.313  13.651  63.319  1.00  0.00    -0.739 NA 
HETATM   21  C   UNL     1     -12.014  14.343  64.400  1.00  0.00    -0.452 A  
HETATM   22  C   UNL     1     -11.682  15.789  64.434  1.00  0.00    -0.201 C  
ENDBRANCH  16  17
ENDBRANCH   7  16
TORSDOF 2
ENDMDL
MODEL       58
REMARK 921   NORMALIZED FREE ENERGY PREDICTED BY IDOCK:   -5.96 KCAL/MOL
REMARK 922        TOTAL FREE ENERGY PREDICTED BY IDOCK:   -6.39 KCAL/MOL
REMARK 923 INTER-LIGAND FREE ENERGY PREDICTED BY IDOCK:   -6.34 KCAL/MOL
REMARK 924 INTRA-LIGAND FREE ENERGY PREDICTED BY IDOCK:   -0.05 KCAL/MOL
REMARK 927      BINDING AFFINITY PREDICTED BY RF-SCORE:    0.00 PKD
ROOT
HETATM    1  C   UNL     1      -6.736  17.707  69.036  1.00  0.00    -0.250 C  
HETATM    2  N   UNL     1      -7.905  17.433  68.226  1.00  0.00    -0.237 NA 
HETATM    3  C   UNL     1      -8.395  16.196  67.900  1.00  0.00    -0.161 A  
HETATM    4  C   UNL     1      -9.471  16.374  67.046  1.00  0.00    -0.240 A  
HETATM    5  C   UNL     1      -9.685  17.770  66.904  1.00  0.00    -0.300 A  
HETATM    6  C   UNL     1     -10.160  15.233  66.456  1.00  0.00    -0.270 C  
HETATM    7  C   UNL     1      -9.426  13.895  66.607  1.00  0.00    -0.296 C  
HETATM    8  C   UNL     1     -10.624  18.550  66.197  1.00  0.00    -0.377 A  
HETATM    9  O   UNL     1     -11.213  15.340  65.833  1.00  0.00    -0.322 OA 
HETATM   10  C   UNL     1      -8.880  13.772  68.049  1.00  0.00    -0.182 C  
HETATM   11  C   UNL     1      -8.581  19.815  67.676  1.00  0.00    -0.376 A  
HETATM   12  C   UNL     1     -10.531  19.945  66.236  1.00  0.00    -0.590 A  
HETATM   13  C   UNL     1      -7.851  14.880  68.347  1.00  0.00    -0.121 C  
HETATM   14  C   UNL     1      -9.520  20.566  66.963  1.00  0.00    -0.516 A  
HETATM   15  C   UNL     1      -8.681  18.414  67.636  1.00  0.00    -0.260 A  
ENDROOT
BRANCH   7  16
HETATM   16  C   UNL     1     -10.352  12.747  66.205  1.00  0.00    -0.269 C  
BRANCH  16  17
HETATM   17  N   UNL     1     -10.908  12.033  67.342  1.00  0.00    -0.232 NA 
HETATM   18  C   UNL     1     -11.751  12.574  68.277  1.00  0.00    -0.340 A  
HETATM   19  C   UNL     1     -12.084  11.529  69.105  1.00  0.00    -0.263 A  
HETATM   20  N   UNL     1     -11.447  10.384  68.715  1.00  0.00    -0.215 NA 
HETATM   21  C   UNL     1     -10.721  10.709  67.663  1.00  0.00    -0.267 A  
HETATM   22  C   UNL     1      -9.828   9.790  66.915  1.00  0.00    -0.256 C  
ENDBRANCH  16  17
ENDBRANCH   7  16
TORSDOF 2
ENDMDL
MODEL       59
REMARK 921   NORMALIZED FREE ENERGY PREDICTED BY IDOCK:   -5.92 KCAL/MOL
REMARK 922        TOTAL FREE ENERGY PREDICTED BY IDOCK:   -6.34 KCAL/MOL
REMARK 923 INTER-LIGAND FREE ENERGY PREDICTED BY IDOCK:   -5.89 KCAL/MOL
REMARK 924 INTRA-LIGAND FREE ENERGY PREDICTED BY IDOCK:   -0.45 KCAL/MOL
REMARK 927      BINDING AFFINITY PREDICTED BY RF-SCORE:    0.00 PKD
ROOT
HETATM    1  C   UNL     1      -8.723   7.914  68.140  1.00  0.00    -0.126 C  
HETATM    2  N   UNL     1      -9.727   8.419  69.052  1.00  0.00    -0.168 NA 
HETATM    3  C   UNL     1     -10.428   9.590  68.922  1.00  0.00    -0.216 A  
HETATM    4  C   UNL     1     -11.223   9.739  70.045  1.00  0.00    -0.297 A  
HETATM    5  C   UNL     1     -11.052   8.585  70.854  1.00  0.00    -0.295 A  
HETATM    6  C   UNL     1     -12.034  10.936  70.240  1.00  0.00    -0.361 C  
HETATM    7  C   UNL     1     -11.700  12.094  69.291  1.00  0.00    -0.386 C  
HETATM    8  C   UNL     1     -11.601   8.160  72.082  1.00  0.00    -0.417 A  
HETATM    9  O   UNL     1     -12.874  11.034  71.130  1.00  0.00    -0.377 OA 
HETATM   10  C   UNL     1     -11.515  11.544  67.858  1.00  0.00    -0.372 C  
HETATM   11  C   UNL     1      -9.664   6.569  70.785  1.00  0.00    -0.194 A  
HETATM   12  C   UNL     1     -11.177   6.952  72.645  1.00  0.00    -0.297 A  
HETATM   13  C   UNL     1     -10.331  10.561  67.791  1.00  0.00    -0.248 C  
HETATM   14  C   UNL     1     -10.219   6.172  72.006  1.00  0.00    -0.223 A  
HETATM   15  C   UNL     1     -10.096   7.781  70.222  1.00  0.00    -0.195 A  
ENDROOT
BRANCH   7  16
HETATM   16  C   UNL     1     -12.776  13.175  69.397  1.00  0.00     0.635 C  
BRANCH  16  17
HETATM   17  N   UNL     1     -12.323  14.369  70.091  1.00  0.00    -0.338 NA 
HETATM   18  C   UNL     1     -11.268  15.153  69.705  1.00  0.00    -0.279 A  
HETATM   19  C   UNL     1     -11.259  16.202  70.593  1.00  0.00    -0.348 A  
HETATM   20  N   UNL     1     -12.255  16.059  71.518  1.00  0.00    -0.452 NA 
HETATM   21  C   UNL     1     -12.875  14.935  71.216  1.00  0.00    -0.348 A  
HETATM   22  C   UNL     1     -14.013  14.349  71.968  1.00  0.00    -0.592 C  
ENDBRANCH  16  17
ENDBRANCH   7  16
TORSDOF 2
ENDMDL
MODEL       60
REMARK 921   NORMALIZED FREE ENERGY PREDICTED BY IDOCK:   -5.91 KCAL/MOL
REMARK 922        TOTAL FREE ENERGY PREDICTED BY IDOCK:   -6.34 KCAL/MOL
REMARK 923 INTER-LIGAND FREE ENERGY PREDICTED BY IDOCK:   -5.89 KCAL/MOL
REMARK 924 INTRA-LIGAND FREE ENERGY PREDICTED BY IDOCK:   -0.45 KCAL/MOL
REMARK 927      BINDING AFFINITY PREDICTED BY RF-SCORE:    0.00 PKD
ROOT
HETATM    1  C   UNL     1      -8.157   7.492  64.453  1.00  0.00    -0.074 C  
HETATM    2  N   UNL     1      -8.869   8.491  65.222  1.00  0.00    -0.145 NA 
HETATM    3  C   UNL     1      -9.168   8.428  66.557  1.00  0.00    -0.189 A  
HETATM    4  C   UNL     1      -9.927   9.540  66.879  1.00  0.00    -0.278 A  
HETATM    5  C   UNL     1     -10.035  10.344  65.714  1.00  0.00    -0.334 A  
HETATM    6  C   UNL     1     -10.471   9.718  68.221  1.00  0.00    -0.216 C  
HETATM    7  C   UNL     1     -10.397   8.471  69.110  1.00  0.00    -0.227 C  
HETATM    8  C   UNL     1     -10.651  11.580  65.429  1.00  0.00    -0.336 A  
HETATM    9  O   UNL     1     -11.003  10.761  68.591  1.00  0.00    -0.204 OA 
HETATM   10  C   UNL     1      -9.008   7.812  68.951  1.00  0.00    -0.141 C  
HETATM   11  C   UNL     1      -9.333  10.165  63.374  1.00  0.00    -0.334 A  
HETATM   12  C   UNL     1     -10.603  12.092  64.129  1.00  0.00    -0.398 A  
HETATM   13  C   UNL     1      -8.783   7.338  67.502  1.00  0.00    -0.121 C  
HETATM   14  C   UNL     1      -9.957  11.390  63.116  1.00  0.00    -0.402 A  
HETATM   15  C   UNL     1      -9.381   9.658  64.683  1.00  0.00    -0.207 A  
ENDROOT
BRANCH   7  16
HETATM   16  C   UNL     1     -10.734   8.845  70.554  1.00  0.00    -0.230 C  
BRANCH  16  17
HETATM   17  N   UNL     1     -12.016   8.323  70.997  1.00  0.00    -0.278 NA 
HETATM   18  C   UNL     1     -12.328   6.995  71.119  1.00  0.00    -0.378 A  
HETATM   19  C   UNL     1     -13.598   6.972  71.642  1.00  0.00    -0.252 A  
HETATM   20  N   UNL     1     -14.073   8.244  71.810  1.00  0.00    -0.415 NA 
HETATM   21  C   UNL     1     -13.115   9.049  71.394  1.00  0.00    -0.284 A  
HETATM   22  C   UNL     1     -13.191  10.531  71.358  1.00  0.00    -0.441 C  
ENDBRANCH  16  17
ENDBRANCH   7  16
TORSDOF 2
ENDMDL
MODEL       61
REMARK 921   NORMALIZED FREE ENERGY PREDICTED BY IDOCK:   -5.88 KCAL/MOL
REMARK 922        TOTAL FREE ENERGY PREDICTED BY IDOCK:   -6.30 KCAL/MOL
REMARK 923 INTER-LIGAND FREE ENERGY PREDICTED BY IDOCK:   -5.94 KCAL/MOL
REMARK 924 INTRA-LIGAND FREE ENERGY PREDICTED BY IDOCK:   -0.36 KCAL/MOL
REMARK 927      BINDING AFFINITY PREDICTED BY RF-SCORE:    0.00 PKD
ROOT
HETATM    1  C   UNL     1     -11.663  12.916  63.467  1.00  0.00    -0.512 C  
HETATM    2  N   UNL     1     -10.927  12.999  64.711  1.00  0.00    -0.311 NA 
HETATM    3  C   UNL     1     -10.544  11.947  65.500  1.00  0.00    -0.269 A  
HETATM    4  C   UNL     1      -9.939  12.461  66.635  1.00  0.00    -0.236 A  
HETATM    5  C   UNL     1      -9.890  13.873  66.498  1.00  0.00    -0.296 A  
HETATM    6  C   UNL     1      -9.492  11.585  67.712  1.00  0.00    -0.168 C  
HETATM    7  C   UNL     1     -10.011  10.145  67.621  1.00  0.00    -0.216 C  
HETATM    8  C   UNL     1      -9.384  14.918  67.299  1.00  0.00    -0.210 A  
HETATM    9  O   UNL     1      -8.806  11.981  68.650  1.00  0.00    -0.132 OA 
HETATM   10  C   UNL     1      -9.893   9.650  66.161  1.00  0.00    -0.334 C  
HETATM   11  C   UNL     1     -10.692  15.519  64.872  1.00  0.00    -0.415 A  
HETATM   12  C   UNL     1      -9.538  16.243  66.881  1.00  0.00    -0.244 A  
HETATM   13  C   UNL     1     -10.768  10.498  65.217  1.00  0.00    -0.019 C  
HETATM   14  C   UNL     1     -10.187  16.537  65.686  1.00  0.00    -0.316 A  
HETATM   15  C   UNL     1     -10.532  14.189  65.295  1.00  0.00    -0.384 A  
ENDROOT
BRANCH   7  16
HETATM   16  C   UNL     1      -9.270   9.263  68.627  1.00  0.00    -0.135 C  
BRANCH  16  17
HETATM   17  N   UNL     1     -10.118   8.256  69.240  1.00  0.00    -0.194 NA 
HETATM   18  C   UNL     1     -10.307   6.985  68.762  1.00  0.00    -0.187 A  
HETATM   19  C   UNL     1     -11.107   6.369  69.693  1.00  0.00    -0.401 A  
HETATM   20  N   UNL     1     -11.431   7.235  70.700  1.00  0.00    -0.290 NA 
HETATM   21  C   UNL     1     -10.846   8.378  70.401  1.00  0.00    -0.235 A  
HETATM   22  C   UNL     1     -10.942   9.629  71.195  1.00  0.00    -0.430 C  
ENDBRANCH  16  17
ENDBRANCH   7  16
TORSDOF 2
ENDMDL
MODEL       62
REMARK 921   NORMALIZED FREE ENERGY PREDICTED BY IDOCK:   -5.87 KCAL/MOL
REMARK 922        TOTAL FREE ENERGY PREDICTED BY IDOCK:   -6.29 KCAL/MOL
REMARK 923 INTER-LIGAND FREE ENERGY PREDICTED BY IDOCK:   -5.91 KCAL/MOL
REMARK 924 INTRA-LIGAND FREE ENERGY PREDICTED BY IDOCK:   -0.38 KCAL/MOL
REMARK 927      BINDING AFFINITY PREDICTED BY RF-SCORE:    0.00 PKD
ROOT
HETATM    1  C   UNL     1     -11.648  14.559  65.934  1.00  0.00    -0.349 C  
HETATM    2  N   UNL     1     -10.536  13.946  66.629  1.00  0.00    -0.270 NA 
HETATM    3  C   UNL     1     -10.526  12.707  67.214  1.00  0.00    -0.228 A  
HETATM    4  C   UNL     1      -9.303  12.538  67.841  1.00  0.00    -0.200 A  
HETATM    5  C   UNL     1      -8.515  13.688  67.569  1.00  0.00    -0.190 A  
HETATM    6  C   UNL     1      -9.017  11.343  68.625  1.00  0.00    -0.131 C  
HETATM    7  C   UNL     1     -10.243  10.477  68.939  1.00  0.00    -0.223 C  
HETATM    8  C   UNL     1      -7.204  14.079  67.910  1.00  0.00    -0.164 A  
HETATM    9  O   UNL     1      -7.897  11.079  69.054  1.00  0.00    -0.138 OA 
HETATM   10  C   UNL     1     -11.114  10.344  67.668  1.00  0.00    -0.361 C  
HETATM   11  C   UNL     1      -8.845  15.825  66.419  1.00  0.00    -0.371 A  
HETATM   12  C   UNL     1      -6.730  15.331  67.505  1.00  0.00    -0.197 A  
HETATM   13  C   UNL     1     -11.645  11.718  67.215  1.00  0.00    -0.344 C  
HETATM   14  C   UNL     1      -7.543  16.192  66.774  1.00  0.00    -0.268 A  
HETATM   15  C   UNL     1      -9.314  14.564  66.825  1.00  0.00    -0.261 A  
ENDROOT
BRANCH   7  16
HETATM   16  C   UNL     1      -9.794   9.133  69.515  1.00  0.00    -0.178 C  
BRANCH  16  17
HETATM   17  N   UNL     1     -10.705   8.606  70.517  1.00  0.00    -0.216 NA 
HETATM   18  C   UNL     1     -11.062   9.248  71.674  1.00  0.00    -0.368 A  
HETATM   19  C   UNL     1     -11.992   8.427  72.265  1.00  0.00    -0.389 A  
HETATM   20  N   UNL     1     -12.184   7.299  71.517  1.00  0.00    -0.332 NA 
HETATM   21  C   UNL     1     -11.383   7.410  70.476  1.00  0.00    -0.271 A  
HETATM   22  C   UNL     1     -11.224   6.401  69.399  1.00  0.00    -0.459 C  
ENDBRANCH  16  17
ENDBRANCH   7  16
TORSDOF 2
ENDMDL
MODEL       63
REMARK 921   NORMALIZED FREE ENERGY PREDICTED BY IDOCK:   -5.85 KCAL/MOL
REMARK 922        TOTAL FREE ENERGY PREDICTED BY IDOCK:   -6.26 KCAL/MOL
REMARK 923 INTER-LIGAND FREE ENERGY PREDICTED BY IDOCK:   -5.80 KCAL/MOL
REMARK 924 INTRA-LIGAND FREE ENERGY PREDICTED BY IDOCK:   -0.47 KCAL/MOL
REMARK 927      BINDING AFFINITY PREDICTED BY RF-SCORE:    0.00 PKD
ROOT
HETATM    1  C   UNL     1      -7.165   7.831  70.365  1.00  0.00    -0.058 C  
HETATM    2  N   UNL     1      -8.456   7.984  71.003  1.00  0.00    -0.123 NA 
HETATM    3  C   UNL     1      -9.446   8.856  70.634  1.00  0.00    -0.214 A  
HETATM    4  C   UNL     1     -10.478   8.745  71.550  1.00  0.00    -0.373 A  
HETATM    5  C   UNL     1     -10.133   7.719  72.469  1.00  0.00    -0.301 A  
HETATM    6  C   UNL     1     -11.651   9.609  71.472  1.00  0.00    -0.381 C  
HETATM    7  C   UNL     1     -11.501  10.803  70.522  1.00  0.00    -0.367 C  
HETATM    8  C   UNL     1     -10.777   7.147  73.585  1.00  0.00    -0.302 A  
HETATM    9  O   UNL     1     -12.655   9.432  72.156  1.00  0.00    -0.368 OA 
HETATM   10  C   UNL     1     -10.834  10.332  69.210  1.00  0.00    -0.275 C  
HETATM   11  C   UNL     1      -8.195   6.273  72.857  1.00  0.00    -0.115 A  
HETATM   12  C   UNL     1     -10.127   6.152  74.322  1.00  0.00    -0.322 A  
HETATM   13  C   UNL     1      -9.414   9.795  69.472  1.00  0.00    -0.226 C  
HETATM   14  C   UNL     1      -8.852   5.726  73.963  1.00  0.00    -0.123 A  
HETATM   15  C   UNL     1      -8.854   7.270  72.119  1.00  0.00    -0.127 A  
ENDROOT
BRANCH   7  16
HETATM   16  C   UNL     1     -12.861  11.470  70.311  1.00  0.00     0.116 C  
BRANCH  16  17
HETATM   17  N   UNL     1     -12.998  12.731  71.021  1.00  0.00    -0.156 NA 
HETATM   18  C   UNL     1     -13.535  12.876  72.273  1.00  0.00    -0.531 A  
HETATM   19  C   UNL     1     -13.386  14.209  72.573  1.00  0.00    -0.518 A  
HETATM   20  N   UNL     1     -12.804  14.875  71.531  1.00  0.00    -0.312 NA 
HETATM   21  C   UNL     1     -12.597  13.974  70.591  1.00  0.00    -0.344 A  
HETATM   22  C   UNL     1     -12.011  14.242  69.254  1.00  0.00    -0.375 C  
ENDBRANCH  16  17
ENDBRANCH   7  16
TORSDOF 2
ENDMDL
MODEL       64
REMARK 921   NORMALIZED FREE ENERGY PREDICTED BY IDOCK:   -5.82 KCAL/MOL
REMARK 922        TOTAL FREE ENERGY PREDICTED BY IDOCK:   -6.23 KCAL/MOL
REMARK 923 INTER-LIGAND FREE ENERGY PREDICTED BY IDOCK:   -6.26 KCAL/MOL
REMARK 924 INTRA-LIGAND FREE ENERGY PREDICTED BY IDOCK:    0.03 KCAL/MOL
REMARK 927      BINDING AFFINITY PREDICTED BY RF-SCORE:    0.00 PKD
ROOT
HETATM    1  C   UNL     1      -9.951   8.362  66.938  1.00  0.00    -0.271 C  
HETATM    2  N   UNL     1     -10.153   9.764  66.637  1.00  0.00    -0.228 NA 
HETATM    3  C   UNL     1     -10.589  10.728  67.508  1.00  0.00    -0.237 A  
HETATM    4  C   UNL     1     -10.725  11.912  66.803  1.00  0.00    -0.282 A  
HETATM    5  C   UNL     1     -10.288  11.677  65.473  1.00  0.00    -0.309 A  
HETATM    6  C   UNL     1     -11.253  13.112  67.442  1.00  0.00    -0.287 C  
HETATM    7  C   UNL     1     -11.908  12.872  68.807  1.00  0.00    -0.353 C  
HETATM    8  C   UNL     1     -10.172  12.485  64.323  1.00  0.00    -0.359 A  
HETATM    9  O   UNL     1     -11.232  14.216  66.905  1.00  0.00    -0.300 OA 
HETATM   10  C   UNL     1     -11.023  11.914  69.638  1.00  0.00    -0.012 C  
HETATM   11  C   UNL     1      -9.514   9.744  64.183  1.00  0.00    -0.164 A  
HETATM   12  C   UNL     1      -9.732  11.918  63.123  1.00  0.00    -0.216 A  
HETATM   13  C   UNL     1     -10.905  10.538  68.955  1.00  0.00    -0.272 C  
HETATM   14  C   UNL     1      -9.413  10.565  63.055  1.00  0.00    -0.364 A  
HETATM   15  C   UNL     1      -9.952  10.320  65.387  1.00  0.00    -0.302 A  
ENDROOT
BRANCH   7  16
HETATM   16  C   UNL     1     -12.172  14.211  69.496  1.00  0.00    -0.305 C  
BRANCH  16  17
HETATM   17  N   UNL     1     -12.731  14.069  70.830  1.00  0.00    -0.345 NA 
HETATM   18  C   UNL     1     -13.479  13.007  71.264  1.00  0.00     0.135 A  
HETATM   19  C   UNL     1     -13.717  13.255  72.594  1.00  0.00    -0.353 A  
HETATM   20  N   UNL     1     -13.161  14.447  72.968  1.00  0.00    -0.598 NA 
HETATM   21  C   UNL     1     -12.589  14.939  71.887  1.00  0.00    -0.331 A  
HETATM   22  C   UNL     1     -11.883  16.242  71.802  1.00  0.00    -0.510 C  
ENDBRANCH  16  17
ENDBRANCH   7  16
TORSDOF 2
ENDMDL
MODEL       65
REMARK 921   NORMALIZED FREE ENERGY PREDICTED BY IDOCK:   -5.81 KCAL/MOL
REMARK 922        TOTAL FREE ENERGY PREDICTED BY IDOCK:   -6.23 KCAL/MOL
REMARK 923 INTER-LIGAND FREE ENERGY PREDICTED BY IDOCK:   -6.41 KCAL/MOL
REMARK 924 INTRA-LIGAND FREE ENERGY PREDICTED BY IDOCK:    0.18 KCAL/MOL
REMARK 927      BINDING AFFINITY PREDICTED BY RF-SCORE:    0.00 PKD
ROOT
HETATM    1  C   UNL     1     -11.914  12.914  64.821  1.00  0.00    -0.396 C  
HETATM    2  N   UNL     1     -11.120  11.801  65.298  1.00  0.00    -0.297 NA 
HETATM    3  C   UNL     1     -11.030  11.362  66.593  1.00  0.00    -0.285 A  
HETATM    4  C   UNL     1     -10.105  10.332  66.633  1.00  0.00    -0.281 A  
HETATM    5  C   UNL     1      -9.669  10.089  65.303  1.00  0.00    -0.373 A  
HETATM    6  C   UNL     1      -9.727   9.708  67.895  1.00  0.00    -0.146 C  
HETATM    7  C   UNL     1     -10.186  10.468  69.145  1.00  0.00    -0.241 C  
HETATM    8  C   UNL     1      -8.772   9.172  64.719  1.00  0.00    -0.208 A  
HETATM    9  O   UNL     1      -9.044   8.690  67.956  1.00  0.00    -0.140 OA 
HETATM   10  C   UNL     1     -11.648  10.934  68.952  1.00  0.00    -0.378 C  
HETATM   11  C   UNL     1     -10.061  11.094  63.104  1.00  0.00    -0.373 A  
HETATM   12  C   UNL     1      -8.529   9.226  63.343  1.00  0.00    -0.204 A  
HETATM   13  C   UNL     1     -11.764  11.915  67.770  1.00  0.00    -0.362 C  
HETATM   14  C   UNL     1      -9.162  10.177  62.550  1.00  0.00    -0.321 A  
HETATM   15  C   UNL     1     -10.304  11.033  64.487  1.00  0.00    -0.354 A  
ENDROOT
BRANCH   7  16
HETATM   16  C   UNL     1      -9.982   9.596  70.385  1.00  0.00    -0.271 C  
BRANCH  16  17
HETATM   17  N   UNL     1     -11.019   8.593  70.558  1.00  0.00    -0.235 NA 
HETATM   18  C   UNL     1     -11.008   7.342  69.999  1.00  0.00    -0.248 A  
HETATM   19  C   UNL     1     -12.127   6.719  70.495  1.00  0.00    -0.274 A  
HETATM   20  N   UNL     1     -12.827   7.564  71.311  1.00  0.00    -0.319 NA 
HETATM   21  C   UNL     1     -12.158   8.700  71.321  1.00  0.00    -0.290 A  
HETATM   22  C   UNL     1     -12.559   9.929  72.050  1.00  0.00    -0.410 C  
ENDBRANCH  16  17
ENDBRANCH   7  16
TORSDOF 2
ENDMDL
MODEL       66
REMARK 921   NORMALIZED FREE ENERGY PREDICTED BY IDOCK:   -5.81 KCAL/MOL
REMARK 922        TOTAL FREE ENERGY PREDICTED BY IDOCK:   -6.22 KCAL/MOL
REMARK 923 INTER-LIGAND FREE ENERGY PREDICTED BY IDOCK:   -5.98 KCAL/MOL
REMARK 924 INTRA-LIGAND FREE ENERGY PREDICTED BY IDOCK:   -0.23 KCAL/MOL
REMARK 927      BINDING AFFINITY PREDICTED BY RF-SCORE:    0.00 PKD
ROOT
HETATM    1  C   UNL     1      -8.719   8.635  67.381  1.00  0.00    -0.134 C  
HETATM    2  N   UNL     1      -9.217   9.699  66.535  1.00  0.00    -0.152 NA 
HETATM    3  C   UNL     1      -9.886  10.821  66.949  1.00  0.00    -0.187 A  
HETATM    4  C   UNL     1     -10.257  11.538  65.824  1.00  0.00    -0.293 A  
HETATM    5  C   UNL     1      -9.735  10.864  64.689  1.00  0.00    -0.333 A  
HETATM    6  C   UNL     1     -11.059  12.751  65.935  1.00  0.00    -0.287 C  
HETATM    7  C   UNL     1     -11.690  12.975  67.314  1.00  0.00    -0.429 C  
HETATM    8  C   UNL     1      -9.762  11.115  63.302  1.00  0.00    -0.398 A  
HETATM    9  O   UNL     1     -11.266  13.501  64.986  1.00  0.00    -0.306 OA 
HETATM   10  C   UNL     1     -10.643  12.671  68.411  1.00  0.00    -0.258 C  
HETATM   11  C   UNL     1      -8.508   8.784  64.278  1.00  0.00    -0.130 A  
HETATM   12  C   UNL     1      -9.168  10.205  62.423  1.00  0.00    -0.320 A  
HETATM   13  C   UNL     1     -10.200  11.197  68.360  1.00  0.00    -0.200 C  
HETATM   14  C   UNL     1      -8.554   9.054  62.907  1.00  0.00    -0.180 A  
HETATM   15  C   UNL     1      -9.104   9.705  65.156  1.00  0.00    -0.228 A  
ENDROOT
BRANCH   7  16
HETATM   16  C   UNL     1     -12.268  14.388  67.396  1.00  0.00    -0.195 C  
BRANCH  16  17
HETATM   17  N   UNL     1     -11.406  15.320  68.103  1.00  0.00    -0.327 NA 
HETATM   18  C   UNL     1     -10.329  15.968  67.557  1.00  0.00    -0.287 A  
HETATM   19  C   UNL     1      -9.871  16.799  68.550  1.00  0.00    -0.257 A  
HETATM   20  N   UNL     1     -10.619  16.652  69.685  1.00  0.00    -0.307 NA 
HETATM   21  C   UNL     1     -11.527  15.738  69.408  1.00  0.00    -0.355 A  
HETATM   22  C   UNL     1     -12.549  15.223  70.354  1.00  0.00    -0.421 C  
ENDBRANCH  16  17
ENDBRANCH   7  16
TORSDOF 2
ENDMDL
MODEL       67
REMARK 921   NORMALIZED FREE ENERGY PREDICTED BY IDOCK:   -5.78 KCAL/MOL
REMARK 922        TOTAL FREE ENERGY PREDICTED BY IDOCK:   -6.19 KCAL/MOL
REMARK 923 INTER-LIGAND FREE ENERGY PREDICTED BY IDOCK:   -6.04 KCAL/MOL
REMARK 924 INTRA-LIGAND FREE ENERGY PREDICTED BY IDOCK:   -0.15 KCAL/MOL
REMARK 927      BINDING AFFINITY PREDICTED BY RF-SCORE:    0.00 PKD
ROOT
HETATM    1  C   UNL     1     -12.815   8.960  72.534  1.00  0.00    -0.334 C  
HETATM    2  N   UNL     1     -12.094   9.116  71.288  1.00  0.00    -0.309 NA 
HETATM    3  C   UNL     1     -11.967  10.270  70.561  1.00  0.00    -0.323 A  
HETATM    4  C   UNL     1     -11.275   9.971  69.400  1.00  0.00    -0.235 A  
HETATM    5  C   UNL     1     -10.907   8.601  69.456  1.00  0.00    -0.138 A  
HETATM    6  C   UNL     1     -11.049  10.985  68.376  1.00  0.00    -0.251 C  
HETATM    7  C   UNL     1     -11.879  12.262  68.549  1.00  0.00    -0.359 C  
HETATM    8  C   UNL     1     -10.187   7.745  68.597  1.00  0.00    -0.217 A  
HETATM    9  O   UNL     1     -10.302  10.808  67.418  1.00  0.00    -0.191 OA 
HETATM   10  C   UNL     1     -11.859  12.688  70.035  1.00  0.00    -0.358 C  
HETATM   11  C   UNL     1     -11.298   6.727  70.983  1.00  0.00    -0.356 A  
HETATM   12  C   UNL     1     -10.032   6.398  68.938  1.00  0.00    -0.168 A  
HETATM   13  C   UNL     1     -12.509  11.613  70.927  1.00  0.00    -0.440 C  
HETATM   14  C   UNL     1     -10.585   5.897  70.112  1.00  0.00    -0.362 A  
HETATM   15  C   UNL     1     -11.447   8.081  70.638  1.00  0.00    -0.232 A  
ENDROOT
BRANCH   7  16
HETATM   16  C   UNL     1     -11.368  13.345  67.597  1.00  0.00    -0.290 C  
BRANCH  16  17
HETATM   17  N   UNL     1     -10.727  14.454  68.282  1.00  0.00    -0.237 NA 
HETATM   18  C   UNL     1     -11.374  15.556  68.776  1.00  0.00    -0.334 A  
HETATM   19  C   UNL     1     -10.399  16.291  69.406  1.00  0.00    -0.278 A  
HETATM   20  N   UNL     1      -9.180  15.682  69.281  1.00  0.00    -0.255 NA 
HETATM   21  C   UNL     1      -9.390  14.586  68.579  1.00  0.00    -0.203 A  
HETATM   22  C   UNL     1      -8.346  13.615  68.164  1.00  0.00    -0.166 C  
ENDBRANCH  16  17
ENDBRANCH   7  16
TORSDOF 2
ENDMDL
MODEL       68
REMARK 921   NORMALIZED FREE ENERGY PREDICTED BY IDOCK:   -5.78 KCAL/MOL
REMARK 922        TOTAL FREE ENERGY PREDICTED BY IDOCK:   -6.19 KCAL/MOL
REMARK 923 INTER-LIGAND FREE ENERGY PREDICTED BY IDOCK:   -6.22 KCAL/MOL
REMARK 924 INTRA-LIGAND FREE ENERGY PREDICTED BY IDOCK:    0.04 KCAL/MOL
REMARK 927      BINDING AFFINITY PREDICTED BY RF-SCORE:    0.00 PKD
ROOT
HETATM    1  C   UNL     1     -10.470   8.049  68.810  1.00  0.00    -0.173 C  
HETATM    2  N   UNL     1     -10.256   8.968  67.713  1.00  0.00    -0.216 NA 
HETATM    3  C   UNL     1     -10.727  10.253  67.626  1.00  0.00    -0.288 A  
HETATM    4  C   UNL     1     -10.372  10.755  66.385  1.00  0.00    -0.306 A  
HETATM    5  C   UNL     1      -9.597   9.767  65.723  1.00  0.00    -0.318 A  
HETATM    6  C   UNL     1     -10.802  12.082  65.959  1.00  0.00    -0.289 C  
HETATM    7  C   UNL     1     -11.892  12.711  66.835  1.00  0.00    -0.425 C  
HETATM    8  C   UNL     1      -8.950   9.706  64.472  1.00  0.00    -0.278 A  
HETATM    9  O   UNL     1     -10.373  12.628  64.947  1.00  0.00    -0.296 OA 
HETATM   10  C   UNL     1     -11.547  12.482  68.325  1.00  0.00    -0.376 C  
HETATM   11  C   UNL     1      -8.891   7.469  66.190  1.00  0.00    -0.185 A  
HETATM   12  C   UNL     1      -8.285   8.535  64.095  1.00  0.00    -0.141 A  
HETATM   13  C   UNL     1     -11.519  10.980  68.662  1.00  0.00    -0.375 C  
HETATM   14  C   UNL     1      -8.262   7.432  64.942  1.00  0.00    -0.080 A  
HETATM   15  C   UNL     1      -9.554   8.650  66.565  1.00  0.00    -0.237 A  
ENDROOT
BRANCH   7  16
HETATM   16  C   UNL     1     -12.065  14.185  66.467  1.00  0.00    -0.454 C  
BRANCH  16  17
HETATM   17  N   UNL     1     -11.373  15.087  67.372  1.00  0.00    -0.337 NA 
HETATM   18  C   UNL     1     -11.829  15.469  68.606  1.00  0.00    -0.300 A  
HETATM   19  C   UNL     1     -10.827  16.248  69.133  1.00  0.00    -0.314 A  
HETATM   20  N   UNL     1      -9.796  16.371  68.244  1.00  0.00    -0.224 NA 
HETATM   21  C   UNL     1     -10.150  15.684  67.175  1.00  0.00    -0.256 A  
HETATM   22  C   UNL     1      -9.353  15.556  65.929  1.00  0.00    -0.355 C  
ENDBRANCH  16  17
ENDBRANCH   7  16
TORSDOF 2
ENDMDL
MODEL       69
REMARK 921   NORMALIZED FREE ENERGY PREDICTED BY IDOCK:   -5.74 KCAL/MOL
REMARK 922        TOTAL FREE ENERGY PREDICTED BY IDOCK:   -6.15 KCAL/MOL
REMARK 923 INTER-LIGAND FREE ENERGY PREDICTED BY IDOCK:   -5.70 KCAL/MOL
REMARK 924 INTRA-LIGAND FREE ENERGY PREDICTED BY IDOCK:   -0.44 KCAL/MOL
REMARK 927      BINDING AFFINITY PREDICTED BY RF-SCORE:    0.00 PKD
ROOT
HETATM    1  C   UNL     1     -10.170  18.510  68.762  1.00  0.00    -0.287 C  
HETATM    2  N   UNL     1      -9.612  17.209  68.459  1.00  0.00    -0.278 NA 
HETATM    3  C   UNL     1     -10.281  16.013  68.478  1.00  0.00    -0.236 A  
HETATM    4  C   UNL     1      -9.368  15.007  68.210  1.00  0.00    -0.192 A  
HETATM    5  C   UNL     1      -8.113  15.619  67.950  1.00  0.00    -0.149 A  
HETATM    6  C   UNL     1      -9.763  13.604  68.240  1.00  0.00    -0.231 C  
HETATM    7  C   UNL     1     -11.135  13.341  68.873  1.00  0.00    -0.304 C  
HETATM    8  C   UNL     1      -6.837  15.128  67.605  1.00  0.00    -0.204 A  
HETATM    9  O   UNL     1      -9.033  12.698  67.848  1.00  0.00    -0.173 OA 
HETATM   10  C   UNL     1     -12.147  14.389  68.354  1.00  0.00    -0.278 C  
HETATM   11  C   UNL     1      -7.218  17.898  67.986  1.00  0.00    -0.220 A  
HETATM   12  C   UNL     1      -5.772  16.021  67.456  1.00  0.00    -0.157 A  
HETATM   13  C   UNL     1     -11.731  15.813  68.772  1.00  0.00    -0.387 C  
HETATM   14  C   UNL     1      -5.961  17.386  67.649  1.00  0.00    -0.152 A  
HETATM   15  C   UNL     1      -8.285  16.996  68.130  1.00  0.00    -0.217 A  
ENDROOT
BRANCH   7  16
HETATM   16  C   UNL     1     -11.561  11.897  68.605  1.00  0.00    -0.310 C  
BRANCH  16  17
HETATM   17  N   UNL     1     -11.733  11.115  69.817  1.00  0.00    -0.312 NA 
HETATM   18  C   UNL     1     -12.765  11.256  70.707  1.00  0.00    -0.269 A  
HETATM   19  C   UNL     1     -12.570  10.268  71.641  1.00  0.00    -0.432 A  
HETATM   20  N   UNL     1     -11.437   9.556  71.360  1.00  0.00    -0.370 NA 
HETATM   21  C   UNL     1     -10.929  10.094  70.268  1.00  0.00    -0.317 A  
HETATM   22  C   UNL     1      -9.672   9.669  69.602  1.00  0.00    -0.230 C  
ENDBRANCH  16  17
ENDBRANCH   7  16
TORSDOF 2
ENDMDL
MODEL       70
REMARK 921   NORMALIZED FREE ENERGY PREDICTED BY IDOCK:   -5.73 KCAL/MOL
REMARK 922        TOTAL FREE ENERGY PREDICTED BY IDOCK:   -6.13 KCAL/MOL
REMARK 923 INTER-LIGAND FREE ENERGY PREDICTED BY IDOCK:   -6.05 KCAL/MOL
REMARK 924 INTRA-LIGAND FREE ENERGY PREDICTED BY IDOCK:   -0.08 KCAL/MOL
REMARK 927      BINDING AFFINITY PREDICTED BY RF-SCORE:    0.00 PKD
ROOT
HETATM    1  C   UNL     1     -10.498  16.147  68.472  1.00  0.00    -0.269 C  
HETATM    2  N   UNL     1     -10.852  14.781  68.798  1.00  0.00    -0.246 NA 
HETATM    3  C   UNL     1     -10.495  13.659  68.097  1.00  0.00    -0.247 A  
HETATM    4  C   UNL     1     -11.105  12.569  68.694  1.00  0.00    -0.305 A  
HETATM    5  C   UNL     1     -11.801  13.035  69.840  1.00  0.00    -0.377 A  
HETATM    6  C   UNL     1     -10.980  11.232  68.125  1.00  0.00    -0.231 C  
HETATM    7  C   UNL     1     -10.406  11.194  66.704  1.00  0.00    -0.286 C  
HETATM    8  C   UNL     1     -12.574  12.409  70.838  1.00  0.00    -0.337 A  
HETATM    9  O   UNL     1     -11.361  10.222  68.709  1.00  0.00    -0.230 OA 
HETATM   10  C   UNL     1      -9.200  12.157  66.614  1.00  0.00    -0.206 C  
HETATM   11  C   UNL     1     -12.247  15.211  70.873  1.00  0.00    -0.398 A  
HETATM   12  C   UNL     1     -13.173  13.184  71.836  1.00  0.00    -0.526 A  
HETATM   13  C   UNL     1      -9.632  13.612  66.879  1.00  0.00    -0.262 C  
HETATM   14  C   UNL     1     -13.013  14.566  71.848  1.00  0.00    -0.415 A  
HETATM   15  C   UNL     1     -11.645  14.426  69.875  1.00  0.00    -0.284 A  
ENDROOT
BRANCH   7  16
HETATM   16  C   UNL     1     -10.067   9.753  66.321  1.00  0.00    -0.243 C  
BRANCH  16  17
HETATM   17  N   UNL     1      -9.501   9.632  64.988  1.00  0.00    -0.267 NA 
HETATM   18  C   UNL     1      -9.815  10.434  63.922  1.00  0.00    -0.267 A  
HETATM   19  C   UNL     1      -8.991  10.015  62.905  1.00  0.00    -0.262 A  
HETATM   20  N   UNL     1      -8.213   8.968  63.316  1.00  0.00    -0.172 NA 
HETATM   21  C   UNL     1      -8.549   8.732  64.568  1.00  0.00    -0.099 A  
HETATM   22  C   UNL     1      -7.987   7.657  65.424  1.00  0.00    -0.123 C  
ENDBRANCH  16  17
ENDBRANCH   7  16
TORSDOF 2
ENDMDL
MODEL       71
REMARK 921   NORMALIZED FREE ENERGY PREDICTED BY IDOCK:   -5.72 KCAL/MOL
REMARK 922        TOTAL FREE ENERGY PREDICTED BY IDOCK:   -6.12 KCAL/MOL
REMARK 923 INTER-LIGAND FREE ENERGY PREDICTED BY IDOCK:   -5.76 KCAL/MOL
REMARK 924 INTRA-LIGAND FREE ENERGY PREDICTED BY IDOCK:   -0.36 KCAL/MOL
REMARK 927      BINDING AFFINITY PREDICTED BY RF-SCORE:    0.00 PKD
ROOT
HETATM    1  C   UNL     1     -10.540  11.048  64.328  1.00  0.00    -0.331 C  
HETATM    2  N   UNL     1     -10.031  11.813  65.447  1.00  0.00    -0.247 NA 
HETATM    3  C   UNL     1     -10.085  13.174  65.593  1.00  0.00    -0.271 A  
HETATM    4  C   UNL     1      -9.415  13.507  66.758  1.00  0.00    -0.272 A  
HETATM    5  C   UNL     1      -9.000  12.300  67.379  1.00  0.00    -0.183 A  
HETATM    6  C   UNL     1      -9.229  14.900  67.149  1.00  0.00    -0.220 C  
HETATM    7  C   UNL     1      -9.549  15.919  66.049  1.00  0.00    -0.385 C  
HETATM    8  C   UNL     1      -8.310  11.998  68.572  1.00  0.00    -0.104 A  
HETATM    9  O   UNL     1      -8.793  15.231  68.247  1.00  0.00    -0.164 OA 
HETATM   10  C   UNL     1     -10.862  15.512  65.341  1.00  0.00    -0.402 C  
HETATM   11  C   UNL     1      -9.083   9.913  66.834  1.00  0.00    -0.162 A  
HETATM   12  C   UNL     1      -8.016  10.667  68.881  1.00  0.00    -0.132 A  
HETATM   13  C   UNL     1     -10.717  14.143  64.649  1.00  0.00    -0.408 C  
HETATM   14  C   UNL     1      -8.393   9.641  68.020  1.00  0.00    -0.117 A  
HETATM   15  C   UNL     1      -9.380  11.252  66.531  1.00  0.00    -0.185 A  
ENDROOT
BRANCH   7  16
HETATM   16  C   UNL     1      -9.586  17.327  66.643  1.00  0.00    -0.276 C  
BRANCH  16  17
HETATM   17  N   UNL     1      -8.487  18.167  66.197  1.00  0.00    -0.490 NA 
HETATM   18  C   UNL     1      -7.236  17.718  65.862  1.00  0.00    -0.225 A  
HETATM   19  C   UNL     1      -6.561  18.832  65.426  1.00  0.00    -0.247 A  
HETATM   20  N   UNL     1      -7.355  19.942  65.516  1.00  0.00    -0.351 NA 
HETATM   21  C   UNL     1      -8.507  19.529  66.005  1.00  0.00    -0.233 A  
HETATM   22  C   UNL     1      -9.675  20.394  66.308  1.00  0.00    -0.356 C  
ENDBRANCH  16  17
ENDBRANCH   7  16
TORSDOF 2
ENDMDL
MODEL       72
REMARK 921   NORMALIZED FREE ENERGY PREDICTED BY IDOCK:   -5.71 KCAL/MOL
REMARK 922        TOTAL FREE ENERGY PREDICTED BY IDOCK:   -6.11 KCAL/MOL
REMARK 923 INTER-LIGAND FREE ENERGY PREDICTED BY IDOCK:   -5.79 KCAL/MOL
REMARK 924 INTRA-LIGAND FREE ENERGY PREDICTED BY IDOCK:   -0.32 KCAL/MOL
REMARK 927      BINDING AFFINITY PREDICTED BY RF-SCORE:    0.00 PKD
ROOT
HETATM    1  C   UNL     1      -6.352  15.099  70.304  1.00  0.00    -0.088 C  
HETATM    2  N   UNL     1      -7.003  15.959  69.339  1.00  0.00    -0.203 NA 
HETATM    3  C   UNL     1      -7.892  15.568  68.372  1.00  0.00    -0.126 A  
HETATM    4  C   UNL     1      -8.212  16.679  67.610  1.00  0.00    -0.183 A  
HETATM    5  C   UNL     1      -7.549  17.799  68.178  1.00  0.00    -0.250 A  
HETATM    6  C   UNL     1      -9.081  16.568  66.445  1.00  0.00    -0.297 C  
HETATM    7  C   UNL     1      -9.339  15.131  65.976  1.00  0.00    -0.326 C  
HETATM    8  C   UNL     1      -7.505  19.174  67.865  1.00  0.00    -0.290 A  
HETATM    9  O   UNL     1      -9.521  17.546  65.847  1.00  0.00    -0.515 OA 
HETATM   10  C   UNL     1      -9.623  14.236  67.204  1.00  0.00    -0.245 C  
HETATM   11  C   UNL     1      -5.966  18.174  70.009  1.00  0.00    -0.167 A  
HETATM   12  C   UNL     1      -6.697  20.028  68.622  1.00  0.00    -0.344 A  
HETATM   13  C   UNL     1      -8.403  14.184  68.144  1.00  0.00    -0.161 C  
HETATM   14  C   UNL     1      -5.936  19.532  69.675  1.00  0.00    -0.303 A  
HETATM   15  C   UNL     1      -6.783  17.321  69.247  1.00  0.00    -0.230 A  
ENDROOT
BRANCH   7  16
HETATM   16  C   UNL     1     -10.463  15.119  64.939  1.00  0.00    -0.319 C  
BRANCH  16  17
HETATM   17  N   UNL     1     -10.929  13.782  64.614  1.00  0.00    -0.386 NA 
HETATM   18  C   UNL     1     -10.195  12.828  63.960  1.00  0.00    -0.298 A  
HETATM   19  C   UNL     1     -10.993  11.710  63.947  1.00  0.00    -0.407 A  
HETATM   20  N   UNL     1     -12.196  11.969  64.544  1.00  0.00    -0.290 NA 
HETATM   21  C   UNL     1     -12.152  13.231  64.921  1.00  0.00    -0.397 A  
HETATM   22  C   UNL     1     -13.252  13.970  65.589  1.00  0.00     0.034 C  
ENDBRANCH  16  17
ENDBRANCH   7  16
TORSDOF 2
ENDMDL
MODEL       73
REMARK 921   NORMALIZED FREE ENERGY PREDICTED BY IDOCK:   -5.67 KCAL/MOL
REMARK 922        TOTAL FREE ENERGY PREDICTED BY IDOCK:   -6.07 KCAL/MOL
REMARK 923 INTER-LIGAND FREE ENERGY PREDICTED BY IDOCK:   -5.79 KCAL/MOL
REMARK 924 INTRA-LIGAND FREE ENERGY PREDICTED BY IDOCK:   -0.28 KCAL/MOL
REMARK 927      BINDING AFFINITY PREDICTED BY RF-SCORE:    0.00 PKD
ROOT
HETATM    1  C   UNL     1     -11.748  15.663  70.636  1.00  0.00    -0.369 C  
HETATM    2  N   UNL     1     -11.315  15.411  69.278  1.00  0.00    -0.292 NA 
HETATM    3  C   UNL     1     -11.227  14.188  68.666  1.00  0.00    -0.266 A  
HETATM    4  C   UNL     1     -10.694  14.379  67.403  1.00  0.00    -0.280 A  
HETATM    5  C   UNL     1     -10.516  15.775  67.213  1.00  0.00    -0.308 A  
HETATM    6  C   UNL     1     -10.401  13.247  66.530  1.00  0.00    -0.285 C  
HETATM    7  C   UNL     1     -10.440  11.880  67.224  1.00  0.00    -0.248 C  
HETATM    8  C   UNL     1     -10.042  16.566  66.147  1.00  0.00    -0.365 A  
HETATM    9  O   UNL     1     -10.088  13.380  65.351  1.00  0.00    -0.295 OA 
HETATM   10  C   UNL     1     -11.680  11.810  68.145  1.00  0.00    -0.377 C  
HETATM   11  C   UNL     1     -10.803  17.793  68.571  1.00  0.00    -0.016 A  
HETATM   12  C   UNL     1      -9.953  17.953  66.302  1.00  0.00    -0.333 A  
HETATM   13  C   UNL     1     -11.601  12.870  69.260  1.00  0.00    -0.368 C  
HETATM   14  C   UNL     1     -10.324  18.554  67.500  1.00  0.00    -0.440 A  
HETATM   15  C   UNL     1     -10.894  16.400  68.407  1.00  0.00    -0.342 A  
ENDROOT
BRANCH   7  16
HETATM   16  C   UNL     1     -10.394  10.767  66.176  1.00  0.00    -0.239 C  
BRANCH  16  17
HETATM   17  N   UNL     1      -9.849   9.521  66.687  1.00  0.00    -0.213 NA 
HETATM   18  C   UNL     1     -10.586   8.413  67.015  1.00  0.00    -0.246 A  
HETATM   19  C   UNL     1      -9.662   7.460  67.368  1.00  0.00    -0.153 A  
HETATM   20  N   UNL     1      -8.394   7.967  67.292  1.00  0.00    -0.121 NA 
HETATM   21  C   UNL     1      -8.524   9.220  66.902  1.00  0.00    -0.127 A  
HETATM   22  C   UNL     1      -7.411  10.184  66.711  1.00  0.00    -0.104 C  
ENDBRANCH  16  17
ENDBRANCH   7  16
TORSDOF 2
ENDMDL
MODEL       74
REMARK 921   NORMALIZED FREE ENERGY PREDICTED BY IDOCK:   -5.65 KCAL/MOL
REMARK 922        TOTAL FREE ENERGY PREDICTED BY IDOCK:   -6.05 KCAL/MOL
REMARK 923 INTER-LIGAND FREE ENERGY PREDICTED BY IDOCK:   -5.96 KCAL/MOL
REMARK 924 INTRA-LIGAND FREE ENERGY PREDICTED BY IDOCK:   -0.09 KCAL/MOL
REMARK 927      BINDING AFFINITY PREDICTED BY RF-SCORE:    0.00 PKD
ROOT
HETATM    1  C   UNL     1     -10.415  14.073  64.615  1.00  0.00    -0.373 C  
HETATM    2  N   UNL     1     -10.593  13.037  65.610  1.00  0.00    -0.278 NA 
HETATM    3  C   UNL     1     -11.178  13.183  66.840  1.00  0.00    -0.296 A  
HETATM    4  C   UNL     1     -11.073  11.975  67.510  1.00  0.00    -0.331 A  
HETATM    5  C   UNL     1     -10.465  11.042  66.630  1.00  0.00    -0.307 A  
HETATM    6  C   UNL     1     -11.535  11.835  68.886  1.00  0.00    -0.297 C  
HETATM    7  C   UNL     1     -11.842  13.160  69.595  1.00  0.00    -0.390 C  
HETATM    8  C   UNL     1     -10.123   9.678  66.732  1.00  0.00    -0.301 A  
HETATM    9  O   UNL     1     -11.614  10.750  69.455  1.00  0.00    -0.256 OA 
HETATM   10  C   UNL     1     -12.628  14.083  68.635  1.00  0.00     0.475 C  
HETATM   11  C   UNL     1      -9.506  11.105  64.377  1.00  0.00    -0.251 A  
HETATM   12  C   UNL     1      -9.479   9.047  65.664  1.00  0.00    -0.273 A  
HETATM   13  C   UNL     1     -11.790  14.429  67.390  1.00  0.00    -0.430 C  
HETATM   14  C   UNL     1      -9.171   9.754  64.506  1.00  0.00    -0.310 A  
HETATM   15  C   UNL     1     -10.156  11.734  65.452  1.00  0.00    -0.254 A  
ENDROOT
BRANCH   7  16
HETATM   16  C   UNL     1     -12.569  12.887  70.912  1.00  0.00    -0.270 C  
BRANCH  16  17
HETATM   17  N   UNL     1     -13.058  14.093  71.558  1.00  0.00    -0.336 NA 
HETATM   18  C   UNL     1     -14.370  14.353  71.854  1.00  0.00    -0.545 A  
HETATM   19  C   UNL     1     -14.355  15.551  72.526  1.00  0.00    -0.276 A  
HETATM   20  N   UNL     1     -13.079  16.036  72.618  1.00  0.00    -0.448 NA 
HETATM   21  C   UNL     1     -12.309  15.156  72.008  1.00  0.00    -0.356 A  
HETATM   22  C   UNL     1     -10.841  15.275  71.827  1.00  0.00     0.148 C  
ENDBRANCH  16  17
ENDBRANCH   7  16
TORSDOF 2
ENDMDL
MODEL       75
REMARK 921   NORMALIZED FREE ENERGY PREDICTED BY IDOCK:   -5.64 KCAL/MOL
REMARK 922        TOTAL FREE ENERGY PREDICTED BY IDOCK:   -6.03 KCAL/MOL
REMARK 923 INTER-LIGAND FREE ENERGY PREDICTED BY IDOCK:   -6.11 KCAL/MOL
REMARK 924 INTRA-LIGAND FREE ENERGY PREDICTED BY IDOCK:    0.08 KCAL/MOL
REMARK 927      BINDING AFFINITY PREDICTED BY RF-SCORE:    0.00 PKD
ROOT
HETATM    1  C   UNL     1      -9.980   5.819  67.420  1.00  0.00    -0.150 C  
HETATM    2  N   UNL     1     -10.263   7.081  68.071  1.00  0.00    -0.172 NA 
HETATM    3  C   UNL     1     -10.150   8.327  67.512  1.00  0.00    -0.225 A  
HETATM    4  C   UNL     1     -10.433   9.263  68.492  1.00  0.00    -0.240 A  
HETATM    5  C   UNL     1     -10.798   8.561  69.670  1.00  0.00    -0.157 A  
HETATM    6  C   UNL     1     -10.319  10.692  68.224  1.00  0.00    -0.177 C  
HETATM    7  C   UNL     1      -9.589  11.041  66.921  1.00  0.00    -0.205 C  
HETATM    8  C   UNL     1     -11.204   8.957  70.961  1.00  0.00    -0.342 A  
HETATM    9  O   UNL     1     -10.718  11.551  69.005  1.00  0.00    -0.208 OA 
HETATM   10  C   UNL     1     -10.085  10.108  65.792  1.00  0.00    -0.324 C  
HETATM   11  C   UNL     1     -10.917   6.214  70.363  1.00  0.00    -0.404 A  
HETATM   12  C   UNL     1     -11.459   7.985  71.933  1.00  0.00    -0.341 A  
HETATM   13  C   UNL     1      -9.755   8.636  66.105  1.00  0.00    -0.292 C  
HETATM   14  C   UNL     1     -11.312   6.633  71.637  1.00  0.00    -0.319 A  
HETATM   15  C   UNL     1     -10.666   7.196  69.389  1.00  0.00    -0.231 A  
ENDROOT
BRANCH   7  16
HETATM   16  C   UNL     1      -9.768  12.527  66.608  1.00  0.00    -0.242 C  
BRANCH  16  17
HETATM   17  N   UNL     1     -10.815  12.786  65.635  1.00  0.00    -0.269 NA 
HETATM   18  C   UNL     1     -10.708  12.574  64.285  1.00  0.00    -0.369 A  
HETATM   19  C   UNL     1     -11.948  12.873  63.776  1.00  0.00    -0.512 A  
HETATM   20  N   UNL     1     -12.791  13.286  64.771  1.00  0.00    -0.720 NA 
HETATM   21  C   UNL     1     -12.085  13.251  65.885  1.00  0.00    -0.441 A  
HETATM   22  C   UNL     1     -12.576  13.647  67.229  1.00  0.00     0.231 C  
ENDBRANCH  16  17
ENDBRANCH   7  16
TORSDOF 2
ENDMDL
MODEL       76
REMARK 921   NORMALIZED FREE ENERGY PREDICTED BY IDOCK:   -5.62 KCAL/MOL
REMARK 922        TOTAL FREE ENERGY PREDICTED BY IDOCK:   -6.01 KCAL/MOL
REMARK 923 INTER-LIGAND FREE ENERGY PREDICTED BY IDOCK:   -6.08 KCAL/MOL
REMARK 924 INTRA-LIGAND FREE ENERGY PREDICTED BY IDOCK:    0.08 KCAL/MOL
REMARK 927      BINDING AFFINITY PREDICTED BY RF-SCORE:    0.00 PKD
ROOT
HETATM    1  C   UNL     1     -10.148   4.505  72.765  1.00  0.00    -0.166 C  
HETATM    2  N   UNL     1     -10.113   5.212  71.502  1.00  0.00    -0.186 NA 
HETATM    3  C   UNL     1     -10.365   6.545  71.310  1.00  0.00    -0.204 A  
HETATM    4  C   UNL     1     -10.308   6.800  69.950  1.00  0.00    -0.229 A  
HETATM    5  C   UNL     1      -9.939   5.594  69.298  1.00  0.00    -0.251 A  
HETATM    6  C   UNL     1     -10.613   8.123  69.418  1.00  0.00    -0.200 C  
HETATM    7  C   UNL     1     -11.277   9.076  70.420  1.00  0.00    -0.275 C  
HETATM    8  C   UNL     1      -9.706   5.239  67.953  1.00  0.00    -0.174 A  
HETATM    9  O   UNL     1     -10.413   8.433  68.247  1.00  0.00    -0.206 OA 
HETATM   10  C   UNL     1     -10.555   8.969  71.783  1.00  0.00    -0.426 C  
HETATM   11  C   UNL     1      -9.527   3.275  69.973  1.00  0.00    -0.231 A  
HETATM   12  C   UNL     1      -9.389   3.915  67.634  1.00  0.00    -0.232 A  
HETATM   13  C   UNL     1     -10.684   7.550  72.368  1.00  0.00    -0.311 C  
HETATM   14  C   UNL     1      -9.306   2.948  68.631  1.00  0.00    -0.239 A  
HETATM   15  C   UNL     1      -9.841   4.608  70.287  1.00  0.00    -0.243 A  
ENDROOT
BRANCH   7  16
HETATM   16  C   UNL     1     -11.298  10.494  69.849  1.00  0.00    -0.309 C  
BRANCH  16  17
HETATM   17  N   UNL     1     -12.103  11.416  70.632  1.00  0.00    -0.377 NA 
HETATM   18  C   UNL     1     -12.887  11.067  71.701  1.00  0.00    -0.435 A  
HETATM   19  C   UNL     1     -13.390  12.253  72.178  1.00  0.00    -0.368 A  
HETATM   20  N   UNL     1     -12.959  13.301  71.413  1.00  0.00    -0.343 NA 
HETATM   21  C   UNL     1     -12.202  12.778  70.469  1.00  0.00    -0.307 A  
HETATM   22  C   UNL     1     -11.536  13.535  69.379  1.00  0.00    -0.369 C  
ENDBRANCH  16  17
ENDBRANCH   7  16
TORSDOF 2
ENDMDL
MODEL       77
REMARK 921   NORMALIZED FREE ENERGY PREDICTED BY IDOCK:   -5.59 KCAL/MOL
REMARK 922        TOTAL FREE ENERGY PREDICTED BY IDOCK:   -5.97 KCAL/MOL
REMARK 923 INTER-LIGAND FREE ENERGY PREDICTED BY IDOCK:   -5.58 KCAL/MOL
REMARK 924 INTRA-LIGAND FREE ENERGY PREDICTED BY IDOCK:   -0.39 KCAL/MOL
REMARK 927      BINDING AFFINITY PREDICTED BY RF-SCORE:    0.00 PKD
ROOT
HETATM    1  C   UNL     1     -12.026  13.208  63.350  1.00  0.00    -0.483 C  
HETATM    2  N   UNL     1     -11.096  13.202  64.460  1.00  0.00    -0.338 NA 
HETATM    3  C   UNL     1     -10.542  12.096  65.050  1.00  0.00    -0.291 A  
HETATM    4  C   UNL     1      -9.777  12.521  66.123  1.00  0.00    -0.259 A  
HETATM    5  C   UNL     1      -9.810  13.940  66.143  1.00  0.00    -0.316 A  
HETATM    6  C   UNL     1      -9.120  11.564  67.005  1.00  0.00    -0.175 C  
HETATM    7  C   UNL     1      -9.588  10.114  66.835  1.00  0.00    -0.219 C  
HETATM    8  C   UNL     1      -9.220  14.922  66.966  1.00  0.00    -0.249 A  
HETATM    9  O   UNL     1      -8.303  11.898  67.859  1.00  0.00    -0.136 OA 
HETATM   10  C   UNL     1      -9.696   9.785  65.328  1.00  0.00    -0.371 C  
HETATM   11  C   UNL     1     -10.941  15.700  64.868  1.00  0.00    -0.447 A  
HETATM   12  C   UNL     1      -9.496  16.273  66.733  1.00  0.00    -0.253 A  
HETATM   13  C   UNL     1     -10.751  10.674  64.643  1.00  0.00    -0.031 C  
HETATM   14  C   UNL     1     -10.348  16.654  65.702  1.00  0.00    -0.310 A  
HETATM   15  C   UNL     1     -10.657  14.344  65.104  1.00  0.00    -0.410 A  
ENDROOT
BRANCH   7  16
HETATM   16  C   UNL     1      -8.653   9.175  67.599  1.00  0.00    -0.117 C  
BRANCH  16  17
HETATM   17  N   UNL     1      -9.342   8.347  68.574  1.00  0.00    -0.139 NA 
HETATM   18  C   UNL     1      -9.379   8.580  69.923  1.00  0.00    -0.159 A  
HETATM   19  C   UNL     1     -10.202   7.606  70.433  1.00  0.00    -0.203 A  
HETATM   20  N   UNL     1     -10.639   6.775  69.438  1.00  0.00    -0.219 NA 
HETATM   21  C   UNL     1     -10.092   7.221  68.324  1.00  0.00    -0.170 A  
HETATM   22  C   UNL     1     -10.256   6.612  66.980  1.00  0.00    -0.288 C  
ENDBRANCH  16  17
ENDBRANCH   7  16
TORSDOF 2
ENDMDL
MODEL       78
REMARK 921   NORMALIZED FREE ENERGY PREDICTED BY IDOCK:   -5.58 KCAL/MOL
REMARK 922        TOTAL FREE ENERGY PREDICTED BY IDOCK:   -5.96 KCAL/MOL
REMARK 923 INTER-LIGAND FREE ENERGY PREDICTED BY IDOCK:   -5.58 KCAL/MOL
REMARK 924 INTRA-LIGAND FREE ENERGY PREDICTED BY IDOCK:   -0.38 KCAL/MOL
REMARK 927      BINDING AFFINITY PREDICTED BY RF-SCORE:    0.00 PKD
ROOT
HETATM    1  C   UNL     1      -7.139   7.370  69.754  1.00  0.00    -0.068 C  
HETATM    2  N   UNL     1      -8.411   8.027  69.970  1.00  0.00    -0.122 NA 
HETATM    3  C   UNL     1      -8.996   8.955  69.148  1.00  0.00    -0.140 A  
HETATM    4  C   UNL     1     -10.160   9.393  69.757  1.00  0.00    -0.229 A  
HETATM    5  C   UNL     1     -10.324   8.655  70.959  1.00  0.00    -0.275 A  
HETATM    6  C   UNL     1     -10.971  10.448  69.161  1.00  0.00    -0.241 C  
HETATM    7  C   UNL     1     -10.287  11.210  68.019  1.00  0.00    -0.208 C  
HETATM    8  C   UNL     1     -11.305   8.638  71.972  1.00  0.00    -0.432 A  
HETATM    9  O   UNL     1     -12.087  10.746  69.578  1.00  0.00    -0.312 OA 
HETATM   10  C   UNL     1      -9.573  10.203  67.088  1.00  0.00    -0.202 C  
HETATM   11  C   UNL     1      -9.036   6.974  72.191  1.00  0.00    -0.141 A  
HETATM   12  C   UNL     1     -11.143   7.796  73.076  1.00  0.00    -0.419 A  
HETATM   13  C   UNL     1      -8.464   9.444  67.841  1.00  0.00    -0.116 C  
HETATM   14  C   UNL     1     -10.021   6.980  73.184  1.00  0.00    -0.242 A  
HETATM   15  C   UNL     1      -9.207   7.819  71.082  1.00  0.00    -0.146 A  
ENDROOT
BRANCH   7  16
HETATM   16  C   UNL     1     -11.310  12.089  67.299  1.00  0.00    -0.330 C  
BRANCH  16  17
HETATM   17  N   UNL     1     -10.718  13.252  66.660  1.00  0.00    -0.279 NA 
HETATM   18  C   UNL     1      -9.983  14.215  67.301  1.00  0.00    -0.249 A  
HETATM   19  C   UNL     1      -9.561  15.063  66.307  1.00  0.00    -0.307 A  
HETATM   20  N   UNL     1     -10.042  14.659  65.092  1.00  0.00    -0.368 NA 
HETATM   21  C   UNL     1     -10.758  13.578  65.324  1.00  0.00    -0.323 A  
HETATM   22  C   UNL     1     -11.506  12.803  64.302  1.00  0.00    -0.427 C  
ENDBRANCH  16  17
ENDBRANCH   7  16
TORSDOF 2
ENDMDL
MODEL       79
REMARK 921   NORMALIZED FREE ENERGY PREDICTED BY IDOCK:   -5.57 KCAL/MOL
REMARK 922        TOTAL FREE ENERGY PREDICTED BY IDOCK:   -5.95 KCAL/MOL
REMARK 923 INTER-LIGAND FREE ENERGY PREDICTED BY IDOCK:   -5.55 KCAL/MOL
REMARK 924 INTRA-LIGAND FREE ENERGY PREDICTED BY IDOCK:   -0.40 KCAL/MOL
REMARK 927      BINDING AFFINITY PREDICTED BY RF-SCORE:    0.00 PKD
ROOT
HETATM    1  C   UNL     1     -12.229  13.078  69.723  1.00  0.00    -0.177 C  
HETATM    2  N   UNL     1     -11.715  12.234  68.665  1.00  0.00    -0.313 NA 
HETATM    3  C   UNL     1     -11.171  10.985  68.814  1.00  0.00    -0.266 A  
HETATM    4  C   UNL     1     -10.729  10.559  67.572  1.00  0.00    -0.326 A  
HETATM    5  C   UNL     1     -11.080  11.555  66.623  1.00  0.00    -0.355 A  
HETATM    6  C   UNL     1     -10.026   9.291  67.417  1.00  0.00    -0.199 C  
HETATM    7  C   UNL     1      -9.564   8.653  68.733  1.00  0.00    -0.157 C  
HETATM    8  C   UNL     1     -10.919  11.678  65.228  1.00  0.00    -0.327 A  
HETATM    9  O   UNL     1      -9.769   8.802  66.321  1.00  0.00    -0.247 OA 
HETATM   10  C   UNL     1     -10.701   8.752  69.776  1.00  0.00    -0.220 C  
HETATM   11  C   UNL     1     -12.114  13.774  66.690  1.00  0.00    -0.471 A  
HETATM   12  C   UNL     1     -11.354  12.840  64.582  1.00  0.00    -0.362 A  
HETATM   13  C   UNL     1     -11.037  10.222  70.091  1.00  0.00    -0.385 C  
HETATM   14  C   UNL     1     -11.938  13.874  65.307  1.00  0.00    -0.384 A  
HETATM   15  C   UNL     1     -11.679  12.603  67.332  1.00  0.00    -0.369 A  
ENDROOT
BRANCH   7  16
HETATM   16  C   UNL     1      -9.094   7.221  68.476  1.00  0.00    -0.136 C  
BRANCH  16  17
HETATM   17  N   UNL     1      -8.400   6.633  69.609  1.00  0.00    -0.130 NA 
HETATM   18  C   UNL     1      -7.185   7.044  70.090  1.00  0.00    -0.075 A  
HETATM   19  C   UNL     1      -6.961   6.271  71.203  1.00  0.00    -0.068 A  
HETATM   20  N   UNL     1      -7.987   5.387  71.391  1.00  0.00    -0.112 NA 
HETATM   21  C   UNL     1      -8.838   5.601  70.406  1.00  0.00    -0.136 A  
HETATM   22  C   UNL     1     -10.097   4.849  70.177  1.00  0.00    -0.332 C  
ENDBRANCH  16  17
ENDBRANCH   7  16
TORSDOF 2
ENDMDL
MODEL       80
REMARK 921   NORMALIZED FREE ENERGY PREDICTED BY IDOCK:   -5.53 KCAL/MOL
REMARK 922        TOTAL FREE ENERGY PREDICTED BY IDOCK:   -5.91 KCAL/MOL
REMARK 923 INTER-LIGAND FREE ENERGY PREDICTED BY IDOCK:   -5.81 KCAL/MOL
REMARK 924 INTRA-LIGAND FREE ENERGY PREDICTED BY IDOCK:   -0.10 KCAL/MOL
REMARK 927      BINDING AFFINITY PREDICTED BY RF-SCORE:    0.00 PKD
ROOT
HETATM    1  C   UNL     1     -12.744   8.947  72.429  1.00  0.00    -0.368 C  
HETATM    2  N   UNL     1     -11.544   9.228  71.669  1.00  0.00    -0.372 NA 
HETATM    3  C   UNL     1     -11.432  10.105  70.622  1.00  0.00    -0.349 A  
HETATM    4  C   UNL     1     -10.143  10.014  70.124  1.00  0.00    -0.266 A  
HETATM    5  C   UNL     1      -9.426   9.102  70.942  1.00  0.00    -0.343 A  
HETATM    6  C   UNL     1      -9.736  10.772  68.946  1.00  0.00    -0.198 C  
HETATM    7  C   UNL     1     -10.893  11.401  68.161  1.00  0.00    -0.259 C  
HETATM    8  C   UNL     1      -8.098   8.627  70.948  1.00  0.00    -0.155 A  
HETATM    9  O   UNL     1      -8.568  10.849  68.575  1.00  0.00    -0.137 OA 
HETATM   10  C   UNL     1     -11.893  12.043  69.151  1.00  0.00    -0.369 C  
HETATM   11  C   UNL     1      -9.946   7.646  72.841  1.00  0.00    -0.319 A  
HETATM   12  C   UNL     1      -7.711   7.673  71.893  1.00  0.00    -0.093 A  
HETATM   13  C   UNL     1     -12.513  10.980  70.078  1.00  0.00    -0.319 C  
HETATM   14  C   UNL     1      -8.625   7.187  72.823  1.00  0.00    -0.134 A  
HETATM   15  C   UNL     1     -10.328   8.608  71.891  1.00  0.00    -0.335 A  
ENDROOT
BRANCH   7  16
HETATM   16  C   UNL     1     -10.343  12.383  67.126  1.00  0.00    -0.219 C  
BRANCH  16  17
HETATM   17  N   UNL     1     -10.743  13.758  67.370  1.00  0.00    -0.273 NA 
HETATM   18  C   UNL     1     -10.138  14.612  68.255  1.00  0.00    -0.228 A  
HETATM   19  C   UNL     1     -10.786  15.812  68.095  1.00  0.00    -0.285 A  
HETATM   20  N   UNL     1     -11.782  15.702  67.164  1.00  0.00     0.109 NA 
HETATM   21  C   UNL     1     -11.760  14.450  66.753  1.00  0.00    -0.397 A  
HETATM   22  C   UNL     1     -12.688  13.852  65.760  1.00  0.00    -0.503 C  
ENDBRANCH  16  17
ENDBRANCH   7  16
TORSDOF 2
ENDMDL
MODEL       81
REMARK 921   NORMALIZED FREE ENERGY PREDICTED BY IDOCK:   -5.52 KCAL/MOL
REMARK 922        TOTAL FREE ENERGY PREDICTED BY IDOCK:   -5.90 KCAL/MOL
REMARK 923 INTER-LIGAND FREE ENERGY PREDICTED BY IDOCK:   -6.31 KCAL/MOL
REMARK 924 INTRA-LIGAND FREE ENERGY PREDICTED BY IDOCK:    0.41 KCAL/MOL
REMARK 927      BINDING AFFINITY PREDICTED BY RF-SCORE:    0.00 PKD
ROOT
HETATM    1  C   UNL     1     -10.144  18.330  68.787  1.00  0.00    -0.370 C  
HETATM    2  N   UNL     1      -9.514  17.119  68.305  1.00  0.00    -0.267 NA 
HETATM    3  C   UNL     1     -10.148  15.951  67.971  1.00  0.00    -0.230 A  
HETATM    4  C   UNL     1      -9.180  15.018  67.639  1.00  0.00    -0.182 A  
HETATM    5  C   UNL     1      -7.917  15.662  67.706  1.00  0.00    -0.157 A  
HETATM    6  C   UNL     1      -9.540  13.643  67.313  1.00  0.00    -0.238 C  
HETATM    7  C   UNL     1     -10.984  13.261  67.661  1.00  0.00    -0.281 C  
HETATM    8  C   UNL     1      -6.591  15.246  67.463  1.00  0.00    -0.181 A  
HETATM    9  O   UNL     1      -8.737  12.835  66.854  1.00  0.00    -0.207 OA 
HETATM   10  C   UNL     1     -11.933  14.403  67.228  1.00  0.00    -0.409 C  
HETATM   11  C   UNL     1      -7.094  17.876  68.355  1.00  0.00    -0.245 A  
HETATM   12  C   UNL     1      -5.538  16.143  67.667  1.00  0.00    -0.167 A  
HETATM   13  C   UNL     1     -11.621  15.703  67.994  1.00  0.00    -0.245 C  
HETATM   14  C   UNL     1      -5.789  17.438  68.111  1.00  0.00    -0.147 A  
HETATM   15  C   UNL     1      -8.148  16.971  68.144  1.00  0.00    -0.212 A  
ENDROOT
BRANCH   7  16
HETATM   16  C   UNL     1     -11.328  11.910  67.034  1.00  0.00    -0.329 C  
BRANCH  16  17
HETATM   17  N   UNL     1     -11.491  11.972  65.592  1.00  0.00    -0.339 NA 
HETATM   18  C   UNL     1     -12.404  12.753  64.934  1.00  0.00    -0.490 A  
HETATM   19  C   UNL     1     -12.146  12.557  63.599  1.00  0.00    -0.554 A  
HETATM   20  N   UNL     1     -11.127  11.660  63.431  1.00  0.00    -0.383 NA 
HETATM   21  C   UNL     1     -10.757  11.297  64.644  1.00  0.00    -0.303 A  
HETATM   22  C   UNL     1      -9.697  10.308  64.961  1.00  0.00    -0.370 C  
ENDBRANCH  16  17
ENDBRANCH   7  16
TORSDOF 2
ENDMDL
MODEL       82
REMARK 921   NORMALIZED FREE ENERGY PREDICTED BY IDOCK:   -5.49 KCAL/MOL
REMARK 922        TOTAL FREE ENERGY PREDICTED BY IDOCK:   -5.87 KCAL/MOL
REMARK 923 INTER-LIGAND FREE ENERGY PREDICTED BY IDOCK:   -6.24 KCAL/MOL
REMARK 924 INTRA-LIGAND FREE ENERGY PREDICTED BY IDOCK:    0.37 KCAL/MOL
REMARK 927      BINDING AFFINITY PREDICTED BY RF-SCORE:    0.00 PKD
ROOT
HETATM    1  C   UNL     1      -9.412  10.925  67.391  1.00  0.00    -0.155 C  
HETATM    2  N   UNL     1      -9.637  12.186  66.717  1.00  0.00    -0.206 NA 
HETATM    3  C   UNL     1      -9.024  13.379  67.000  1.00  0.00    -0.224 A  
HETATM    4  C   UNL     1      -9.581  14.350  66.184  1.00  0.00    -0.309 A  
HETATM    5  C   UNL     1     -10.515  13.712  65.327  1.00  0.00    -0.362 A  
HETATM    6  C   UNL     1      -9.190  15.750  66.305  1.00  0.00    -0.333 C  
HETATM    7  C   UNL     1      -8.383  16.080  67.567  1.00  0.00    -0.177 C  
HETATM    8  C   UNL     1     -11.360  14.162  64.290  1.00  0.00    -0.241 A  
HETATM    9  O   UNL     1      -9.531  16.609  65.497  1.00  0.00    -0.482 OA 
HETATM   10  C   UNL     1      -7.314  14.986  67.790  1.00  0.00    -0.183 C  
HETATM   11  C   UNL     1     -11.407  11.446  65.058  1.00  0.00    -0.090 A  
HETATM   12  C   UNL     1     -12.213  13.255  63.654  1.00  0.00    -0.522 A  
HETATM   13  C   UNL     1      -7.969  13.612  68.030  1.00  0.00    -0.154 C  
HETATM   14  C   UNL     1     -12.238  11.918  64.037  1.00  0.00    -0.444 A  
HETATM   15  C   UNL     1     -10.548  12.361  65.691  1.00  0.00    -0.265 A  
ENDROOT
BRANCH   7  16
HETATM   16  C   UNL     1      -7.801  17.489  67.455  1.00  0.00    -0.202 C  
BRANCH  16  17
HETATM   17  N   UNL     1      -8.808  18.534  67.530  1.00  0.00    -0.264 NA 
HETATM   18  C   UNL     1      -8.852  19.647  66.732  1.00  0.00    -0.343 A  
HETATM   19  C   UNL     1     -10.004  20.302  67.094  1.00  0.00    -0.453 A  
HETATM   20  N   UNL     1     -10.640  19.635  68.105  1.00  0.00    -0.369 NA 
HETATM   21  C   UNL     1      -9.894  18.582  68.374  1.00  0.00    -0.372 A  
HETATM   22  C   UNL     1     -10.172  17.575  69.429  1.00  0.00    -0.089 C  
ENDBRANCH  16  17
ENDBRANCH   7  16
TORSDOF 2
ENDMDL
MODEL       83
REMARK 921   NORMALIZED FREE ENERGY PREDICTED BY IDOCK:   -5.49 KCAL/MOL
REMARK 922        TOTAL FREE ENERGY PREDICTED BY IDOCK:   -5.86 KCAL/MOL
REMARK 923 INTER-LIGAND FREE ENERGY PREDICTED BY IDOCK:   -5.65 KCAL/MOL
REMARK 924 INTRA-LIGAND FREE ENERGY PREDICTED BY IDOCK:   -0.21 KCAL/MOL
REMARK 927      BINDING AFFINITY PREDICTED BY RF-SCORE:    0.00 PKD
ROOT
HETATM    1  C   UNL     1     -10.141  10.725  62.842  1.00  0.00    -0.085 C  
HETATM    2  N   UNL     1     -10.270  10.978  64.262  1.00  0.00    -0.327 NA 
HETATM    3  C   UNL     1      -9.725  10.231  65.274  1.00  0.00    -0.291 A  
HETATM    4  C   UNL     1     -10.156  10.762  66.478  1.00  0.00    -0.277 A  
HETATM    5  C   UNL     1     -10.934  11.914  66.190  1.00  0.00    -0.352 A  
HETATM    6  C   UNL     1      -9.808  10.132  67.746  1.00  0.00    -0.163 C  
HETATM    7  C   UNL     1      -9.217   8.723  67.618  1.00  0.00    -0.148 C  
HETATM    8  C   UNL     1     -11.608  12.865  66.984  1.00  0.00    -0.419 A  
HETATM    9  O   UNL     1     -10.026  10.659  68.833  1.00  0.00    -0.187 OA 
HETATM   10  C   UNL     1      -8.183   8.705  66.468  1.00  0.00    -0.107 C  
HETATM   11  C   UNL     1     -11.743  13.040  64.170  1.00  0.00    -0.470 A  
HETATM   12  C   UNL     1     -12.338  13.886  66.367  1.00  0.00    -0.468 A  
HETATM   13  C   UNL     1      -8.851   9.030  65.118  1.00  0.00    -0.224 C  
HETATM   14  C   UNL     1     -12.407  13.967  64.980  1.00  0.00    -0.458 A  
HETATM   15  C   UNL     1     -11.008  12.019  64.795  1.00  0.00    -0.311 A  
ENDROOT
BRANCH   7  16
HETATM   16  C   UNL     1      -8.641   8.279  68.963  1.00  0.00    -0.135 C  
BRANCH  16  17
HETATM   17  N   UNL     1      -9.542   7.423  69.717  1.00  0.00    -0.163 NA 
HETATM   18  C   UNL     1     -10.773   7.795  70.189  1.00  0.00    -0.240 A  
HETATM   19  C   UNL     1     -11.295   6.659  70.759  1.00  0.00    -0.336 A  
HETATM   20  N   UNL     1     -10.406   5.624  70.673  1.00  0.00    -0.235 NA 
HETATM   21  C   UNL     1      -9.342   6.107  70.062  1.00  0.00    -0.154 A  
HETATM   22  C   UNL     1      -8.097   5.351  69.773  1.00  0.00    -0.096 C  
ENDBRANCH  16  17
ENDBRANCH   7  16
TORSDOF 2
ENDMDL
MODEL       84
REMARK 921   NORMALIZED FREE ENERGY PREDICTED BY IDOCK:   -5.49 KCAL/MOL
REMARK 922        TOTAL FREE ENERGY PREDICTED BY IDOCK:   -5.86 KCAL/MOL
REMARK 923 INTER-LIGAND FREE ENERGY PREDICTED BY IDOCK:   -5.50 KCAL/MOL
REMARK 924 INTRA-LIGAND FREE ENERGY PREDICTED BY IDOCK:   -0.36 KCAL/MOL
REMARK 927      BINDING AFFINITY PREDICTED BY RF-SCORE:    0.00 PKD
ROOT
HETATM    1  C   UNL     1     -11.104   7.512  70.348  1.00  0.00    -0.261 C  
HETATM    2  N   UNL     1     -10.393   8.473  69.531  1.00  0.00    -0.215 NA 
HETATM    3  C   UNL     1     -10.736   9.786  69.336  1.00  0.00    -0.228 A  
HETATM    4  C   UNL     1      -9.847  10.330  68.425  1.00  0.00    -0.168 A  
HETATM    5  C   UNL     1      -8.887   9.333  68.108  1.00  0.00    -0.129 A  
HETATM    6  C   UNL     1     -10.000  11.700  67.950  1.00  0.00    -0.182 C  
HETATM    7  C   UNL     1     -11.348  12.347  68.290  1.00  0.00    -0.332 C  
HETATM    8  C   UNL     1      -7.749   9.299  67.276  1.00  0.00    -0.095 A  
HETATM    9  O   UNL     1      -9.146  12.271  67.277  1.00  0.00    -0.172 OA 
HETATM   10  C   UNL     1     -11.715  12.021  69.756  1.00  0.00    -0.390 C  
HETATM   11  C   UNL     1      -8.535   6.976  68.672  1.00  0.00    -0.121 A  
HETATM   12  C   UNL     1      -7.021   8.111  67.151  1.00  0.00    -0.075 A  
HETATM   13  C   UNL     1     -11.887  10.504  69.960  1.00  0.00    -0.388 C  
HETATM   14  C   UNL     1      -7.413   6.966  67.837  1.00  0.00    -0.099 A  
HETATM   15  C   UNL     1      -9.259   8.173  68.797  1.00  0.00    -0.144 A  
ENDROOT
BRANCH   7  16
HETATM   16  C   UNL     1     -11.294  13.845  67.992  1.00  0.00    -0.288 C  
BRANCH  16  17
HETATM   17  N   UNL     1     -11.566  14.164  66.601  1.00  0.00    -0.366 NA 
HETATM   18  C   UNL     1     -12.584  13.630  65.854  1.00  0.00    -0.425 A  
HETATM   19  C   UNL     1     -12.512  14.273  64.642  1.00  0.00    -0.351 A  
HETATM   20  N   UNL     1     -11.467  15.154  64.624  1.00  0.00    -0.392 NA 
HETATM   21  C   UNL     1     -10.890  15.060  65.806  1.00  0.00    -0.350 A  
HETATM   22  C   UNL     1      -9.685  15.811  66.239  1.00  0.00    -0.328 C  
ENDBRANCH  16  17
ENDBRANCH   7  16
TORSDOF 2
ENDMDL
MODEL       85
REMARK 921   NORMALIZED FREE ENERGY PREDICTED BY IDOCK:   -5.48 KCAL/MOL
REMARK 922        TOTAL FREE ENERGY PREDICTED BY IDOCK:   -5.86 KCAL/MOL
REMARK 923 INTER-LIGAND FREE ENERGY PREDICTED BY IDOCK:   -5.47 KCAL/MOL
REMARK 924 INTRA-LIGAND FREE ENERGY PREDICTED BY IDOCK:   -0.39 KCAL/MOL
REMARK 927      BINDING AFFINITY PREDICTED BY RF-SCORE:    0.00 PKD
ROOT
HETATM    1  C   UNL     1     -10.834  13.435  64.950  1.00  0.00    -0.352 C  
HETATM    2  N   UNL     1     -10.936  12.803  66.249  1.00  0.00    -0.274 NA 
HETATM    3  C   UNL     1     -10.606  11.508  66.551  1.00  0.00    -0.258 A  
HETATM    4  C   UNL     1     -10.931  11.282  67.878  1.00  0.00    -0.302 A  
HETATM    5  C   UNL     1     -11.411  12.503  68.421  1.00  0.00    -0.355 A  
HETATM    6  C   UNL     1     -10.771   9.963  68.478  1.00  0.00    -0.226 C  
HETATM    7  C   UNL     1     -10.522   8.831  67.474  1.00  0.00    -0.340 C  
HETATM    8  C   UNL     1     -11.863  12.897  69.697  1.00  0.00    -0.387 A  
HETATM    9  O   UNL     1     -10.887   9.761  69.684  1.00  0.00    -0.230 OA 
HETATM   10  C   UNL     1      -9.493   9.300  66.420  1.00  0.00    -0.277 C  
HETATM   11  C   UNL     1     -11.884  14.750  67.570  1.00  0.00    -0.326 A  
HETATM   12  C   UNL     1     -12.319  14.204  69.895  1.00  0.00    -0.382 A  
HETATM   13  C   UNL     1     -10.033  10.497  65.614  1.00  0.00    -0.332 C  
HETATM   14  C   UNL     1     -12.333  15.114  68.843  1.00  0.00    -0.021 A  
HETATM   15  C   UNL     1     -11.424  13.437  67.378  1.00  0.00    -0.333 A  
ENDROOT
BRANCH   7  16
HETATM   16  C   UNL     1     -10.100   7.563  68.217  1.00  0.00    -0.183 C  
BRANCH  16  17
HETATM   17  N   UNL     1      -9.976   6.404  67.350  1.00  0.00    -0.128 NA 
HETATM   18  C   UNL     1     -11.019   5.765  66.733  1.00  0.00    -0.154 A  
HETATM   19  C   UNL     1     -10.435   4.793  65.957  1.00  0.00    -0.292 A  
HETATM   20  N   UNL     1      -9.077   4.806  66.111  1.00  0.00    -0.124 NA 
HETATM   21  C   UNL     1      -8.815   5.769  66.973  1.00  0.00    -0.112 A  
HETATM   22  C   UNL     1      -7.467   6.136  67.473  1.00  0.00    -0.082 C  
ENDBRANCH  16  17
ENDBRANCH   7  16
TORSDOF 2
ENDMDL
MODEL       86
REMARK 921   NORMALIZED FREE ENERGY PREDICTED BY IDOCK:   -5.48 KCAL/MOL
REMARK 922        TOTAL FREE ENERGY PREDICTED BY IDOCK:   -5.86 KCAL/MOL
REMARK 923 INTER-LIGAND FREE ENERGY PREDICTED BY IDOCK:   -5.50 KCAL/MOL
REMARK 924 INTRA-LIGAND FREE ENERGY PREDICTED BY IDOCK:   -0.36 KCAL/MOL
REMARK 927      BINDING AFFINITY PREDICTED BY RF-SCORE:    0.00 PKD
ROOT
HETATM    1  C   UNL     1     -11.848  12.006  68.936  1.00  0.00    -0.299 C  
HETATM    2  N   UNL     1     -11.423  11.752  67.575  1.00  0.00    -0.404 NA 
HETATM    3  C   UNL     1     -10.685  10.682  67.140  1.00  0.00    -0.272 A  
HETATM    4  C   UNL     1     -10.425  10.862  65.792  1.00  0.00    -0.275 A  
HETATM    5  C   UNL     1     -11.087  12.047  65.376  1.00  0.00    -0.369 A  
HETATM    6  C   UNL     1      -9.586   9.923  65.056  1.00  0.00    -0.297 C  
HETATM    7  C   UNL     1      -8.800   8.944  65.936  1.00  0.00    -0.215 C  
HETATM    8  C   UNL     1     -11.209  12.720  64.144  1.00  0.00    -0.435 A  
HETATM    9  O   UNL     1      -9.469   9.952  63.834  1.00  0.00    -0.273 OA 
HETATM   10  C   UNL     1      -9.725   8.402  67.050  1.00  0.00    -0.268 C  
HETATM   11  C   UNL     1     -12.402  13.808  66.458  1.00  0.00    -0.432 A  
HETATM   12  C   UNL     1     -11.920  13.922  64.081  1.00  0.00    -0.464 A  
HETATM   13  C   UNL     1     -10.206   9.538  67.972  1.00  0.00    -0.244 C  
HETATM   14  C   UNL     1     -12.503  14.459  65.224  1.00  0.00    -0.359 A  
HETATM   15  C   UNL     1     -11.690  12.598  66.514  1.00  0.00    -0.400 A  
ENDROOT
BRANCH   7  16
HETATM   16  C   UNL     1      -8.182   7.848  65.067  1.00  0.00    -0.131 C  
BRANCH  16  17
HETATM   17  N   UNL     1      -7.275   6.979  65.798  1.00  0.00    -0.072 NA 
HETATM   18  C   UNL     1      -6.237   7.405  66.584  1.00  0.00    -0.044 A  
HETATM   19  C   UNL     1      -5.714   6.261  67.136  1.00  0.00    -0.013 A  
HETATM   20  N   UNL     1      -6.384   5.158  66.684  1.00  0.00    -0.038 NA 
HETATM   21  C   UNL     1      -7.309   5.605  65.858  1.00  0.00    -0.073 A  
HETATM   22  C   UNL     1      -8.265   4.763  65.097  1.00  0.00    -0.121 C  
ENDBRANCH  16  17
ENDBRANCH   7  16
TORSDOF 2
ENDMDL
MODEL       87
REMARK 921   NORMALIZED FREE ENERGY PREDICTED BY IDOCK:   -5.47 KCAL/MOL
REMARK 922        TOTAL FREE ENERGY PREDICTED BY IDOCK:   -5.84 KCAL/MOL
REMARK 923 INTER-LIGAND FREE ENERGY PREDICTED BY IDOCK:   -5.77 KCAL/MOL
REMARK 924 INTRA-LIGAND FREE ENERGY PREDICTED BY IDOCK:   -0.08 KCAL/MOL
REMARK 927      BINDING AFFINITY PREDICTED BY RF-SCORE:    0.00 PKD
ROOT
HETATM    1  C   UNL     1     -11.047   7.633  70.133  1.00  0.00    -0.218 C  
HETATM    2  N   UNL     1     -10.772   8.649  69.139  1.00  0.00    -0.170 NA 
HETATM    3  C   UNL     1     -11.128   9.970  69.206  1.00  0.00    -0.206 A  
HETATM    4  C   UNL     1     -10.751  10.577  68.020  1.00  0.00    -0.287 A  
HETATM    5  C   UNL     1     -10.079   9.606  67.232  1.00  0.00    -0.267 A  
HETATM    6  C   UNL     1     -11.069  11.975  67.755  1.00  0.00    -0.249 C  
HETATM    7  C   UNL     1     -12.084  12.593  68.724  1.00  0.00    -0.155 C  
HETATM    8  C   UNL     1      -9.462   9.630  65.964  1.00  0.00    -0.284 A  
HETATM    9  O   UNL     1     -10.611  12.592  66.797  1.00  0.00    -0.231 OA 
HETATM   10  C   UNL     1     -11.734  12.170  70.169  1.00  0.00    -0.301 C  
HETATM   11  C   UNL     1      -9.572   7.217  67.423  1.00  0.00    -0.168 A  
HETATM   12  C   UNL     1      -8.911   8.456  65.442  1.00  0.00    -0.146 A  
HETATM   13  C   UNL     1     -11.834  10.642  70.338  1.00  0.00    -0.441 C  
HETATM   14  C   UNL     1      -8.971   7.266  66.162  1.00  0.00    -0.179 A  
HETATM   15  C   UNL     1     -10.121   8.401  67.944  1.00  0.00    -0.203 A  
ENDROOT
BRANCH   7  16
HETATM   16  C   UNL     1     -12.131  14.109  68.526  1.00  0.00    -0.277 C  
BRANCH  16  17
HETATM   17  N   UNL     1     -12.172  14.850  69.775  1.00  0.00    -0.305 NA 
HETATM   18  C   UNL     1     -13.282  15.008  70.563  1.00  0.00    -0.215 A  
HETATM   19  C   UNL     1     -12.841  15.696  71.667  1.00  0.00    -0.463 A  
HETATM   20  N   UNL     1     -11.509  15.983  71.557  1.00  0.00    -0.418 NA 
HETATM   21  C   UNL     1     -11.123  15.487  70.398  1.00  0.00    -0.337 A  
HETATM   22  C   UNL     1      -9.755  15.585  69.830  1.00  0.00    -0.247 C  
ENDBRANCH  16  17
ENDBRANCH   7  16
TORSDOF 2
ENDMDL
MODEL       88
REMARK 921   NORMALIZED FREE ENERGY PREDICTED BY IDOCK:   -5.45 KCAL/MOL
REMARK 922        TOTAL FREE ENERGY PREDICTED BY IDOCK:   -5.81 KCAL/MOL
REMARK 923 INTER-LIGAND FREE ENERGY PREDICTED BY IDOCK:   -5.67 KCAL/MOL
REMARK 924 INTRA-LIGAND FREE ENERGY PREDICTED BY IDOCK:   -0.14 KCAL/MOL
REMARK 927      BINDING AFFINITY PREDICTED BY RF-SCORE:    0.00 PKD
ROOT
HETATM    1  C   UNL     1      -9.831  10.686  66.323  1.00  0.00    -0.214 C  
HETATM    2  N   UNL     1     -10.416  10.801  67.642  1.00  0.00    -0.200 NA 
HETATM    3  C   UNL     1     -10.556   9.793  68.560  1.00  0.00    -0.221 A  
HETATM    4  C   UNL     1     -11.237  10.301  69.654  1.00  0.00    -0.322 A  
HETATM    5  C   UNL     1     -11.458  11.684  69.422  1.00  0.00    -0.372 A  
HETATM    6  C   UNL     1     -11.612   9.443  70.772  1.00  0.00    -0.298 C  
HETATM    7  C   UNL     1     -11.470   7.941  70.500  1.00  0.00    -0.204 C  
HETATM    8  C   UNL     1     -12.066  12.717  70.165  1.00  0.00    -0.368 A  
HETATM    9  O   UNL     1     -12.063   9.883  71.826  1.00  0.00    -0.389 OA 
HETATM   10  C   UNL     1     -10.130   7.677  69.775  1.00  0.00    -0.196 C  
HETATM   11  C   UNL     1     -11.046  13.257  67.591  1.00  0.00    -0.292 A  
HETATM   12  C   UNL     1     -12.158  14.000  69.617  1.00  0.00    -0.408 A  
HETATM   13  C   UNL     1     -10.094   8.381  68.405  1.00  0.00    -0.224 C  
HETATM   14  C   UNL     1     -11.659  14.262  68.345  1.00  0.00    -0.354 A  
HETATM   15  C   UNL     1     -10.953  11.971  68.149  1.00  0.00    -0.230 A  
ENDROOT
BRANCH   7  16
HETATM   16  C   UNL     1     -11.621   7.162  71.807  1.00  0.00    -0.280 C  
BRANCH  16  17
HETATM   17  N   UNL     1     -10.465   6.340  72.122  1.00  0.00    -0.195 NA 
HETATM   18  C   UNL     1     -10.282   5.045  71.713  1.00  0.00    -0.207 A  
HETATM   19  C   UNL     1      -9.032   4.700  72.165  1.00  0.00    -0.126 A  
HETATM   20  N   UNL     1      -8.468   5.735  72.858  1.00  0.00    -0.122 NA 
HETATM   21  C   UNL     1      -9.354   6.711  72.844  1.00  0.00    -0.135 A  
HETATM   22  C   UNL     1      -9.194   8.031  73.503  1.00  0.00    -0.312 C  
ENDBRANCH  16  17
ENDBRANCH   7  16
TORSDOF 2
ENDMDL
MODEL       89
REMARK 921   NORMALIZED FREE ENERGY PREDICTED BY IDOCK:   -5.40 KCAL/MOL
REMARK 922        TOTAL FREE ENERGY PREDICTED BY IDOCK:   -5.76 KCAL/MOL
REMARK 923 INTER-LIGAND FREE ENERGY PREDICTED BY IDOCK:   -5.33 KCAL/MOL
REMARK 924 INTRA-LIGAND FREE ENERGY PREDICTED BY IDOCK:   -0.43 KCAL/MOL
REMARK 927      BINDING AFFINITY PREDICTED BY RF-SCORE:    0.00 PKD
ROOT
HETATM    1  C   UNL     1     -11.822  12.300  66.904  1.00  0.00    -0.264 C  
HETATM    2  N   UNL     1     -11.305  11.153  67.621  1.00  0.00    -0.410 NA 
HETATM    3  C   UNL     1     -10.483  10.181  67.115  1.00  0.00    -0.246 A  
HETATM    4  C   UNL     1     -10.292   9.226  68.100  1.00  0.00    -0.261 A  
HETATM    5  C   UNL     1     -10.965   9.669  69.269  1.00  0.00    -0.194 A  
HETATM    6  C   UNL     1      -9.522   8.016  67.836  1.00  0.00    -0.145 C  
HETATM    7  C   UNL     1      -9.226   7.759  66.354  1.00  0.00    -0.229 C  
HETATM    8  C   UNL     1     -11.112   9.148  70.571  1.00  0.00    -0.308 A  
HETATM    9  O   UNL     1      -9.191   7.232  68.721  1.00  0.00    -0.138 OA 
HETATM   10  C   UNL     1      -8.788   9.081  65.683  1.00  0.00    -0.224 C  
HETATM   11  C   UNL     1     -12.402  11.559  69.872  1.00  0.00    -0.247 A  
HETATM   12  C   UNL     1     -11.898   9.833  71.503  1.00  0.00    -0.476 A  
HETATM   13  C   UNL     1      -9.917  10.128  65.734  1.00  0.00    -0.339 C  
HETATM   14  C   UNL     1     -12.537  11.018  71.154  1.00  0.00    -0.522 A  
HETATM   15  C   UNL     1     -11.608  10.868  68.941  1.00  0.00    -0.309 A  
ENDROOT
BRANCH   7  16
HETATM   16  C   UNL     1      -8.197   6.636  66.219  1.00  0.00    -0.120 C  
BRANCH  16  17
HETATM   17  N   UNL     1      -8.647   5.543  65.375  1.00  0.00    -0.149 NA 
HETATM   18  C   UNL     1      -8.410   5.435  64.030  1.00  0.00    -0.116 A  
HETATM   19  C   UNL     1      -8.940   4.220  63.669  1.00  0.00    -0.138 A  
HETATM   20  N   UNL     1      -9.515   3.606  64.746  1.00  0.00    -0.151 NA 
HETATM   21  C   UNL     1      -9.352   4.427  65.765  1.00  0.00    -0.162 A  
HETATM   22  C   UNL     1      -9.845   4.197  67.146  1.00  0.00    -0.182 C  
ENDBRANCH  16  17
ENDBRANCH   7  16
TORSDOF 2
ENDMDL
MODEL       90
REMARK 921   NORMALIZED FREE ENERGY PREDICTED BY IDOCK:   -5.33 KCAL/MOL
REMARK 922        TOTAL FREE ENERGY PREDICTED BY IDOCK:   -5.69 KCAL/MOL
REMARK 923 INTER-LIGAND FREE ENERGY PREDICTED BY IDOCK:   -5.60 KCAL/MOL
REMARK 924 INTRA-LIGAND FREE ENERGY PREDICTED BY IDOCK:   -0.09 KCAL/MOL
REMARK 927      BINDING AFFINITY PREDICTED BY RF-SCORE:    0.00 PKD
ROOT
HETATM    1  C   UNL     1     -13.700   8.831  72.572  1.00  0.00    -0.368 C  
HETATM    2  N   UNL     1     -12.765   9.304  71.574  1.00  0.00    -0.333 NA 
HETATM    3  C   UNL     1     -11.899   8.534  70.842  1.00  0.00    -0.217 A  
HETATM    4  C   UNL     1     -11.126   9.380  70.065  1.00  0.00    -0.248 A  
HETATM    5  C   UNL     1     -11.585  10.706  70.279  1.00  0.00    -0.424 A  
HETATM    6  C   UNL     1     -10.049   8.860  69.229  1.00  0.00    -0.203 C  
HETATM    7  C   UNL     1      -9.664   7.404  69.517  1.00  0.00    -0.159 C  
HETATM    8  C   UNL     1     -11.215  11.966  69.765  1.00  0.00    -0.133 A  
HETATM    9  O   UNL     1      -9.455   9.549  68.405  1.00  0.00    -0.137 OA 
HETATM   10  C   UNL     1     -10.948   6.560  69.687  1.00  0.00    -0.394 C  
HETATM   11  C   UNL     1     -13.248  11.789  71.715  1.00  0.00    -0.434 A  
HETATM   12  C   UNL     1     -11.860  13.116  70.229  1.00  0.00    -0.299 A  
HETATM   13  C   UNL     1     -11.774   7.046  70.893  1.00  0.00    -0.387 C  
HETATM   14  C   UNL     1     -12.859  13.027  71.193  1.00  0.00    -0.331 A  
HETATM   15  C   UNL     1     -12.599  10.636  71.242  1.00  0.00    -0.427 A  
ENDROOT
BRANCH   7  16
HETATM   16  C   UNL     1      -8.735   6.888  68.417  1.00  0.00    -0.124 C  
BRANCH  16  17
HETATM   17  N   UNL     1      -9.348   5.872  67.579  1.00  0.00    -0.111 NA 
HETATM   18  C   UNL     1     -10.266   6.113  66.590  1.00  0.00    -0.178 A  
HETATM   19  C   UNL     1     -10.500   4.888  66.014  1.00  0.00    -0.283 A  
HETATM   20  N   UNL     1      -9.777   3.913  66.643  1.00  0.00    -0.201 NA 
HETATM   21  C   UNL     1      -9.104   4.518  67.601  1.00  0.00    -0.122 A  
HETATM   22  C   UNL     1      -8.200   3.853  68.573  1.00  0.00    -0.083 C  
ENDBRANCH  16  17
ENDBRANCH   7  16
TORSDOF 2
ENDMDL
MODEL       91
REMARK 921   NORMALIZED FREE ENERGY PREDICTED BY IDOCK:   -5.32 KCAL/MOL
REMARK 922        TOTAL FREE ENERGY PREDICTED BY IDOCK:   -5.68 KCAL/MOL
REMARK 923 INTER-LIGAND FREE ENERGY PREDICTED BY IDOCK:   -5.58 KCAL/MOL
REMARK 924 INTRA-LIGAND FREE ENERGY PREDICTED BY IDOCK:   -0.09 KCAL/MOL
REMARK 927      BINDING AFFINITY PREDICTED BY RF-SCORE:    0.00 PKD
ROOT
HETATM    1  C   UNL     1      -6.145   9.998  67.882  1.00  0.00    -0.053 C  
HETATM    2  N   UNL     1      -7.568  10.087  67.629  1.00  0.00    -0.090 NA 
HETATM    3  C   UNL     1      -8.315  11.235  67.585  1.00  0.00    -0.123 A  
HETATM    4  C   UNL     1      -9.640  10.877  67.400  1.00  0.00    -0.181 A  
HETATM    5  C   UNL     1      -9.691   9.465  67.256  1.00  0.00    -0.215 A  
HETATM    6  C   UNL     1     -10.697  11.881  67.391  1.00  0.00    -0.232 C  
HETATM    7  C   UNL     1     -10.268  13.264  67.895  1.00  0.00    -0.233 C  
HETATM    8  C   UNL     1     -10.731   8.541  67.028  1.00  0.00    -0.190 A  
HETATM    9  O   UNL     1     -11.854  11.628  67.065  1.00  0.00    -0.591 OA 
HETATM   10  C   UNL     1      -8.892  13.625  67.288  1.00  0.00    -0.227 C  
HETATM   11  C   UNL     1      -8.087   7.618  67.377  1.00  0.00    -0.119 A  
HETATM   12  C   UNL     1     -10.441   7.174  66.978  1.00  0.00    -0.392 A  
HETATM   13  C   UNL     1      -7.808  12.631  67.745  1.00  0.00    -0.154 C  
HETATM   14  C   UNL     1      -9.137   6.721  67.155  1.00  0.00    -0.130 A  
HETATM   15  C   UNL     1      -8.385   8.990  67.422  1.00  0.00    -0.112 A  
ENDROOT
BRANCH   7  16
HETATM   16  C   UNL     1     -11.360  14.289  67.586  1.00  0.00    -0.324 C  
BRANCH  16  17
HETATM   17  N   UNL     1     -10.840  15.541  67.064  1.00  0.00    -0.323 NA 
HETATM   18  C   UNL     1     -10.426  16.603  67.825  1.00  0.00    -0.316 A  
HETATM   19  C   UNL     1      -9.941  17.521  66.925  1.00  0.00    -0.313 A  
HETATM   20  N   UNL     1     -10.077  17.059  65.645  1.00  0.00    -0.588 NA 
HETATM   21  C   UNL     1     -10.643  15.873  65.743  1.00  0.00    -0.355 A  
HETATM   22  C   UNL     1     -11.018  14.999  64.603  1.00  0.00    -0.320 C  
ENDBRANCH  16  17
ENDBRANCH   7  16
TORSDOF 2
ENDMDL
MODEL       92
REMARK 921   NORMALIZED FREE ENERGY PREDICTED BY IDOCK:   -5.26 KCAL/MOL
REMARK 922        TOTAL FREE ENERGY PREDICTED BY IDOCK:   -5.61 KCAL/MOL
REMARK 923 INTER-LIGAND FREE ENERGY PREDICTED BY IDOCK:   -5.20 KCAL/MOL
REMARK 924 INTRA-LIGAND FREE ENERGY PREDICTED BY IDOCK:   -0.41 KCAL/MOL
REMARK 927      BINDING AFFINITY PREDICTED BY RF-SCORE:    0.00 PKD
ROOT
HETATM    1  C   UNL     1     -12.126  12.947  63.787  1.00  0.00    -0.508 C  
HETATM    2  N   UNL     1     -11.088  13.030  64.793  1.00  0.00    -0.309 NA 
HETATM    3  C   UNL     1     -10.437  11.976  65.378  1.00  0.00    -0.275 A  
HETATM    4  C   UNL     1      -9.582  12.483  66.342  1.00  0.00    -0.247 A  
HETATM    5  C   UNL     1      -9.664  13.899  66.293  1.00  0.00    -0.304 A  
HETATM    6  C   UNL     1      -8.803  11.596  67.199  1.00  0.00    -0.172 C  
HETATM    7  C   UNL     1      -9.233  10.125  67.153  1.00  0.00    -0.157 C  
HETATM    8  C   UNL     1      -9.029  14.942  66.998  1.00  0.00    -0.256 A  
HETATM    9  O   UNL     1      -7.916  12.001  67.945  1.00  0.00    -0.128 OA 
HETATM   10  C   UNL     1      -9.483   9.711  65.685  1.00  0.00    -0.318 C  
HETATM   11  C   UNL     1     -10.982  15.551  65.055  1.00  0.00    -0.454 A  
HETATM   12  C   UNL     1      -9.376  16.270  66.727  1.00  0.00    -0.258 A  
HETATM   13  C   UNL     1     -10.634  10.529  65.068  1.00  0.00    -0.109 C  
HETATM   14  C   UNL     1     -10.343  16.567  65.772  1.00  0.00    -0.359 A  
HETATM   15  C   UNL     1     -10.627  14.220  65.329  1.00  0.00    -0.381 A  
ENDROOT
BRANCH   7  16
HETATM   16  C   UNL     1      -8.192   9.259  67.863  1.00  0.00    -0.115 C  
BRANCH  16  17
HETATM   17  N   UNL     1      -8.600   8.846  69.195  1.00  0.00    -0.132 NA 
HETATM   18  C   UNL     1      -9.641   8.000  69.474  1.00  0.00    -0.164 A  
HETATM   19  C   UNL     1      -9.606   7.828  70.837  1.00  0.00    -0.167 A  
HETATM   20  N   UNL     1      -8.598   8.567  71.390  1.00  0.00    -0.159 NA 
HETATM   21  C   UNL     1      -8.013   9.195  70.389  1.00  0.00    -0.145 A  
HETATM   22  C   UNL     1      -6.878  10.144  70.511  1.00  0.00    -0.084 C  
ENDBRANCH  16  17
ENDBRANCH   7  16
TORSDOF 2
ENDMDL
MODEL       93
REMARK 921   NORMALIZED FREE ENERGY PREDICTED BY IDOCK:   -5.24 KCAL/MOL
REMARK 922        TOTAL FREE ENERGY PREDICTED BY IDOCK:   -5.58 KCAL/MOL
REMARK 923 INTER-LIGAND FREE ENERGY PREDICTED BY IDOCK:   -5.22 KCAL/MOL
REMARK 924 INTRA-LIGAND FREE ENERGY PREDICTED BY IDOCK:   -0.36 KCAL/MOL
REMARK 927      BINDING AFFINITY PREDICTED BY RF-SCORE:    0.00 PKD
ROOT
HETATM    1  C   UNL     1     -10.236   5.349  67.355  1.00  0.00    -0.201 C  
HETATM    2  N   UNL     1      -9.528   6.370  66.614  1.00  0.00    -0.158 NA 
HETATM    3  C   UNL     1      -9.711   7.724  66.716  1.00  0.00    -0.227 A  
HETATM    4  C   UNL     1      -8.899   8.339  65.779  1.00  0.00    -0.194 A  
HETATM    5  C   UNL     1      -8.143   7.327  65.130  1.00  0.00    -0.128 A  
HETATM    6  C   UNL     1      -8.930   9.784  65.587  1.00  0.00    -0.163 C  
HETATM    7  C   UNL     1     -10.111  10.492  66.262  1.00  0.00    -0.290 C  
HETATM    8  C   UNL     1      -7.155   7.335  64.124  1.00  0.00    -0.067 A  
HETATM    9  O   UNL     1      -8.114  10.382  64.892  1.00  0.00    -0.157 OA 
HETATM   10  C   UNL     1     -10.300   9.925  67.688  1.00  0.00    -0.275 C  
HETATM   11  C   UNL     1      -8.040   4.881  65.199  1.00  0.00    -0.112 A  
HETATM   12  C   UNL     1      -6.624   6.125  63.668  1.00  0.00    -0.033 A  
HETATM   13  C   UNL     1     -10.648   8.424  67.645  1.00  0.00    -0.265 C  
HETATM   14  C   UNL     1      -7.066   4.916  64.196  1.00  0.00    -0.050 A  
HETATM   15  C   UNL     1      -8.567   6.101  65.656  1.00  0.00    -0.145 A  
ENDROOT
BRANCH   7  16
HETATM   16  C   UNL     1      -9.895  12.005  66.230  1.00  0.00    -0.231 C  
BRANCH  16  17
HETATM   17  N   UNL     1     -11.003  12.731  65.632  1.00  0.00    -0.269 NA 
HETATM   18  C   UNL     1     -11.954  13.431  66.327  1.00  0.00    -0.411 A  
HETATM   19  C   UNL     1     -12.741  14.016  65.365  1.00  0.00    -0.471 A  
HETATM   20  N   UNL     1     -12.313  13.666  64.114  1.00  0.00    -0.649 NA 
HETATM   21  C   UNL     1     -11.276  12.871  64.292  1.00  0.00    -0.367 A  
HETATM   22  C   UNL     1     -10.498  12.215  63.211  1.00  0.00    -0.360 C  
ENDBRANCH  16  17
ENDBRANCH   7  16
TORSDOF 2
ENDMDL
MODEL       94
REMARK 921   NORMALIZED FREE ENERGY PREDICTED BY IDOCK:   -5.22 KCAL/MOL
REMARK 922        TOTAL FREE ENERGY PREDICTED BY IDOCK:   -5.57 KCAL/MOL
REMARK 923 INTER-LIGAND FREE ENERGY PREDICTED BY IDOCK:   -5.19 KCAL/MOL
REMARK 924 INTRA-LIGAND FREE ENERGY PREDICTED BY IDOCK:   -0.37 KCAL/MOL
REMARK 927      BINDING AFFINITY PREDICTED BY RF-SCORE:    0.00 PKD
ROOT
HETATM    1  C   UNL     1     -10.797   6.118  68.473  1.00  0.00    -0.314 C  
HETATM    2  N   UNL     1     -10.131   7.086  67.627  1.00  0.00    -0.159 NA 
HETATM    3  C   UNL     1     -10.182   8.449  67.756  1.00  0.00    -0.224 A  
HETATM    4  C   UNL     1      -9.480   9.006  66.700  1.00  0.00    -0.251 A  
HETATM    5  C   UNL     1      -8.923   7.943  65.942  1.00  0.00    -0.166 A  
HETATM    6  C   UNL     1      -9.420  10.451  66.514  1.00  0.00    -0.167 C  
HETATM    7  C   UNL     1     -10.416  11.246  67.367  1.00  0.00    -0.247 C  
HETATM    8  C   UNL     1      -8.109   7.881  64.792  1.00  0.00    -0.141 A  
HETATM    9  O   UNL     1      -8.676  10.987  65.698  1.00  0.00    -0.186 OA 
HETATM   10  C   UNL     1     -10.424  10.679  68.805  1.00  0.00    -0.215 C  
HETATM   11  C   UNL     1      -9.016   5.496  65.996  1.00  0.00    -0.154 A  
HETATM   12  C   UNL     1      -7.761   6.636  64.259  1.00  0.00    -0.109 A  
HETATM   13  C   UNL     1     -10.899   9.214  68.820  1.00  0.00    -0.096 C  
HETATM   14  C   UNL     1      -8.213   5.462  64.852  1.00  0.00    -0.138 A  
HETATM   15  C   UNL     1      -9.360   6.749  66.529  1.00  0.00    -0.161 A  
ENDROOT
BRANCH   7  16
HETATM   16  C   UNL     1     -10.082  12.736  67.299  1.00  0.00    -0.226 C  
BRANCH  16  17
HETATM   17  N   UNL     1     -10.867  13.457  66.311  1.00  0.00    -0.287 NA 
HETATM   18  C   UNL     1     -12.067  13.038  65.800  1.00  0.00    -0.454 A  
HETATM   19  C   UNL     1     -12.480  14.057  64.976  1.00  0.00    -0.425 A  
HETATM   20  N   UNL     1     -11.553  15.062  64.952  1.00  0.00    -0.388 NA 
HETATM   21  C   UNL     1     -10.573  14.675  65.744  1.00  0.00    -0.320 A  
HETATM   22  C   UNL     1      -9.325  15.435  66.006  1.00  0.00    -0.364 C  
ENDBRANCH  16  17
ENDBRANCH   7  16
TORSDOF 2
ENDMDL
MODEL       95
REMARK 921   NORMALIZED FREE ENERGY PREDICTED BY IDOCK:   -5.22 KCAL/MOL
REMARK 922        TOTAL FREE ENERGY PREDICTED BY IDOCK:   -5.56 KCAL/MOL
REMARK 923 INTER-LIGAND FREE ENERGY PREDICTED BY IDOCK:   -5.39 KCAL/MOL
REMARK 924 INTRA-LIGAND FREE ENERGY PREDICTED BY IDOCK:   -0.17 KCAL/MOL
REMARK 927      BINDING AFFINITY PREDICTED BY RF-SCORE:    0.00 PKD
ROOT
HETATM    1  C   UNL     1      -6.077  17.166  70.182  1.00  0.00    -0.020 C  
HETATM    2  N   UNL     1      -6.915  17.165  69.001  1.00  0.00    -0.229 NA 
HETATM    3  C   UNL     1      -7.529  16.075  68.442  1.00  0.00    -0.143 A  
HETATM    4  C   UNL     1      -8.163  16.490  67.282  1.00  0.00    -0.196 A  
HETATM    5  C   UNL     1      -7.986  17.894  67.169  1.00  0.00    -0.225 A  
HETATM    6  C   UNL     1      -8.843  15.536  66.414  1.00  0.00    -0.324 C  
HETATM    7  C   UNL     1      -8.538  14.064  66.720  1.00  0.00    -0.081 C  
HETATM    8  C   UNL     1      -8.409  18.862  66.236  1.00  0.00    -0.274 A  
HETATM    9  O   UNL     1      -9.554  15.880  65.474  1.00  0.00    -0.380 OA 
HETATM   10  C   UNL     1      -8.579  13.841  68.249  1.00  0.00    -0.175 C  
HETATM   11  C   UNL     1      -6.786  19.629  68.414  1.00  0.00    -0.323 A  
HETATM   12  C   UNL     1      -8.018  20.195  66.400  1.00  0.00    -0.298 A  
HETATM   13  C   UNL     1      -7.497  14.675  68.960  1.00  0.00    -0.136 C  
HETATM   14  C   UNL     1      -7.214  20.569  67.471  1.00  0.00    -0.368 A  
HETATM   15  C   UNL     1      -7.185  18.292  68.246  1.00  0.00    -0.259 A  
ENDROOT
BRANCH   7  16
HETATM   16  C   UNL     1      -9.500  13.164  65.945  1.00  0.00    -0.019 C  
BRANCH  16  17
HETATM   17  N   UNL     1     -10.425  12.440  66.801  1.00  0.00    -0.220 NA 
HETATM   18  C   UNL     1     -10.220  11.179  67.295  1.00  0.00    -0.193 A  
HETATM   19  C   UNL     1     -11.298  10.935  68.111  1.00  0.00    -0.315 A  
HETATM   20  N   UNL     1     -12.160  11.996  68.101  1.00  0.00    -0.448 NA 
HETATM   21  C   UNL     1     -11.631  12.889  67.287  1.00  0.00    -0.360 A  
HETATM   22  C   UNL     1     -12.233  14.199  66.936  1.00  0.00    -0.400 C  
ENDBRANCH  16  17
ENDBRANCH   7  16
TORSDOF 2
ENDMDL
MODEL       96
REMARK 921   NORMALIZED FREE ENERGY PREDICTED BY IDOCK:   -5.22 KCAL/MOL
REMARK 922        TOTAL FREE ENERGY PREDICTED BY IDOCK:   -5.56 KCAL/MOL
REMARK 923 INTER-LIGAND FREE ENERGY PREDICTED BY IDOCK:   -5.20 KCAL/MOL
REMARK 924 INTRA-LIGAND FREE ENERGY PREDICTED BY IDOCK:   -0.36 KCAL/MOL
REMARK 927      BINDING AFFINITY PREDICTED BY RF-SCORE:    0.00 PKD
ROOT
HETATM    1  C   UNL     1     -10.084  10.273  66.874  1.00  0.00    -0.221 C  
HETATM    2  N   UNL     1      -9.341  11.458  67.245  1.00  0.00    -0.166 NA 
HETATM    3  C   UNL     1      -9.871  12.669  67.608  1.00  0.00    -0.210 A  
HETATM    4  C   UNL     1      -8.823  13.554  67.803  1.00  0.00    -0.198 A  
HETATM    5  C   UNL     1      -7.611  12.837  67.620  1.00  0.00    -0.152 A  
HETATM    6  C   UNL     1      -9.070  14.955  68.121  1.00  0.00    -0.177 C  
HETATM    7  C   UNL     1     -10.521  15.409  67.919  1.00  0.00    -0.256 C  
HETATM    8  C   UNL     1      -6.247  13.182  67.706  1.00  0.00    -0.156 A  
HETATM    9  O   UNL     1      -8.179  15.727  68.464  1.00  0.00    -0.152 OA 
HETATM   10  C   UNL     1     -11.477  14.336  68.489  1.00  0.00    -0.329 C  
HETATM   11  C   UNL     1      -6.985  10.563  66.959  1.00  0.00    -0.089 A  
HETATM   12  C   UNL     1      -5.272  12.222  67.418  1.00  0.00    -0.105 A  
HETATM   13  C   UNL     1     -11.321  13.001  67.736  1.00  0.00    -0.333 C  
HETATM   14  C   UNL     1      -5.639  10.932  67.045  1.00  0.00    -0.058 A  
HETATM   15  C   UNL     1      -7.960  11.532  67.253  1.00  0.00    -0.153 A  
ENDROOT
BRANCH   7  16
HETATM   16  C   UNL     1     -10.721  16.794  68.535  1.00  0.00    -0.358 C  
BRANCH  16  17
HETATM   17  N   UNL     1     -10.544  17.877  67.582  1.00  0.00    -0.401 NA 
HETATM   18  C   UNL     1     -10.648  17.755  66.221  1.00  0.00    -0.220 A  
HETATM   19  C   UNL     1     -10.491  19.030  65.735  1.00  0.00    -0.309 A  
HETATM   20  N   UNL     1     -10.266  19.911  66.757  1.00  0.00    -0.446 NA 
HETATM   21  C   UNL     1     -10.277  19.197  67.865  1.00  0.00    -0.406 A  
HETATM   22  C   UNL     1     -10.044  19.723  69.233  1.00  0.00    -0.302 C  
ENDBRANCH  16  17
ENDBRANCH   7  16
TORSDOF 2
ENDMDL
MODEL       97
REMARK 921   NORMALIZED FREE ENERGY PREDICTED BY IDOCK:   -5.20 KCAL/MOL
REMARK 922        TOTAL FREE ENERGY PREDICTED BY IDOCK:   -5.54 KCAL/MOL
REMARK 923 INTER-LIGAND FREE ENERGY PREDICTED BY IDOCK:   -5.09 KCAL/MOL
REMARK 924 INTRA-LIGAND FREE ENERGY PREDICTED BY IDOCK:   -0.46 KCAL/MOL
REMARK 927      BINDING AFFINITY PREDICTED BY RF-SCORE:    0.00 PKD
ROOT
HETATM    1  C   UNL     1      -7.452  14.489  67.306  1.00  0.00    -0.097 C  
HETATM    2  N   UNL     1      -8.657  13.697  67.182  1.00  0.00    -0.206 NA 
HETATM    3  C   UNL     1      -8.885  12.470  67.748  1.00  0.00    -0.178 A  
HETATM    4  C   UNL     1     -10.122  12.022  67.316  1.00  0.00    -0.208 A  
HETATM    5  C   UNL     1     -10.697  13.043  66.515  1.00  0.00    -0.290 A  
HETATM    6  C   UNL     1     -10.616  10.701  67.687  1.00  0.00    -0.246 C  
HETATM    7  C   UNL     1      -9.561   9.776  68.304  1.00  0.00    -0.155 C  
HETATM    8  C   UNL     1     -11.922  13.178  65.829  1.00  0.00    -0.473 A  
HETATM    9  O   UNL     1     -11.767  10.335  67.467  1.00  0.00    -0.124 OA 
HETATM   10  C   UNL     1      -8.720  10.571  69.329  1.00  0.00    -0.135 C  
HETATM   11  C   UNL     1      -9.994  15.232  65.669  1.00  0.00    -0.397 A  
HETATM   12  C   UNL     1     -12.168  14.329  65.075  1.00  0.00    -0.438 A  
HETATM   13  C   UNL     1      -7.955  11.720  68.645  1.00  0.00    -0.116 C  
HETATM   14  C   UNL     1     -11.214  15.338  64.994  1.00  0.00    -0.409 A  
HETATM   15  C   UNL     1      -9.754  14.075  66.428  1.00  0.00    -0.296 A  
ENDROOT
BRANCH   7  16
HETATM   16  C   UNL     1     -10.239   8.541  68.898  1.00  0.00    -0.207 C  
BRANCH  16  17
HETATM   17  N   UNL     1     -10.078   7.349  68.082  1.00  0.00    -0.173 NA 
HETATM   18  C   UNL     1     -10.994   6.885  67.174  1.00  0.00    -0.357 A  
HETATM   19  C   UNL     1     -10.393   5.799  66.585  1.00  0.00    -0.243 A  
HETATM   20  N   UNL     1      -9.159   5.576  67.128  1.00  0.00    -0.112 NA 
HETATM   21  C   UNL     1      -8.991   6.506  68.048  1.00  0.00    -0.116 A  
HETATM   22  C   UNL     1      -7.804   6.645  68.928  1.00  0.00    -0.111 C  
ENDBRANCH  16  17
ENDBRANCH   7  16
TORSDOF 2
ENDMDL
MODEL       98
REMARK 921   NORMALIZED FREE ENERGY PREDICTED BY IDOCK:   -5.19 KCAL/MOL
REMARK 922        TOTAL FREE ENERGY PREDICTED BY IDOCK:   -5.53 KCAL/MOL
REMARK 923 INTER-LIGAND FREE ENERGY PREDICTED BY IDOCK:   -5.19 KCAL/MOL
REMARK 924 INTRA-LIGAND FREE ENERGY PREDICTED BY IDOCK:   -0.34 KCAL/MOL
REMARK 927      BINDING AFFINITY PREDICTED BY RF-SCORE:    0.00 PKD
ROOT
HETATM    1  C   UNL     1     -13.644   9.441  72.620  1.00  0.00    -0.266 C  
HETATM    2  N   UNL     1     -12.913  10.290  71.703  1.00  0.00    -0.430 NA 
HETATM    3  C   UNL     1     -11.960   9.885  70.805  1.00  0.00    -0.323 A  
HETATM    4  C   UNL     1     -11.452  11.013  70.183  1.00  0.00    -0.383 A  
HETATM    5  C   UNL     1     -12.169  12.137  70.670  1.00  0.00    -0.392 A  
HETATM    6  C   UNL     1     -10.356  10.915  69.225  1.00  0.00    -0.187 C  
HETATM    7  C   UNL     1      -9.644   9.557  69.207  1.00  0.00    -0.179 C  
HETATM    8  C   UNL     1     -12.121  13.520  70.401  1.00  0.00    -0.415 A  
HETATM    9  O   UNL     1      -9.991  11.860  68.532  1.00  0.00    -0.207 OA 
HETATM   10  C   UNL     1     -10.698   8.426  69.252  1.00  0.00    -0.139 C  
HETATM   11  C   UNL     1     -13.910  12.531  72.347  1.00  0.00    -0.171 A  
HETATM   12  C   UNL     1     -12.962  14.389  71.104  1.00  0.00    -0.419 A  
HETATM   13  C   UNL     1     -11.513   8.482  70.558  1.00  0.00    -0.198 C  
HETATM   14  C   UNL     1     -13.840  13.899  72.066  1.00  0.00    -0.588 A  
HETATM   15  C   UNL     1     -13.066  11.663  71.634  1.00  0.00    -0.351 A  
ENDROOT
BRANCH   7  16
HETATM   16  C   UNL     1      -8.714   9.477  67.996  1.00  0.00    -0.120 C  
BRANCH  16  17
HETATM   17  N   UNL     1      -7.674   8.471  68.137  1.00  0.00    -0.101 NA 
HETATM   18  C   UNL     1      -6.978   8.213  69.288  1.00  0.00    -0.055 A  
HETATM   19  C   UNL     1      -6.170   7.143  68.985  1.00  0.00    -0.031 A  
HETATM   20  N   UNL     1      -6.336   6.769  67.680  1.00  0.00    -0.042 NA 
HETATM   21  C   UNL     1      -7.230   7.595  67.174  1.00  0.00    -0.090 A  
HETATM   22  C   UNL     1      -7.708   7.593  65.768  1.00  0.00    -0.100 C  
ENDBRANCH  16  17
ENDBRANCH   7  16
TORSDOF 2
ENDMDL
MODEL       99
REMARK 921   NORMALIZED FREE ENERGY PREDICTED BY IDOCK:   -5.17 KCAL/MOL
REMARK 922        TOTAL FREE ENERGY PREDICTED BY IDOCK:   -5.50 KCAL/MOL
REMARK 923 INTER-LIGAND FREE ENERGY PREDICTED BY IDOCK:   -5.15 KCAL/MOL
REMARK 924 INTRA-LIGAND FREE ENERGY PREDICTED BY IDOCK:   -0.36 KCAL/MOL
REMARK 927      BINDING AFFINITY PREDICTED BY RF-SCORE:    0.00 PKD
ROOT
HETATM    1  C   UNL     1      -9.135   3.454  68.746  1.00  0.00    -0.145 C  
HETATM    2  N   UNL     1      -9.749   4.570  69.434  1.00  0.00    -0.195 NA 
HETATM    3  C   UNL     1     -10.053   5.791  68.892  1.00  0.00    -0.186 A  
HETATM    4  C   UNL     1     -10.549   6.597  69.904  1.00  0.00    -0.268 A  
HETATM    5  C   UNL     1     -10.616   5.815  71.087  1.00  0.00    -0.315 A  
HETATM    6  C   UNL     1     -10.889   7.993  69.656  1.00  0.00    -0.169 C  
HETATM    7  C   UNL     1     -10.376   8.548  68.322  1.00  0.00    -0.246 C  
HETATM    8  C   UNL     1     -11.047   6.068  72.405  1.00  0.00    -0.321 A  
HETATM    9  O   UNL     1     -11.484   8.688  70.474  1.00  0.00    -0.260 OA 
HETATM   10  C   UNL     1     -10.630   7.509  67.205  1.00  0.00    -0.415 C  
HETATM   11  C   UNL     1      -9.977   3.543  71.742  1.00  0.00    -0.202 A  
HETATM   12  C   UNL     1     -10.939   5.063  73.372  1.00  0.00    -0.393 A  
HETATM   13  C   UNL     1      -9.852   6.207  67.472  1.00  0.00    -0.140 C  
HETATM   14  C   UNL     1     -10.406   3.821  73.043  1.00  0.00    -0.243 A  
HETATM   15  C   UNL     1     -10.092   4.555  70.774  1.00  0.00    -0.163 A  
ENDROOT
BRANCH   7  16
HETATM   16  C   UNL     1     -11.015   9.909  68.047  1.00  0.00    -0.213 C  
BRANCH  16  17
HETATM   17  N   UNL     1     -10.074  11.013  68.134  1.00  0.00    -0.174 NA 
HETATM   18  C   UNL     1      -8.715  10.903  68.000  1.00  0.00    -0.132 A  
HETATM   19  C   UNL     1      -8.243  12.191  68.069  1.00  0.00    -0.158 A  
HETATM   20  N   UNL     1      -9.271  13.071  68.269  1.00  0.00    -0.208 NA 
HETATM   21  C   UNL     1     -10.368  12.342  68.330  1.00  0.00    -0.227 A  
HETATM   22  C   UNL     1     -11.737  12.864  68.569  1.00  0.00    -0.374 C  
ENDBRANCH  16  17
ENDBRANCH   7  16
TORSDOF 2
ENDMDL
MODEL      100
REMARK 921   NORMALIZED FREE ENERGY PREDICTED BY IDOCK:   -5.12 KCAL/MOL
REMARK 922        TOTAL FREE ENERGY PREDICTED BY IDOCK:   -5.45 KCAL/MOL
REMARK 923 INTER-LIGAND FREE ENERGY PREDICTED BY IDOCK:   -5.23 KCAL/MOL
REMARK 924 INTRA-LIGAND FREE ENERGY PREDICTED BY IDOCK:   -0.22 KCAL/MOL
REMARK 927      BINDING AFFINITY PREDICTED BY RF-SCORE:    0.00 PKD
ROOT
HETATM    1  C   UNL     1      -8.464  15.821  66.819  1.00  0.00    -0.269 C  
HETATM    2  N   UNL     1      -9.219  14.602  66.624  1.00  0.00    -0.259 NA 
HETATM    3  C   UNL     1      -8.956  13.383  67.193  1.00  0.00    -0.226 A  
HETATM    4  C   UNL     1      -9.862  12.468  66.683  1.00  0.00    -0.245 A  
HETATM    5  C   UNL     1     -10.752  13.170  65.828  1.00  0.00    -0.292 A  
HETATM    6  C   UNL     1      -9.787  11.056  67.039  1.00  0.00    -0.182 C  
HETATM    7  C   UNL     1      -8.488  10.643  67.742  1.00  0.00    -0.116 C  
HETATM    8  C   UNL     1     -11.871  12.793  65.057  1.00  0.00    -0.423 A  
HETATM    9  O   UNL     1     -10.663  10.248  66.746  1.00  0.00    -0.217 OA 
HETATM   10  C   UNL     1      -8.127  11.701  68.810  1.00  0.00    -0.072 C  
HETATM   11  C   UNL     1     -10.964  15.465  64.999  1.00  0.00    -0.450 A  
HETATM   12  C   UNL     1     -12.520  13.749  64.270  1.00  0.00    -0.308 A  
HETATM   13  C   UNL     1      -7.863  13.074  68.163  1.00  0.00    -0.145 C  
HETATM   14  C   UNL     1     -12.068  15.065  64.239  1.00  0.00    -0.323 A  
HETATM   15  C   UNL     1     -10.319  14.501  65.791  1.00  0.00    -0.331 A  
ENDROOT
BRANCH   7  16
HETATM   16  C   UNL     1      -8.632   9.229  68.306  1.00  0.00    -0.125 C  
BRANCH  16  17
HETATM   17  N   UNL     1      -9.003   9.207  69.711  1.00  0.00    -0.151 NA 
HETATM   18  C   UNL     1     -10.248   9.498  70.203  1.00  0.00    -0.246 A  
HETATM   19  C   UNL     1     -10.161   9.270  71.554  1.00  0.00    -0.268 A  
HETATM   20  N   UNL     1      -8.896   8.880  71.897  1.00  0.00    -0.374 NA 
HETATM   21  C   UNL     1      -8.201   8.869  70.777  1.00  0.00    -0.171 A  
HETATM   22  C   UNL     1      -6.759   8.537  70.660  1.00  0.00    -0.040 C  
ENDBRANCH  16  17
ENDBRANCH   7  16
TORSDOF 2
ENDMDL
MODEL      101
REMARK 921   NORMALIZED FREE ENERGY PREDICTED BY IDOCK:   -5.12 KCAL/MOL
REMARK 922        TOTAL FREE ENERGY PREDICTED BY IDOCK:   -5.45 KCAL/MOL
REMARK 923 INTER-LIGAND FREE ENERGY PREDICTED BY IDOCK:   -5.98 KCAL/MOL
REMARK 924 INTRA-LIGAND FREE ENERGY PREDICTED BY IDOCK:    0.53 KCAL/MOL
REMARK 927      BINDING AFFINITY PREDICTED BY RF-SCORE:    0.00 PKD
ROOT
HETATM    1  C   UNL     1      -9.575  20.035  68.022  1.00  0.00    -0.342 C  
HETATM    2  N   UNL     1      -8.975  18.746  68.292  1.00  0.00    -0.314 NA 
HETATM    3  C   UNL     1      -9.574  17.523  68.141  1.00  0.00    -0.294 A  
HETATM    4  C   UNL     1      -8.690  16.554  68.585  1.00  0.00    -0.244 A  
HETATM    5  C   UNL     1      -7.484  17.206  68.954  1.00  0.00    -0.241 A  
HETATM    6  C   UNL     1      -9.072  15.148  68.625  1.00  0.00    -0.195 C  
HETATM    7  C   UNL     1     -10.572  14.888  68.441  1.00  0.00    -0.244 C  
HETATM    8  C   UNL     1      -6.240  16.759  69.447  1.00  0.00    -0.219 A  
HETATM    9  O   UNL     1      -8.269  14.246  68.851  1.00  0.00    -0.133 OA 
HETATM   10  C   UNL     1     -11.106  15.772  67.290  1.00  0.00    -0.211 C  
HETATM   11  C   UNL     1      -6.698  19.522  69.095  1.00  0.00    -0.373 A  
HETATM   12  C   UNL     1      -5.246  17.692  69.757  1.00  0.00    -0.198 A  
HETATM   13  C   UNL     1     -10.953  17.268  67.625  1.00  0.00    -0.133 C  
HETATM   14  C   UNL     1      -5.476  19.053  69.587  1.00  0.00    -0.219 A  
HETATM   15  C   UNL     1      -7.692  18.580  68.781  1.00  0.00    -0.280 A  
ENDROOT
BRANCH   7  16
HETATM   16  C   UNL     1     -10.816  13.394  68.227  1.00  0.00    -0.256 C  
BRANCH  16  17
HETATM   17  N   UNL     1     -11.547  12.770  69.317  1.00  0.00    -0.300 NA 
HETATM   18  C   UNL     1     -11.637  11.421  69.536  1.00  0.00    -0.331 A  
HETATM   19  C   UNL     1     -12.344  11.295  70.707  1.00  0.00    -0.398 A  
HETATM   20  N   UNL     1     -12.709  12.524  71.185  1.00  0.00    -0.317 NA 
HETATM   21  C   UNL     1     -12.240  13.404  70.322  1.00  0.00    -0.335 A  
HETATM   22  C   UNL     1     -12.420  14.875  70.408  1.00  0.00    -0.403 C  
ENDBRANCH  16  17
ENDBRANCH   7  16
TORSDOF 2
ENDMDL
MODEL      102
REMARK 921   NORMALIZED FREE ENERGY PREDICTED BY IDOCK:   -5.10 KCAL/MOL
REMARK 922        TOTAL FREE ENERGY PREDICTED BY IDOCK:   -5.42 KCAL/MOL
REMARK 923 INTER-LIGAND FREE ENERGY PREDICTED BY IDOCK:   -5.30 KCAL/MOL
REMARK 924 INTRA-LIGAND FREE ENERGY PREDICTED BY IDOCK:   -0.12 KCAL/MOL
REMARK 927      BINDING AFFINITY PREDICTED BY RF-SCORE:    0.00 PKD
ROOT
HETATM    1  C   UNL     1      -7.228  12.909  67.393  1.00  0.00    -0.126 C  
HETATM    2  N   UNL     1      -8.636  12.639  67.591  1.00  0.00    -0.168 NA 
HETATM    3  C   UNL     1      -9.172  11.599  68.305  1.00  0.00    -0.187 A  
HETATM    4  C   UNL     1     -10.550  11.657  68.177  1.00  0.00    -0.230 A  
HETATM    5  C   UNL     1     -10.866  12.812  67.415  1.00  0.00    -0.265 A  
HETATM    6  C   UNL     1     -11.404  10.630  68.763  1.00  0.00    -0.277 C  
HETATM    7  C   UNL     1     -10.660   9.377  69.238  1.00  0.00    -0.239 C  
HETATM    8  C   UNL     1     -12.072  13.400  66.981  1.00  0.00    -0.390 A  
HETATM    9  O   UNL     1     -12.626  10.732  68.815  1.00  0.00    -0.257 OA 
HETATM   10  C   UNL     1      -9.378   9.798  69.992  1.00  0.00    -0.274 C  
HETATM   11  C   UNL     1      -9.606  14.554  66.241  1.00  0.00    -0.328 A  
HETATM   12  C   UNL     1     -12.034  14.550  66.187  1.00  0.00    -0.323 A  
HETATM   13  C   UNL     1      -8.414  10.559  69.062  1.00  0.00    -0.159 C  
HETATM   14  C   UNL     1     -10.816  15.114  65.820  1.00  0.00    -0.358 A  
HETATM   15  C   UNL     1      -9.652  13.401  67.042  1.00  0.00    -0.244 A  
ENDROOT
BRANCH   7  16
HETATM   16  C   UNL     1     -11.599   8.503  70.071  1.00  0.00     0.187 C  
BRANCH  16  17
HETATM   17  N   UNL     1     -11.109   7.147  70.254  1.00  0.00    -0.266 NA 
HETATM   18  C   UNL     1     -10.875   6.550  71.465  1.00  0.00    -0.246 A  
HETATM   19  C   UNL     1     -10.507   5.261  71.162  1.00  0.00    -0.205 A  
HETATM   20  N   UNL     1     -10.484   5.072  69.808  1.00  0.00    -0.214 NA 
HETATM   21  C   UNL     1     -10.827   6.226  69.272  1.00  0.00    -0.342 A  
HETATM   22  C   UNL     1     -10.909   6.511  67.817  1.00  0.00    -0.395 C  
ENDBRANCH  16  17
ENDBRANCH   7  16
TORSDOF 2
ENDMDL
MODEL      103
REMARK 921   NORMALIZED FREE ENERGY PREDICTED BY IDOCK:   -5.05 KCAL/MOL
REMARK 922        TOTAL FREE ENERGY PREDICTED BY IDOCK:   -5.37 KCAL/MOL
REMARK 923 INTER-LIGAND FREE ENERGY PREDICTED BY IDOCK:   -5.18 KCAL/MOL
REMARK 924 INTRA-LIGAND FREE ENERGY PREDICTED BY IDOCK:   -0.19 KCAL/MOL
REMARK 927      BINDING AFFINITY PREDICTED BY RF-SCORE:    0.00 PKD
ROOT
HETATM    1  C   UNL     1      -7.080   6.803  67.224  1.00  0.00    -0.080 C  
HETATM    2  N   UNL     1      -7.902   7.877  66.709  1.00  0.00    -0.101 NA 
HETATM    3  C   UNL     1      -8.661   8.746  67.448  1.00  0.00    -0.130 A  
HETATM    4  C   UNL     1      -9.355   9.561  66.571  1.00  0.00    -0.220 A  
HETATM    5  C   UNL     1      -8.951   9.224  65.253  1.00  0.00    -0.260 A  
HETATM    6  C   UNL     1     -10.317  10.544  67.057  1.00  0.00    -0.237 C  
HETATM    7  C   UNL     1     -10.703  10.383  68.532  1.00  0.00    -0.255 C  
HETATM    8  C   UNL     1      -9.284   9.709  63.971  1.00  0.00    -0.202 A  
HETATM    9  O   UNL     1     -10.825  11.395  66.332  1.00  0.00    -0.269 OA 
HETATM   10  C   UNL     1      -9.431  10.109  69.367  1.00  0.00    -0.240 C  
HETATM   11  C   UNL     1      -7.489   7.547  64.228  1.00  0.00    -0.098 A  
HETATM   12  C   UNL     1      -8.720   9.112  62.839  1.00  0.00    -0.178 A  
HETATM   13  C   UNL     1      -8.761   8.790  68.938  1.00  0.00    -0.134 C  
HETATM   14  C   UNL     1      -7.839   8.043  62.969  1.00  0.00    -0.148 A  
HETATM   15  C   UNL     1      -8.055   8.153  65.362  1.00  0.00    -0.130 A  
ENDROOT
BRANCH   7  16
HETATM   16  C   UNL     1     -11.487  11.610  68.999  1.00  0.00    -0.294 C  
BRANCH  16  17
HETATM   17  N   UNL     1     -12.225  11.385  70.231  1.00  0.00    -0.348 NA 
HETATM   18  C   UNL     1     -12.579  10.157  70.725  1.00  0.00    -0.317 A  
HETATM   19  C   UNL     1     -13.180  10.418  71.933  1.00  0.00    -0.429 A  
HETATM   20  N   UNL     1     -13.226  11.764  72.168  1.00  0.00    -0.414 NA 
HETATM   21  C   UNL     1     -12.667  12.337  71.120  1.00  0.00    -0.243 A  
HETATM   22  C   UNL     1     -12.519  13.800  70.914  1.00  0.00    -0.451 C  
ENDBRANCH  16  17
ENDBRANCH   7  16
TORSDOF 2
ENDMDL
MODEL      104
REMARK 921   NORMALIZED FREE ENERGY PREDICTED BY IDOCK:   -5.03 KCAL/MOL
REMARK 922        TOTAL FREE ENERGY PREDICTED BY IDOCK:   -5.35 KCAL/MOL
REMARK 923 INTER-LIGAND FREE ENERGY PREDICTED BY IDOCK:   -5.75 KCAL/MOL
REMARK 924 INTRA-LIGAND FREE ENERGY PREDICTED BY IDOCK:    0.39 KCAL/MOL
REMARK 927      BINDING AFFINITY PREDICTED BY RF-SCORE:    0.00 PKD
ROOT
HETATM    1  C   UNL     1      -5.450  18.450  70.638  1.00  0.00    -0.225 C  
HETATM    2  N   UNL     1      -6.180  18.275  69.400  1.00  0.00    -0.253 NA 
HETATM    3  C   UNL     1      -6.799  17.128  68.976  1.00  0.00    -0.231 A  
HETATM    4  C   UNL     1      -7.307  17.359  67.709  1.00  0.00    -0.184 A  
HETATM    5  C   UNL     1      -7.050  18.715  67.380  1.00  0.00    -0.210 A  
HETATM    6  C   UNL     1      -7.957  16.294  66.954  1.00  0.00    -0.243 C  
HETATM    7  C   UNL     1      -7.755  14.888  67.530  1.00  0.00    -0.214 C  
HETATM    8  C   UNL     1      -7.340  19.523  66.261  1.00  0.00    -0.279 A  
HETATM    9  O   UNL     1      -8.565  16.497  65.906  1.00  0.00    -0.441 OA 
HETATM   10  C   UNL     1      -7.941  14.932  69.064  1.00  0.00    -0.170 C  
HETATM   11  C   UNL     1      -5.875  20.595  68.422  1.00  0.00    -0.355 A  
HETATM   12  C   UNL     1      -6.897  20.850  66.234  1.00  0.00    -0.192 A  
HETATM   13  C   UNL     1      -6.883  15.837  69.723  1.00  0.00    -0.120 C  
HETATM   14  C   UNL     1      -6.171  21.374  67.299  1.00  0.00    -0.400 A  
HETATM   15  C   UNL     1      -6.327  19.265  68.445  1.00  0.00    -0.233 A  
ENDROOT
BRANCH   7  16
HETATM   16  C   UNL     1      -8.692  13.902  66.830  1.00  0.00    -0.097 C  
BRANCH  16  17
HETATM   17  N   UNL     1     -10.069  13.998  67.283  1.00  0.00    -0.247 NA 
HETATM   18  C   UNL     1     -10.500  13.730  68.556  1.00  0.00    -0.244 A  
HETATM   19  C   UNL     1     -11.841  14.031  68.549  1.00  0.00    -0.364 A  
HETATM   20  N   UNL     1     -12.237  14.441  67.307  1.00  0.00    -0.324 NA 
HETATM   21  C   UNL     1     -11.160  14.394  66.546  1.00  0.00    -0.331 A  
HETATM   22  C   UNL     1     -11.112  14.723  65.100  1.00  0.00    -0.389 C  
ENDBRANCH  16  17
ENDBRANCH   7  16
TORSDOF 2
ENDMDL
MODEL      105
REMARK 921   NORMALIZED FREE ENERGY PREDICTED BY IDOCK:   -4.99 KCAL/MOL
REMARK 922        TOTAL FREE ENERGY PREDICTED BY IDOCK:   -5.31 KCAL/MOL
REMARK 923 INTER-LIGAND FREE ENERGY PREDICTED BY IDOCK:   -4.88 KCAL/MOL
REMARK 924 INTRA-LIGAND FREE ENERGY PREDICTED BY IDOCK:   -0.42 KCAL/MOL
REMARK 927      BINDING AFFINITY PREDICTED BY RF-SCORE:    0.00 PKD
ROOT
HETATM    1  C   UNL     1     -12.468  13.225  63.823  1.00  0.00    -0.262 C  
HETATM    2  N   UNL     1     -11.580  12.704  64.841  1.00  0.00    -0.320 NA 
HETATM    3  C   UNL     1     -10.630  11.731  64.671  1.00  0.00    -0.308 A  
HETATM    4  C   UNL     1     -10.060  11.467  65.905  1.00  0.00    -0.271 A  
HETATM    5  C   UNL     1     -10.636  12.360  66.847  1.00  0.00    -0.251 A  
HETATM    6  C   UNL     1      -9.064  10.415  66.065  1.00  0.00    -0.162 C  
HETATM    7  C   UNL     1      -8.943   9.463  64.869  1.00  0.00    -0.256 C  
HETATM    8  C   UNL     1     -10.448  12.583  68.227  1.00  0.00    -0.243 A  
HETATM    9  O   UNL     1      -8.418  10.261  67.098  1.00  0.00    -0.125 OA 
HETATM   10  C   UNL     1      -8.954  10.285  63.559  1.00  0.00    -0.259 C  
HETATM   11  C   UNL     1     -12.387  14.073  66.818  1.00  0.00    -0.368 A  
HETATM   12  C   UNL     1     -11.227  13.540  68.884  1.00  0.00    -0.316 A  
HETATM   13  C   UNL     1     -10.286  11.041  63.392  1.00  0.00    -0.373 C  
HETATM   14  C   UNL     1     -12.186  14.270  68.187  1.00  0.00    -0.164 A  
HETATM   15  C   UNL     1     -11.598  13.112  66.163  1.00  0.00    -0.355 A  
ENDROOT
BRANCH   7  16
HETATM   16  C   UNL     1      -7.701   8.586  65.029  1.00  0.00    -0.102 C  
BRANCH  16  17
HETATM   17  N   UNL     1      -7.976   7.168  64.874  1.00  0.00    -0.126 NA 
HETATM   18  C   UNL     1      -7.856   6.464  63.705  1.00  0.00    -0.110 A  
HETATM   19  C   UNL     1      -8.133   5.161  64.042  1.00  0.00    -0.119 A  
HETATM   20  N   UNL     1      -8.445   5.062  65.369  1.00  0.00    -0.131 NA 
HETATM   21  C   UNL     1      -8.370   6.286  65.854  1.00  0.00    -0.142 A  
HETATM   22  C   UNL     1      -8.658   6.677  67.257  1.00  0.00    -0.119 C  
ENDBRANCH  16  17
ENDBRANCH   7  16
TORSDOF 2
ENDMDL
MODEL      106
REMARK 921   NORMALIZED FREE ENERGY PREDICTED BY IDOCK:   -4.98 KCAL/MOL
REMARK 922        TOTAL FREE ENERGY PREDICTED BY IDOCK:   -5.29 KCAL/MOL
REMARK 923 INTER-LIGAND FREE ENERGY PREDICTED BY IDOCK:   -4.95 KCAL/MOL
REMARK 924 INTRA-LIGAND FREE ENERGY PREDICTED BY IDOCK:   -0.34 KCAL/MOL
REMARK 927      BINDING AFFINITY PREDICTED BY RF-SCORE:    0.00 PKD
ROOT
HETATM    1  C   UNL     1     -11.379   6.231  71.101  1.00  0.00    -0.303 C  
HETATM    2  N   UNL     1     -10.353   7.087  70.546  1.00  0.00    -0.200 NA 
HETATM    3  C   UNL     1     -10.501   8.399  70.177  1.00  0.00    -0.228 A  
HETATM    4  C   UNL     1      -9.308   8.824  69.617  1.00  0.00    -0.158 A  
HETATM    5  C   UNL     1      -8.379   7.754  69.713  1.00  0.00    -0.131 A  
HETATM    6  C   UNL     1      -9.176  10.161  69.052  1.00  0.00    -0.185 C  
HETATM    7  C   UNL     1     -10.502  10.906  68.856  1.00  0.00    -0.228 C  
HETATM    8  C   UNL     1      -7.028   7.594  69.344  1.00  0.00    -0.063 A  
HETATM    9  O   UNL     1      -8.098  10.632  68.701  1.00  0.00    -0.116 OA 
HETATM   10  C   UNL     1     -11.387  10.711  70.110  1.00  0.00    -0.402 C  
HETATM   11  C   UNL     1      -8.436   5.429  70.481  1.00  0.00    -0.122 A  
HETATM   12  C   UNL     1      -6.398   6.362  69.546  1.00  0.00    -0.035 A  
HETATM   13  C   UNL     1     -11.738   9.225  70.313  1.00  0.00    -0.088 C  
HETATM   14  C   UNL     1      -7.096   5.295  70.102  1.00  0.00    -0.061 A  
HETATM   15  C   UNL     1      -9.061   6.671  70.280  1.00  0.00    -0.156 A  
ENDROOT
BRANCH   7  16
HETATM   16  C   UNL     1     -10.228  12.373  68.524  1.00  0.00    -0.205 C  
BRANCH  16  17
HETATM   17  N   UNL     1     -11.037  12.873  67.426  1.00  0.00    -0.263 NA 
HETATM   18  C   UNL     1     -11.371  12.160  66.304  1.00  0.00    -0.357 A  
HETATM   19  C   UNL     1     -12.202  12.988  65.589  1.00  0.00    -0.466 A  
HETATM   20  N   UNL     1     -12.356  14.187  66.229  1.00  0.00    -0.458 NA 
HETATM   21  C   UNL     1     -11.627  14.111  67.325  1.00  0.00    -0.373 A  
HETATM   22  C   UNL     1     -11.460  15.196  68.325  1.00  0.00    -0.350 C  
ENDBRANCH  16  17
ENDBRANCH   7  16
TORSDOF 2
ENDMDL
MODEL      107
REMARK 921   NORMALIZED FREE ENERGY PREDICTED BY IDOCK:   -4.96 KCAL/MOL
REMARK 922        TOTAL FREE ENERGY PREDICTED BY IDOCK:   -5.27 KCAL/MOL
REMARK 923 INTER-LIGAND FREE ENERGY PREDICTED BY IDOCK:   -5.68 KCAL/MOL
REMARK 924 INTRA-LIGAND FREE ENERGY PREDICTED BY IDOCK:    0.41 KCAL/MOL
REMARK 927      BINDING AFFINITY PREDICTED BY RF-SCORE:    0.00 PKD
ROOT
HETATM    1  C   UNL     1     -11.347  12.382  67.543  1.00  0.00    -0.315 C  
HETATM    2  N   UNL     1     -11.558  11.764  68.835  1.00  0.00    -0.282 NA 
HETATM    3  C   UNL     1     -11.197  10.493  69.198  1.00  0.00    -0.256 A  
HETATM    4  C   UNL     1     -11.653  10.269  70.486  1.00  0.00    -0.424 A  
HETATM    5  C   UNL     1     -12.252  11.470  70.949  1.00  0.00    -0.425 A  
HETATM    6  C   UNL     1     -11.492   8.969  71.126  1.00  0.00    -0.308 C  
HETATM    7  C   UNL     1     -11.077   7.838  70.178  1.00  0.00    -0.216 C  
HETATM    8  C   UNL     1     -12.860  11.858  72.160  1.00  0.00    -0.096 A  
HETATM    9  O   UNL     1     -11.729   8.778  72.316  1.00  0.00    -0.363 OA 
HETATM   10  C   UNL     1      -9.964   8.346  69.232  1.00  0.00    -0.195 C  
HETATM   11  C   UNL     1     -12.744  13.677  70.006  1.00  0.00    -0.044 A  
HETATM   12  C   UNL     1     -13.402  13.141  72.281  1.00  0.00    -0.621 A  
HETATM   13  C   UNL     1     -10.474   9.500  68.349  1.00  0.00    -0.261 C  
HETATM   14  C   UNL     1     -13.347  14.035  71.216  1.00  0.00    -0.342 A  
HETATM   15  C   UNL     1     -12.198  12.387  69.892  1.00  0.00    -0.157 A  
ENDROOT
BRANCH   7  16
HETATM   16  C   UNL     1     -10.674   6.605  70.988  1.00  0.00    -0.236 C  
BRANCH  16  17
HETATM   17  N   UNL     1     -10.269   5.482  70.159  1.00  0.00    -0.240 NA 
HETATM   18  C   UNL     1     -10.158   5.508  68.794  1.00  0.00    -0.191 A  
HETATM   19  C   UNL     1      -9.671   4.270  68.451  1.00  0.00    -0.097 A  
HETATM   20  N   UNL     1      -9.514   3.489  69.562  1.00  0.00    -0.176 NA 
HETATM   21  C   UNL     1      -9.902   4.226  70.585  1.00  0.00    -0.195 A  
HETATM   22  C   UNL     1      -9.938   3.784  72.001  1.00  0.00    -0.238 C  
ENDBRANCH  16  17
ENDBRANCH   7  16
TORSDOF 2
ENDMDL
MODEL      108
REMARK 921   NORMALIZED FREE ENERGY PREDICTED BY IDOCK:   -4.96 KCAL/MOL
REMARK 922        TOTAL FREE ENERGY PREDICTED BY IDOCK:   -5.27 KCAL/MOL
REMARK 923 INTER-LIGAND FREE ENERGY PREDICTED BY IDOCK:   -4.87 KCAL/MOL
REMARK 924 INTRA-LIGAND FREE ENERGY PREDICTED BY IDOCK:   -0.40 KCAL/MOL
REMARK 927      BINDING AFFINITY PREDICTED BY RF-SCORE:    0.00 PKD
ROOT
HETATM    1  C   UNL     1      -9.315  10.270  69.257  1.00  0.00    -0.207 C  
HETATM    2  N   UNL     1     -10.094   9.409  70.121  1.00  0.00    -0.216 NA 
HETATM    3  C   UNL     1      -9.834   8.093  70.406  1.00  0.00    -0.186 A  
HETATM    4  C   UNL     1     -10.862   7.616  71.201  1.00  0.00    -0.251 A  
HETATM    5  C   UNL     1     -11.742   8.698  71.467  1.00  0.00    -0.369 A  
HETATM    6  C   UNL     1     -10.912   6.216  71.607  1.00  0.00    -0.267 C  
HETATM    7  C   UNL     1      -9.945   5.298  70.851  1.00  0.00    -0.274 C  
HETATM    8  C   UNL     1     -12.928   8.834  72.218  1.00  0.00    -0.462 A  
HETATM    9  O   UNL     1     -11.707   5.793  72.442  1.00  0.00    -0.301 OA 
HETATM   10  C   UNL     1      -8.568   5.991  70.734  1.00  0.00    -0.135 C  
HETATM   11  C   UNL     1     -11.916  11.043  70.783  1.00  0.00    -0.436 A  
HETATM   12  C   UNL     1     -13.591  10.065  72.243  1.00  0.00    -0.282 A  
HETATM   13  C   UNL     1      -8.671   7.293  69.918  1.00  0.00    -0.141 C  
HETATM   14  C   UNL     1     -13.093  11.151  71.530  1.00  0.00    -0.489 A  
HETATM   15  C   UNL     1     -11.252   9.806  70.765  1.00  0.00    -0.348 A  
ENDROOT
BRANCH   7  16
HETATM   16  C   UNL     1      -9.885   3.932  71.537  1.00  0.00    -0.177 C  
BRANCH  16  17
HETATM   17  N   UNL     1      -9.155   2.937  70.771  1.00  0.00    -0.107 NA 
HETATM   18  C   UNL     1      -9.530   2.453  69.545  1.00  0.00    -0.049 A  
HETATM   19  C   UNL     1      -8.514   1.609  69.167  1.00  0.00    -0.050 A  
HETATM   20  N   UNL     1      -7.554   1.545  70.139  1.00  0.00    -0.036 NA 
HETATM   21  C   UNL     1      -7.966   2.335  71.111  1.00  0.00    -0.046 A  
HETATM   22  C   UNL     1      -7.259   2.559  72.397  1.00  0.00    -0.038 C  
ENDBRANCH  16  17
ENDBRANCH   7  16
TORSDOF 2
ENDMDL
MODEL      109
REMARK 921   NORMALIZED FREE ENERGY PREDICTED BY IDOCK:   -4.93 KCAL/MOL
REMARK 922        TOTAL FREE ENERGY PREDICTED BY IDOCK:   -5.24 KCAL/MOL
REMARK 923 INTER-LIGAND FREE ENERGY PREDICTED BY IDOCK:   -5.80 KCAL/MOL
REMARK 924 INTRA-LIGAND FREE ENERGY PREDICTED BY IDOCK:    0.55 KCAL/MOL
REMARK 927      BINDING AFFINITY PREDICTED BY RF-SCORE:    0.00 PKD
ROOT
HETATM    1  C   UNL     1     -10.471  13.581  64.693  1.00  0.00    -0.421 C  
HETATM    2  N   UNL     1     -10.681  12.832  65.914  1.00  0.00    -0.267 NA 
HETATM    3  C   UNL     1     -10.476  11.488  66.088  1.00  0.00    -0.251 A  
HETATM    4  C   UNL     1     -10.874  11.157  67.372  1.00  0.00    -0.317 A  
HETATM    5  C   UNL     1     -11.269  12.354  68.026  1.00  0.00    -0.317 A  
HETATM    6  C   UNL     1     -10.852   9.774  67.834  1.00  0.00    -0.242 C  
HETATM    7  C   UNL     1     -10.660   8.733  66.725  1.00  0.00    -0.220 C  
HETATM    8  C   UNL     1     -11.739  12.654  69.321  1.00  0.00    -0.379 A  
HETATM    9  O   UNL     1     -11.035   9.461  69.007  1.00  0.00    -0.176 OA 
HETATM   10  C   UNL     1      -9.552   9.214  65.759  1.00  0.00    -0.323 C  
HETATM   11  C   UNL     1     -11.512  14.710  67.402  1.00  0.00    -0.384 A  
HETATM   12  C   UNL     1     -12.088  13.969  69.641  1.00  0.00    -0.408 A  
HETATM   13  C   UNL     1      -9.953  10.531  65.068  1.00  0.00    -0.388 C  
HETATM   14  C   UNL     1     -11.980  14.980  68.691  1.00  0.00    -0.278 A  
HETATM   15  C   UNL     1     -11.158  13.387  67.087  1.00  0.00    -0.286 A  
ENDROOT
BRANCH   7  16
HETATM   16  C   UNL     1     -10.380   7.363  67.343  1.00  0.00    -0.270 C  
BRANCH  16  17
HETATM   17  N   UNL     1      -9.227   7.358  68.227  1.00  0.00    -0.138 NA 
HETATM   18  C   UNL     1      -7.988   7.849  67.911  1.00  0.00    -0.128 A  
HETATM   19  C   UNL     1      -7.246   7.713  69.058  1.00  0.00    -0.080 A  
HETATM   20  N   UNL     1      -7.988   7.128  70.046  1.00  0.00    -0.116 NA 
HETATM   21  C   UNL     1      -9.176   6.897  69.522  1.00  0.00    -0.148 A  
HETATM   22  C   UNL     1     -10.312   6.240  70.216  1.00  0.00    -0.258 C  
ENDBRANCH  16  17
ENDBRANCH   7  16
TORSDOF 2
ENDMDL
MODEL      110
REMARK 921   NORMALIZED FREE ENERGY PREDICTED BY IDOCK:   -4.93 KCAL/MOL
REMARK 922        TOTAL FREE ENERGY PREDICTED BY IDOCK:   -5.23 KCAL/MOL
REMARK 923 INTER-LIGAND FREE ENERGY PREDICTED BY IDOCK:   -5.57 KCAL/MOL
REMARK 924 INTRA-LIGAND FREE ENERGY PREDICTED BY IDOCK:    0.34 KCAL/MOL
REMARK 927      BINDING AFFINITY PREDICTED BY RF-SCORE:    0.00 PKD
ROOT
HETATM    1  C   UNL     1      -7.914   7.710  71.033  1.00  0.00    -0.094 C  
HETATM    2  N   UNL     1      -8.982   8.618  70.674  1.00  0.00    -0.157 NA 
HETATM    3  C   UNL     1      -8.954   9.550  69.669  1.00  0.00    -0.188 A  
HETATM    4  C   UNL     1     -10.139  10.264  69.714  1.00  0.00    -0.244 A  
HETATM    5  C   UNL     1     -10.946   9.701  70.737  1.00  0.00    -0.397 A  
HETATM    6  C   UNL     1     -10.375  11.387  68.814  1.00  0.00    -0.204 C  
HETATM    7  C   UNL     1      -9.130  11.881  68.069  1.00  0.00    -0.189 C  
HETATM    8  C   UNL     1     -12.238   9.978  71.229  1.00  0.00    -0.498 A  
HETATM    9  O   UNL     1     -11.468  11.936  68.707  1.00  0.00    -0.239 OA 
HETATM   10  C   UNL     1      -8.331  10.664  67.547  1.00  0.00    -0.115 C  
HETATM   11  C   UNL     1     -10.690   7.942  72.422  1.00  0.00    -0.367 A  
HETATM   12  C   UNL     1     -12.739   9.240  72.306  1.00  0.00    -0.435 A  
HETATM   13  C   UNL     1      -7.832   9.789  68.713  1.00  0.00    -0.082 C  
HETATM   14  C   UNL     1     -11.972   8.240  72.896  1.00  0.00    -0.058 A  
HETATM   15  C   UNL     1     -10.194   8.684  71.337  1.00  0.00    -0.254 A  
ENDROOT
BRANCH   7  16
HETATM   16  C   UNL     1      -9.539  12.860  66.968  1.00  0.00    -0.231 C  
BRANCH  16  17
HETATM   17  N   UNL     1     -10.005  12.202  65.759  1.00  0.00    -0.246 NA 
HETATM   18  C   UNL     1      -9.253  11.369  64.974  1.00  0.00    -0.076 A  
HETATM   19  C   UNL     1     -10.114  10.918  64.003  1.00  0.00    -0.358 A  
HETATM   20  N   UNL     1     -11.352  11.476  64.159  1.00  0.00    -0.315 NA 
HETATM   21  C   UNL     1     -11.265  12.268  65.210  1.00  0.00    -0.328 A  
HETATM   22  C   UNL     1     -12.362  13.114  65.745  1.00  0.00    -0.496 C  
ENDBRANCH  16  17
ENDBRANCH   7  16
TORSDOF 2
ENDMDL
MODEL      111
REMARK 921   NORMALIZED FREE ENERGY PREDICTED BY IDOCK:   -4.92 KCAL/MOL
REMARK 922        TOTAL FREE ENERGY PREDICTED BY IDOCK:   -5.23 KCAL/MOL
REMARK 923 INTER-LIGAND FREE ENERGY PREDICTED BY IDOCK:   -4.81 KCAL/MOL
REMARK 924 INTRA-LIGAND FREE ENERGY PREDICTED BY IDOCK:   -0.42 KCAL/MOL
REMARK 927      BINDING AFFINITY PREDICTED BY RF-SCORE:    0.00 PKD
ROOT
HETATM    1  C   UNL     1      -9.336   3.084  67.441  1.00  0.00    -0.175 C  
HETATM    2  N   UNL     1      -9.184   4.523  67.444  1.00  0.00    -0.128 NA 
HETATM    3  C   UNL     1      -9.459   5.368  68.487  1.00  0.00    -0.123 A  
HETATM    4  C   UNL     1      -9.259   6.667  68.052  1.00  0.00    -0.112 A  
HETATM    5  C   UNL     1      -8.778   6.607  66.717  1.00  0.00    -0.121 A  
HETATM    6  C   UNL     1      -9.549   7.804  68.917  1.00  0.00    -0.154 C  
HETATM    7  C   UNL     1     -10.354   7.460  70.175  1.00  0.00    -0.219 C  
HETATM    8  C   UNL     1      -8.383   7.578  65.774  1.00  0.00    -0.144 A  
HETATM    9  O   UNL     1      -9.230   8.955  68.633  1.00  0.00    -0.137 OA 
HETATM   10  C   UNL     1      -9.786   6.168  70.808  1.00  0.00    -0.205 C  
HETATM   11  C   UNL     1      -8.363   4.846  65.066  1.00  0.00    -0.136 A  
HETATM   12  C   UNL     1      -7.986   7.176  64.495  1.00  0.00    -0.104 A  
HETATM   13  C   UNL     1      -9.931   4.972  69.848  1.00  0.00    -0.322 C  
HETATM   14  C   UNL     1      -7.982   5.829  64.147  1.00  0.00    -0.122 A  
HETATM   15  C   UNL     1      -8.757   5.256  66.351  1.00  0.00    -0.118 A  
ENDROOT
BRANCH   7  16
HETATM   16  C   UNL     1     -10.360   8.655  71.129  1.00  0.00    -0.230 C  
BRANCH  16  17
HETATM   17  N   UNL     1     -11.698   9.094  71.490  1.00  0.00    -0.336 NA 
HETATM   18  C   UNL     1     -12.558   8.411  72.310  1.00  0.00    -0.349 A  
HETATM   19  C   UNL     1     -13.655   9.227  72.435  1.00  0.00    -0.463 A  
HETATM   20  N   UNL     1     -13.497  10.366  71.694  1.00  0.00    -0.290 NA 
HETATM   21  C   UNL     1     -12.320  10.260  71.110  1.00  0.00    -0.395 A  
HETATM   22  C   UNL     1     -11.729  11.252  70.176  1.00  0.00    -0.429 C  
ENDBRANCH  16  17
ENDBRANCH   7  16
TORSDOF 2
ENDMDL
MODEL      112
REMARK 921   NORMALIZED FREE ENERGY PREDICTED BY IDOCK:   -4.89 KCAL/MOL
REMARK 922        TOTAL FREE ENERGY PREDICTED BY IDOCK:   -5.19 KCAL/MOL
REMARK 923 INTER-LIGAND FREE ENERGY PREDICTED BY IDOCK:   -5.03 KCAL/MOL
REMARK 924 INTRA-LIGAND FREE ENERGY PREDICTED BY IDOCK:   -0.16 KCAL/MOL
REMARK 927      BINDING AFFINITY PREDICTED BY RF-SCORE:    0.00 PKD
ROOT
HETATM    1  C   UNL     1      -9.389  14.739  67.385  1.00  0.00    -0.197 C  
HETATM    2  N   UNL     1      -9.700  13.493  66.718  1.00  0.00    -0.263 NA 
HETATM    3  C   UNL     1      -9.187  12.259  67.021  1.00  0.00    -0.205 A  
HETATM    4  C   UNL     1      -9.676  11.353  66.095  1.00  0.00    -0.248 A  
HETATM    5  C   UNL     1     -10.572  12.047  65.241  1.00  0.00    -0.328 A  
HETATM    6  C   UNL     1      -9.245   9.960  66.105  1.00  0.00    -0.168 C  
HETATM    7  C   UNL     1      -8.024   9.676  66.988  1.00  0.00    -0.109 C  
HETATM    8  C   UNL     1     -11.377  11.665  64.147  1.00  0.00    -0.397 A  
HETATM    9  O   UNL     1      -9.775   9.094  65.415  1.00  0.00    -0.207 OA 
HETATM   10  C   UNL     1      -8.185  10.415  68.336  1.00  0.00    -0.114 C  
HETATM   11  C   UNL     1     -11.315  14.365  64.967  1.00  0.00    -0.373 A  
HETATM   12  C   UNL     1     -12.136  12.631  63.479  1.00  0.00    -0.648 A  
HETATM   13  C   UNL     1      -8.237  11.941  68.128  1.00  0.00    -0.158 C  
HETATM   14  C   UNL     1     -12.100  13.962  63.882  1.00  0.00    -0.387 A  
HETATM   15  C   UNL     1     -10.557  13.389  65.637  1.00  0.00    -0.282 A  
ENDROOT
BRANCH   7  16
HETATM   16  C   UNL     1      -7.833   8.166  67.138  1.00  0.00    -0.101 C  
BRANCH  16  17
HETATM   17  N   UNL     1      -8.132   7.680  68.475  1.00  0.00    -0.123 NA 
HETATM   18  C   UNL     1      -7.225   7.573  69.496  1.00  0.00    -0.082 A  
HETATM   19  C   UNL     1      -7.956   7.156  70.582  1.00  0.00    -0.101 A  
HETATM   20  N   UNL     1      -9.268   6.980  70.240  1.00  0.00    -0.156 NA 
HETATM   21  C   UNL     1      -9.355   7.278  68.959  1.00  0.00    -0.148 A  
HETATM   22  C   UNL     1     -10.589   7.201  68.137  1.00  0.00    -0.241 C  
ENDBRANCH  16  17
ENDBRANCH   7  16
TORSDOF 2
ENDMDL
MODEL      113
REMARK 921   NORMALIZED FREE ENERGY PREDICTED BY IDOCK:   -4.89 KCAL/MOL
REMARK 922        TOTAL FREE ENERGY PREDICTED BY IDOCK:   -5.19 KCAL/MOL
REMARK 923 INTER-LIGAND FREE ENERGY PREDICTED BY IDOCK:   -4.97 KCAL/MOL
REMARK 924 INTRA-LIGAND FREE ENERGY PREDICTED BY IDOCK:   -0.22 KCAL/MOL
REMARK 927      BINDING AFFINITY PREDICTED BY RF-SCORE:    0.00 PKD
ROOT
HETATM    1  C   UNL     1      -9.092  15.087  67.149  1.00  0.00    -0.215 C  
HETATM    2  N   UNL     1      -9.857  14.089  67.866  1.00  0.00    -0.227 NA 
HETATM    3  C   UNL     1      -9.813  12.734  67.669  1.00  0.00    -0.214 A  
HETATM    4  C   UNL     1     -10.755  12.150  68.498  1.00  0.00    -0.257 A  
HETATM    5  C   UNL     1     -11.345  13.179  69.278  1.00  0.00    -0.312 A  
HETATM    6  C   UNL     1     -11.005  10.713  68.460  1.00  0.00    -0.248 C  
HETATM    7  C   UNL     1     -10.388   9.990  67.257  1.00  0.00    -0.293 C  
HETATM    8  C   UNL     1     -12.327  13.202  70.289  1.00  0.00    -0.319 A  
HETATM    9  O   UNL     1     -11.705  10.137  69.287  1.00  0.00    -0.134 OA 
HETATM   10  C   UNL     1      -8.945  10.502  67.038  1.00  0.00    -0.149 C  
HETATM   11  C   UNL     1     -11.176  15.620  69.399  1.00  0.00    -0.313 A  
HETATM   12  C   UNL     1     -12.722  14.425  70.841  1.00  0.00    -0.425 A  
HETATM   13  C   UNL     1      -8.936  12.006  66.705  1.00  0.00    -0.204 C  
HETATM   14  C   UNL     1     -12.156  15.616  70.397  1.00  0.00    -0.425 A  
HETATM   15  C   UNL     1     -10.781  14.388  68.852  1.00  0.00    -0.253 A  
ENDROOT
BRANCH   7  16
HETATM   16  C   UNL     1     -10.475   8.478  67.461  1.00  0.00    -0.258 C  
BRANCH  16  17
HETATM   17  N   UNL     1      -9.301   7.917  68.107  1.00  0.00    -0.142 NA 
HETATM   18  C   UNL     1      -9.060   7.932  69.456  1.00  0.00    -0.149 A  
HETATM   19  C   UNL     1      -7.892   7.227  69.618  1.00  0.00    -0.118 A  
HETATM   20  N   UNL     1      -7.406   6.814  68.409  1.00  0.00    -0.085 NA 
HETATM   21  C   UNL     1      -8.255   7.258  67.503  1.00  0.00    -0.113 A  
HETATM   22  C   UNL     1      -8.122   7.079  66.035  1.00  0.00    -0.122 C  
ENDBRANCH  16  17
ENDBRANCH   7  16
TORSDOF 2
ENDMDL
MODEL      114
REMARK 921   NORMALIZED FREE ENERGY PREDICTED BY IDOCK:   -4.87 KCAL/MOL
REMARK 922        TOTAL FREE ENERGY PREDICTED BY IDOCK:   -5.18 KCAL/MOL
REMARK 923 INTER-LIGAND FREE ENERGY PREDICTED BY IDOCK:   -4.74 KCAL/MOL
REMARK 924 INTRA-LIGAND FREE ENERGY PREDICTED BY IDOCK:   -0.44 KCAL/MOL
REMARK 927      BINDING AFFINITY PREDICTED BY RF-SCORE:    0.00 PKD
ROOT
HETATM    1  C   UNL     1     -10.007   8.708  66.498  1.00  0.00    -0.282 C  
HETATM    2  N   UNL     1     -10.166   8.744  67.936  1.00  0.00    -0.207 NA 
HETATM    3  C   UNL     1      -9.729   7.798  68.826  1.00  0.00    -0.157 A  
HETATM    4  C   UNL     1     -10.154   8.170  70.090  1.00  0.00    -0.194 A  
HETATM    5  C   UNL     1     -10.813   9.422  69.975  1.00  0.00    -0.271 A  
HETATM    6  C   UNL     1      -9.911   7.317  71.248  1.00  0.00    -0.188 C  
HETATM    7  C   UNL     1      -9.446   5.896  70.907  1.00  0.00    -0.191 C  
HETATM    8  C   UNL     1     -11.426  10.295  70.897  1.00  0.00    -0.425 A  
HETATM    9  O   UNL     1     -10.121   7.683  72.400  1.00  0.00    -0.186 OA 
HETATM   10  C   UNL     1      -8.377   5.962  69.792  1.00  0.00    -0.124 C  
HETATM   11  C   UNL     1     -11.441  10.926  68.146  1.00  0.00    -0.368 A  
HETATM   12  C   UNL     1     -12.037  11.466  70.437  1.00  0.00    -0.473 A  
HETATM   13  C   UNL     1      -8.962   6.559  68.498  1.00  0.00    -0.126 C  
HETATM   14  C   UNL     1     -12.047  11.772  69.080  1.00  0.00    -0.290 A  
HETATM   15  C   UNL     1     -10.825   9.753  68.614  1.00  0.00    -0.188 A  
ENDROOT
BRANCH   7  16
HETATM   16  C   UNL     1      -8.964   5.191  72.175  1.00  0.00    -0.129 C  
BRANCH  16  17
HETATM   17  N   UNL     1      -9.825   4.095  72.585  1.00  0.00    -0.144 NA 
HETATM   18  C   UNL     1     -10.744   4.150  73.599  1.00  0.00    -0.238 A  
HETATM   19  C   UNL     1     -11.378   2.931  73.575  1.00  0.00    -0.159 A  
HETATM   20  N   UNL     1     -10.850   2.133  72.599  1.00  0.00    -0.074 NA 
HETATM   21  C   UNL     1      -9.897   2.840  72.024  1.00  0.00    -0.169 A  
HETATM   22  C   UNL     1      -9.019   2.370  70.923  1.00  0.00    -0.153 C  
ENDBRANCH  16  17
ENDBRANCH   7  16
TORSDOF 2
ENDMDL
MODEL      115
REMARK 921   NORMALIZED FREE ENERGY PREDICTED BY IDOCK:   -4.86 KCAL/MOL
REMARK 922        TOTAL FREE ENERGY PREDICTED BY IDOCK:   -5.16 KCAL/MOL
REMARK 923 INTER-LIGAND FREE ENERGY PREDICTED BY IDOCK:   -4.72 KCAL/MOL
REMARK 924 INTRA-LIGAND FREE ENERGY PREDICTED BY IDOCK:   -0.44 KCAL/MOL
REMARK 927      BINDING AFFINITY PREDICTED BY RF-SCORE:    0.00 PKD
ROOT
HETATM    1  C   UNL     1     -11.164  11.700  67.283  1.00  0.00    -0.304 C  
HETATM    2  N   UNL     1     -10.787  10.409  67.819  1.00  0.00    -0.276 NA 
HETATM    3  C   UNL     1     -10.133   9.409  67.147  1.00  0.00    -0.231 A  
HETATM    4  C   UNL     1     -10.040   8.315  67.991  1.00  0.00    -0.243 A  
HETATM    5  C   UNL     1     -10.594   8.686  69.244  1.00  0.00    -0.204 A  
HETATM    6  C   UNL     1      -9.462   7.058  67.532  1.00  0.00    -0.126 C  
HETATM    7  C   UNL     1      -9.266   6.961  66.014  1.00  0.00    -0.062 C  
HETATM    8  C   UNL     1     -10.760   8.023  70.477  1.00  0.00    -0.231 A  
HETATM    9  O   UNL     1      -9.209   6.125  68.290  1.00  0.00    -0.116 OA 
HETATM   10  C   UNL     1      -8.672   8.289  65.490  1.00  0.00    -0.173 C  
HETATM   11  C   UNL     1     -11.721  10.657  70.163  1.00  0.00    -0.417 A  
HETATM   12  C   UNL     1     -11.401   8.678  71.533  1.00  0.00    -0.358 A  
HETATM   13  C   UNL     1      -9.638   9.464  65.739  1.00  0.00    -0.340 C  
HETATM   14  C   UNL     1     -11.878   9.975  71.374  1.00  0.00    -0.447 A  
HETATM   15  C   UNL     1     -11.073   9.995  69.108  1.00  0.00    -0.190 A  
ENDROOT
BRANCH   7  16
HETATM   16  C   UNL     1      -8.414   5.737  65.679  1.00  0.00    -0.149 C  
BRANCH  16  17
HETATM   17  N   UNL     1      -9.040   4.849  64.713  1.00  0.00    -0.134 NA 
HETATM   18  C   UNL     1      -9.910   3.836  65.021  1.00  0.00    -0.175 A  
HETATM   19  C   UNL     1     -10.308   3.326  63.809  1.00  0.00    -0.225 A  
HETATM   20  N   UNL     1      -9.683   3.979  62.783  1.00  0.00    -0.141 NA 
HETATM   21  C   UNL     1      -8.903   4.881  63.345  1.00  0.00    -0.076 A  
HETATM   22  C   UNL     1      -8.001   5.812  62.621  1.00  0.00    -0.105 C  
ENDBRANCH  16  17
ENDBRANCH   7  16
TORSDOF 2
ENDMDL
MODEL      116
REMARK 921   NORMALIZED FREE ENERGY PREDICTED BY IDOCK:   -4.86 KCAL/MOL
REMARK 922        TOTAL FREE ENERGY PREDICTED BY IDOCK:   -5.16 KCAL/MOL
REMARK 923 INTER-LIGAND FREE ENERGY PREDICTED BY IDOCK:   -4.92 KCAL/MOL
REMARK 924 INTRA-LIGAND FREE ENERGY PREDICTED BY IDOCK:   -0.24 KCAL/MOL
REMARK 927      BINDING AFFINITY PREDICTED BY RF-SCORE:    0.00 PKD
ROOT
HETATM    1  C   UNL     1     -13.785   8.980  72.310  1.00  0.00    -0.492 C  
HETATM    2  N   UNL     1     -12.554   8.986  71.550  1.00  0.00    -0.325 NA 
HETATM    3  C   UNL     1     -11.669   7.946  71.426  1.00  0.00    -0.281 A  
HETATM    4  C   UNL     1     -10.587   8.391  70.685  1.00  0.00    -0.234 A  
HETATM    5  C   UNL     1     -10.855   9.726  70.285  1.00  0.00    -0.356 A  
HETATM    6  C   UNL     1      -9.433   7.532  70.449  1.00  0.00    -0.161 C  
HETATM    7  C   UNL     1      -9.389   6.268  71.317  1.00  0.00    -0.164 C  
HETATM    8  C   UNL     1     -10.155  10.677  69.514  1.00  0.00    -0.164 A  
HETATM    9  O   UNL     1      -8.535   7.824  69.665  1.00  0.00    -0.130 OA 
HETATM   10  C   UNL     1     -10.797   5.630  71.361  1.00  0.00    -0.290 C  
HETATM   11  C   UNL     1     -12.628  11.368  70.683  1.00  0.00    -0.360 A  
HETATM   12  C   UNL     1     -10.694  11.955  69.337  1.00  0.00    -0.012 A  
HETATM   13  C   UNL     1     -11.816   6.582  72.015  1.00  0.00    -0.374 C  
HETATM   14  C   UNL     1     -11.912  12.295  69.919  1.00  0.00    -0.377 A  
HETATM   15  C   UNL     1     -12.083  10.085  70.853  1.00  0.00    -0.355 A  
ENDROOT
BRANCH   7  16
HETATM   16  C   UNL     1      -8.305   5.322  70.800  1.00  0.00    -0.115 C  
BRANCH  16  17
HETATM   17  N   UNL     1      -8.815   4.307  69.893  1.00  0.00    -0.077 NA 
HETATM   18  C   UNL     1      -9.074   4.497  68.561  1.00  0.00    -0.121 A  
HETATM   19  C   UNL     1      -9.453   3.263  68.091  1.00  0.00    -0.155 A  
HETATM   20  N   UNL     1      -9.459   2.343  69.103  1.00  0.00    -0.119 NA 
HETATM   21  C   UNL     1      -9.094   2.993  70.190  1.00  0.00    -0.119 A  
HETATM   22  C   UNL     1      -8.988   2.407  71.550  1.00  0.00    -0.139 C  
ENDBRANCH  16  17
ENDBRANCH   7  16
TORSDOF 2
ENDMDL
MODEL      117
REMARK 921   NORMALIZED FREE ENERGY PREDICTED BY IDOCK:   -4.81 KCAL/MOL
REMARK 922        TOTAL FREE ENERGY PREDICTED BY IDOCK:   -5.11 KCAL/MOL
REMARK 923 INTER-LIGAND FREE ENERGY PREDICTED BY IDOCK:   -4.87 KCAL/MOL
REMARK 924 INTRA-LIGAND FREE ENERGY PREDICTED BY IDOCK:   -0.24 KCAL/MOL
REMARK 927      BINDING AFFINITY PREDICTED BY RF-SCORE:    0.00 PKD
ROOT
HETATM    1  C   UNL     1      -8.547   8.379  72.262  1.00  0.00    -0.197 C  
HETATM    2  N   UNL     1      -8.913   7.997  70.914  1.00  0.00    -0.138 NA 
HETATM    3  C   UNL     1      -9.072   8.839  69.845  1.00  0.00    -0.157 A  
HETATM    4  C   UNL     1      -9.504   8.086  68.767  1.00  0.00    -0.147 A  
HETATM    5  C   UNL     1      -9.541   6.727  69.175  1.00  0.00    -0.139 A  
HETATM    6  C   UNL     1      -9.841   8.715  67.495  1.00  0.00    -0.180 C  
HETATM    7  C   UNL     1      -9.972  10.242  67.554  1.00  0.00    -0.226 C  
HETATM    8  C   UNL     1      -9.871   5.518  68.527  1.00  0.00    -0.193 A  
HETATM    9  O   UNL     1     -10.064   8.073  66.473  1.00  0.00    -0.260 OA 
HETATM   10  C   UNL     1      -8.806  10.823  68.387  1.00  0.00    -0.146 C  
HETATM   11  C   UNL     1      -9.159   5.496  71.258  1.00  0.00    -0.158 A  
HETATM   12  C   UNL     1      -9.842   4.320  69.247  1.00  0.00    -0.180 A  
HETATM   13  C   UNL     1      -8.860  10.318  69.841  1.00  0.00     0.018 C  
HETATM   14  C   UNL     1      -9.496   4.312  70.594  1.00  0.00    -0.241 A  
HETATM   15  C   UNL     1      -9.185   6.697  70.529  1.00  0.00    -0.156 A  
ENDROOT
BRANCH   7  16
HETATM   16  C   UNL     1     -10.052  10.810  66.136  1.00  0.00    -0.242 C  
BRANCH  16  17
HETATM   17  N   UNL     1     -10.896  11.988  66.037  1.00  0.00    -0.278 NA 
HETATM   18  C   UNL     1     -11.588  12.553  67.076  1.00  0.00    -0.368 A  
HETATM   19  C   UNL     1     -12.171  13.679  66.548  1.00  0.00    -0.404 A  
HETATM   20  N   UNL     1     -11.876  13.795  65.218  1.00  0.00    -0.337 NA 
HETATM   21  C   UNL     1     -11.124  12.754  64.918  1.00  0.00    -0.292 A  
HETATM   22  C   UNL     1     -10.586  12.439  63.570  1.00  0.00    -0.451 C  
ENDBRANCH  16  17
ENDBRANCH   7  16
TORSDOF 2
ENDMDL
MODEL      118
REMARK 921   NORMALIZED FREE ENERGY PREDICTED BY IDOCK:   -4.79 KCAL/MOL
REMARK 922        TOTAL FREE ENERGY PREDICTED BY IDOCK:   -5.08 KCAL/MOL
REMARK 923 INTER-LIGAND FREE ENERGY PREDICTED BY IDOCK:   -5.13 KCAL/MOL
REMARK 924 INTRA-LIGAND FREE ENERGY PREDICTED BY IDOCK:    0.05 KCAL/MOL
REMARK 927      BINDING AFFINITY PREDICTED BY RF-SCORE:    0.00 PKD
ROOT
HETATM    1  C   UNL     1      -8.983   9.518  63.202  1.00  0.00    -0.194 C  
HETATM    2  N   UNL     1      -9.491  10.148  64.403  1.00  0.00    -0.290 NA 
HETATM    3  C   UNL     1      -9.117   9.864  65.690  1.00  0.00    -0.178 A  
HETATM    4  C   UNL     1      -9.898  10.628  66.541  1.00  0.00    -0.250 A  
HETATM    5  C   UNL     1     -10.728  11.457  65.741  1.00  0.00    -0.309 A  
HETATM    6  C   UNL     1      -9.792  10.489  67.989  1.00  0.00    -0.147 C  
HETATM    7  C   UNL     1      -9.005   9.258  68.456  1.00  0.00    -0.129 C  
HETATM    8  C   UNL     1     -11.696  12.441  66.026  1.00  0.00    -0.469 A  
HETATM    9  O   UNL     1     -10.339  11.258  68.773  1.00  0.00    -0.195 OA 
HETATM   10  C   UNL     1      -7.727   9.113  67.597  1.00  0.00    -0.089 C  
HETATM   11  C   UNL     1     -11.157  11.741  63.346  1.00  0.00    -0.448 A  
HETATM   12  C   UNL     1     -12.382  13.060  64.976  1.00  0.00    -0.526 A  
HETATM   13  C   UNL     1      -8.079   8.878  66.116  1.00  0.00    -0.114 C  
HETATM   14  C   UNL     1     -12.117  12.710  63.656  1.00  0.00    -0.632 A  
HETATM   15  C   UNL     1     -10.469  11.126  64.405  1.00  0.00    -0.353 A  
ENDROOT
BRANCH   7  16
HETATM   16  C   UNL     1      -8.725   9.361  69.955  1.00  0.00    -0.210 C  
BRANCH  16  17
HETATM   17  N   UNL     1      -7.399   9.873  70.257  1.00  0.00    -0.156 NA 
HETATM   18  C   UNL     1      -6.897  11.071  69.819  1.00  0.00    -0.116 A  
HETATM   19  C   UNL     1      -5.661  11.177  70.409  1.00  0.00    -0.124 A  
HETATM   20  N   UNL     1      -5.390  10.070  71.164  1.00  0.00    -0.073 NA 
HETATM   21  C   UNL     1      -6.439   9.280  71.044  1.00  0.00    -0.086 A  
HETATM   22  C   UNL     1      -6.585   7.940  71.666  1.00  0.00    -0.044 C  
ENDBRANCH  16  17
ENDBRANCH   7  16
TORSDOF 2
ENDMDL
MODEL      119
REMARK 921   NORMALIZED FREE ENERGY PREDICTED BY IDOCK:   -4.75 KCAL/MOL
REMARK 922        TOTAL FREE ENERGY PREDICTED BY IDOCK:   -5.04 KCAL/MOL
REMARK 923 INTER-LIGAND FREE ENERGY PREDICTED BY IDOCK:   -5.05 KCAL/MOL
REMARK 924 INTRA-LIGAND FREE ENERGY PREDICTED BY IDOCK:    0.01 KCAL/MOL
REMARK 927      BINDING AFFINITY PREDICTED BY RF-SCORE:    0.00 PKD
ROOT
HETATM    1  C   UNL     1      -8.929  14.310  65.597  1.00  0.00     0.877 C  
HETATM    2  N   UNL     1      -9.843  13.667  66.517  1.00  0.00    -0.285 NA 
HETATM    3  C   UNL     1     -10.648  14.292  67.433  1.00  0.00    -0.276 A  
HETATM    4  C   UNL     1     -11.299  13.316  68.167  1.00  0.00    -0.323 A  
HETATM    5  C   UNL     1     -10.930  12.053  67.633  1.00  0.00    -0.287 A  
HETATM    6  C   UNL     1     -12.173  13.668  69.281  1.00  0.00    -0.238 C  
HETATM    7  C   UNL     1     -12.062  15.126  69.742  1.00  0.00    -0.354 C  
HETATM    8  C   UNL     1     -11.276  10.721  67.939  1.00  0.00    -0.386 A  
HETATM    9  O   UNL     1     -12.894  12.851  69.846  1.00  0.00     0.252 OA 
HETATM   10  C   UNL     1     -12.022  16.052  68.504  1.00  0.00     0.029 C  
HETATM   11  C   UNL     1      -9.402  11.248  65.896  1.00  0.00    -0.240 A  
HETATM   12  C   UNL     1     -10.685   9.673  67.226  1.00  0.00    -0.284 A  
HETATM   13  C   UNL     1     -10.780  15.766  67.638  1.00  0.00    -0.310 C  
HETATM   14  C   UNL     1      -9.758   9.936  66.223  1.00  0.00    -0.281 A  
HETATM   15  C   UNL     1     -10.002  12.297  66.613  1.00  0.00    -0.215 A  
ENDROOT
BRANCH   7  16
HETATM   16  C   UNL     1     -13.199  15.451  70.711  1.00  0.00    -0.387 C  
BRANCH  16  17
HETATM   17  N   UNL     1     -12.828  15.289  72.106  1.00  0.00    -0.331 NA 
HETATM   18  C   UNL     1     -12.071  16.174  72.828  1.00  0.00    -0.553 A  
HETATM   19  C   UNL     1     -12.045  15.665  74.104  1.00  0.00    -0.472 A  
HETATM   20  N   UNL     1     -12.736  14.486  74.166  1.00  0.00    -0.175 NA 
HETATM   21  C   UNL     1     -13.184  14.260  72.947  1.00  0.00    -0.495 A  
HETATM   22  C   UNL     1     -13.967  13.073  72.522  1.00  0.00    -0.320 C  
ENDBRANCH  16  17
ENDBRANCH   7  16
TORSDOF 2
ENDMDL
MODEL      120
REMARK 921   NORMALIZED FREE ENERGY PREDICTED BY IDOCK:   -4.74 KCAL/MOL
REMARK 922        TOTAL FREE ENERGY PREDICTED BY IDOCK:   -5.02 KCAL/MOL
REMARK 923 INTER-LIGAND FREE ENERGY PREDICTED BY IDOCK:   -4.86 KCAL/MOL
REMARK 924 INTRA-LIGAND FREE ENERGY PREDICTED BY IDOCK:   -0.17 KCAL/MOL
REMARK 927      BINDING AFFINITY PREDICTED BY RF-SCORE:    0.00 PKD
ROOT
HETATM    1  C   UNL     1     -11.222   7.649  70.142  1.00  0.00    -0.180 C  
HETATM    2  N   UNL     1     -10.156   8.219  69.346  1.00  0.00    -0.193 NA 
HETATM    3  C   UNL     1     -10.222   9.366  68.599  1.00  0.00    -0.201 A  
HETATM    4  C   UNL     1      -9.019   9.512  67.930  1.00  0.00    -0.125 A  
HETATM    5  C   UNL     1      -8.165   8.454  68.338  1.00  0.00    -0.124 A  
HETATM    6  C   UNL     1      -8.810  10.603  66.985  1.00  0.00    -0.137 C  
HETATM    7  C   UNL     1     -10.086  11.351  66.582  1.00  0.00    -0.247 C  
HETATM    8  C   UNL     1      -6.839   8.089  68.027  1.00  0.00    -0.072 A  
HETATM    9  O   UNL     1      -7.712  10.864  66.502  1.00  0.00    -0.138 OA 
HETATM   10  C   UNL     1     -10.946  11.610  67.842  1.00  0.00    -0.277 C  
HETATM   11  C   UNL     1      -8.361   6.479  69.774  1.00  0.00    -0.127 A  
HETATM   12  C   UNL     1      -6.292   6.931  68.588  1.00  0.00    -0.032 A  
HETATM   13  C   UNL     1     -11.394  10.285  68.487  1.00  0.00    -0.231 C  
HETATM   14  C   UNL     1      -7.046   6.136  69.445  1.00  0.00    -0.069 A  
HETATM   15  C   UNL     1      -8.904   7.646  69.211  1.00  0.00    -0.136 A  
ENDROOT
BRANCH   7  16
HETATM   16  C   UNL     1      -9.720  12.625  65.820  1.00  0.00    -0.175 C  
BRANCH  16  17
HETATM   17  N   UNL     1     -10.860  13.254  65.174  1.00  0.00    -0.299 NA 
HETATM   18  C   UNL     1     -11.331  14.510  65.452  1.00  0.00    -0.341 A  
HETATM   19  C   UNL     1     -12.351  14.716  64.556  1.00  0.00    -0.398 A  
HETATM   20  N   UNL     1     -12.529  13.614  63.766  1.00  0.00    -0.727 NA 
HETATM   21  C   UNL     1     -11.637  12.730  64.167  1.00  0.00    -0.396 A  
HETATM   22  C   UNL     1     -11.474  11.360  63.618  1.00  0.00    -0.232 C  
ENDBRANCH  16  17
ENDBRANCH   7  16
TORSDOF 2
ENDMDL
MODEL      121
REMARK 921   NORMALIZED FREE ENERGY PREDICTED BY IDOCK:   -4.73 KCAL/MOL
REMARK 922        TOTAL FREE ENERGY PREDICTED BY IDOCK:   -5.02 KCAL/MOL
REMARK 923 INTER-LIGAND FREE ENERGY PREDICTED BY IDOCK:   -4.60 KCAL/MOL
REMARK 924 INTRA-LIGAND FREE ENERGY PREDICTED BY IDOCK:   -0.42 KCAL/MOL
REMARK 927      BINDING AFFINITY PREDICTED BY RF-SCORE:    0.00 PKD
ROOT
HETATM    1  C   UNL     1     -11.132  12.309  65.230  1.00  0.00    -0.316 C  
HETATM    2  N   UNL     1     -10.196  12.171  66.325  1.00  0.00    -0.219 NA 
HETATM    3  C   UNL     1      -9.984  11.044  67.075  1.00  0.00    -0.190 A  
HETATM    4  C   UNL     1      -9.072  11.357  68.069  1.00  0.00    -0.171 A  
HETATM    5  C   UNL     1      -8.663  12.702  67.875  1.00  0.00    -0.181 A  
HETATM    6  C   UNL     1      -8.700  10.379  69.085  1.00  0.00    -0.166 C  
HETATM    7  C   UNL     1      -9.602   9.140  69.138  1.00  0.00    -0.161 C  
HETATM    8  C   UNL     1      -7.759  13.557  68.538  1.00  0.00    -0.125 A  
HETATM    9  O   UNL     1      -7.779  10.558  69.877  1.00  0.00    -0.137 OA 
HETATM   10  C   UNL     1      -9.881   8.649  67.698  1.00  0.00    -0.229 C  
HETATM   11  C   UNL     1      -9.256  14.526  66.350  1.00  0.00    -0.264 A  
HETATM   12  C   UNL     1      -7.614  14.879  68.104  1.00  0.00    -0.115 A  
HETATM   13  C   UNL     1     -10.641   9.716  66.888  1.00  0.00    -0.241 C  
HETATM   14  C   UNL     1      -8.357  15.355  67.028  1.00  0.00    -0.268 A  
HETATM   15  C   UNL     1      -9.394  13.198  66.788  1.00  0.00    -0.244 A  
ENDROOT
BRANCH   7  16
HETATM   16  C   UNL     1      -8.966   8.075  70.033  1.00  0.00    -0.144 C  
BRANCH  16  17
HETATM   17  N   UNL     1      -9.612   7.956  71.329  1.00  0.00    -0.156 NA 
HETATM   18  C   UNL     1     -10.963   7.847  71.531  1.00  0.00    -0.231 A  
HETATM   19  C   UNL     1     -11.110   7.675  72.885  1.00  0.00    -0.393 A  
HETATM   20  N   UNL     1      -9.894   7.706  73.510  1.00  0.00    -0.311 NA 
HETATM   21  C   UNL     1      -9.000   7.900  72.560  1.00  0.00    -0.174 A  
HETATM   22  C   UNL     1      -7.537   8.036  72.768  1.00  0.00    -0.160 C  
ENDBRANCH  16  17
ENDBRANCH   7  16
TORSDOF 2
ENDMDL
MODEL      122
REMARK 921   NORMALIZED FREE ENERGY PREDICTED BY IDOCK:   -4.73 KCAL/MOL
REMARK 922        TOTAL FREE ENERGY PREDICTED BY IDOCK:   -5.01 KCAL/MOL
REMARK 923 INTER-LIGAND FREE ENERGY PREDICTED BY IDOCK:   -4.95 KCAL/MOL
REMARK 924 INTRA-LIGAND FREE ENERGY PREDICTED BY IDOCK:   -0.06 KCAL/MOL
REMARK 927      BINDING AFFINITY PREDICTED BY RF-SCORE:    0.00 PKD
ROOT
HETATM    1  C   UNL     1      -9.038   4.572  67.402  1.00  0.00    -0.128 C  
HETATM    2  N   UNL     1      -9.312   5.673  68.301  1.00  0.00    -0.110 NA 
HETATM    3  C   UNL     1      -9.264   7.007  67.990  1.00  0.00    -0.129 A  
HETATM    4  C   UNL     1      -9.511   7.725  69.148  1.00  0.00    -0.151 A  
HETATM    5  C   UNL     1      -9.788   6.795  70.184  1.00  0.00    -0.187 A  
HETATM    6  C   UNL     1      -9.448   9.182  69.159  1.00  0.00    -0.156 C  
HETATM    7  C   UNL     1      -8.806   9.801  67.912  1.00  0.00    -0.122 C  
HETATM    8  C   UNL     1     -10.125   6.919  71.548  1.00  0.00    -0.195 A  
HETATM    9  O   UNL     1      -9.821   9.858  70.113  1.00  0.00    -0.247 OA 
HETATM   10  C   UNL     1      -9.346   9.088  66.651  1.00  0.00    -0.229 C  
HETATM   11  C   UNL     1      -9.807   4.356  70.411  1.00  0.00    -0.286 A  
HETATM   12  C   UNL     1     -10.298   5.768  72.324  1.00  0.00    -0.244 A  
HETATM   13  C   UNL     1      -8.961   7.596  66.652  1.00  0.00    -0.181 C  
HETATM   14  C   UNL     1     -10.136   4.506  71.762  1.00  0.00    -0.254 A  
HETATM   15  C   UNL     1      -9.639   5.515  69.636  1.00  0.00    -0.158 A  
ENDROOT
BRANCH   7  16
HETATM   16  C   UNL     1      -9.040  11.312  67.906  1.00  0.00    -0.150 C  
BRANCH  16  17
HETATM   17  N   UNL     1     -10.080  11.728  66.980  1.00  0.00    -0.207 NA 
HETATM   18  C   UNL     1      -9.899  11.956  65.640  1.00  0.00    -0.241 A  
HETATM   19  C   UNL     1     -11.151  12.242  65.154  1.00  0.00    -0.317 A  
HETATM   20  N   UNL     1     -12.075  12.224  66.162  1.00  0.00    -0.627 NA 
HETATM   21  C   UNL     1     -11.410  11.936  67.263  1.00  0.00    -0.329 A  
HETATM   22  C   UNL     1     -11.995  11.838  68.623  1.00  0.00    -0.299 C  
ENDBRANCH  16  17
ENDBRANCH   7  16
TORSDOF 2
ENDMDL
MODEL      123
REMARK 921   NORMALIZED FREE ENERGY PREDICTED BY IDOCK:   -4.72 KCAL/MOL
REMARK 922        TOTAL FREE ENERGY PREDICTED BY IDOCK:   -5.01 KCAL/MOL
REMARK 923 INTER-LIGAND FREE ENERGY PREDICTED BY IDOCK:   -4.82 KCAL/MOL
REMARK 924 INTRA-LIGAND FREE ENERGY PREDICTED BY IDOCK:   -0.19 KCAL/MOL
REMARK 927      BINDING AFFINITY PREDICTED BY RF-SCORE:    0.00 PKD
ROOT
HETATM    1  C   UNL     1      -6.320  15.677  68.250  1.00  0.00    -0.114 C  
HETATM    2  N   UNL     1      -7.763  15.567  68.293  1.00  0.00    -0.114 NA 
HETATM    3  C   UNL     1      -8.493  14.411  68.211  1.00  0.00    -0.165 A  
HETATM    4  C   UNL     1      -9.835  14.751  68.207  1.00  0.00    -0.222 A  
HETATM    5  C   UNL     1      -9.926  16.160  68.362  1.00  0.00    -0.230 A  
HETATM    6  C   UNL     1     -10.870  13.736  68.047  1.00  0.00    -0.249 C  
HETATM    7  C   UNL     1     -10.353  12.366  67.590  1.00  0.00    -0.223 C  
HETATM    8  C   UNL     1     -11.000  17.069  68.451  1.00  0.00    -0.263 A  
HETATM    9  O   UNL     1     -12.064  13.971  68.205  1.00  0.00    -0.355 OA 
HETATM   10  C   UNL     1      -9.075  12.010  68.384  1.00  0.00    -0.158 C  
HETATM   11  C   UNL     1      -8.346  18.027  68.503  1.00  0.00    -0.313 A  
HETATM   12  C   UNL     1     -10.738  18.438  68.563  1.00  0.00     0.089 A  
HETATM   13  C   UNL     1      -7.950  13.024  68.105  1.00  0.00    -0.154 C  
HETATM   14  C   UNL     1      -9.429  18.908  68.584  1.00  0.00    -0.427 A  
HETATM   15  C   UNL     1      -8.615  16.652  68.395  1.00  0.00    -0.221 A  
ENDROOT
BRANCH   7  16
HETATM   16  C   UNL     1     -11.465  11.324  67.721  1.00  0.00    -0.275 C  
BRANCH  16  17
HETATM   17  N   UNL     1     -11.409  10.580  68.968  1.00  0.00    -0.260 NA 
HETATM   18  C   UNL     1     -11.708  11.089  70.205  1.00  0.00    -0.356 A  
HETATM   19  C   UNL     1     -11.601  10.023  71.065  1.00  0.00    -0.393 A  
HETATM   20  N   UNL     1     -11.219   8.896  70.392  1.00  0.00    -0.249 NA 
HETATM   21  C   UNL     1     -11.083   9.253  69.130  1.00  0.00     0.024 A  
HETATM   22  C   UNL     1     -10.648   8.363  68.024  1.00  0.00    -0.191 C  
ENDBRANCH  16  17
ENDBRANCH   7  16
TORSDOF 2
ENDMDL
MODEL      124
REMARK 921   NORMALIZED FREE ENERGY PREDICTED BY IDOCK:   -4.71 KCAL/MOL
REMARK 922        TOTAL FREE ENERGY PREDICTED BY IDOCK:   -5.00 KCAL/MOL
REMARK 923 INTER-LIGAND FREE ENERGY PREDICTED BY IDOCK:   -4.74 KCAL/MOL
REMARK 924 INTRA-LIGAND FREE ENERGY PREDICTED BY IDOCK:   -0.26 KCAL/MOL
REMARK 927      BINDING AFFINITY PREDICTED BY RF-SCORE:    0.00 PKD
ROOT
HETATM    1  C   UNL     1      -8.248  19.064  67.672  1.00  0.00    -0.275 C  
HETATM    2  N   UNL     1      -8.016  17.648  67.859  1.00  0.00    -0.225 NA 
HETATM    3  C   UNL     1      -8.750  16.625  67.316  1.00  0.00    -0.191 A  
HETATM    4  C   UNL     1      -8.250  15.431  67.809  1.00  0.00    -0.159 A  
HETATM    5  C   UNL     1      -7.129  15.735  68.625  1.00  0.00    -0.129 A  
HETATM    6  C   UNL     1      -8.877  14.158  67.476  1.00  0.00    -0.201 C  
HETATM    7  C   UNL     1     -10.259  14.279  66.821  1.00  0.00    -0.272 C  
HETATM    8  C   UNL     1      -6.216  14.955  69.365  1.00  0.00    -0.114 A  
HETATM    9  O   UNL     1      -8.371  13.074  67.752  1.00  0.00    -0.149 OA 
HETATM   10  C   UNL     1     -10.221  15.394  65.750  1.00  0.00    -0.378 C  
HETATM   11  C   UNL     1      -6.017  17.770  69.415  1.00  0.00    -0.238 A  
HETATM   12  C   UNL     1      -5.220  15.586  70.117  1.00  0.00    -0.120 A  
HETATM   13  C   UNL     1      -9.910  16.762  66.387  1.00  0.00    -0.312 C  
HETATM   14  C   UNL     1      -5.127  16.974  70.143  1.00  0.00    -0.191 A  
HETATM   15  C   UNL     1      -7.012  17.130  68.658  1.00  0.00    -0.209 A  
ENDROOT
BRANCH   7  16
HETATM   16  C   UNL     1     -10.692  12.919  66.272  1.00  0.00    -0.274 C  
BRANCH  16  17
HETATM   17  N   UNL     1     -11.148  12.003  67.304  1.00  0.00    -0.268 NA 
HETATM   18  C   UNL     1     -12.017  12.322  68.314  1.00  0.00    -0.200 A  
HETATM   19  C   UNL     1     -12.226  11.144  68.990  1.00  0.00    -0.125 A  
HETATM   20  N   UNL     1     -11.488  10.134  68.439  1.00  0.00    -0.137 NA 
HETATM   21  C   UNL     1     -10.824  10.673  67.436  1.00  0.00    -0.296 A  
HETATM   22  C   UNL     1      -9.862   9.961  66.557  1.00  0.00    -0.274 C  
ENDBRANCH  16  17
ENDBRANCH   7  16
TORSDOF 2
ENDMDL
MODEL      125
REMARK 921   NORMALIZED FREE ENERGY PREDICTED BY IDOCK:   -4.70 KCAL/MOL
REMARK 922        TOTAL FREE ENERGY PREDICTED BY IDOCK:   -4.99 KCAL/MOL
REMARK 923 INTER-LIGAND FREE ENERGY PREDICTED BY IDOCK:   -4.83 KCAL/MOL
REMARK 924 INTRA-LIGAND FREE ENERGY PREDICTED BY IDOCK:   -0.15 KCAL/MOL
REMARK 927      BINDING AFFINITY PREDICTED BY RF-SCORE:    0.00 PKD
ROOT
HETATM    1  C   UNL     1      -8.732   8.847  65.463  1.00  0.00    -0.183 C  
HETATM    2  N   UNL     1      -8.719   8.091  66.698  1.00  0.00    -0.134 NA 
HETATM    3  C   UNL     1      -9.344   8.434  67.868  1.00  0.00    -0.135 A  
HETATM    4  C   UNL     1      -9.013   7.488  68.823  1.00  0.00    -0.129 A  
HETATM    5  C   UNL     1      -8.217   6.496  68.193  1.00  0.00    -0.117 A  
HETATM    6  C   UNL     1      -9.463   7.622  70.204  1.00  0.00    -0.161 C  
HETATM    7  C   UNL     1     -10.039   8.999  70.556  1.00  0.00    -0.263 C  
HETATM    8  C   UNL     1      -7.612   5.300  68.633  1.00  0.00    -0.082 A  
HETATM    9  O   UNL     1      -9.336   6.729  71.036  1.00  0.00    -0.160 OA 
HETATM   10  C   UNL     1     -10.975   9.468  69.418  1.00  0.00    -0.192 C  
HETATM   11  C   UNL     1      -7.248   6.158  65.969  1.00  0.00    -0.075 A  
HETATM   12  C   UNL     1      -6.836   4.551  67.742  1.00  0.00    -0.055 A  
HETATM   13  C   UNL     1     -10.200   9.636  68.097  1.00  0.00    -0.225 C  
HETATM   14  C   UNL     1      -6.654   4.979  66.431  1.00  0.00    -0.049 A  
HETATM   15  C   UNL     1      -8.030   6.904  66.867  1.00  0.00    -0.109 A  
ENDROOT
BRANCH   7  16
HETATM   16  C   UNL     1     -10.722   8.941  71.923  1.00  0.00    -0.356 C  
BRANCH  16  17
HETATM   17  N   UNL     1     -12.120   8.551  71.850  1.00  0.00    -0.324 NA 
HETATM   18  C   UNL     1     -12.577   7.262  71.767  1.00  0.00    -0.341 A  
HETATM   19  C   UNL     1     -13.946   7.365  71.806  1.00  0.00    -0.351 A  
HETATM   20  N   UNL     1     -14.329   8.676  71.879  1.00  0.00    -0.423 NA 
HETATM   21  C   UNL     1     -13.216   9.382  71.881  1.00  0.00    -0.429 A  
HETATM   22  C   UNL     1     -13.135  10.864  71.918  1.00  0.00    -0.537 C  
ENDBRANCH  16  17
ENDBRANCH   7  16
TORSDOF 2
ENDMDL
MODEL      126
REMARK 921   NORMALIZED FREE ENERGY PREDICTED BY IDOCK:   -4.69 KCAL/MOL
REMARK 922        TOTAL FREE ENERGY PREDICTED BY IDOCK:   -4.97 KCAL/MOL
REMARK 923 INTER-LIGAND FREE ENERGY PREDICTED BY IDOCK:   -4.82 KCAL/MOL
REMARK 924 INTRA-LIGAND FREE ENERGY PREDICTED BY IDOCK:   -0.14 KCAL/MOL
REMARK 927      BINDING AFFINITY PREDICTED BY RF-SCORE:    0.00 PKD
ROOT
HETATM    1  C   UNL     1     -11.987   7.986  72.729  1.00  0.00    -0.188 C  
HETATM    2  N   UNL     1     -11.269   7.652  71.517  1.00  0.00    -0.243 NA 
HETATM    3  C   UNL     1     -11.083   8.467  70.431  1.00  0.00    -0.231 A  
HETATM    4  C   UNL     1     -10.418   7.740  69.458  1.00  0.00    -0.225 A  
HETATM    5  C   UNL     1     -10.129   6.459  69.997  1.00  0.00    -0.208 A  
HETATM    6  C   UNL     1     -10.144   8.313  68.146  1.00  0.00    -0.200 C  
HETATM    7  C   UNL     1     -10.898   9.614  67.847  1.00  0.00    -0.272 C  
HETATM    8  C   UNL     1      -9.467   5.316  69.504  1.00  0.00    -0.192 A  
HETATM    9  O   UNL     1      -9.417   7.768  67.320  1.00  0.00    -0.138 OA 
HETATM   10  C   UNL     1     -10.842  10.534  69.089  1.00  0.00    -0.277 C  
HETATM   11  C   UNL     1     -10.613   5.268  72.082  1.00  0.00    -0.281 A  
HETATM   12  C   UNL     1      -9.386   4.168  70.299  1.00  0.00    -0.232 A  
HETATM   13  C   UNL     1     -11.544   9.881  70.294  1.00  0.00    -0.319 C  
HETATM   14  C   UNL     1      -9.956   4.146  71.568  1.00  0.00    -0.230 A  
HETATM   15  C   UNL     1     -10.687   6.419  71.280  1.00  0.00    -0.241 A  
ENDROOT
BRANCH   7  16
HETATM   16  C   UNL     1     -10.335  10.261  66.582  1.00  0.00    -0.219 C  
BRANCH  16  17
HETATM   17  N   UNL     1      -9.729  11.559  66.822  1.00  0.00    -0.196 NA 
HETATM   18  C   UNL     1     -10.401  12.753  66.837  1.00  0.00    -0.238 A  
HETATM   19  C   UNL     1      -9.458  13.690  67.182  1.00  0.00    -0.244 A  
HETATM   20  N   UNL     1      -8.234  13.105  67.345  1.00  0.00    -0.181 NA 
HETATM   21  C   UNL     1      -8.408  11.821  67.102  1.00  0.00    -0.168 A  
HETATM   22  C   UNL     1      -7.343  10.787  67.126  1.00  0.00    -0.101 C  
ENDBRANCH  16  17
ENDBRANCH   7  16
TORSDOF 2
ENDMDL
MODEL      127
REMARK 921   NORMALIZED FREE ENERGY PREDICTED BY IDOCK:   -4.62 KCAL/MOL
REMARK 922        TOTAL FREE ENERGY PREDICTED BY IDOCK:   -4.90 KCAL/MOL
REMARK 923 INTER-LIGAND FREE ENERGY PREDICTED BY IDOCK:   -4.73 KCAL/MOL
REMARK 924 INTRA-LIGAND FREE ENERGY PREDICTED BY IDOCK:   -0.17 KCAL/MOL
REMARK 927      BINDING AFFINITY PREDICTED BY RF-SCORE:    0.00 PKD
ROOT
HETATM    1  C   UNL     1      -8.875   6.636  67.027  1.00  0.00    -0.114 C  
HETATM    2  N   UNL     1      -8.930   7.820  66.196  1.00  0.00    -0.168 NA 
HETATM    3  C   UNL     1      -9.616   8.974  66.470  1.00  0.00    -0.223 A  
HETATM    4  C   UNL     1      -9.476   9.823  65.385  1.00  0.00    -0.333 A  
HETATM    5  C   UNL     1      -8.617   9.191  64.448  1.00  0.00    -0.204 A  
HETATM    6  C   UNL     1     -10.164  11.108  65.341  1.00  0.00    -0.271 C  
HETATM    7  C   UNL     1     -11.251  11.287  66.408  1.00  0.00    -0.190 C  
HETATM    8  C   UNL     1      -8.097   9.562  63.191  1.00  0.00    -0.149 A  
HETATM    9  O   UNL     1      -9.937  11.956  64.483  1.00  0.00    -0.254 OA 
HETATM   10  C   UNL     1     -10.725  10.770  67.766  1.00  0.00    -0.296 C  
HETATM   11  C   UNL     1      -7.492   7.023  64.265  1.00  0.00    -0.098 A  
HETATM   12  C   UNL     1      -7.287   8.665  62.488  1.00  0.00    -0.098 A  
HETATM   13  C   UNL     1     -10.411   9.263  67.701  1.00  0.00    -0.325 C  
HETATM   14  C   UNL     1      -6.993   7.412  63.018  1.00  0.00    -0.067 A  
HETATM   15  C   UNL     1      -8.302   7.930  64.968  1.00  0.00    -0.103 A  
ENDROOT
BRANCH   7  16
HETATM   16  C   UNL     1     -11.705  12.747  66.445  1.00  0.00    -0.403 C  
BRANCH  16  17
HETATM   17  N   UNL     1     -11.357  13.425  67.681  1.00  0.00    -0.276 NA 
HETATM   18  C   UNL     1     -12.127  13.445  68.815  1.00  0.00    -0.246 A  
HETATM   19  C   UNL     1     -11.377  14.122  69.745  1.00  0.00    -0.204 A  
HETATM   20  N   UNL     1     -10.193  14.536  69.201  1.00  0.00    -0.204 NA 
HETATM   21  C   UNL     1     -10.205  14.129  67.947  1.00  0.00    -0.235 A  
HETATM   22  C   UNL     1      -9.135  14.378  66.949  1.00  0.00    -0.269 C  
ENDBRANCH  16  17
ENDBRANCH   7  16
TORSDOF 2
ENDMDL
MODEL      128
REMARK 921   NORMALIZED FREE ENERGY PREDICTED BY IDOCK:   -4.62 KCAL/MOL
REMARK 922        TOTAL FREE ENERGY PREDICTED BY IDOCK:   -4.89 KCAL/MOL
REMARK 923 INTER-LIGAND FREE ENERGY PREDICTED BY IDOCK:   -4.50 KCAL/MOL
REMARK 924 INTRA-LIGAND FREE ENERGY PREDICTED BY IDOCK:   -0.40 KCAL/MOL
REMARK 927      BINDING AFFINITY PREDICTED BY RF-SCORE:    0.00 PKD
ROOT
HETATM    1  C   UNL     1      -7.333   8.533  64.508  1.00  0.00    -0.093 C  
HETATM    2  N   UNL     1      -8.273   7.819  65.346  1.00  0.00    -0.134 NA 
HETATM    3  C   UNL     1      -8.972   8.335  66.406  1.00  0.00    -0.166 A  
HETATM    4  C   UNL     1      -9.694   7.305  66.985  1.00  0.00    -0.235 A  
HETATM    5  C   UNL     1      -9.482   6.137  66.207  1.00  0.00    -0.144 A  
HETATM    6  C   UNL     1     -10.481   7.524  68.193  1.00  0.00    -0.183 C  
HETATM    7  C   UNL     1     -10.197   8.851  68.908  1.00  0.00    -0.220 C  
HETATM    8  C   UNL     1      -9.956   4.811  66.283  1.00  0.00    -0.264 A  
HETATM    9  O   UNL     1     -11.262   6.689  68.640  1.00  0.00    -0.239 OA 
HETATM   10  C   UNL     1     -10.107   9.986  67.862  1.00  0.00    -0.203 C  
HETATM   11  C   UNL     1      -8.118   5.530  64.266  1.00  0.00    -0.124 A  
HETATM   12  C   UNL     1      -9.508   3.864  65.356  1.00  0.00    -0.170 A  
HETATM   13  C   UNL     1      -8.938   9.749  66.887  1.00  0.00    -0.154 C  
HETATM   14  C   UNL     1      -8.598   4.221  64.365  1.00  0.00    -0.120 A  
HETATM   15  C   UNL     1      -8.574   6.477  65.197  1.00  0.00     0.013 A  
ENDROOT
BRANCH   7  16
HETATM   16  C   UNL     1     -11.255   9.095  69.985  1.00  0.00    -0.150 C  
BRANCH  16  17
HETATM   17  N   UNL     1     -10.929   8.480  71.260  1.00  0.00    -0.243 NA 
HETATM   18  C   UNL     1      -9.737   8.620  71.921  1.00  0.00    -0.313 A  
HETATM   19  C   UNL     1      -9.904   7.943  73.105  1.00  0.00    -0.290 A  
HETATM   20  N   UNL     1     -11.146   7.375  73.165  1.00  0.00    -0.348 NA 
HETATM   21  C   UNL     1     -11.745   7.688  72.034  1.00  0.00    -0.298 A  
HETATM   22  C   UNL     1     -13.110   7.261  71.634  1.00  0.00    -0.417 C  
ENDBRANCH  16  17
ENDBRANCH   7  16
TORSDOF 2
ENDMDL
MODEL      129
REMARK 921   NORMALIZED FREE ENERGY PREDICTED BY IDOCK:   -4.60 KCAL/MOL
REMARK 922        TOTAL FREE ENERGY PREDICTED BY IDOCK:   -4.87 KCAL/MOL
REMARK 923 INTER-LIGAND FREE ENERGY PREDICTED BY IDOCK:   -4.72 KCAL/MOL
REMARK 924 INTRA-LIGAND FREE ENERGY PREDICTED BY IDOCK:   -0.15 KCAL/MOL
REMARK 927      BINDING AFFINITY PREDICTED BY RF-SCORE:    0.00 PKD
ROOT
HETATM    1  C   UNL     1      -8.744   8.994  63.855  1.00  0.00    -0.083 C  
HETATM    2  N   UNL     1      -9.287   9.685  65.005  1.00  0.00    -0.256 NA 
HETATM    3  C   UNL     1      -9.150   9.311  66.317  1.00  0.00    -0.171 A  
HETATM    4  C   UNL     1      -9.886  10.191  67.092  1.00  0.00    -0.231 A  
HETATM    5  C   UNL     1     -10.434  11.176  66.227  1.00  0.00    -0.312 A  
HETATM    6  C   UNL     1     -10.005  10.008  68.533  1.00  0.00    -0.162 C  
HETATM    7  C   UNL     1      -9.526   8.643  69.044  1.00  0.00    -0.153 C  
HETATM    8  C   UNL     1     -11.237  12.318  66.428  1.00  0.00    -0.370 A  
HETATM    9  O   UNL     1     -10.504  10.851  69.273  1.00  0.00    -0.216 OA 
HETATM   10  C   UNL     1      -8.192   8.278  68.353  1.00  0.00    -0.132 C  
HETATM   11  C   UNL     1     -10.475  11.581  63.812  1.00  0.00    -0.459 A  
HETATM   12  C   UNL     1     -11.648  13.074  65.326  1.00  0.00    -0.361 A  
HETATM   13  C   UNL     1      -8.377   8.141  66.830  1.00  0.00    -0.115 C  
HETATM   14  C   UNL     1     -11.275  12.706  64.037  1.00  0.00    -0.459 A  
HETATM   15  C   UNL     1     -10.061  10.828  64.924  1.00  0.00    -0.322 A  
ENDROOT
BRANCH   7  16
HETATM   16  C   UNL     1      -9.439   8.664  70.571  1.00  0.00    -0.178 C  
BRANCH  16  17
HETATM   17  N   UNL     1      -8.534   7.661  71.107  1.00  0.00    -0.115 NA 
HETATM   18  C   UNL     1      -7.279   7.911  71.596  1.00  0.00    -0.069 A  
HETATM   19  C   UNL     1      -6.830   6.701  72.066  1.00  0.00    -0.064 A  
HETATM   20  N   UNL     1      -7.762   5.724  71.848  1.00  0.00    -0.103 NA 
HETATM   21  C   UNL     1      -8.776   6.314  71.246  1.00  0.00    -0.135 A  
HETATM   22  C   UNL     1     -10.014   5.639  70.783  1.00  0.00    -0.254 C  
ENDBRANCH  16  17
ENDBRANCH   7  16
TORSDOF 2
ENDMDL
MODEL      130
REMARK 921   NORMALIZED FREE ENERGY PREDICTED BY IDOCK:   -4.59 KCAL/MOL
REMARK 922        TOTAL FREE ENERGY PREDICTED BY IDOCK:   -4.86 KCAL/MOL
REMARK 923 INTER-LIGAND FREE ENERGY PREDICTED BY IDOCK:   -4.69 KCAL/MOL
REMARK 924 INTRA-LIGAND FREE ENERGY PREDICTED BY IDOCK:   -0.17 KCAL/MOL
REMARK 927      BINDING AFFINITY PREDICTED BY RF-SCORE:    0.00 PKD
ROOT
HETATM    1  C   UNL     1     -11.253   6.738  68.791  1.00  0.00    -0.104 C  
HETATM    2  N   UNL     1     -10.395   7.478  67.891  1.00  0.00    -0.200 NA 
HETATM    3  C   UNL     1     -10.186   8.833  67.897  1.00  0.00    -0.219 A  
HETATM    4  C   UNL     1      -9.365   9.145  66.826  1.00  0.00    -0.213 A  
HETATM    5  C   UNL     1      -9.006   7.929  66.187  1.00  0.00    -0.214 A  
HETATM    6  C   UNL     1      -9.025  10.528  66.517  1.00  0.00    -0.157 C  
HETATM    7  C   UNL     1      -9.869  11.574  67.255  1.00  0.00    -0.208 C  
HETATM    8  C   UNL     1      -8.193   7.607  65.081  1.00  0.00    -0.130 A  
HETATM    9  O   UNL     1      -8.174  10.835  65.687  1.00  0.00    -0.162 OA 
HETATM   10  C   UNL     1     -10.019  11.157  68.736  1.00  0.00    -0.207 C  
HETATM   11  C   UNL     1      -9.568   5.559  66.453  1.00  0.00    -0.174 A  
HETATM   12  C   UNL     1      -8.078   6.274  64.674  1.00  0.00    -0.115 A  
HETATM   13  C   UNL     1     -10.766   9.815  68.861  1.00  0.00    -0.241 C  
HETATM   14  C   UNL     1      -8.761   5.267  65.350  1.00  0.00    -0.150 A  
HETATM   15  C   UNL     1      -9.677   6.900  66.859  1.00  0.00    -0.171 A  
ENDROOT
BRANCH   7  16
HETATM   16  C   UNL     1      -9.253  12.961  67.070  1.00  0.00    -0.226 C  
BRANCH  16  17
HETATM   17  N   UNL     1     -10.091  14.033  67.579  1.00  0.00    -0.235 NA 
HETATM   18  C   UNL     1      -9.745  14.894  68.588  1.00  0.00    -0.226 A  
HETATM   19  C   UNL     1     -10.790  15.781  68.675  1.00  0.00    -0.278 A  
HETATM   20  N   UNL     1     -11.768  15.465  67.772  1.00  0.00    -0.239 NA 
HETATM   21  C   UNL     1     -11.342  14.393  67.134  1.00  0.00    -0.343 A  
HETATM   22  C   UNL     1     -12.089  13.666  66.077  1.00  0.00    -0.480 C  
ENDBRANCH  16  17
ENDBRANCH   7  16
TORSDOF 2
ENDMDL
MODEL      131
REMARK 921   NORMALIZED FREE ENERGY PREDICTED BY IDOCK:   -4.58 KCAL/MOL
REMARK 922        TOTAL FREE ENERGY PREDICTED BY IDOCK:   -4.85 KCAL/MOL
REMARK 923 INTER-LIGAND FREE ENERGY PREDICTED BY IDOCK:   -4.50 KCAL/MOL
REMARK 924 INTRA-LIGAND FREE ENERGY PREDICTED BY IDOCK:   -0.35 KCAL/MOL
REMARK 927      BINDING AFFINITY PREDICTED BY RF-SCORE:    0.00 PKD
ROOT
HETATM    1  C   UNL     1      -8.085   4.684  65.698  1.00  0.00    -0.107 C  
HETATM    2  N   UNL     1      -8.338   4.356  67.085  1.00  0.00    -0.101 NA 
HETATM    3  C   UNL     1      -9.247   4.964  67.911  1.00  0.00    -0.122 A  
HETATM    4  C   UNL     1      -9.116   4.410  69.173  1.00  0.00    -0.181 A  
HETATM    5  C   UNL     1      -8.141   3.381  69.096  1.00  0.00    -0.068 A  
HETATM    6  C   UNL     1      -9.898   4.909  70.299  1.00  0.00    -0.236 C  
HETATM    7  C   UNL     1     -10.610   6.242  70.041  1.00  0.00    -0.307 C  
HETATM    8  C   UNL     1      -7.605   2.467  70.027  1.00  0.00    -0.043 A  
HETATM    9  O   UNL     1      -9.935   4.341  71.387  1.00  0.00    -0.186 OA 
HETATM   10  C   UNL     1     -11.259   6.212  68.638  1.00  0.00    -0.275 C  
HETATM   11  C   UNL     1      -6.640   2.495  67.375  1.00  0.00    -0.036 A  
HETATM   12  C   UNL     1      -6.599   1.584  69.626  1.00  0.00    -0.029 A  
HETATM   13  C   UNL     1     -10.192   6.059  67.538  1.00  0.00    -0.225 C  
HETATM   14  C   UNL     1      -6.121   1.603  68.319  1.00  0.00    -0.024 A  
HETATM   15  C   UNL     1      -7.654   3.378  67.784  1.00  0.00    -0.065 A  
ENDROOT
BRANCH   7  16
HETATM   16  C   UNL     1     -11.604   6.525  71.168  1.00  0.00    -0.335 C  
BRANCH  16  17
HETATM   17  N   UNL     1     -11.898   7.938  71.332  1.00  0.00    -0.292 NA 
HETATM   18  C   UNL     1     -10.969   8.945  71.315  1.00  0.00    -0.293 A  
HETATM   19  C   UNL     1     -11.697  10.105  71.421  1.00  0.00    -0.290 A  
HETATM   20  N   UNL     1     -13.032   9.828  71.531  1.00  0.00    -0.377 NA 
HETATM   21  C   UNL     1     -13.136   8.514  71.499  1.00  0.00    -0.299 A  
HETATM   22  C   UNL     1     -14.401   7.747  71.620  1.00  0.00    -0.607 C  
ENDBRANCH  16  17
ENDBRANCH   7  16
TORSDOF 2
ENDMDL
MODEL      132
REMARK 921   NORMALIZED FREE ENERGY PREDICTED BY IDOCK:   -4.57 KCAL/MOL
REMARK 922        TOTAL FREE ENERGY PREDICTED BY IDOCK:   -4.84 KCAL/MOL
REMARK 923 INTER-LIGAND FREE ENERGY PREDICTED BY IDOCK:   -4.71 KCAL/MOL
REMARK 924 INTRA-LIGAND FREE ENERGY PREDICTED BY IDOCK:   -0.13 KCAL/MOL
REMARK 927      BINDING AFFINITY PREDICTED BY RF-SCORE:    0.00 PKD
ROOT
HETATM    1  C   UNL     1     -12.631  14.446  65.495  1.00  0.00    -0.333 C  
HETATM    2  N   UNL     1     -11.251  14.330  65.917  1.00  0.00    -0.313 NA 
HETATM    3  C   UNL     1     -10.588  13.169  66.218  1.00  0.00    -0.284 A  
HETATM    4  C   UNL     1      -9.318  13.503  66.656  1.00  0.00    -0.254 A  
HETATM    5  C   UNL     1      -9.179  14.912  66.551  1.00  0.00    -0.314 A  
HETATM    6  C   UNL     1      -8.392  12.481  67.130  1.00  0.00    -0.179 C  
HETATM    7  C   UNL     1      -9.030  11.111  67.385  1.00  0.00    -0.139 C  
HETATM    8  C   UNL     1      -8.131  15.816  66.820  1.00  0.00    -0.297 A  
HETATM    9  O   UNL     1      -7.209  12.712  67.366  1.00  0.00    -0.141 OA 
HETATM   10  C   UNL     1      -9.986  10.767  66.219  1.00  0.00    -0.272 C  
HETATM   11  C   UNL     1     -10.626  16.788  65.927  1.00  0.00    -0.255 A  
HETATM   12  C   UNL     1      -8.340  17.188  66.642  1.00  0.00    -0.286 A  
HETATM   13  C   UNL     1     -11.140  11.784  66.132  1.00  0.00    -0.358 C  
HETATM   14  C   UNL     1      -9.573  17.664  66.206  1.00  0.00    -0.259 A  
HETATM   15  C   UNL     1     -10.409  15.411  66.104  1.00  0.00    -0.313 A  
ENDROOT
BRANCH   7  16
HETATM   16  C   UNL     1      -7.938  10.064  67.608  1.00  0.00    -0.105 C  
BRANCH  16  17
HETATM   17  N   UNL     1      -7.804   9.130  66.503  1.00  0.00    -0.099 NA 
HETATM   18  C   UNL     1      -8.426   7.912  66.420  1.00  0.00    -0.138 A  
HETATM   19  C   UNL     1      -8.083   7.419  65.185  1.00  0.00    -0.129 A  
HETATM   20  N   UNL     1      -7.250   8.286  64.533  1.00  0.00    -0.080 NA 
HETATM   21  C   UNL     1      -7.072   9.305  65.352  1.00  0.00    -0.086 A  
HETATM   22  C   UNL     1      -6.212  10.485  65.084  1.00  0.00    -0.079 C  
ENDBRANCH  16  17
ENDBRANCH   7  16
TORSDOF 2
ENDMDL
MODEL      133
REMARK 921   NORMALIZED FREE ENERGY PREDICTED BY IDOCK:   -4.54 KCAL/MOL
REMARK 922        TOTAL FREE ENERGY PREDICTED BY IDOCK:   -4.80 KCAL/MOL
REMARK 923 INTER-LIGAND FREE ENERGY PREDICTED BY IDOCK:   -4.36 KCAL/MOL
REMARK 924 INTRA-LIGAND FREE ENERGY PREDICTED BY IDOCK:   -0.44 KCAL/MOL
REMARK 927      BINDING AFFINITY PREDICTED BY RF-SCORE:    0.00 PKD
ROOT
HETATM    1  C   UNL     1     -10.236  11.956  67.505  1.00  0.00    -0.196 C  
HETATM    2  N   UNL     1     -10.259  10.879  68.473  1.00  0.00    -0.177 NA 
HETATM    3  C   UNL     1      -9.528   9.721  68.418  1.00  0.00    -0.140 A  
HETATM    4  C   UNL     1      -9.904   8.926  69.487  1.00  0.00    -0.180 A  
HETATM    5  C   UNL     1     -10.846   9.655  70.260  1.00  0.00    -0.339 A  
HETATM    6  C   UNL     1      -9.357   7.585  69.658  1.00  0.00    -0.153 C  
HETATM    7  C   UNL     1      -8.608   7.041  68.435  1.00  0.00    -0.126 C  
HETATM    8  C   UNL     1     -11.554   9.388  71.449  1.00  0.00    -0.451 A  
HETATM    9  O   UNL     1      -9.534   6.918  70.673  1.00  0.00    -0.165 OA 
HETATM   10  C   UNL     1      -7.696   8.150  67.860  1.00  0.00    -0.114 C  
HETATM   11  C   UNL     1     -11.983  11.818  70.079  1.00  0.00    -0.421 A  
HETATM   12  C   UNL     1     -12.464  10.331  71.938  1.00  0.00    -0.336 A  
HETATM   13  C   UNL     1      -8.528   9.352  67.372  1.00  0.00    -0.125 C  
HETATM   14  C   UNL     1     -12.677  11.526  71.257  1.00  0.00    -0.469 A  
HETATM   15  C   UNL     1     -11.067  10.868  69.595  1.00  0.00    -0.266 A  
ENDROOT
BRANCH   7  16
HETATM   16  C   UNL     1      -7.853   5.767  68.815  1.00  0.00    -0.097 C  
BRANCH  16  17
HETATM   17  N   UNL     1      -8.120   4.654  67.920  1.00  0.00    -0.092 NA 
HETATM   18  C   UNL     1      -9.136   3.747  68.069  1.00  0.00    -0.144 A  
HETATM   19  C   UNL     1      -9.058   2.937  66.963  1.00  0.00    -0.164 A  
HETATM   20  N   UNL     1      -8.010   3.308  66.167  1.00  0.00    -0.087 NA 
HETATM   21  C   UNL     1      -7.438   4.331  66.770  1.00  0.00    -0.081 A  
HETATM   22  C   UNL     1      -6.232   5.051  66.289  1.00  0.00    -0.035 C  
ENDBRANCH  16  17
ENDBRANCH   7  16
TORSDOF 2
ENDMDL
MODEL      134
REMARK 921   NORMALIZED FREE ENERGY PREDICTED BY IDOCK:   -4.53 KCAL/MOL
REMARK 922        TOTAL FREE ENERGY PREDICTED BY IDOCK:   -4.79 KCAL/MOL
REMARK 923 INTER-LIGAND FREE ENERGY PREDICTED BY IDOCK:   -4.34 KCAL/MOL
REMARK 924 INTRA-LIGAND FREE ENERGY PREDICTED BY IDOCK:   -0.46 KCAL/MOL
REMARK 927      BINDING AFFINITY PREDICTED BY RF-SCORE:    0.00 PKD
ROOT
HETATM    1  C   UNL     1      -8.478   2.280  69.754  1.00  0.00    -0.048 C  
HETATM    2  N   UNL     1      -9.236   3.487  70.008  1.00  0.00    -0.139 NA 
HETATM    3  C   UNL     1      -9.508   4.482  69.106  1.00  0.00    -0.164 A  
HETATM    4  C   UNL     1     -10.184   5.490  69.771  1.00  0.00    -0.336 A  
HETATM    5  C   UNL     1     -10.393   5.063  71.109  1.00  0.00    -0.254 A  
HETATM    6  C   UNL     1     -10.543   6.730  69.093  1.00  0.00    -0.232 C  
HETATM    7  C   UNL     1      -9.860   6.936  67.735  1.00  0.00    -0.161 C  
HETATM    8  C   UNL     1     -11.027   5.634  72.231  1.00  0.00    -0.312 A  
HETATM    9  O   UNL     1     -11.283   7.572  69.593  1.00  0.00    -0.147 OA 
HETATM   10  C   UNL     1      -9.900   5.612  66.937  1.00  0.00    -0.178 C  
HETATM   11  C   UNL     1      -9.762   3.122  72.462  1.00  0.00    -0.206 A  
HETATM   12  C   UNL     1     -11.021   4.948  73.450  1.00  0.00    -0.394 A  
HETATM   13  C   UNL     1      -9.115   4.504  67.665  1.00  0.00    -0.139 C  
HETATM   14  C   UNL     1     -10.392   3.712  73.562  1.00  0.00    -0.238 A  
HETATM   15  C   UNL     1      -9.774   3.814  71.240  1.00  0.00    -0.175 A  
ENDROOT
BRANCH   7  16
HETATM   16  C   UNL     1     -10.510   8.110  67.002  1.00  0.00    -0.326 C  
BRANCH  16  17
HETATM   17  N   UNL     1      -9.704   9.320  67.029  1.00  0.00    -0.172 NA 
HETATM   18  C   UNL     1      -9.849  10.343  67.928  1.00  0.00    -0.154 A  
HETATM   19  C   UNL     1      -8.836  11.223  67.634  1.00  0.00    -0.138 A  
HETATM   20  N   UNL     1      -8.105  10.777  66.568  1.00  0.00    -0.140 NA 
HETATM   21  C   UNL     1      -8.655   9.638  66.198  1.00  0.00    -0.127 A  
HETATM   22  C   UNL     1      -8.217   8.800  65.054  1.00  0.00    -0.156 C  
ENDBRANCH  16  17
ENDBRANCH   7  16
TORSDOF 2
ENDMDL
MODEL      135
REMARK 921   NORMALIZED FREE ENERGY PREDICTED BY IDOCK:   -4.49 KCAL/MOL
REMARK 922        TOTAL FREE ENERGY PREDICTED BY IDOCK:   -4.75 KCAL/MOL
REMARK 923 INTER-LIGAND FREE ENERGY PREDICTED BY IDOCK:   -4.56 KCAL/MOL
REMARK 924 INTRA-LIGAND FREE ENERGY PREDICTED BY IDOCK:   -0.19 KCAL/MOL
REMARK 927      BINDING AFFINITY PREDICTED BY RF-SCORE:    0.00 PKD
ROOT
HETATM    1  C   UNL     1     -11.493   7.968  72.875  1.00  0.00    -0.264 C  
HETATM    2  N   UNL     1     -10.971   7.040  71.895  1.00  0.00    -0.229 NA 
HETATM    3  C   UNL     1     -10.717   7.309  70.575  1.00  0.00    -0.232 A  
HETATM    4  C   UNL     1     -10.307   6.133  69.970  1.00  0.00    -0.267 A  
HETATM    5  C   UNL     1     -10.243   5.129  70.971  1.00  0.00    -0.295 A  
HETATM    6  C   UNL     1     -10.037   6.078  68.538  1.00  0.00    -0.161 C  
HETATM    7  C   UNL     1     -10.529   7.297  67.748  1.00  0.00    -0.292 C  
HETATM    8  C   UNL     1      -9.879   3.767  70.971  1.00  0.00    -0.204 A  
HETATM    9  O   UNL     1      -9.516   5.108  67.995  1.00  0.00    -0.117 OA 
HETATM   10  C   UNL     1     -10.172   8.586  68.525  1.00  0.00    -0.225 C  
HETATM   11  C   UNL     1     -10.777   4.977  73.357  1.00  0.00    -0.330 A  
HETATM   12  C   UNL     1      -9.968   3.028  72.155  1.00  0.00    -0.233 A  
HETATM   13  C   UNL     1     -10.885   8.625  69.890  1.00  0.00    -0.210 C  
HETATM   14  C   UNL     1     -10.416   3.626  73.329  1.00  0.00    -0.260 A  
HETATM   15  C   UNL     1     -10.681   5.715  72.165  1.00  0.00    -0.234 A  
ENDROOT
BRANCH   7  16
HETATM   16  C   UNL     1      -9.957   7.260  66.330  1.00  0.00    -0.024 C  
BRANCH  16  17
HETATM   17  N   UNL     1      -8.804   8.127  66.154  1.00  0.00    -0.154 NA 
HETATM   18  C   UNL     1      -7.507   7.777  66.422  1.00  0.00    -0.084 A  
HETATM   19  C   UNL     1      -6.757   8.861  66.033  1.00  0.00    -0.069 A  
HETATM   20  N   UNL     1      -7.563   9.862  65.567  1.00  0.00    -0.119 NA 
HETATM   21  C   UNL     1      -8.799   9.413  65.668  1.00  0.00    -0.174 A  
HETATM   22  C   UNL     1     -10.023  10.172  65.308  1.00  0.00    -0.381 C  
ENDBRANCH  16  17
ENDBRANCH   7  16
TORSDOF 2
ENDMDL
MODEL      136
REMARK 921   NORMALIZED FREE ENERGY PREDICTED BY IDOCK:   -4.49 KCAL/MOL
REMARK 922        TOTAL FREE ENERGY PREDICTED BY IDOCK:   -4.74 KCAL/MOL
REMARK 923 INTER-LIGAND FREE ENERGY PREDICTED BY IDOCK:   -4.35 KCAL/MOL
REMARK 924 INTRA-LIGAND FREE ENERGY PREDICTED BY IDOCK:   -0.39 KCAL/MOL
REMARK 927      BINDING AFFINITY PREDICTED BY RF-SCORE:    0.00 PKD
ROOT
HETATM    1  C   UNL     1     -11.510  15.733  68.206  1.00  0.00    -0.337 C  
HETATM    2  N   UNL     1     -10.316  14.954  67.953  1.00  0.00    -0.235 NA 
HETATM    3  C   UNL     1     -10.265  13.617  67.659  1.00  0.00    -0.239 A  
HETATM    4  C   UNL     1      -8.933  13.248  67.573  1.00  0.00    -0.208 A  
HETATM    5  C   UNL     1      -8.147  14.417  67.751  1.00  0.00    -0.174 A  
HETATM    6  C   UNL     1      -8.549  11.860  67.348  1.00  0.00    -0.164 C  
HETATM    7  C   UNL     1      -9.686  10.847  67.525  1.00  0.00    -0.187 C  
HETATM    8  C   UNL     1      -6.761  14.676  67.747  1.00  0.00    -0.194 A  
HETATM    9  O   UNL     1      -7.396  11.519  67.100  1.00  0.00    -0.122 OA 
HETATM   10  C   UNL     1     -10.963  11.387  66.839  1.00  0.00    -0.355 C  
HETATM   11  C   UNL     1      -8.576  16.773  68.269  1.00  0.00    -0.226 A  
HETATM   12  C   UNL     1      -6.300  15.971  68.002  1.00  0.00    -0.143 A  
HETATM   13  C   UNL     1     -11.431  12.699  67.497  1.00  0.00    -0.397 C  
HETATM   14  C   UNL     1      -7.197  17.002  68.264  1.00  0.00    -0.196 A  
HETATM   15  C   UNL     1      -9.033  15.470  68.007  1.00  0.00    -0.174 A  
ENDROOT
BRANCH   7  16
HETATM   16  C   UNL     1      -9.246   9.478  67.004  1.00  0.00    -0.139 C  
BRANCH  16  17
HETATM   17  N   UNL     1      -9.669   8.378  67.854  1.00  0.00    -0.153 NA 
HETATM   18  C   UNL     1     -10.860   7.709  67.745  1.00  0.00    -0.063 A  
HETATM   19  C   UNL     1     -10.795   6.708  68.684  1.00  0.00    -0.262 A  
HETATM   20  N   UNL     1      -9.617   6.772  69.376  1.00  0.00    -0.147 NA 
HETATM   21  C   UNL     1      -8.957   7.800  68.879  1.00  0.00    -0.141 A  
HETATM   22  C   UNL     1      -7.630   8.278  69.343  1.00  0.00    -0.096 C  
ENDBRANCH  16  17
ENDBRANCH   7  16
TORSDOF 2
ENDMDL
MODEL      137
REMARK 921   NORMALIZED FREE ENERGY PREDICTED BY IDOCK:   -4.42 KCAL/MOL
REMARK 922        TOTAL FREE ENERGY PREDICTED BY IDOCK:   -4.67 KCAL/MOL
REMARK 923 INTER-LIGAND FREE ENERGY PREDICTED BY IDOCK:   -4.31 KCAL/MOL
REMARK 924 INTRA-LIGAND FREE ENERGY PREDICTED BY IDOCK:   -0.36 KCAL/MOL
REMARK 927      BINDING AFFINITY PREDICTED BY RF-SCORE:    0.00 PKD
ROOT
HETATM    1  C   UNL     1      -6.479   2.921  66.533  1.00  0.00    -0.032 C  
HETATM    2  N   UNL     1      -7.696   3.686  66.360  1.00  0.00    -0.084 NA 
HETATM    3  C   UNL     1      -8.099   4.754  67.118  1.00  0.00    -0.102 A  
HETATM    4  C   UNL     1      -9.353   5.143  66.677  1.00  0.00    -0.137 A  
HETATM    5  C   UNL     1      -9.694   4.328  65.566  1.00  0.00    -0.205 A  
HETATM    6  C   UNL     1     -10.087   6.212  67.344  1.00  0.00    -0.156 C  
HETATM    7  C   UNL     1      -9.512   6.629  68.703  1.00  0.00    -0.128 C  
HETATM    8  C   UNL     1     -10.806   4.265  64.702  1.00  0.00    -0.097 A  
HETATM    9  O   UNL     1     -11.118   6.697  66.887  1.00  0.00    -0.400 OA 
HETATM   10  C   UNL     1      -7.973   6.737  68.596  1.00  0.00    -0.119 C  
HETATM   11  C   UNL     1      -8.689   2.424  64.397  1.00  0.00    -0.100 A  
HETATM   12  C   UNL     1     -10.849   3.289  63.702  1.00  0.00    -0.191 A  
HETATM   13  C   UNL     1      -7.346   5.373  68.249  1.00  0.00    -0.072 C  
HETATM   14  C   UNL     1      -9.806   2.379  63.557  1.00  0.00    -0.126 A  
HETATM   15  C   UNL     1      -8.650   3.410  65.397  1.00  0.00    -0.111 A  
ENDROOT
BRANCH   7  16
HETATM   16  C   UNL     1     -10.184   7.920  69.175  1.00  0.00    -0.216 C  
BRANCH  16  17
HETATM   17  N   UNL     1     -11.117   7.714  70.270  1.00  0.00    -0.260 NA 
HETATM   18  C   UNL     1     -11.554   6.494  70.715  1.00  0.00    -0.377 A  
HETATM   19  C   UNL     1     -12.345   6.773  71.803  1.00  0.00    -0.356 A  
HETATM   20  N   UNL     1     -12.422   8.123  72.009  1.00  0.00    -0.324 NA 
HETATM   21  C   UNL     1     -11.694   8.679  71.061  1.00  0.00    -0.278 A  
HETATM   22  C   UNL     1     -11.507  10.138  70.863  1.00  0.00    -0.444 C  
ENDBRANCH  16  17
ENDBRANCH   7  16
TORSDOF 2
ENDMDL
MODEL      138
REMARK 921   NORMALIZED FREE ENERGY PREDICTED BY IDOCK:   -4.33 KCAL/MOL
REMARK 922        TOTAL FREE ENERGY PREDICTED BY IDOCK:   -4.57 KCAL/MOL
REMARK 923 INTER-LIGAND FREE ENERGY PREDICTED BY IDOCK:   -5.14 KCAL/MOL
REMARK 924 INTRA-LIGAND FREE ENERGY PREDICTED BY IDOCK:    0.57 KCAL/MOL
REMARK 927      BINDING AFFINITY PREDICTED BY RF-SCORE:    0.00 PKD
ROOT
HETATM    1  C   UNL     1     -13.240  10.012  72.080  1.00  0.00    -0.390 C  
HETATM    2  N   UNL     1     -12.266   9.587  71.098  1.00  0.00    -0.323 NA 
HETATM    3  C   UNL     1     -11.738  10.353  70.092  1.00  0.00    -0.312 A  
HETATM    4  C   UNL     1     -10.910   9.547  69.329  1.00  0.00    -0.211 A  
HETATM    5  C   UNL     1     -10.879   8.262  69.933  1.00  0.00    -0.213 A  
HETATM    6  C   UNL     1     -10.260  10.058  68.128  1.00  0.00    -0.175 C  
HETATM    7  C   UNL     1     -10.798  11.407  67.636  1.00  0.00    -0.286 C  
HETATM    8  C   UNL     1     -10.212   7.056  69.636  1.00  0.00    -0.212 A  
HETATM    9  O   UNL     1      -9.394   9.433  67.522  1.00  0.00    -0.126 OA 
HETATM   10  C   UNL     1     -10.984  12.354  68.843  1.00  0.00    -0.268 C  
HETATM   11  C   UNL     1     -11.983   7.175  71.830  1.00  0.00    -0.348 A  
HETATM   12  C   UNL     1     -10.437   5.929  70.432  1.00  0.00    -0.324 A  
HETATM   13  C   UNL     1     -12.026  11.795  69.830  1.00  0.00    -0.405 C  
HETATM   14  C   UNL     1     -11.314   5.989  71.511  1.00  0.00    -0.309 A  
HETATM   15  C   UNL     1     -11.750   8.305  71.028  1.00  0.00    -0.270 A  
ENDROOT
BRANCH   7  16
HETATM   16  C   UNL     1      -9.875  11.969  66.554  1.00  0.00    -0.209 C  
BRANCH  16  17
HETATM   17  N   UNL     1      -8.563  12.342  67.057  1.00  0.00    -0.193 NA 
HETATM   18  C   UNL     1      -8.323  13.325  67.981  1.00  0.00    -0.162 A  
HETATM   19  C   UNL     1      -6.971  13.272  68.216  1.00  0.00    -0.107 A  
HETATM   20  N   UNL     1      -6.384  12.309  67.441  1.00  0.00    -0.140 NA 
HETATM   21  C   UNL     1      -7.355  11.772  66.729  1.00  0.00    -0.052 A  
HETATM   22  C   UNL     1      -7.190  10.700  65.716  1.00  0.00    -0.104 C  
ENDBRANCH  16  17
ENDBRANCH   7  16
TORSDOF 2
ENDMDL
MODEL      139
REMARK 921   NORMALIZED FREE ENERGY PREDICTED BY IDOCK:   -4.33 KCAL/MOL
REMARK 922        TOTAL FREE ENERGY PREDICTED BY IDOCK:   -4.57 KCAL/MOL
REMARK 923 INTER-LIGAND FREE ENERGY PREDICTED BY IDOCK:   -4.44 KCAL/MOL
REMARK 924 INTRA-LIGAND FREE ENERGY PREDICTED BY IDOCK:   -0.12 KCAL/MOL
REMARK 927      BINDING AFFINITY PREDICTED BY RF-SCORE:    0.00 PKD
ROOT
HETATM    1  C   UNL     1     -10.658  10.596  68.314  1.00  0.00    -0.194 C  
HETATM    2  N   UNL     1     -10.390  10.517  66.893  1.00  0.00    -0.229 NA 
HETATM    3  C   UNL     1      -9.563   9.619  66.271  1.00  0.00    -0.221 A  
HETATM    4  C   UNL     1      -9.521   9.937  64.924  1.00  0.00    -0.355 A  
HETATM    5  C   UNL     1     -10.407  11.025  64.708  1.00  0.00    -0.389 A  
HETATM    6  C   UNL     1      -8.657   9.206  64.004  1.00  0.00    -0.166 C  
HETATM    7  C   UNL     1      -7.617   8.308  64.683  1.00  0.00    -0.106 C  
HETATM    8  C   UNL     1     -10.798  11.759  63.569  1.00  0.00    -0.496 A  
HETATM    9  O   UNL     1      -8.714   9.344  62.786  1.00  0.00    -0.210 OA 
HETATM   10  C   UNL     1      -8.287   7.539  65.846  1.00  0.00    -0.140 C  
HETATM   11  C   UNL     1     -11.816  12.461  66.106  1.00  0.00    -0.442 A  
HETATM   12  C   UNL     1     -11.687  12.830  63.709  1.00  0.00    -0.562 A  
HETATM   13  C   UNL     1      -8.806   8.510  66.924  1.00  0.00    -0.153 C  
HETATM   14  C   UNL     1     -12.183  13.177  64.962  1.00  0.00    -0.488 A  
HETATM   15  C   UNL     1     -10.926  11.384  65.958  1.00  0.00    -0.226 A  
ENDROOT
BRANCH   7  16
HETATM   16  C   UNL     1      -6.964   7.395  63.645  1.00  0.00    -0.059 C  
BRANCH  16  17
HETATM   17  N   UNL     1      -7.112   5.982  63.948  1.00  0.00    -0.050 NA 
HETATM   18  C   UNL     1      -6.279   5.257  64.759  1.00  0.00    -0.029 A  
HETATM   19  C   UNL     1      -6.842   4.006  64.825  1.00  0.00    -0.049 A  
HETATM   20  N   UNL     1      -7.971   3.945  64.056  1.00  0.00    -0.087 NA 
HETATM   21  C   UNL     1      -8.109   5.139  63.514  1.00  0.00    -0.107 A  
HETATM   22  C   UNL     1      -9.183   5.539  62.571  1.00  0.00     0.316 C  
ENDBRANCH  16  17
ENDBRANCH   7  16
TORSDOF 2
ENDMDL
MODEL      140
REMARK 921   NORMALIZED FREE ENERGY PREDICTED BY IDOCK:   -4.32 KCAL/MOL
REMARK 922        TOTAL FREE ENERGY PREDICTED BY IDOCK:   -4.55 KCAL/MOL
REMARK 923 INTER-LIGAND FREE ENERGY PREDICTED BY IDOCK:   -4.20 KCAL/MOL
REMARK 924 INTRA-LIGAND FREE ENERGY PREDICTED BY IDOCK:   -0.35 KCAL/MOL
REMARK 927      BINDING AFFINITY PREDICTED BY RF-SCORE:    0.00 PKD
ROOT
HETATM    1  C   UNL     1      -6.813   7.449  73.573  1.00  0.00    -0.065 C  
HETATM    2  N   UNL     1      -7.913   7.226  72.658  1.00  0.00    -0.097 NA 
HETATM    3  C   UNL     1      -8.025   7.722  71.385  1.00  0.00    -0.095 A  
HETATM    4  C   UNL     1      -9.259   7.344  70.885  1.00  0.00    -0.154 A  
HETATM    5  C   UNL     1      -9.891   6.530  71.862  1.00  0.00    -0.168 A  
HETATM    6  C   UNL     1      -9.709   7.791  69.572  1.00  0.00    -0.165 C  
HETATM    7  C   UNL     1      -8.869   8.918  68.960  1.00  0.00    -0.136 C  
HETATM    8  C   UNL     1     -11.124   5.847  71.919  1.00  0.00    -0.325 A  
HETATM    9  O   UNL     1     -10.714   7.346  69.026  1.00  0.00    -0.209 OA 
HETATM   10  C   UNL     1      -7.368   8.609  69.168  1.00  0.00    -0.076 C  
HETATM   11  C   UNL     1      -9.384   5.787  74.140  1.00  0.00    -0.136 A  
HETATM   12  C   UNL     1     -11.472   5.147  73.078  1.00  0.00    -0.349 A  
HETATM   13  C   UNL     1      -7.017   8.558  70.667  1.00  0.00    -0.043 C  
HETATM   14  C   UNL     1     -10.614   5.123  74.174  1.00  0.00    -0.322 A  
HETATM   15  C   UNL     1      -9.038   6.485  72.971  1.00  0.00    -0.128 A  
ENDROOT
BRANCH   7  16
HETATM   16  C   UNL     1      -9.254   9.113  67.493  1.00  0.00    -0.128 C  
BRANCH  16  17
HETATM   17  N   UNL     1     -10.061  10.300  67.265  1.00  0.00    -0.193 NA 
HETATM   18  C   UNL     1     -10.643  11.059  68.246  1.00  0.00    -0.187 A  
HETATM   19  C   UNL     1     -11.227  12.111  67.584  1.00  0.00    -0.286 A  
HETATM   20  N   UNL     1     -11.042  11.995  66.234  1.00  0.00    -0.303 NA 
HETATM   21  C   UNL     1     -10.356  10.884  66.054  1.00  0.00    -0.245 A  
HETATM   22  C   UNL     1      -9.945  10.327  64.741  1.00  0.00    -0.392 C  
ENDBRANCH  16  17
ENDBRANCH   7  16
TORSDOF 2
ENDMDL
MODEL      141
REMARK 921   NORMALIZED FREE ENERGY PREDICTED BY IDOCK:   -4.25 KCAL/MOL
REMARK 922        TOTAL FREE ENERGY PREDICTED BY IDOCK:   -4.47 KCAL/MOL
REMARK 923 INTER-LIGAND FREE ENERGY PREDICTED BY IDOCK:   -4.30 KCAL/MOL
REMARK 924 INTRA-LIGAND FREE ENERGY PREDICTED BY IDOCK:   -0.18 KCAL/MOL
REMARK 927      BINDING AFFINITY PREDICTED BY RF-SCORE:    0.00 PKD
ROOT
HETATM    1  C   UNL     1     -10.747  11.068  68.658  1.00  0.00    -0.198 C  
HETATM    2  N   UNL     1     -10.736   9.646  68.927  1.00  0.00    -0.219 NA 
HETATM    3  C   UNL     1     -10.345   8.658  68.062  1.00  0.00    -0.223 A  
HETATM    4  C   UNL     1     -10.566   7.437  68.677  1.00  0.00    -0.182 A  
HETATM    5  C   UNL     1     -11.043   7.693  69.990  1.00  0.00    -0.201 A  
HETATM    6  C   UNL     1     -10.321   6.184  67.973  1.00  0.00    -0.199 C  
HETATM    7  C   UNL     1     -10.110   6.332  66.461  1.00  0.00    -0.168 C  
HETATM    8  C   UNL     1     -11.414   6.873  71.075  1.00  0.00    -0.358 A  
HETATM    9  O   UNL     1     -10.343   5.091  68.532  1.00  0.00    -0.124 OA 
HETATM   10  C   UNL     1      -9.175   7.533  66.191  1.00  0.00    -0.156 C  
HETATM   11  C   UNL     1     -11.646   9.677  71.295  1.00  0.00    -0.466 A  
HETATM   12  C   UNL     1     -11.894   7.458  72.250  1.00  0.00    -0.307 A  
HETATM   13  C   UNL     1      -9.809   8.849  66.681  1.00  0.00    -0.332 C  
HETATM   14  C   UNL     1     -12.012   8.841  72.354  1.00  0.00    -0.369 A  
HETATM   15  C   UNL     1     -11.160   9.083  70.118  1.00  0.00    -0.207 A  
ENDROOT
BRANCH   7  16
HETATM   16  C   UNL     1      -9.597   5.015  65.879  1.00  0.00    -0.164 C  
BRANCH  16  17
HETATM   17  N   UNL     1      -8.260   5.117  65.320  1.00  0.00    -0.120 NA 
HETATM   18  C   UNL     1      -7.971   5.434  64.018  1.00  0.00    -0.111 A  
HETATM   19  C   UNL     1      -6.600   5.498  63.962  1.00  0.00    -0.033 A  
HETATM   20  N   UNL     1      -6.053   5.201  65.179  1.00  0.00    -0.029 NA 
HETATM   21  C   UNL     1      -7.067   4.950  65.984  1.00  0.00    -0.071 A  
HETATM   22  C   UNL     1      -6.957   4.548  67.409  1.00  0.00    -0.060 C  
ENDBRANCH  16  17
ENDBRANCH   7  16
TORSDOF 2
ENDMDL
MODEL      142
REMARK 921   NORMALIZED FREE ENERGY PREDICTED BY IDOCK:   -4.24 KCAL/MOL
REMARK 922        TOTAL FREE ENERGY PREDICTED BY IDOCK:   -4.47 KCAL/MOL
REMARK 923 INTER-LIGAND FREE ENERGY PREDICTED BY IDOCK:   -4.48 KCAL/MOL
REMARK 924 INTRA-LIGAND FREE ENERGY PREDICTED BY IDOCK:    0.01 KCAL/MOL
REMARK 927      BINDING AFFINITY PREDICTED BY RF-SCORE:    0.00 PKD
ROOT
HETATM    1  C   UNL     1      -9.042   3.396  67.232  1.00  0.00    -0.175 C  
HETATM    2  N   UNL     1      -9.245   4.060  68.503  1.00  0.00    -0.138 NA 
HETATM    3  C   UNL     1      -9.249   5.412  68.722  1.00  0.00    -0.124 A  
HETATM    4  C   UNL     1      -9.394   5.625  70.083  1.00  0.00    -0.188 A  
HETATM    5  C   UNL     1      -9.553   4.359  70.705  1.00  0.00    -0.259 A  
HETATM    6  C   UNL     1      -9.354   6.971  70.643  1.00  0.00    -0.162 C  
HETATM    7  C   UNL     1      -8.847   8.049  69.677  1.00  0.00    -0.141 C  
HETATM    8  C   UNL     1      -9.758   3.941  72.036  1.00  0.00    -0.232 A  
HETATM    9  O   UNL     1      -9.643   7.215  71.811  1.00  0.00    -0.153 OA 
HETATM   10  C   UNL     1      -9.495   7.838  68.290  1.00  0.00    -0.150 C  
HETATM   11  C   UNL     1      -9.511   2.018  69.985  1.00  0.00    -0.127 A  
HETATM   12  C   UNL     1      -9.835   2.575  72.326  1.00  0.00    -0.220 A  
HETATM   13  C   UNL     1      -9.088   6.479  67.690  1.00  0.00    -0.112 C  
HETATM   14  C   UNL     1      -9.708   1.629  71.313  1.00  0.00    -0.204 A  
HETATM   15  C   UNL     1      -9.438   3.392  69.699  1.00  0.00    -0.153 A  
ENDROOT
BRANCH   7  16
HETATM   16  C   UNL     1      -9.105   9.436  70.268  1.00  0.00    -0.245 C  
BRANCH  16  17
HETATM   17  N   UNL     1     -10.424   9.957  69.953  1.00  0.00    -0.250 NA 
HETATM   18  C   UNL     1     -11.549   9.766  70.711  1.00  0.00    -0.339 A  
HETATM   19  C   UNL     1     -12.530  10.497  70.086  1.00  0.00    -0.226 A  
HETATM   20  N   UNL     1     -12.039  11.099  68.960  1.00  0.00    -0.476 NA 
HETATM   21  C   UNL     1     -10.772  10.744  68.880  1.00  0.00    -0.222 A  
HETATM   22  C   UNL     1      -9.835  11.133  67.796  1.00  0.00    -0.186 C  
ENDBRANCH  16  17
ENDBRANCH   7  16
TORSDOF 2
ENDMDL
MODEL      143
REMARK 921   NORMALIZED FREE ENERGY PREDICTED BY IDOCK:   -4.21 KCAL/MOL
REMARK 922        TOTAL FREE ENERGY PREDICTED BY IDOCK:   -4.43 KCAL/MOL
REMARK 923 INTER-LIGAND FREE ENERGY PREDICTED BY IDOCK:   -4.72 KCAL/MOL
REMARK 924 INTRA-LIGAND FREE ENERGY PREDICTED BY IDOCK:    0.29 KCAL/MOL
REMARK 927      BINDING AFFINITY PREDICTED BY RF-SCORE:    0.00 PKD
ROOT
HETATM    1  C   UNL     1     -12.745  15.450  70.232  1.00  0.00    -0.298 C  
HETATM    2  N   UNL     1     -11.632  15.103  69.374  1.00  0.00    -0.303 NA 
HETATM    3  C   UNL     1     -11.235  13.837  69.029  1.00  0.00    -0.272 A  
HETATM    4  C   UNL     1     -10.086  13.943  68.264  1.00  0.00    -0.241 A  
HETATM    5  C   UNL     1      -9.813  15.324  68.079  1.00  0.00    -0.216 A  
HETATM    6  C   UNL     1      -9.373  12.755  67.809  1.00  0.00    -0.199 C  
HETATM    7  C   UNL     1      -9.810  11.450  68.485  1.00  0.00    -0.200 C  
HETATM    8  C   UNL     1      -8.815  16.041  67.389  1.00  0.00    -0.197 A  
HETATM    9  O   UNL     1      -8.454  12.800  66.997  1.00  0.00    -0.193 OA 
HETATM   10  C   UNL     1     -11.354  11.408  68.564  1.00  0.00    -0.333 C  
HETATM   11  C   UNL     1     -10.780  17.435  68.857  1.00  0.00    -0.139 A  
HETATM   12  C   UNL     1      -8.809  17.438  67.440  1.00  0.00    -0.230 A  
HETATM   13  C   UNL     1     -11.895  12.560  69.432  1.00  0.00    -0.368 C  
HETATM   14  C   UNL     1      -9.776  18.123  68.169  1.00  0.00    -0.331 A  
HETATM   15  C   UNL     1     -10.784  16.032  68.798  1.00  0.00    -0.282 A  
ENDROOT
BRANCH   7  16
HETATM   16  C   UNL     1      -9.204  10.256  67.747  1.00  0.00    -0.141 C  
BRANCH  16  17
HETATM   17  N   UNL     1      -8.321   9.456  68.579  1.00  0.00    -0.117 NA 
HETATM   18  C   UNL     1      -7.117   8.938  68.181  1.00  0.00    -0.078 A  
HETATM   19  C   UNL     1      -6.599   8.334  69.301  1.00  0.00    -0.039 A  
HETATM   20  N   UNL     1      -7.466   8.445  70.352  1.00  0.00    -0.064 NA 
HETATM   21  C   UNL     1      -8.513   9.104  69.895  1.00  0.00    -0.147 A  
HETATM   22  C   UNL     1      -9.731   9.436  70.675  1.00  0.00    -0.336 C  
ENDBRANCH  16  17
ENDBRANCH   7  16
TORSDOF 2
ENDMDL
MODEL      144
REMARK 921   NORMALIZED FREE ENERGY PREDICTED BY IDOCK:   -4.20 KCAL/MOL
REMARK 922        TOTAL FREE ENERGY PREDICTED BY IDOCK:   -4.42 KCAL/MOL
REMARK 923 INTER-LIGAND FREE ENERGY PREDICTED BY IDOCK:   -4.19 KCAL/MOL
REMARK 924 INTRA-LIGAND FREE ENERGY PREDICTED BY IDOCK:   -0.23 KCAL/MOL
REMARK 927      BINDING AFFINITY PREDICTED BY RF-SCORE:    0.00 PKD
ROOT
HETATM    1  C   UNL     1      -9.657   6.166  66.749  1.00  0.00    -0.148 C  
HETATM    2  N   UNL     1      -9.023   7.348  67.295  1.00  0.00    -0.123 NA 
HETATM    3  C   UNL     1      -9.348   8.649  67.013  1.00  0.00    -0.159 A  
HETATM    4  C   UNL     1      -8.450   9.468  67.676  1.00  0.00    -0.122 A  
HETATM    5  C   UNL     1      -7.591   8.638  68.444  1.00  0.00    -0.096 A  
HETATM    6  C   UNL     1      -8.487  10.916  67.509  1.00  0.00    -0.123 C  
HETATM    7  C   UNL     1      -9.361  11.402  66.347  1.00  0.00    -0.219 C  
HETATM    8  C   UNL     1      -6.517   8.887  69.322  1.00  0.00    -0.042 A  
HETATM    9  O   UNL     1      -7.824  11.683  68.201  1.00  0.00    -0.118 OA 
HETATM   10  C   UNL     1     -10.694  10.618  66.347  1.00  0.00    -0.198 C  
HETATM   11  C   UNL     1      -7.273   6.229  68.751  1.00  0.00    -0.084 A  
HETATM   12  C   UNL     1      -5.836   7.812  69.902  1.00  0.00    -0.023 A  
HETATM   13  C   UNL     1     -10.451   9.114  66.120  1.00  0.00     0.112 C  
HETATM   14  C   UNL     1      -6.208   6.502  69.614  1.00  0.00    -0.037 A  
HETATM   15  C   UNL     1      -7.956   7.313  68.175  1.00  0.00    -0.123 A  
ENDROOT
BRANCH   7  16
HETATM   16  C   UNL     1      -9.544  12.918  66.435  1.00  0.00    -0.252 C  
BRANCH  16  17
HETATM   17  N   UNL     1     -10.678  13.404  65.667  1.00  0.00    -0.273 NA 
HETATM   18  C   UNL     1     -10.793  13.340  64.303  1.00  0.00    -0.392 A  
HETATM   19  C   UNL     1     -12.044  13.833  64.026  1.00  0.00    -0.403 A  
HETATM   20  N   UNL     1     -12.675  14.221  65.176  1.00  0.00    -0.632 NA 
HETATM   21  C   UNL     1     -11.828  13.978  66.157  1.00  0.00    -0.407 A  
HETATM   22  C   UNL     1     -12.066  14.269  67.593  1.00  0.00    -0.332 C  
ENDBRANCH  16  17
ENDBRANCH   7  16
TORSDOF 2
ENDMDL
MODEL      145
REMARK 921   NORMALIZED FREE ENERGY PREDICTED BY IDOCK:   -4.19 KCAL/MOL
REMARK 922        TOTAL FREE ENERGY PREDICTED BY IDOCK:   -4.41 KCAL/MOL
REMARK 923 INTER-LIGAND FREE ENERGY PREDICTED BY IDOCK:   -4.31 KCAL/MOL
REMARK 924 INTRA-LIGAND FREE ENERGY PREDICTED BY IDOCK:   -0.10 KCAL/MOL
REMARK 927      BINDING AFFINITY PREDICTED BY RF-SCORE:    0.00 PKD
ROOT
HETATM    1  C   UNL     1     -10.710   5.721  69.754  1.00  0.00    -0.348 C  
HETATM    2  N   UNL     1     -10.200   6.214  68.492  1.00  0.00    -0.167 NA 
HETATM    3  C   UNL     1     -10.176   7.521  68.080  1.00  0.00    -0.195 A  
HETATM    4  C   UNL     1      -9.687   7.552  66.785  1.00  0.00    -0.283 A  
HETATM    5  C   UNL     1      -9.336   6.225  66.422  1.00  0.00    -0.176 A  
HETATM    6  C   UNL     1      -9.617   8.802  66.036  1.00  0.00    -0.226 C  
HETATM    7  C   UNL     1     -10.389   9.967  66.667  1.00  0.00    -0.281 C  
HETATM    8  C   UNL     1      -8.779   5.641  65.266  1.00  0.00    -0.120 A  
HETATM    9  O   UNL     1      -9.040   8.900  64.958  1.00  0.00    -0.165 OA 
HETATM   10  C   UNL     1     -10.120   9.994  68.189  1.00  0.00    -0.186 C  
HETATM   11  C   UNL     1      -9.500   4.009  67.453  1.00  0.00    -0.231 A  
HETATM   12  C   UNL     1      -8.591   4.256  65.215  1.00  0.00    -0.121 A  
HETATM   13  C   UNL     1     -10.631   8.707  68.864  1.00  0.00    -0.166 C  
HETATM   14  C   UNL     1      -8.952   3.454  66.293  1.00  0.00    -0.149 A  
HETATM   15  C   UNL     1      -9.683   5.401  67.499  1.00  0.00    -0.137 A  
ENDROOT
BRANCH   7  16
HETATM   16  C   UNL     1     -10.024  11.273  65.959  1.00  0.00    -0.231 C  
BRANCH  16  17
HETATM   17  N   UNL     1      -9.534  12.298  66.864  1.00  0.00    -0.211 NA 
HETATM   18  C   UNL     1     -10.300  13.286  67.426  1.00  0.00    -0.243 A  
HETATM   19  C   UNL     1      -9.450  13.964  68.265  1.00  0.00    -0.217 A  
HETATM   20  N   UNL     1      -8.190  13.436  68.204  1.00  0.00    -0.152 NA 
HETATM   21  C   UNL     1      -8.250  12.446  67.336  1.00  0.00    -0.180 A  
HETATM   22  C   UNL     1      -7.108  11.594  66.919  1.00  0.00    -0.124 C  
ENDBRANCH  16  17
ENDBRANCH   7  16
TORSDOF 2
ENDMDL
MODEL      146
REMARK 921   NORMALIZED FREE ENERGY PREDICTED BY IDOCK:   -4.18 KCAL/MOL
REMARK 922        TOTAL FREE ENERGY PREDICTED BY IDOCK:   -4.40 KCAL/MOL
REMARK 923 INTER-LIGAND FREE ENERGY PREDICTED BY IDOCK:   -4.25 KCAL/MOL
REMARK 924 INTRA-LIGAND FREE ENERGY PREDICTED BY IDOCK:   -0.15 KCAL/MOL
REMARK 927      BINDING AFFINITY PREDICTED BY RF-SCORE:    0.00 PKD
ROOT
HETATM    1  C   UNL     1      -9.075   9.399  66.514  1.00  0.00    -0.153 C  
HETATM    2  N   UNL     1      -9.708   9.175  67.797  1.00  0.00    -0.149 NA 
HETATM    3  C   UNL     1      -9.656   8.024  68.539  1.00  0.00    -0.155 A  
HETATM    4  C   UNL     1     -10.459   8.197  69.654  1.00  0.00    -0.224 A  
HETATM    5  C   UNL     1     -10.961   9.525  69.625  1.00  0.00    -0.233 A  
HETATM    6  C   UNL     1     -10.674   7.111  70.603  1.00  0.00    -0.235 C  
HETATM    7  C   UNL     1     -10.210   5.734  70.112  1.00  0.00    -0.301 C  
HETATM    8  C   UNL     1     -11.794  10.276  70.480  1.00  0.00    -0.419 A  
HETATM    9  O   UNL     1     -11.237   7.271  71.682  1.00  0.00    -0.239 OA 
HETATM   10  C   UNL     1      -8.825   5.871  69.438  1.00  0.00    -0.122 C  
HETATM   11  C   UNL     1     -10.841  11.426  68.085  1.00  0.00    -0.259 A  
HETATM   12  C   UNL     1     -12.140  11.585  70.130  1.00  0.00    -0.432 A  
HETATM   13  C   UNL     1      -8.902   6.781  68.198  1.00  0.00    -0.120 C  
HETATM   14  C   UNL     1     -11.673  12.147  68.947  1.00  0.00    -0.381 A  
HETATM   15  C   UNL     1     -10.493  10.112  68.444  1.00  0.00    -0.208 A  
ENDROOT
BRANCH   7  16
HETATM   16  C   UNL     1     -10.229   4.738  71.272  1.00  0.00    -0.158 C  
BRANCH  16  17
HETATM   17  N   UNL     1      -8.935   4.125  71.523  1.00  0.00    -0.115 NA 
HETATM   18  C   UNL     1      -8.494   2.956  70.960  1.00  0.00    -0.062 A  
HETATM   19  C   UNL     1      -7.204   2.807  71.410  1.00  0.00    -0.032 A  
HETATM   20  N   UNL     1      -6.866   3.832  72.250  1.00  0.00    -0.035 NA 
HETATM   21  C   UNL     1      -7.929   4.608  72.327  1.00  0.00    -0.101 A  
HETATM   22  C   UNL     1      -8.042   5.836  73.153  1.00  0.00    -0.117 C  
ENDBRANCH  16  17
ENDBRANCH   7  16
TORSDOF 2
ENDMDL
MODEL      147
REMARK 921   NORMALIZED FREE ENERGY PREDICTED BY IDOCK:   -4.15 KCAL/MOL
REMARK 922        TOTAL FREE ENERGY PREDICTED BY IDOCK:   -4.37 KCAL/MOL
REMARK 923 INTER-LIGAND FREE ENERGY PREDICTED BY IDOCK:   -5.13 KCAL/MOL
REMARK 924 INTRA-LIGAND FREE ENERGY PREDICTED BY IDOCK:    0.77 KCAL/MOL
REMARK 927      BINDING AFFINITY PREDICTED BY RF-SCORE:    0.00 PKD
ROOT
HETATM    1  C   UNL     1      -7.791  10.505  66.757  1.00  0.00    -0.121 C  
HETATM    2  N   UNL     1      -8.523  11.727  66.499  1.00  0.00    -0.161 NA 
HETATM    3  C   UNL     1      -8.313  12.942  67.097  1.00  0.00    -0.157 A  
HETATM    4  C   UNL     1      -9.276  13.820  66.632  1.00  0.00    -0.238 A  
HETATM    5  C   UNL     1     -10.057  13.135  65.665  1.00  0.00    -0.279 A  
HETATM    6  C   UNL     1      -9.366  15.182  67.147  1.00  0.00    -0.212 C  
HETATM    7  C   UNL     1      -8.541  15.440  68.413  1.00  0.00    -0.162 C  
HETATM    8  C   UNL     1     -11.146  13.500  64.847  1.00  0.00    -0.356 A  
HETATM    9  O   UNL     1     -10.091  16.037  66.646  1.00  0.00    -0.260 OA 
HETATM   10  C   UNL     1      -7.145  14.794  68.255  1.00  0.00    -0.113 C  
HETATM   11  C   UNL     1     -10.164  10.856  64.773  1.00  0.00    -0.398 A  
HETATM   12  C   UNL     1     -11.729  12.546  64.007  1.00  0.00    -0.499 A  
HETATM   13  C   UNL     1      -7.258  13.265  68.104  1.00  0.00    -0.112 C  
HETATM   14  C   UNL     1     -11.246  11.242  63.976  1.00  0.00    -0.230 A  
HETATM   15  C   UNL     1      -9.580  11.820  65.612  1.00  0.00    -0.220 A  
ENDROOT
BRANCH   7  16
HETATM   16  C   UNL     1      -8.490  16.941  68.700  1.00  0.00    -0.260 C  
BRANCH  16  17
HETATM   17  N   UNL     1      -7.524  17.650  67.878  1.00  0.00    -0.199 NA 
HETATM   18  C   UNL     1      -7.032  17.205  66.679  1.00  0.00    -0.250 A  
HETATM   19  C   UNL     1      -6.227  18.221  66.224  1.00  0.00    -0.199 A  
HETATM   20  N   UNL     1      -6.194  19.250  67.124  1.00  0.00    -0.182 NA 
HETATM   21  C   UNL     1      -6.964  18.881  68.129  1.00  0.00    -0.243 A  
HETATM   22  C   UNL     1      -7.209  19.670  69.362  1.00  0.00    -0.280 C  
ENDBRANCH  16  17
ENDBRANCH   7  16
TORSDOF 2
ENDMDL
MODEL      148
REMARK 921   NORMALIZED FREE ENERGY PREDICTED BY IDOCK:   -4.07 KCAL/MOL
REMARK 922        TOTAL FREE ENERGY PREDICTED BY IDOCK:   -4.28 KCAL/MOL
REMARK 923 INTER-LIGAND FREE ENERGY PREDICTED BY IDOCK:   -3.88 KCAL/MOL
REMARK 924 INTRA-LIGAND FREE ENERGY PREDICTED BY IDOCK:   -0.40 KCAL/MOL
REMARK 927      BINDING AFFINITY PREDICTED BY RF-SCORE:    0.00 PKD
ROOT
HETATM    1  C   UNL     1      -7.748   5.737  71.345  1.00  0.00    -0.107 C  
HETATM    2  N   UNL     1      -8.658   6.635  70.665  1.00  0.00    -0.141 NA 
HETATM    3  C   UNL     1      -8.588   7.021  69.351  1.00  0.00    -0.134 A  
HETATM    4  C   UNL     1      -9.592   7.947  69.123  1.00  0.00    -0.153 A  
HETATM    5  C   UNL     1     -10.342   8.077  70.322  1.00  0.00    -0.212 A  
HETATM    6  C   UNL     1      -9.727   8.608  67.831  1.00  0.00    -0.161 C  
HETATM    7  C   UNL     1      -8.525   8.429  66.894  1.00  0.00    -0.117 C  
HETATM    8  C   UNL     1     -11.472   8.834  70.693  1.00  0.00    -0.263 A  
HETATM    9  O   UNL     1     -10.694   9.303  67.536  1.00  0.00    -0.277 OA 
HETATM   10  C   UNL     1      -8.062   6.955  66.932  1.00  0.00    -0.109 C  
HETATM   11  C   UNL     1     -10.203   7.185  72.599  1.00  0.00    -0.231 A  
HETATM   12  C   UNL     1     -11.952   8.760  72.004  1.00  0.00    -0.446 A  
HETATM   13  C   UNL     1      -7.587   6.560  68.343  1.00  0.00    -0.104 C  
HETATM   14  C   UNL     1     -11.321   7.951  72.943  1.00  0.00    -0.399 A  
HETATM   15  C   UNL     1      -9.728   7.260  71.279  1.00  0.00    -0.166 A  
ENDROOT
BRANCH   7  16
HETATM   16  C   UNL     1      -8.885   8.921  65.492  1.00  0.00    -0.197 C  
BRANCH  16  17
HETATM   17  N   UNL     1      -7.723   9.252  64.684  1.00  0.00    -0.111 NA 
HETATM   18  C   UNL     1      -6.835  10.259  64.955  1.00  0.00    -0.100 A  
HETATM   19  C   UNL     1      -5.866  10.151  63.987  1.00  0.00    -0.140 A  
HETATM   20  N   UNL     1      -6.157   9.131  63.125  1.00  0.00    -0.089 NA 
HETATM   21  C   UNL     1      -7.294   8.611  63.545  1.00  0.00    -0.101 A  
HETATM   22  C   UNL     1      -8.020   7.490  62.897  1.00  0.00    -0.120 C  
ENDBRANCH  16  17
ENDBRANCH   7  16
TORSDOF 2
ENDMDL
MODEL      149
REMARK 921   NORMALIZED FREE ENERGY PREDICTED BY IDOCK:   -4.06 KCAL/MOL
REMARK 922        TOTAL FREE ENERGY PREDICTED BY IDOCK:   -4.27 KCAL/MOL
REMARK 923 INTER-LIGAND FREE ENERGY PREDICTED BY IDOCK:   -4.82 KCAL/MOL
REMARK 924 INTRA-LIGAND FREE ENERGY PREDICTED BY IDOCK:    0.56 KCAL/MOL
REMARK 927      BINDING AFFINITY PREDICTED BY RF-SCORE:    0.00 PKD
ROOT
HETATM    1  C   UNL     1      -9.504  18.024  69.526  1.00  0.00     0.470 C  
HETATM    2  N   UNL     1     -10.391  16.947  69.139  1.00  0.00    -0.315 NA 
HETATM    3  C   UNL     1     -10.553  16.441  67.875  1.00  0.00    -0.320 A  
HETATM    4  C   UNL     1     -11.552  15.483  67.922  1.00  0.00    -0.231 A  
HETATM    5  C   UNL     1     -11.964  15.352  69.275  1.00  0.00    -0.335 A  
HETATM    6  C   UNL     1     -12.012  14.815  66.710  1.00  0.00    -0.192 C  
HETATM    7  C   UNL     1     -11.536  15.463  65.405  1.00  0.00    -0.024 C  
HETATM    8  C   UNL     1     -12.908  14.541  69.937  1.00  0.00     0.015 A  
HETATM    9  O   UNL     1     -12.769  13.849  66.729  1.00  0.00    -0.193 OA 
HETATM   10  C   UNL     1     -10.039  15.829  65.532  1.00  0.00    -0.383 C  
HETATM   11  C   UNL     1     -11.433  16.453  71.398  1.00  0.00    -0.264 A  
HETATM   12  C   UNL     1     -13.104  14.694  71.313  1.00  0.00    -0.424 A  
HETATM   13  C   UNL     1      -9.815  16.866  66.648  1.00  0.00    -0.295 C  
HETATM   14  C   UNL     1     -12.380  15.640  72.030  1.00  0.00    -0.505 A  
HETATM   15  C   UNL     1     -11.237  16.292  70.016  1.00  0.00    -0.319 A  
ENDROOT
BRANCH   7  16
HETATM   16  C   UNL     1     -11.841  14.538  64.226  1.00  0.00    -0.348 C  
BRANCH  16  17
HETATM   17  N   UNL     1     -11.239  13.222  64.359  1.00  0.00    -0.365 NA 
HETATM   18  C   UNL     1      -9.931  12.983  64.688  1.00  0.00    -0.126 A  
HETATM   19  C   UNL     1      -9.830  11.616  64.780  1.00  0.00    -0.229 A  
HETATM   20  N   UNL     1     -11.027  11.023  64.488  1.00  0.00    -0.201 NA 
HETATM   21  C   UNL     1     -11.863  12.005  64.213  1.00  0.00    -0.346 A  
HETATM   22  C   UNL     1     -13.281  11.841  63.807  1.00  0.00     0.109 C  
ENDBRANCH  16  17
ENDBRANCH   7  16
TORSDOF 2
ENDMDL
MODEL      150
REMARK 921   NORMALIZED FREE ENERGY PREDICTED BY IDOCK:   -4.02 KCAL/MOL
REMARK 922        TOTAL FREE ENERGY PREDICTED BY IDOCK:   -4.22 KCAL/MOL
REMARK 923 INTER-LIGAND FREE ENERGY PREDICTED BY IDOCK:   -4.51 KCAL/MOL
REMARK 924 INTRA-LIGAND FREE ENERGY PREDICTED BY IDOCK:    0.29 KCAL/MOL
REMARK 927      BINDING AFFINITY PREDICTED BY RF-SCORE:    0.00 PKD
ROOT
HETATM    1  C   UNL     1     -10.769  17.770  65.493  1.00  0.00    -0.009 C  
HETATM    2  N   UNL     1     -11.097  16.490  66.086  1.00  0.00     0.113 NA 
HETATM    3  C   UNL     1     -11.054  16.177  67.419  1.00  0.00    -0.134 A  
HETATM    4  C   UNL     1     -11.359  14.834  67.553  1.00  0.00    -0.355 A  
HETATM    5  C   UNL     1     -11.667  14.328  66.263  1.00  0.00    -0.404 A  
HETATM    6  C   UNL     1     -11.316  14.178  68.855  1.00  0.00    -0.277 C  
HETATM    7  C   UNL     1     -10.630  14.994  69.958  1.00  0.00    -0.178 C  
HETATM    8  C   UNL     1     -12.063  13.066  65.775  1.00  0.00    -0.510 A  
HETATM    9  O   UNL     1     -11.738  13.041  69.043  1.00  0.00    -0.290 OA 
HETATM   10  C   UNL     1     -11.106  16.463  69.878  1.00  0.00    -0.313 C  
HETATM   11  C   UNL     1     -11.663  15.203  63.975  1.00  0.00     0.044 A  
HETATM   12  C   UNL     1     -12.253  12.886  64.401  1.00  0.00    -0.484 A  
HETATM   13  C   UNL     1     -10.702  17.103  68.537  1.00  0.00    -0.326 C  
HETATM   14  C   UNL     1     -12.051  13.940  63.516  1.00  0.00    -0.135 A  
HETATM   15  C   UNL     1     -11.478  15.378  65.357  1.00  0.00    -0.115 A  
ENDROOT
BRANCH   7  16
HETATM   16  C   UNL     1     -10.884  14.342  71.318  1.00  0.00     1.283 C  
BRANCH  16  17
HETATM   17  N   UNL     1     -12.099  14.813  71.962  1.00  0.00    -0.348 NA 
HETATM   18  C   UNL     1     -12.323  16.099  72.379  1.00  0.00    -0.475 A  
HETATM   19  C   UNL     1     -13.616  16.103  72.845  1.00  0.00    -0.253 A  
HETATM   20  N   UNL     1     -14.166  14.855  72.750  1.00  0.00    -0.330 NA 
HETATM   21  C   UNL     1     -13.230  14.081  72.236  1.00  0.00    -0.464 A  
HETATM   22  C   UNL     1     -13.362  12.625  71.978  1.00  0.00    -0.555 C  
ENDBRANCH  16  17
ENDBRANCH   7  16
TORSDOF 2
ENDMDL
MODEL      151
REMARK 921   NORMALIZED FREE ENERGY PREDICTED BY IDOCK:   -4.01 KCAL/MOL
REMARK 922        TOTAL FREE ENERGY PREDICTED BY IDOCK:   -4.21 KCAL/MOL
REMARK 923 INTER-LIGAND FREE ENERGY PREDICTED BY IDOCK:   -4.00 KCAL/MOL
REMARK 924 INTRA-LIGAND FREE ENERGY PREDICTED BY IDOCK:   -0.21 KCAL/MOL
REMARK 927      BINDING AFFINITY PREDICTED BY RF-SCORE:    0.00 PKD
ROOT
HETATM    1  C   UNL     1      -7.787   7.358  68.984  1.00  0.00    -0.120 C  
HETATM    2  N   UNL     1      -8.451   8.284  68.091  1.00  0.00    -0.131 NA 
HETATM    3  C   UNL     1      -9.368   9.239  68.445  1.00  0.00    -0.138 A  
HETATM    4  C   UNL     1      -9.818   9.850  67.287  1.00  0.00    -0.228 A  
HETATM    5  C   UNL     1      -9.100   9.295  66.196  1.00  0.00    -0.224 A  
HETATM    6  C   UNL     1     -10.867  10.863  67.330  1.00  0.00    -0.287 C  
HETATM    7  C   UNL     1     -11.609  10.957  68.668  1.00  0.00    -0.373 C  
HETATM    8  C   UNL     1      -9.101   9.523  64.805  1.00  0.00    -0.271 A  
HETATM    9  O   UNL     1     -11.175  11.543  66.356  1.00  0.00    -0.306 OA 
HETATM   10  C   UNL     1     -10.586  10.895  69.826  1.00  0.00    -0.126 C  
HETATM   11  C   UNL     1      -7.434   7.524  65.895  1.00  0.00    -0.082 A  
HETATM   12  C   UNL     1      -8.276   8.755  63.978  1.00  0.00    -0.161 A  
HETATM   13  C   UNL     1      -9.835   9.550  69.829  1.00  0.00    -0.236 C  
HETATM   14  C   UNL     1      -7.458   7.766  64.518  1.00  0.00    -0.097 A  
HETATM   15  C   UNL     1      -8.263   8.303  66.721  1.00  0.00    -0.103 A  
ENDROOT
BRANCH   7  16
HETATM   16  C   UNL     1     -12.481  12.213  68.690  1.00  0.00     0.688 C  
BRANCH  16  17
HETATM   17  N   UNL     1     -11.893  13.306  69.447  1.00  0.00    -0.319 NA 
HETATM   18  C   UNL     1     -10.993  14.213  68.954  1.00  0.00    -0.259 A  
HETATM   19  C   UNL     1     -10.781  15.100  69.981  1.00  0.00    -0.238 A  
HETATM   20  N   UNL     1     -11.500  14.740  71.086  1.00  0.00    -0.263 NA 
HETATM   21  C   UNL     1     -12.150  13.641  70.756  1.00  0.00    -0.295 A  
HETATM   22  C   UNL     1     -13.040  12.863  71.654  1.00  0.00    -0.430 C  
ENDBRANCH  16  17
ENDBRANCH   7  16
TORSDOF 2
ENDMDL
MODEL      152
REMARK 921   NORMALIZED FREE ENERGY PREDICTED BY IDOCK:   -3.98 KCAL/MOL
REMARK 922        TOTAL FREE ENERGY PREDICTED BY IDOCK:   -4.18 KCAL/MOL
REMARK 923 INTER-LIGAND FREE ENERGY PREDICTED BY IDOCK:   -4.20 KCAL/MOL
REMARK 924 INTRA-LIGAND FREE ENERGY PREDICTED BY IDOCK:    0.02 KCAL/MOL
REMARK 927      BINDING AFFINITY PREDICTED BY RF-SCORE:    0.00 PKD
ROOT
HETATM    1  C   UNL     1     -11.884  15.900  68.755  1.00  0.00    -0.268 C  
HETATM    2  N   UNL     1     -10.550  15.684  68.236  1.00  0.00    -0.254 NA 
HETATM    3  C   UNL     1      -9.900  14.481  68.142  1.00  0.00    -0.223 A  
HETATM    4  C   UNL     1      -8.620  14.722  67.671  1.00  0.00    -0.180 A  
HETATM    5  C   UNL     1      -8.511  16.112  67.403  1.00  0.00    -0.188 A  
HETATM    6  C   UNL     1      -7.650  13.641  67.539  1.00  0.00    -0.170 C  
HETATM    7  C   UNL     1      -8.053  12.334  68.232  1.00  0.00    -0.166 C  
HETATM    8  C   UNL     1      -7.484  16.935  66.898  1.00  0.00    -0.254 A  
HETATM    9  O   UNL     1      -6.570  13.781  66.973  1.00  0.00    -0.031 OA 
HETATM   10  C   UNL     1      -9.543  12.039  67.940  1.00  0.00    -0.196 C  
HETATM   11  C   UNL     1      -9.940  18.082  67.681  1.00  0.00    -0.332 A  
HETATM   12  C   UNL     1      -7.693  18.314  66.791  1.00  0.00    -0.247 A  
HETATM   13  C   UNL     1     -10.449  13.144  68.515  1.00  0.00    -0.262 C  
HETATM   14  C   UNL     1      -8.903  18.877  67.182  1.00  0.00    -0.298 A  
HETATM   15  C   UNL     1      -9.726  16.698  67.782  1.00  0.00    -0.240 A  
ENDROOT
BRANCH   7  16
HETATM   16  C   UNL     1      -7.112  11.209  67.802  1.00  0.00    -0.086 C  
BRANCH  16  17
HETATM   17  N   UNL     1      -7.712  10.293  66.846  1.00  0.00    -0.103 NA 
HETATM   18  C   UNL     1      -7.590  10.382  65.485  1.00  0.00    -0.144 A  
HETATM   19  C   UNL     1      -8.239   9.276  64.994  1.00  0.00    -0.145 A  
HETATM   20  N   UNL     1      -8.774   8.539  66.014  1.00  0.00    -0.152 NA 
HETATM   21  C   UNL     1      -8.467   9.178  67.126  1.00  0.00    -0.120 A  
HETATM   22  C   UNL     1      -8.866   8.766  68.495  1.00  0.00    -0.138 C  
ENDBRANCH  16  17
ENDBRANCH   7  16
TORSDOF 2
ENDMDL
MODEL      153
REMARK 921   NORMALIZED FREE ENERGY PREDICTED BY IDOCK:   -3.97 KCAL/MOL
REMARK 922        TOTAL FREE ENERGY PREDICTED BY IDOCK:   -4.17 KCAL/MOL
REMARK 923 INTER-LIGAND FREE ENERGY PREDICTED BY IDOCK:   -4.56 KCAL/MOL
REMARK 924 INTRA-LIGAND FREE ENERGY PREDICTED BY IDOCK:    0.39 KCAL/MOL
REMARK 927      BINDING AFFINITY PREDICTED BY RF-SCORE:    0.00 PKD
ROOT
HETATM    1  C   UNL     1      -9.590  10.370  69.415  1.00  0.00    -0.192 C  
HETATM    2  N   UNL     1     -10.204   9.303  70.177  1.00  0.00    -0.200 NA 
HETATM    3  C   UNL     1      -9.702   8.041  70.360  1.00  0.00    -0.178 A  
HETATM    4  C   UNL     1     -10.634   7.310  71.078  1.00  0.00    -0.235 A  
HETATM    5  C   UNL     1     -11.709   8.177  71.402  1.00  0.00    -0.321 A  
HETATM    6  C   UNL     1     -10.422   5.896  71.364  1.00  0.00    -0.236 C  
HETATM    7  C   UNL     1      -9.283   5.247  70.568  1.00  0.00    -0.187 C  
HETATM    8  C   UNL     1     -12.912   8.020  72.121  1.00  0.00    -0.246 A  
HETATM    9  O   UNL     1     -11.135   5.258  72.133  1.00  0.00    -0.207 OA 
HETATM   10  C   UNL     1      -8.062   6.196  70.557  1.00  0.00    -0.113 C  
HETATM   11  C   UNL     1     -12.318  10.499  70.910  1.00  0.00    -0.490 A  
HETATM   12  C   UNL     1     -13.800   9.095  72.225  1.00  0.00    -0.527 A  
HETATM   13  C   UNL     1      -8.399   7.522  69.848  1.00  0.00    -0.133 C  
HETATM   14  C   UNL     1     -13.507  10.315  71.623  1.00  0.00    -0.360 A  
HETATM   15  C   UNL     1     -11.428   9.415  70.812  1.00  0.00    -0.300 A  
ENDROOT
BRANCH   7  16
HETATM   16  C   UNL     1      -8.975   3.862  71.140  1.00  0.00    -0.104 C  
BRANCH  16  17
HETATM   17  N   UNL     1      -8.251   3.910  72.399  1.00  0.00    -0.091 NA 
HETATM   18  C   UNL     1      -7.020   4.484  72.580  1.00  0.00    -0.061 A  
HETATM   19  C   UNL     1      -6.767   4.370  73.925  1.00  0.00    -0.059 A  
HETATM   20  N   UNL     1      -7.791   3.718  74.555  1.00  0.00    -0.076 NA 
HETATM   21  C   UNL     1      -8.670   3.426  73.616  1.00  0.00    -0.081 A  
HETATM   22  C   UNL     1      -9.939   2.685  73.825  1.00  0.00    -0.160 C  
ENDBRANCH  16  17
ENDBRANCH   7  16
TORSDOF 2
ENDMDL
MODEL      154
REMARK 921   NORMALIZED FREE ENERGY PREDICTED BY IDOCK:   -3.94 KCAL/MOL
REMARK 922        TOTAL FREE ENERGY PREDICTED BY IDOCK:   -4.13 KCAL/MOL
REMARK 923 INTER-LIGAND FREE ENERGY PREDICTED BY IDOCK:   -3.76 KCAL/MOL
REMARK 924 INTRA-LIGAND FREE ENERGY PREDICTED BY IDOCK:   -0.37 KCAL/MOL
REMARK 927      BINDING AFFINITY PREDICTED BY RF-SCORE:    0.00 PKD
ROOT
HETATM    1  C   UNL     1      -9.684   3.912  66.045  1.00  0.00    -0.162 C  
HETATM    2  N   UNL     1      -8.982   4.755  66.990  1.00  0.00    -0.110 NA 
HETATM    3  C   UNL     1      -9.304   6.045  67.324  1.00  0.00    -0.113 A  
HETATM    4  C   UNL     1      -8.335   6.515  68.195  1.00  0.00    -0.116 A  
HETATM    5  C   UNL     1      -7.431   5.452  68.454  1.00  0.00    -0.073 A  
HETATM    6  C   UNL     1      -8.357   7.894  68.671  1.00  0.00    -0.128 C  
HETATM    7  C   UNL     1      -9.317   8.816  67.911  1.00  0.00    -0.155 C  
HETATM    8  C   UNL     1      -6.282   5.318  69.259  1.00  0.00    -0.033 A  
HETATM    9  O   UNL     1      -7.622   8.300  69.566  1.00  0.00    -0.090 OA 
HETATM   10  C   UNL     1     -10.660   8.084  67.688  1.00  0.00    -0.264 C  
HETATM   11  C   UNL     1      -7.138   3.151  67.666  1.00  0.00    -0.050 A  
HETATM   12  C   UNL     1      -5.576   4.110  69.258  1.00  0.00    -0.017 A  
HETATM   13  C   UNL     1     -10.468   6.829  66.816  1.00  0.00    -0.298 C  
HETATM   14  C   UNL     1      -5.998   3.045  68.469  1.00  0.00    -0.024 A  
HETATM   15  C   UNL     1      -7.845   4.365  67.674  1.00  0.00    -0.085 A  
ENDROOT
BRANCH   7  16
HETATM   16  C   UNL     1      -9.461  10.143  68.658  1.00  0.00    -0.164 C  
BRANCH  16  17
HETATM   17  N   UNL     1     -10.411  11.051  68.038  1.00  0.00    -0.178 NA 
HETATM   18  C   UNL     1     -10.253  11.641  66.812  1.00  0.00    -0.217 A  
HETATM   19  C   UNL     1     -11.417  12.339  66.598  1.00  0.00    -0.373 A  
HETATM   20  N   UNL     1     -12.258  12.213  67.669  1.00  0.00    -0.359 NA 
HETATM   21  C   UNL     1     -11.627  11.451  68.541  1.00  0.00    -0.318 A  
HETATM   22  C   UNL     1     -12.141  11.064  69.879  1.00  0.00    -0.435 C  
ENDBRANCH  16  17
ENDBRANCH   7  16
TORSDOF 2
ENDMDL
MODEL      155
REMARK 921   NORMALIZED FREE ENERGY PREDICTED BY IDOCK:   -3.91 KCAL/MOL
REMARK 922        TOTAL FREE ENERGY PREDICTED BY IDOCK:   -4.10 KCAL/MOL
REMARK 923 INTER-LIGAND FREE ENERGY PREDICTED BY IDOCK:   -4.17 KCAL/MOL
REMARK 924 INTRA-LIGAND FREE ENERGY PREDICTED BY IDOCK:    0.06 KCAL/MOL
REMARK 927      BINDING AFFINITY PREDICTED BY RF-SCORE:    0.00 PKD
ROOT
HETATM    1  C   UNL     1      -7.871   8.482  64.075  1.00  0.00    -0.148 C  
HETATM    2  N   UNL     1      -8.260   7.287  64.793  1.00  0.00    -0.097 NA 
HETATM    3  C   UNL     1      -9.052   7.231  65.910  1.00  0.00    -0.021 A  
HETATM    4  C   UNL     1      -9.110   5.912  66.329  1.00  0.00    -0.157 A  
HETATM    5  C   UNL     1      -8.385   5.128  65.393  1.00  0.00    -0.132 A  
HETATM    6  C   UNL     1      -9.816   5.540  67.549  1.00  0.00    -0.144 C  
HETATM    7  C   UNL     1     -10.200   6.720  68.450  1.00  0.00    -0.193 C  
HETATM    8  C   UNL     1      -8.113   3.750  65.273  1.00  0.00    -0.097 A  
HETATM    9  O   UNL     1     -10.033   4.373  67.864  1.00  0.00    -0.120 OA 
HETATM   10  C   UNL     1     -10.769   7.864  67.578  1.00  0.00    -0.252 C  
HETATM   11  C   UNL     1      -7.035   5.561  63.396  1.00  0.00    -0.042 A  
HETATM   12  C   UNL     1      -7.309   3.295  64.223  1.00  0.00    -0.063 A  
HETATM   13  C   UNL     1      -9.710   8.387  66.590  1.00  0.00    -0.320 C  
HETATM   14  C   UNL     1      -6.775   4.190  63.302  1.00  0.00    -0.035 A  
HETATM   15  C   UNL     1      -7.846   6.012  64.450  1.00  0.00    -0.113 A  
ENDROOT
BRANCH   7  16
HETATM   16  C   UNL     1     -11.161   6.248  69.541  1.00  0.00    -0.408 C  
BRANCH  16  17
HETATM   17  N   UNL     1     -11.190   7.125  70.699  1.00  0.00    -0.270 NA 
HETATM   18  C   UNL     1     -11.117   8.493  70.655  1.00  0.00    -0.252 A  
HETATM   19  C   UNL     1     -11.265   8.901  71.958  1.00  0.00    -0.352 A  
HETATM   20  N   UNL     1     -11.394   7.823  72.789  1.00  0.00    -0.391 NA 
HETATM   21  C   UNL     1     -11.324   6.756  72.017  1.00  0.00    -0.272 A  
HETATM   22  C   UNL     1     -11.384   5.349  72.485  1.00  0.00    -0.286 C  
ENDBRANCH  16  17
ENDBRANCH   7  16
TORSDOF 2
ENDMDL
MODEL      156
REMARK 921   NORMALIZED FREE ENERGY PREDICTED BY IDOCK:   -3.91 KCAL/MOL
REMARK 922        TOTAL FREE ENERGY PREDICTED BY IDOCK:   -4.09 KCAL/MOL
REMARK 923 INTER-LIGAND FREE ENERGY PREDICTED BY IDOCK:   -4.40 KCAL/MOL
REMARK 924 INTRA-LIGAND FREE ENERGY PREDICTED BY IDOCK:    0.31 KCAL/MOL
REMARK 927      BINDING AFFINITY PREDICTED BY RF-SCORE:    0.00 PKD
ROOT
HETATM    1  C   UNL     1      -9.725  15.156  67.284  1.00  0.00    -0.210 C  
HETATM    2  N   UNL     1     -10.005  13.860  66.704  1.00  0.00    -0.271 NA 
HETATM    3  C   UNL     1      -9.494  12.657  67.116  1.00  0.00    -0.214 A  
HETATM    4  C   UNL     1      -9.946  11.679  66.247  1.00  0.00    -0.247 A  
HETATM    5  C   UNL     1     -10.820  12.298  65.314  1.00  0.00    -0.332 A  
HETATM    6  C   UNL     1      -9.506  10.295  66.376  1.00  0.00    -0.174 C  
HETATM    7  C   UNL     1      -8.312  10.090  67.316  1.00  0.00    -0.121 C  
HETATM    8  C   UNL     1     -11.586  11.827  64.228  1.00  0.00    -0.361 A  
HETATM    9  O   UNL     1     -10.007   9.374  65.737  1.00  0.00    -0.309 OA 
HETATM   10  C   UNL     1      -8.522  10.928  68.599  1.00  0.00    -0.152 C  
HETATM   11  C   UNL     1     -11.569  14.582  64.842  1.00  0.00    -0.401 A  
HETATM   12  C   UNL     1     -12.330  12.732  63.465  1.00  0.00    -0.559 A  
HETATM   13  C   UNL     1      -8.577  12.432  68.274  1.00  0.00    -0.172 C  
HETATM   14  C   UNL     1     -12.316  14.090  63.767  1.00  0.00    -0.195 A  
HETATM   15  C   UNL     1     -10.827  13.667  65.608  1.00  0.00    -0.279 A  
ENDROOT
BRANCH   7  16
HETATM   16  C   UNL     1      -8.116   8.598  67.587  1.00  0.00    -0.107 C  
BRANCH  16  17
HETATM   17  N   UNL     1      -7.046   8.007  66.800  1.00  0.00    -0.079 NA 
HETATM   18  C   UNL     1      -6.968   6.688  66.440  1.00  0.00    -0.062 A  
HETATM   19  C   UNL     1      -5.852   6.601  65.643  1.00  0.00    -0.030 A  
HETATM   20  N   UNL     1      -5.239   7.819  65.537  1.00  0.00    -0.028 NA 
HETATM   21  C   UNL     1      -5.959   8.654  66.260  1.00  0.00    -0.051 A  
HETATM   22  C   UNL     1      -5.658  10.092  66.469  1.00  0.00    -0.047 C  
ENDBRANCH  16  17
ENDBRANCH   7  16
TORSDOF 2
ENDMDL
MODEL      157
REMARK 921   NORMALIZED FREE ENERGY PREDICTED BY IDOCK:   -3.90 KCAL/MOL
REMARK 922        TOTAL FREE ENERGY PREDICTED BY IDOCK:   -4.09 KCAL/MOL
REMARK 923 INTER-LIGAND FREE ENERGY PREDICTED BY IDOCK:   -3.71 KCAL/MOL
REMARK 924 INTRA-LIGAND FREE ENERGY PREDICTED BY IDOCK:   -0.38 KCAL/MOL
REMARK 927      BINDING AFFINITY PREDICTED BY RF-SCORE:    0.00 PKD
ROOT
HETATM    1  C   UNL     1      -7.629   7.887  73.286  1.00  0.00    -0.131 C  
HETATM    2  N   UNL     1      -8.401   8.105  72.081  1.00  0.00    -0.143 NA 
HETATM    3  C   UNL     1      -8.105   8.985  71.073  1.00  0.00    -0.159 A  
HETATM    4  C   UNL     1      -9.137   8.944  70.151  1.00  0.00    -0.189 A  
HETATM    5  C   UNL     1     -10.060   7.953  70.578  1.00  0.00    -0.192 A  
HETATM    6  C   UNL     1      -9.151   9.834  68.996  1.00  0.00    -0.157 C  
HETATM    7  C   UNL     1      -8.133  10.979  69.061  1.00  0.00    -0.105 C  
HETATM    8  C   UNL     1     -11.270   7.451  70.055  1.00  0.00    -0.200 A  
HETATM    9  O   UNL     1      -9.953   9.716  68.074  1.00  0.00    -0.150 OA 
HETATM   10  C   UNL     1      -6.777  10.430  69.562  1.00  0.00    -0.081 C  
HETATM   11  C   UNL     1     -10.295   6.475  72.517  1.00  0.00    -0.216 A  
HETATM   12  C   UNL     1     -11.975   6.474  70.763  1.00  0.00    -0.351 A  
HETATM   13  C   UNL     1      -6.903   9.867  70.991  1.00  0.00     0.128 C  
HETATM   14  C   UNL     1     -11.495   5.998  71.979  1.00  0.00    -0.343 A  
HETATM   15  C   UNL     1      -9.589   7.454  71.798  1.00  0.00    -0.149 A  
ENDROOT
BRANCH   7  16
HETATM   16  C   UNL     1      -8.046  11.672  67.700  1.00  0.00    -0.140 C  
BRANCH  16  17
HETATM   17  N   UNL     1      -8.817  12.901  67.632  1.00  0.00    -0.175 NA 
HETATM   18  C   UNL     1     -10.152  12.980  67.336  1.00  0.00    -0.231 A  
HETATM   19  C   UNL     1     -10.470  14.310  67.467  1.00  0.00    -0.252 A  
HETATM   20  N   UNL     1      -9.363  15.039  67.802  1.00  0.00    -0.185 NA 
HETATM   21  C   UNL     1      -8.367  14.178  67.875  1.00  0.00    -0.162 A  
HETATM   22  C   UNL     1      -6.955  14.518  68.181  1.00  0.00    -0.125 C  
ENDBRANCH  16  17
ENDBRANCH   7  16
TORSDOF 2
ENDMDL
MODEL      158
REMARK 921   NORMALIZED FREE ENERGY PREDICTED BY IDOCK:   -3.88 KCAL/MOL
REMARK 922        TOTAL FREE ENERGY PREDICTED BY IDOCK:   -4.07 KCAL/MOL
REMARK 923 INTER-LIGAND FREE ENERGY PREDICTED BY IDOCK:   -3.71 KCAL/MOL
REMARK 924 INTRA-LIGAND FREE ENERGY PREDICTED BY IDOCK:   -0.36 KCAL/MOL
REMARK 927      BINDING AFFINITY PREDICTED BY RF-SCORE:    0.00 PKD
ROOT
HETATM    1  C   UNL     1      -6.583  16.021  68.899  1.00  0.00    -0.130 C  
HETATM    2  N   UNL     1      -7.671  15.133  68.545  1.00  0.00    -0.117 NA 
HETATM    3  C   UNL     1      -7.556  13.837  68.115  1.00  0.00    -0.128 A  
HETATM    4  C   UNL     1      -8.823  13.375  67.805  1.00  0.00    -0.199 A  
HETATM    5  C   UNL     1      -9.750  14.402  68.125  1.00  0.00    -0.223 A  
HETATM    6  C   UNL     1      -9.022  12.045  67.240  1.00  0.00    -0.180 C  
HETATM    7  C   UNL     1      -7.740  11.362  66.749  1.00  0.00    -0.150 C  
HETATM    8  C   UNL     1     -11.154  14.512  68.053  1.00  0.00    -0.289 A  
HETATM    9  O   UNL     1     -10.132  11.537  67.109  1.00  0.00    -0.194 OA 
HETATM   10  C   UNL     1      -6.620  11.567  67.794  1.00  0.00    -0.068 C  
HETATM   11  C   UNL     1      -9.619  16.710  68.934  1.00  0.00    -0.252 A  
HETATM   12  C   UNL     1     -11.771  15.712  68.418  1.00  0.00    -0.301 A  
HETATM   13  C   UNL     1      -6.288  13.062  67.964  1.00  0.00    -0.115 C  
HETATM   14  C   UNL     1     -11.012  16.796  68.848  1.00  0.00    -0.259 A  
HETATM   15  C   UNL     1      -9.004  15.501  68.569  1.00  0.00    -0.191 A  
ENDROOT
BRANCH   7  16
HETATM   16  C   UNL     1      -8.024   9.892  66.438  1.00  0.00    -0.111 C  
BRANCH  16  17
HETATM   17  N   UNL     1      -8.096   9.611  65.014  1.00  0.00    -0.121 NA 
HETATM   18  C   UNL     1      -9.016  10.146  64.150  1.00  0.00    -0.238 A  
HETATM   19  C   UNL     1      -8.659   9.673  62.911  1.00  0.00    -0.202 A  
HETATM   20  N   UNL     1      -7.573   8.847  63.004  1.00  0.00    -0.105 NA 
HETATM   21  C   UNL     1      -7.259   8.800  64.284  1.00  0.00    -0.091 A  
HETATM   22  C   UNL     1      -6.158   7.997  64.872  1.00  0.00    -0.045 C  
ENDBRANCH  16  17
ENDBRANCH   7  16
TORSDOF 2
ENDMDL
MODEL      159
REMARK 921   NORMALIZED FREE ENERGY PREDICTED BY IDOCK:   -3.86 KCAL/MOL
REMARK 922        TOTAL FREE ENERGY PREDICTED BY IDOCK:   -4.04 KCAL/MOL
REMARK 923 INTER-LIGAND FREE ENERGY PREDICTED BY IDOCK:   -3.61 KCAL/MOL
REMARK 924 INTRA-LIGAND FREE ENERGY PREDICTED BY IDOCK:   -0.43 KCAL/MOL
REMARK 927      BINDING AFFINITY PREDICTED BY RF-SCORE:    0.00 PKD
ROOT
HETATM    1  C   UNL     1      -9.195   4.911  73.756  1.00  0.00    -0.118 C  
HETATM    2  N   UNL     1      -9.115   5.355  72.380  1.00  0.00    -0.137 NA 
HETATM    3  C   UNL     1      -9.059   6.654  71.948  1.00  0.00    -0.143 A  
HETATM    4  C   UNL     1      -9.076   6.645  70.563  1.00  0.00    -0.152 A  
HETATM    5  C   UNL     1      -9.072   5.291  70.138  1.00  0.00    -0.168 A  
HETATM    6  C   UNL     1      -9.107   7.889  69.803  1.00  0.00    -0.146 C  
HETATM    7  C   UNL     1      -9.422   9.138  70.635  1.00  0.00    -0.316 C  
HETATM    8  C   UNL     1      -9.064   4.660  68.877  1.00  0.00    -0.163 A  
HETATM    9  O   UNL     1      -8.954   7.929  68.585  1.00  0.00    -0.135 OA 
HETATM   10  C   UNL     1      -8.616   9.091  71.954  1.00  0.00     0.098 C  
HETATM   11  C   UNL     1      -9.162   3.098  71.225  1.00  0.00    -0.193 A  
HETATM   12  C   UNL     1      -9.105   3.264  68.804  1.00  0.00    -0.206 A  
HETATM   13  C   UNL     1      -9.024   7.875  72.807  1.00  0.00    -0.258 C  
HETATM   14  C   UNL     1      -9.158   2.496  69.963  1.00  0.00    -0.182 A  
HETATM   15  C   UNL     1      -9.116   4.500  71.293  1.00  0.00    -0.130 A  
ENDROOT
BRANCH   7  16
HETATM   16  C   UNL     1      -9.159  10.394  69.803  1.00  0.00     0.047 C  
BRANCH  16  17
HETATM   17  N   UNL     1     -10.354  10.919  69.163  1.00  0.00    -0.217 NA 
HETATM   18  C   UNL     1     -11.545  11.162  69.795  1.00  0.00    -0.334 A  
HETATM   19  C   UNL     1     -12.351  11.724  68.834  1.00  0.00     0.190 A  
HETATM   20  N   UNL     1     -11.694  11.799  67.638  1.00  0.00    -0.553 NA 
HETATM   21  C   UNL     1     -10.496  11.288  67.846  1.00  0.00    -0.188 A  
HETATM   22  C   UNL     1      -9.437  11.129  66.819  1.00  0.00    -0.203 C  
ENDBRANCH  16  17
ENDBRANCH   7  16
TORSDOF 2
ENDMDL
MODEL      160
REMARK 921   NORMALIZED FREE ENERGY PREDICTED BY IDOCK:   -3.85 KCAL/MOL
REMARK 922        TOTAL FREE ENERGY PREDICTED BY IDOCK:   -4.03 KCAL/MOL
REMARK 923 INTER-LIGAND FREE ENERGY PREDICTED BY IDOCK:   -4.74 KCAL/MOL
REMARK 924 INTRA-LIGAND FREE ENERGY PREDICTED BY IDOCK:    0.71 KCAL/MOL
REMARK 927      BINDING AFFINITY PREDICTED BY RF-SCORE:    0.00 PKD
ROOT
HETATM    1  C   UNL     1      -9.893   3.149  73.045  1.00  0.00    -0.122 C  
HETATM    2  N   UNL     1      -9.925   3.870  71.791  1.00  0.00    -0.182 NA 
HETATM    3  C   UNL     1     -10.243   5.192  71.621  1.00  0.00    -0.212 A  
HETATM    4  C   UNL     1     -10.235   5.464  70.263  1.00  0.00    -0.338 A  
HETATM    5  C   UNL     1      -9.829   4.283  69.587  1.00  0.00    -0.244 A  
HETATM    6  C   UNL     1     -10.616   6.777  69.756  1.00  0.00    -0.228 C  
HETATM    7  C   UNL     1     -11.295   7.687  70.786  1.00  0.00    -0.296 C  
HETATM    8  C   UNL     1      -9.617   3.954  68.233  1.00  0.00    -0.178 A  
HETATM    9  O   UNL     1     -10.462   7.108  68.584  1.00  0.00    -0.190 OA 
HETATM   10  C   UNL     1     -10.532   7.599  72.128  1.00  0.00    -0.270 C  
HETATM   11  C   UNL     1      -9.292   1.979  70.223  1.00  0.00    -0.180 A  
HETATM   12  C   UNL     1      -9.248   2.649  67.890  1.00  0.00    -0.252 A  
HETATM   13  C   UNL     1     -10.580   6.169  72.699  1.00  0.00    -0.246 C  
HETATM   14  C   UNL     1      -9.093   1.677  68.873  1.00  0.00    -0.173 A  
HETATM   15  C   UNL     1      -9.659   3.293  70.562  1.00  0.00    -0.148 A  
ENDROOT
BRANCH   7  16
HETATM   16  C   UNL     1     -11.397   9.109  70.233  1.00  0.00    -0.188 C  
BRANCH  16  17
HETATM   17  N   UNL     1     -10.126   9.635  69.765  1.00  0.00    -0.217 NA 
HETATM   18  C   UNL     1      -8.935   9.529  70.433  1.00  0.00    -0.243 A  
HETATM   19  C   UNL     1      -8.003  10.086  69.591  1.00  0.00    -0.170 A  
HETATM   20  N   UNL     1      -8.599  10.552  68.452  1.00  0.00    -0.126 NA 
HETATM   21  C   UNL     1      -9.885  10.294  68.582  1.00  0.00    -0.173 A  
HETATM   22  C   UNL     1     -10.939  10.649  67.599  1.00  0.00    -0.370 C  
ENDBRANCH  16  17
ENDBRANCH   7  16
TORSDOF 2
ENDMDL
MODEL      161
REMARK 921   NORMALIZED FREE ENERGY PREDICTED BY IDOCK:   -3.82 KCAL/MOL
REMARK 922        TOTAL FREE ENERGY PREDICTED BY IDOCK:   -4.00 KCAL/MOL
REMARK 923 INTER-LIGAND FREE ENERGY PREDICTED BY IDOCK:   -3.64 KCAL/MOL
REMARK 924 INTRA-LIGAND FREE ENERGY PREDICTED BY IDOCK:   -0.36 KCAL/MOL
REMARK 927      BINDING AFFINITY PREDICTED BY RF-SCORE:    0.00 PKD
ROOT
HETATM    1  C   UNL     1      -7.227   5.838  65.054  1.00  0.00    -0.066 C  
HETATM    2  N   UNL     1      -7.607   7.061  65.728  1.00  0.00    -0.090 NA 
HETATM    3  C   UNL     1      -7.605   7.278  67.081  1.00  0.00    -0.103 A  
HETATM    4  C   UNL     1      -8.115   8.544  67.312  1.00  0.00    -0.105 A  
HETATM    5  C   UNL     1      -8.372   9.145  66.052  1.00  0.00    -0.125 A  
HETATM    6  C   UNL     1      -8.315   9.039  68.669  1.00  0.00    -0.123 C  
HETATM    7  C   UNL     1      -8.212   7.967  69.761  1.00  0.00    -0.120 C  
HETATM    8  C   UNL     1      -8.864  10.403  65.649  1.00  0.00    -0.190 A  
HETATM    9  O   UNL     1      -8.605  10.206  68.917  1.00  0.00    -0.123 OA 
HETATM   10  C   UNL     1      -6.996   7.058  69.471  1.00  0.00    -0.062 C  
HETATM   11  C   UNL     1      -8.243   8.453  63.706  1.00  0.00    -0.106 A  
HETATM   12  C   UNL     1      -9.041  10.672  64.288  1.00  0.00    -0.244 A  
HETATM   13  C   UNL     1      -7.168   6.313  68.134  1.00  0.00    -0.084 C  
HETATM   14  C   UNL     1      -8.738   9.707  63.332  1.00  0.00    -0.237 A  
HETATM   15  C   UNL     1      -8.064   8.191  65.074  1.00  0.00    -0.155 A  
ENDROOT
BRANCH   7  16
HETATM   16  C   UNL     1      -8.164   8.632  71.137  1.00  0.00    -0.153 C  
BRANCH  16  17
HETATM   17  N   UNL     1      -9.248   8.221  72.012  1.00  0.00    -0.181 NA 
HETATM   18  C   UNL     1     -10.517   7.907  71.602  1.00  0.00    -0.209 A  
HETATM   19  C   UNL     1     -11.170   7.499  72.739  1.00  0.00    -0.352 A  
HETATM   20  N   UNL     1     -10.345   7.585  73.826  1.00  0.00    -0.266 NA 
HETATM   21  C   UNL     1      -9.194   8.045  73.375  1.00  0.00    -0.263 A  
HETATM   22  C   UNL     1      -7.997   8.332  74.204  1.00  0.00    -0.282 C  
ENDBRANCH  16  17
ENDBRANCH   7  16
TORSDOF 2
ENDMDL
MODEL      162
REMARK 921   NORMALIZED FREE ENERGY PREDICTED BY IDOCK:   -3.77 KCAL/MOL
REMARK 922        TOTAL FREE ENERGY PREDICTED BY IDOCK:   -3.94 KCAL/MOL
REMARK 923 INTER-LIGAND FREE ENERGY PREDICTED BY IDOCK:   -3.58 KCAL/MOL
REMARK 924 INTRA-LIGAND FREE ENERGY PREDICTED BY IDOCK:   -0.36 KCAL/MOL
REMARK 927      BINDING AFFINITY PREDICTED BY RF-SCORE:    0.00 PKD
ROOT
HETATM    1  C   UNL     1     -10.814   7.073  73.403  1.00  0.00    -0.299 C  
HETATM    2  N   UNL     1      -9.772   6.995  72.402  1.00  0.00    -0.153 NA 
HETATM    3  C   UNL     1      -9.923   6.592  71.101  1.00  0.00    -0.182 A  
HETATM    4  C   UNL     1      -8.672   6.583  70.507  1.00  0.00    -0.144 A  
HETATM    5  C   UNL     1      -7.736   7.065  71.460  1.00  0.00    -0.090 A  
HETATM    6  C   UNL     1      -8.493   6.118  69.136  1.00  0.00    -0.119 C  
HETATM    7  C   UNL     1      -9.702   5.381  68.549  1.00  0.00    -0.183 C  
HETATM    8  C   UNL     1      -6.346   7.299  71.436  1.00  0.00    -0.036 A  
HETATM    9  O   UNL     1      -7.439   6.250  68.521  1.00  0.00    -0.084 OA 
HETATM   10  C   UNL     1     -10.994   6.147  68.913  1.00  0.00    -0.424 C  
HETATM   11  C   UNL     1      -7.802   7.750  73.810  1.00  0.00    -0.207 A  
HETATM   12  C   UNL     1      -5.702   7.752  72.591  1.00  0.00    -0.040 A  
HETATM   13  C   UNL     1     -11.200   6.192  70.439  1.00  0.00    -0.423 C  
HETATM   14  C   UNL     1      -6.422   7.969  73.762  1.00  0.00    -0.115 A  
HETATM   15  C   UNL     1      -8.444   7.299  72.645  1.00  0.00    -0.107 A  
ENDROOT
BRANCH   7  16
HETATM   16  C   UNL     1      -9.510   5.187  67.045  1.00  0.00    -0.137 C  
BRANCH  16  17
HETATM   17  N   UNL     1      -9.252   3.806  66.673  1.00  0.00    -0.162 NA 
HETATM   18  C   UNL     1      -8.843   2.820  67.532  1.00  0.00    -0.138 A  
HETATM   19  C   UNL     1      -8.808   1.676  66.773  1.00  0.00    -0.116 A  
HETATM   20  N   UNL     1      -9.153   1.946  65.478  1.00  0.00    -0.110 NA 
HETATM   21  C   UNL     1      -9.396   3.241  65.427  1.00  0.00    -0.140 A  
HETATM   22  C   UNL     1      -9.777   3.999  64.209  1.00  0.00    -0.169 C  
ENDBRANCH  16  17
ENDBRANCH   7  16
TORSDOF 2
ENDMDL
MODEL      163
REMARK 921   NORMALIZED FREE ENERGY PREDICTED BY IDOCK:   -3.69 KCAL/MOL
REMARK 922        TOTAL FREE ENERGY PREDICTED BY IDOCK:   -3.86 KCAL/MOL
REMARK 923 INTER-LIGAND FREE ENERGY PREDICTED BY IDOCK:   -3.69 KCAL/MOL
REMARK 924 INTRA-LIGAND FREE ENERGY PREDICTED BY IDOCK:   -0.17 KCAL/MOL
REMARK 927      BINDING AFFINITY PREDICTED BY RF-SCORE:    0.00 PKD
ROOT
HETATM    1  C   UNL     1      -9.026   2.607  66.419  1.00  0.00    -0.139 C  
HETATM    2  N   UNL     1      -8.837   4.042  66.405  1.00  0.00    -0.117 NA 
HETATM    3  C   UNL     1      -9.022   4.897  67.460  1.00  0.00    -0.108 A  
HETATM    4  C   UNL     1      -8.817   6.189  67.006  1.00  0.00    -0.110 A  
HETATM    5  C   UNL     1      -8.425   6.112  65.643  1.00  0.00    -0.151 A  
HETATM    6  C   UNL     1      -9.021   7.336  67.882  1.00  0.00    -0.130 C  
HETATM    7  C   UNL     1      -9.752   7.017  69.192  1.00  0.00    -0.156 C  
HETATM    8  C   UNL     1      -8.068   7.069  64.671  1.00  0.00    -0.083 A  
HETATM    9  O   UNL     1      -8.692   8.478  67.572  1.00  0.00    -0.133 OA 
HETATM   10  C   UNL     1      -9.177   5.713  69.793  1.00  0.00    -0.165 C  
HETATM   11  C   UNL     1      -8.164   4.335  63.977  1.00  0.00    -0.096 A  
HETATM   12  C   UNL     1      -7.765   6.652  63.371  1.00  0.00    -0.109 A  
HETATM   13  C   UNL     1      -9.414   4.518  68.850  1.00  0.00    -0.225 C  
HETATM   14  C   UNL     1      -7.817   5.305  63.031  1.00  0.00    -0.083 A  
HETATM   15  C   UNL     1      -8.463   4.760  65.283  1.00  0.00    -0.132 A  
ENDROOT
BRANCH   7  16
HETATM   16  C   UNL     1      -9.666   8.216  70.138  1.00  0.00    -0.175 C  
BRANCH  16  17
HETATM   17  N   UNL     1      -9.937   7.873  71.524  1.00  0.00    -0.170 NA 
HETATM   18  C   UNL     1      -8.984   7.676  72.488  1.00  0.00    -0.142 A  
HETATM   19  C   UNL     1      -9.689   7.460  73.648  1.00  0.00    -0.299 A  
HETATM   20  N   UNL     1     -11.035   7.491  73.407  1.00  0.00    -0.326 NA 
HETATM   21  C   UNL     1     -11.169   7.718  72.115  1.00  0.00    -0.297 A  
HETATM   22  C   UNL     1     -12.458   7.804  71.384  1.00  0.00    -0.342 C  
ENDBRANCH  16  17
ENDBRANCH   7  16
TORSDOF 2
ENDMDL
MODEL      164
REMARK 921   NORMALIZED FREE ENERGY PREDICTED BY IDOCK:   -3.65 KCAL/MOL
REMARK 922        TOTAL FREE ENERGY PREDICTED BY IDOCK:   -3.81 KCAL/MOL
REMARK 923 INTER-LIGAND FREE ENERGY PREDICTED BY IDOCK:   -4.08 KCAL/MOL
REMARK 924 INTRA-LIGAND FREE ENERGY PREDICTED BY IDOCK:    0.27 KCAL/MOL
REMARK 927      BINDING AFFINITY PREDICTED BY RF-SCORE:    0.00 PKD
ROOT
HETATM    1  C   UNL     1      -5.708  11.986  69.090  1.00  0.00    -0.064 C  
HETATM    2  N   UNL     1      -6.892  11.448  68.453  1.00  0.00    -0.065 NA 
HETATM    3  C   UNL     1      -8.049  12.130  68.181  1.00  0.00    -0.161 A  
HETATM    4  C   UNL     1      -8.959  11.234  67.647  1.00  0.00    -0.142 A  
HETATM    5  C   UNL     1      -8.309   9.977  67.525  1.00  0.00    -0.118 A  
HETATM    6  C   UNL     1     -10.321  11.644  67.327  1.00  0.00    -0.204 C  
HETATM    7  C   UNL     1     -10.729  13.006  67.900  1.00  0.00    -0.249 C  
HETATM    8  C   UNL     1      -8.703   8.714  67.039  1.00  0.00    -0.135 A  
HETATM    9  O   UNL     1     -11.102  10.932  66.702  1.00  0.00    -0.213 OA 
HETATM   10  C   UNL     1      -9.577  14.016  67.688  1.00  0.00    -0.221 C  
HETATM   11  C   UNL     1      -6.119   9.056  68.120  1.00  0.00    -0.050 A  
HETATM   12  C   UNL     1      -7.808   7.641  67.099  1.00  0.00    -0.117 A  
HETATM   13  C   UNL     1      -8.310  13.577  68.446  1.00  0.00    -0.140 C  
HETATM   14  C   UNL     1      -6.536   7.811  67.637  1.00  0.00    -0.063 A  
HETATM   15  C   UNL     1      -7.022  10.130  68.053  1.00  0.00    -0.082 A  
ENDROOT
BRANCH   7  16
HETATM   16  C   UNL     1     -12.054  13.453  67.282  1.00  0.00    -0.304 C  
BRANCH  16  17
HETATM   17  N   UNL     1     -11.891  14.153  66.020  1.00  0.00    -0.383 NA 
HETATM   18  C   UNL     1     -11.375  15.415  65.878  1.00  0.00    -0.104 A  
HETATM   19  C   UNL     1     -11.332  15.633  64.523  1.00  0.00    -0.320 A  
HETATM   20  N   UNL     1     -11.834  14.557  63.845  1.00  0.00    -0.241 NA 
HETATM   21  C   UNL     1     -12.189  13.680  64.763  1.00  0.00    -0.403 A  
HETATM   22  C   UNL     1     -12.819  12.362  64.498  1.00  0.00    -0.305 C  
ENDBRANCH  16  17
ENDBRANCH   7  16
TORSDOF 2
ENDMDL
MODEL      165
REMARK 921   NORMALIZED FREE ENERGY PREDICTED BY IDOCK:   -3.65 KCAL/MOL
REMARK 922        TOTAL FREE ENERGY PREDICTED BY IDOCK:   -3.81 KCAL/MOL
REMARK 923 INTER-LIGAND FREE ENERGY PREDICTED BY IDOCK:   -3.38 KCAL/MOL
REMARK 924 INTRA-LIGAND FREE ENERGY PREDICTED BY IDOCK:   -0.43 KCAL/MOL
REMARK 927      BINDING AFFINITY PREDICTED BY RF-SCORE:    0.00 PKD
ROOT
HETATM    1  C   UNL     1      -9.471   2.730  68.413  1.00  0.00    -0.145 C  
HETATM    2  N   UNL     1      -9.586   4.069  68.949  1.00  0.00    -0.166 NA 
HETATM    3  C   UNL     1      -9.493   5.239  68.242  1.00  0.00    -0.124 A  
HETATM    4  C   UNL     1      -9.576   6.290  69.139  1.00  0.00    -0.148 A  
HETATM    5  C   UNL     1      -9.798   5.742  70.430  1.00  0.00    -0.241 A  
HETATM    6  C   UNL     1      -9.428   7.672  68.696  1.00  0.00    -0.151 C  
HETATM    7  C   UNL     1      -8.884   7.831  67.272  1.00  0.00    -0.130 C  
HETATM    8  C   UNL     1      -9.983   6.299  71.712  1.00  0.00    -0.193 A  
HETATM    9  O   UNL     1      -9.660   8.633  69.424  1.00  0.00    -0.163 OA 
HETATM   10  C   UNL     1      -9.592   6.821  66.339  1.00  0.00    -0.149 C  
HETATM   11  C   UNL     1      -9.935   3.495  71.395  1.00  0.00    -0.151 A  
HETATM   12  C   UNL     1     -10.141   5.454  72.815  1.00  0.00    -0.211 A  
HETATM   13  C   UNL     1      -9.297   5.371  66.767  1.00  0.00    -0.136 C  
HETATM   14  C   UNL     1     -10.112   4.072  72.657  1.00  0.00    -0.225 A  
HETATM   15  C   UNL     1      -9.781   4.349  70.290  1.00  0.00    -0.211 A  
ENDROOT
BRANCH   7  16
HETATM   16  C   UNL     1      -9.029   9.284  66.821  1.00  0.00    -0.131 C  
BRANCH  16  17
HETATM   17  N   UNL     1      -7.762   9.909  66.481  1.00  0.00    -0.105 NA 
HETATM   18  C   UNL     1      -7.012   9.620  65.371  1.00  0.00    -0.095 A  
HETATM   19  C   UNL     1      -5.956  10.498  65.415  1.00  0.00    -0.129 A  
HETATM   20  N   UNL     1      -6.029  11.285  66.531  1.00  0.00    -0.142 NA 
HETATM   21  C   UNL     1      -7.113  10.902  67.178  1.00  0.00    -0.103 A  
HETATM   22  C   UNL     1      -7.585  11.455  68.472  1.00  0.00    -0.129 C  
ENDBRANCH  16  17
ENDBRANCH   7  16
TORSDOF 2
ENDMDL
MODEL      166
REMARK 921   NORMALIZED FREE ENERGY PREDICTED BY IDOCK:   -3.63 KCAL/MOL
REMARK 922        TOTAL FREE ENERGY PREDICTED BY IDOCK:   -3.78 KCAL/MOL
REMARK 923 INTER-LIGAND FREE ENERGY PREDICTED BY IDOCK:   -3.92 KCAL/MOL
REMARK 924 INTRA-LIGAND FREE ENERGY PREDICTED BY IDOCK:    0.13 KCAL/MOL
REMARK 927      BINDING AFFINITY PREDICTED BY RF-SCORE:    0.00 PKD
ROOT
HETATM    1  C   UNL     1      -7.644   8.102  66.552  1.00  0.00    -0.092 C  
HETATM    2  N   UNL     1      -8.137   9.373  66.064  1.00  0.00    -0.110 NA 
HETATM    3  C   UNL     1      -8.285  10.523  66.795  1.00  0.00    -0.126 A  
HETATM    4  C   UNL     1      -8.862  11.479  65.976  1.00  0.00    -0.144 A  
HETATM    5  C   UNL     1      -9.007  10.913  64.683  1.00  0.00    -0.147 A  
HETATM    6  C   UNL     1      -9.220  12.795  66.493  1.00  0.00    -0.189 C  
HETATM    7  C   UNL     1      -9.194  12.909  68.022  1.00  0.00    -0.212 C  
HETATM    8  C   UNL     1      -9.499  11.394  63.452  1.00  0.00    -0.292 A  
HETATM    9  O   UNL     1      -9.576  13.721  65.769  1.00  0.00    -0.196 OA 
HETATM   10  C   UNL     1      -7.922  12.217  68.564  1.00  0.00    -0.119 C  
HETATM   11  C   UNL     1      -8.608   8.724  63.658  1.00  0.00    -0.058 A  
HETATM   12  C   UNL     1      -9.541  10.541  62.345  1.00  0.00    -0.179 A  
HETATM   13  C   UNL     1      -7.926  10.713  68.232  1.00  0.00    -0.116 C  
HETATM   14  C   UNL     1      -9.106   9.224  62.450  1.00  0.00    -0.138 A  
HETATM   15  C   UNL     1      -8.564   9.587  64.765  1.00  0.00    -0.176 A  
ENDROOT
BRANCH   7  16
HETATM   16  C   UNL     1      -9.313  14.377  68.434  1.00  0.00    -0.206 C  
BRANCH  16  17
HETATM   17  N   UNL     1     -10.459  14.642  69.287  1.00  0.00    -0.235 NA 
HETATM   18  C   UNL     1     -10.417  15.322  70.476  1.00  0.00    -0.074 A  
HETATM   19  C   UNL     1     -11.725  15.405  70.887  1.00  0.00    -0.354 A  
HETATM   20  N   UNL     1     -12.550  14.771  70.000  1.00  0.00    -0.269 NA 
HETATM   21  C   UNL     1     -11.769  14.294  69.050  1.00  0.00    -0.317 A  
HETATM   22  C   UNL     1     -12.220  13.499  67.881  1.00  0.00    -0.168 C  
ENDBRANCH  16  17
ENDBRANCH   7  16
TORSDOF 2
ENDMDL
MODEL      167
REMARK 921   NORMALIZED FREE ENERGY PREDICTED BY IDOCK:   -3.59 KCAL/MOL
REMARK 922        TOTAL FREE ENERGY PREDICTED BY IDOCK:   -3.74 KCAL/MOL
REMARK 923 INTER-LIGAND FREE ENERGY PREDICTED BY IDOCK:   -3.31 KCAL/MOL
REMARK 924 INTRA-LIGAND FREE ENERGY PREDICTED BY IDOCK:   -0.43 KCAL/MOL
REMARK 927      BINDING AFFINITY PREDICTED BY RF-SCORE:    0.00 PKD
ROOT
HETATM    1  C   UNL     1      -7.173   4.980  72.895  1.00  0.00    -0.085 C  
HETATM    2  N   UNL     1      -8.212   5.244  71.922  1.00  0.00    -0.116 NA 
HETATM    3  C   UNL     1      -8.291   4.725  70.656  1.00  0.00    -0.096 A  
HETATM    4  C   UNL     1      -9.387   5.293  70.028  1.00  0.00    -0.201 A  
HETATM    5  C   UNL     1     -10.038   6.133  70.969  1.00  0.00    -0.231 A  
HETATM    6  C   UNL     1      -9.691   5.000  68.632  1.00  0.00    -0.158 C  
HETATM    7  C   UNL     1      -8.565   4.291  67.870  1.00  0.00    -0.109 C  
HETATM    8  C   UNL     1     -11.193   6.942  70.926  1.00  0.00    -0.332 A  
HETATM    9  O   UNL     1     -10.737   5.346  68.091  1.00  0.00    -0.137 OA 
HETATM   10  C   UNL     1      -7.975   3.169  68.756  1.00  0.00    -0.064 C  
HETATM   11  C   UNL     1      -9.624   6.862  73.270  1.00  0.00    -0.193 A  
HETATM   12  C   UNL     1     -11.548   7.698  72.047  1.00  0.00    -0.334 A  
HETATM   13  C   UNL     1      -7.346   3.749  70.036  1.00  0.00    -0.042 C  
HETATM   14  C   UNL     1     -10.770   7.660  73.200  1.00  0.00    -0.445 A  
HETATM   15  C   UNL     1      -9.275   6.102  72.142  1.00  0.00    -0.141 A  
ENDROOT
BRANCH   7  16
HETATM   16  C   UNL     1      -9.087   3.793  66.521  1.00  0.00    -0.155 C  
BRANCH  16  17
HETATM   17  N   UNL     1      -8.335   4.308  65.390  1.00  0.00    -0.109 NA 
HETATM   18  C   UNL     1      -8.500   5.548  64.830  1.00  0.00    -0.139 A  
HETATM   19  C   UNL     1      -7.534   5.633  63.857  1.00  0.00    -0.067 A  
HETATM   20  N   UNL     1      -6.812   4.474  63.792  1.00  0.00    -0.043 NA 
HETATM   21  C   UNL     1      -7.322   3.674  64.708  1.00  0.00    -0.068 A  
HETATM   22  C   UNL     1      -6.877   2.284  64.983  1.00  0.00    -0.043 C  
ENDBRANCH  16  17
ENDBRANCH   7  16
TORSDOF 2
ENDMDL
MODEL      168
REMARK 921   NORMALIZED FREE ENERGY PREDICTED BY IDOCK:   -3.57 KCAL/MOL
REMARK 922        TOTAL FREE ENERGY PREDICTED BY IDOCK:   -3.72 KCAL/MOL
REMARK 923 INTER-LIGAND FREE ENERGY PREDICTED BY IDOCK:   -3.59 KCAL/MOL
REMARK 924 INTRA-LIGAND FREE ENERGY PREDICTED BY IDOCK:   -0.13 KCAL/MOL
REMARK 927      BINDING AFFINITY PREDICTED BY RF-SCORE:    0.00 PKD
ROOT
HETATM    1  C   UNL     1      -6.163  17.483  68.946  1.00  0.00    -0.201 C  
HETATM    2  N   UNL     1      -7.146  16.635  68.306  1.00  0.00    -0.155 NA 
HETATM    3  C   UNL     1      -7.077  15.274  68.164  1.00  0.00    -0.119 A  
HETATM    4  C   UNL     1      -8.173  14.864  67.424  1.00  0.00    -0.217 A  
HETATM    5  C   UNL     1      -8.974  16.008  67.166  1.00  0.00    -0.220 A  
HETATM    6  C   UNL     1      -8.340  13.469  67.035  1.00  0.00    -0.080 C  
HETATM    7  C   UNL     1      -7.095  12.597  67.237  1.00  0.00    -0.101 C  
HETATM    8  C   UNL     1     -10.197  16.216  66.495  1.00  0.00    -0.304 A  
HETATM    9  O   UNL     1      -9.372  13.037  66.528  1.00  0.00    -0.248 OA 
HETATM   10  C   UNL     1      -6.465  12.917  68.613  1.00  0.00    -0.087 C  
HETATM   11  C   UNL     1      -8.810  18.413  67.597  1.00  0.00    -0.272 A  
HETATM   12  C   UNL     1     -10.709  17.512  66.382  1.00  0.00    -0.083 A  
HETATM   13  C   UNL     1      -5.995  14.382  68.679  1.00  0.00    -0.085 C  
HETATM   14  C   UNL     1     -10.021  18.594  66.922  1.00  0.00    -0.373 A  
HETATM   15  C   UNL     1      -8.302  17.108  67.711  1.00  0.00    -0.202 A  
ENDROOT
BRANCH   7  16
HETATM   16  C   UNL     1      -7.462  11.122  67.061  1.00  0.00    -0.132 C  
BRANCH  16  17
HETATM   17  N   UNL     1      -7.933  10.498  68.286  1.00  0.00    -0.109 NA 
HETATM   18  C   UNL     1      -9.151  10.727  68.870  1.00  0.00    -0.164 A  
HETATM   19  C   UNL     1      -9.198   9.872  69.944  1.00  0.00    -0.212 A  
HETATM   20  N   UNL     1      -8.037   9.157  70.043  1.00  0.00    -0.113 NA 
HETATM   21  C   UNL     1      -7.272   9.563  69.049  1.00  0.00    -0.071 A  
HETATM   22  C   UNL     1      -5.894   9.086  68.771  1.00  0.00    -0.041 C  
ENDBRANCH  16  17
ENDBRANCH   7  16
TORSDOF 2
ENDMDL
MODEL      169
REMARK 921   NORMALIZED FREE ENERGY PREDICTED BY IDOCK:   -3.56 KCAL/MOL
REMARK 922        TOTAL FREE ENERGY PREDICTED BY IDOCK:   -3.71 KCAL/MOL
REMARK 923 INTER-LIGAND FREE ENERGY PREDICTED BY IDOCK:   -3.72 KCAL/MOL
REMARK 924 INTRA-LIGAND FREE ENERGY PREDICTED BY IDOCK:    0.01 KCAL/MOL
REMARK 927      BINDING AFFINITY PREDICTED BY RF-SCORE:    0.00 PKD
ROOT
HETATM    1  C   UNL     1     -11.197   8.464  69.949  1.00  0.00    -0.026 C  
HETATM    2  N   UNL     1     -10.031   9.315  69.836  1.00  0.00    -0.193 NA 
HETATM    3  C   UNL     1      -9.953  10.500  69.153  1.00  0.00    -0.220 A  
HETATM    4  C   UNL     1      -8.646  10.951  69.225  1.00  0.00     0.005 A  
HETATM    5  C   UNL     1      -7.919  10.043  70.039  1.00  0.00    -0.166 A  
HETATM    6  C   UNL     1      -8.226  12.157  68.522  1.00  0.00    -0.104 C  
HETATM    7  C   UNL     1      -9.234  12.680  67.492  1.00  0.00    -0.190 C  
HETATM    8  C   UNL     1      -6.583   9.982  70.487  1.00  0.00    -0.122 A  
HETATM    9  O   UNL     1      -7.128  12.680  68.694  1.00  0.00    -0.089 OA 
HETATM   10  C   UNL     1     -10.656  12.627  68.096  1.00  0.00    -0.241 C  
HETATM   11  C   UNL     1      -8.387   7.925  71.177  1.00  0.00    -0.116 A  
HETATM   12  C   UNL     1      -6.166   8.901  71.268  1.00  0.00    -0.060 A  
HETATM   13  C   UNL     1     -11.065  11.178  68.422  1.00  0.00    -0.303 C  
HETATM   14  C   UNL     1      -7.056   7.885  71.603  1.00  0.00    -0.067 A  
HETATM   15  C   UNL     1      -8.802   9.016  70.395  1.00  0.00    -0.200 A  
ENDROOT
BRANCH   7  16
HETATM   16  C   UNL     1      -8.821  14.076  67.024  1.00  0.00    -0.219 C  
BRANCH  16  17
HETATM   17  N   UNL     1      -9.660  15.133  67.563  1.00  0.00    -0.206 NA 
HETATM   18  C   UNL     1     -10.922  15.438  67.126  1.00  0.00    -0.317 A  
HETATM   19  C   UNL     1     -11.360  16.433  67.965  1.00  0.00    -0.157 A  
HETATM   20  N   UNL     1     -10.392  16.758  68.874  1.00  0.00    -0.297 NA 
HETATM   21  C   UNL     1      -9.362  15.981  68.604  1.00  0.00    -0.214 A  
HETATM   22  C   UNL     1      -8.058  15.999  69.314  1.00  0.00    -0.212 C  
ENDBRANCH  16  17
ENDBRANCH   7  16
TORSDOF 2
ENDMDL
MODEL      170
REMARK 921   NORMALIZED FREE ENERGY PREDICTED BY IDOCK:   -3.51 KCAL/MOL
REMARK 922        TOTAL FREE ENERGY PREDICTED BY IDOCK:   -3.66 KCAL/MOL
REMARK 923 INTER-LIGAND FREE ENERGY PREDICTED BY IDOCK:   -3.31 KCAL/MOL
REMARK 924 INTRA-LIGAND FREE ENERGY PREDICTED BY IDOCK:   -0.34 KCAL/MOL
REMARK 927      BINDING AFFINITY PREDICTED BY RF-SCORE:    0.00 PKD
ROOT
HETATM    1  C   UNL     1      -9.256   2.459  68.727  1.00  0.00    -0.163 C  
HETATM    2  N   UNL     1      -9.135   3.324  69.881  1.00  0.00    -0.113 NA 
HETATM    3  C   UNL     1      -9.465   4.653  69.940  1.00  0.00    -0.167 A  
HETATM    4  C   UNL     1      -9.120   5.125  71.195  1.00  0.00    -0.174 A  
HETATM    5  C   UNL     1      -8.627   4.029  71.950  1.00  0.00    -0.118 A  
HETATM    6  C   UNL     1      -9.276   6.534  71.538  1.00  0.00    -0.144 C  
HETATM    7  C   UNL     1      -9.545   7.456  70.343  1.00  0.00    -0.165 C  
HETATM    8  C   UNL     1      -8.153   3.883  73.270  1.00  0.00    -0.088 A  
HETATM    9  O   UNL     1      -9.142   6.959  72.682  1.00  0.00    -0.135 OA 
HETATM   10  C   UNL     1     -10.589   6.795  69.413  1.00  0.00    -0.265 C  
HETATM   11  C   UNL     1      -8.159   1.661  71.530  1.00  0.00    -0.042 A  
HETATM   12  C   UNL     1      -7.689   2.637  73.703  1.00  0.00    -0.051 A  
HETATM   13  C   UNL     1     -10.058   5.469  68.838  1.00  0.00    -0.266 C  
HETATM   14  C   UNL     1      -7.689   1.544  72.841  1.00  0.00    -0.033 A  
HETATM   15  C   UNL     1      -8.628   2.915  71.102  1.00  0.00    -0.064 A  
ENDROOT
BRANCH   7  16
HETATM   16  C   UNL     1      -9.960   8.841  70.840  1.00  0.00    -0.222 C  
BRANCH  16  17
HETATM   17  N   UNL     1      -9.596   9.911  69.928  1.00  0.00    -0.233 NA 
HETATM   18  C   UNL     1      -8.422   9.983  69.225  1.00  0.00    -0.163 A  
HETATM   19  C   UNL     1      -8.545  11.103  68.439  1.00  0.00    -0.152 A  
HETATM   20  N   UNL     1      -9.741  11.724  68.667  1.00  0.00    -0.168 NA 
HETATM   21  C   UNL     1     -10.356  11.006  69.586  1.00  0.00     0.043 A  
HETATM   22  C   UNL     1     -11.682  11.315  70.178  1.00  0.00    -0.429 C  
ENDBRANCH  16  17
ENDBRANCH   7  16
TORSDOF 2
ENDMDL
MODEL      171
REMARK 921   NORMALIZED FREE ENERGY PREDICTED BY IDOCK:   -3.51 KCAL/MOL
REMARK 922        TOTAL FREE ENERGY PREDICTED BY IDOCK:   -3.66 KCAL/MOL
REMARK 923 INTER-LIGAND FREE ENERGY PREDICTED BY IDOCK:   -4.01 KCAL/MOL
REMARK 924 INTRA-LIGAND FREE ENERGY PREDICTED BY IDOCK:    0.36 KCAL/MOL
REMARK 927      BINDING AFFINITY PREDICTED BY RF-SCORE:    0.00 PKD
ROOT
HETATM    1  C   UNL     1     -11.794   7.100  71.933  1.00  0.00    -0.300 C  
HETATM    2  N   UNL     1     -10.527   7.783  71.777  1.00  0.00    -0.211 NA 
HETATM    3  C   UNL     1     -10.171   8.611  70.744  1.00  0.00    -0.204 A  
HETATM    4  C   UNL     1      -8.852   8.988  70.932  1.00  0.00    -0.294 A  
HETATM    5  C   UNL     1      -8.412   8.427  72.159  1.00  0.00    -0.245 A  
HETATM    6  C   UNL     1      -8.157   9.811  69.949  1.00  0.00    -0.182 C  
HETATM    7  C   UNL     1      -8.882   9.949  68.605  1.00  0.00    -0.128 C  
HETATM    8  C   UNL     1      -7.201   8.474  72.880  1.00  0.00    -0.053 A  
HETATM    9  O   UNL     1      -7.051  10.303  70.155  1.00  0.00    -0.147 OA 
HETATM   10  C   UNL     1     -10.386  10.203  68.860  1.00  0.00    -0.223 C  
HETATM   11  C   UNL     1      -9.352   6.932  73.857  1.00  0.00    -0.241 A  
HETATM   12  C   UNL     1      -7.078   7.755  74.072  1.00  0.00    -0.139 A  
HETATM   13  C   UNL     1     -11.032   9.012  69.592  1.00  0.00    -0.147 C  
HETATM   14  C   UNL     1      -8.139   6.991  74.549  1.00  0.00    -0.176 A  
HETATM   15  C   UNL     1      -9.471   7.660  72.661  1.00  0.00    -0.176 A  
ENDROOT
BRANCH   7  16
HETATM   16  C   UNL     1      -8.212  11.037  67.765  1.00  0.00    -0.117 C  
BRANCH  16  17
HETATM   17  N   UNL     1      -8.724  12.369  68.037  1.00  0.00    -0.179 NA 
HETATM   18  C   UNL     1     -10.029  12.759  67.886  1.00  0.00    -0.229 A  
HETATM   19  C   UNL     1     -10.068  14.057  68.334  1.00  0.00    -0.236 A  
HETATM   20  N   UNL     1      -8.823  14.471  68.721  1.00  0.00    -0.177 NA 
HETATM   21  C   UNL     1      -8.017  13.449  68.514  1.00  0.00    -0.107 A  
HETATM   22  C   UNL     1      -6.554  13.441  68.760  1.00  0.00    -0.102 C  
ENDBRANCH  16  17
ENDBRANCH   7  16
TORSDOF 2
ENDMDL
MODEL      172
REMARK 921   NORMALIZED FREE ENERGY PREDICTED BY IDOCK:   -3.38 KCAL/MOL
REMARK 922        TOTAL FREE ENERGY PREDICTED BY IDOCK:   -3.51 KCAL/MOL
REMARK 923 INTER-LIGAND FREE ENERGY PREDICTED BY IDOCK:   -3.76 KCAL/MOL
REMARK 924 INTRA-LIGAND FREE ENERGY PREDICTED BY IDOCK:    0.25 KCAL/MOL
REMARK 927      BINDING AFFINITY PREDICTED BY RF-SCORE:    0.00 PKD
ROOT
HETATM    1  C   UNL     1      -7.681   8.459  62.490  1.00  0.00    -0.125 C  
HETATM    2  N   UNL     1      -7.956   8.091  63.863  1.00  0.00    -0.143 NA 
HETATM    3  C   UNL     1      -8.144   8.952  64.913  1.00  0.00    -0.144 A  
HETATM    4  C   UNL     1      -8.296   8.197  66.063  1.00  0.00    -0.132 A  
HETATM    5  C   UNL     1      -8.269   6.827  65.690  1.00  0.00    -0.134 A  
HETATM    6  C   UNL     1      -8.435   8.832  67.368  1.00  0.00    -0.116 C  
HETATM    7  C   UNL     1      -8.097  10.328  67.389  1.00  0.00    -0.110 C  
HETATM    8  C   UNL     1      -8.393   5.615  66.400  1.00  0.00    -0.112 A  
HETATM    9  O   UNL     1      -8.737   8.211  68.383  1.00  0.00    -0.133 OA 
HETATM   10  C   UNL     1      -8.730  11.012  66.155  1.00  0.00    -0.188 C  
HETATM   11  C   UNL     1      -7.913   5.567  63.620  1.00  0.00    -0.108 A  
HETATM   12  C   UNL     1      -8.276   4.400  65.718  1.00  0.00    -0.109 A  
HETATM   13  C   UNL     1      -8.148  10.444  64.847  1.00  0.00    -0.130 C  
HETATM   14  C   UNL     1      -8.035   4.379  64.348  1.00  0.00    -0.091 A  
HETATM   15  C   UNL     1      -8.036   6.785  64.310  1.00  0.00    -0.087 A  
ENDROOT
BRANCH   7  16
HETATM   16  C   UNL     1      -8.536  10.940  68.720  1.00  0.00    -0.150 C  
BRANCH  16  17
HETATM   17  N   UNL     1      -9.907  11.419  68.706  1.00  0.00    -0.194 NA 
HETATM   18  C   UNL     1     -10.359  12.497  67.990  1.00  0.00    -0.222 A  
HETATM   19  C   UNL     1     -11.715  12.528  68.209  1.00  0.00    -0.340 A  
HETATM   20  N   UNL     1     -12.090  11.523  69.057  1.00  0.00    -0.382 NA 
HETATM   21  C   UNL     1     -10.984  10.876  69.368  1.00  0.00    -0.252 A  
HETATM   22  C   UNL     1     -10.893   9.719  70.293  1.00  0.00    -0.356 C  
ENDBRANCH  16  17
ENDBRANCH   7  16
TORSDOF 2
ENDMDL
MODEL      173
REMARK 921   NORMALIZED FREE ENERGY PREDICTED BY IDOCK:   -3.35 KCAL/MOL
REMARK 922        TOTAL FREE ENERGY PREDICTED BY IDOCK:   -3.47 KCAL/MOL
REMARK 923 INTER-LIGAND FREE ENERGY PREDICTED BY IDOCK:   -4.09 KCAL/MOL
REMARK 924 INTRA-LIGAND FREE ENERGY PREDICTED BY IDOCK:    0.62 KCAL/MOL
REMARK 927      BINDING AFFINITY PREDICTED BY RF-SCORE:    0.00 PKD
ROOT
HETATM    1  C   UNL     1      -5.135  14.870  71.485  1.00  0.00    -0.151 C  
HETATM    2  N   UNL     1      -5.931  15.327  70.366  1.00  0.00    -0.125 NA 
HETATM    3  C   UNL     1      -6.648  14.540  69.503  1.00  0.00    -0.143 A  
HETATM    4  C   UNL     1      -7.196  15.359  68.530  1.00  0.00    -0.114 A  
HETATM    5  C   UNL     1      -6.858  16.700  68.852  1.00  0.00    -0.191 A  
HETATM    6  C   UNL     1      -7.954  14.802  67.416  1.00  0.00    -0.197 C  
HETATM    7  C   UNL     1      -7.827  13.283  67.254  1.00  0.00    -0.118 C  
HETATM    8  C   UNL     1      -7.140  17.950  68.263  1.00  0.00    -0.232 A  
HETATM    9  O   UNL     1      -8.592  15.498  66.631  1.00  0.00    -0.249 OA 
HETATM   10  C   UNL     1      -7.939  12.610  68.642  1.00  0.00    -0.030 C  
HETATM   11  C   UNL     1      -5.506  17.820  70.561  1.00  0.00    -0.245 A  
HETATM   12  C   UNL     1      -6.605  19.114  68.824  1.00  0.00    -0.306 A  
HETATM   13  C   UNL     1      -6.790  13.055  69.567  1.00  0.00     0.099 C  
HETATM   14  C   UNL     1      -5.796  19.046  69.954  1.00  0.00    -0.272 A  
HETATM   15  C   UNL     1      -6.049  16.655  69.994  1.00  0.00    -0.148 A  
ENDROOT
BRANCH   7  16
HETATM   16  C   UNL     1      -8.861  12.781  66.247  1.00  0.00     0.140 C  
BRANCH  16  17
HETATM   17  N   UNL     1     -10.232  13.028  66.661  1.00  0.00    -0.252 NA 
HETATM   18  C   UNL     1     -10.818  12.522  67.791  1.00  0.00    -0.225 A  
HETATM   19  C   UNL     1     -12.074  13.078  67.822  1.00  0.00    -0.193 A  
HETATM   20  N   UNL     1     -12.274  13.878  66.732  1.00  0.00    -0.426 NA 
HETATM   21  C   UNL     1     -11.161  13.820  66.027  1.00  0.00    -0.304 A  
HETATM   22  C   UNL     1     -10.923  14.509  64.734  1.00  0.00    -0.404 C  
ENDBRANCH  16  17
ENDBRANCH   7  16
TORSDOF 2
ENDMDL
MODEL      174
REMARK 921   NORMALIZED FREE ENERGY PREDICTED BY IDOCK:   -3.29 KCAL/MOL
REMARK 922        TOTAL FREE ENERGY PREDICTED BY IDOCK:   -3.41 KCAL/MOL
REMARK 923 INTER-LIGAND FREE ENERGY PREDICTED BY IDOCK:   -4.47 KCAL/MOL
REMARK 924 INTRA-LIGAND FREE ENERGY PREDICTED BY IDOCK:    1.06 KCAL/MOL
REMARK 927      BINDING AFFINITY PREDICTED BY RF-SCORE:    0.00 PKD
ROOT
HETATM    1  C   UNL     1     -13.677   9.070  72.376  1.00  0.00    -0.479 C  
HETATM    2  N   UNL     1     -12.354   9.040  71.790  1.00  0.00    -0.342 NA 
HETATM    3  C   UNL     1     -11.331   8.195  72.134  1.00  0.00    -0.336 A  
HETATM    4  C   UNL     1     -10.215   8.551  71.396  1.00  0.00    -0.303 A  
HETATM    5  C   UNL     1     -10.591   9.604  70.521  1.00  0.00    -0.369 A  
HETATM    6  C   UNL     1      -8.935   7.883  71.598  1.00  0.00    -0.138 C  
HETATM    7  C   UNL     1      -8.861   7.013  72.859  1.00  0.00    -0.146 C  
HETATM    8  C   UNL     1      -9.912  10.349  69.536  1.00  0.00    -0.229 A  
HETATM    9  O   UNL     1      -7.972   8.050  70.855  1.00  0.00    -0.088 OA 
HETATM   10  C   UNL     1     -10.161   6.186  72.987  1.00  0.00    -0.194 C  
HETATM   11  C   UNL     1     -12.607  10.939  70.128  1.00  0.00    -0.304 A  
HETATM   12  C   UNL     1     -10.581  11.375  68.862  1.00  0.00    -0.234 A  
HETATM   13  C   UNL     1     -11.387   7.105  73.153  1.00  0.00    -0.133 C  
HETATM   14  C   UNL     1     -11.909  11.667  69.160  1.00  0.00    -0.390 A  
HETATM   15  C   UNL     1     -11.930   9.907  70.799  1.00  0.00    -0.323 A  
ENDROOT
BRANCH   7  16
HETATM   16  C   UNL     1      -7.594   6.158  72.824  1.00  0.00    -0.101 C  
BRANCH  16  17
HETATM   17  N   UNL     1      -7.814   4.828  72.283  1.00  0.00    -0.096 NA 
HETATM   18  C   UNL     1      -8.984   4.121  72.380  1.00  0.00    -0.111 A  
HETATM   19  C   UNL     1      -8.766   2.969  71.663  1.00  0.00    -0.074 A  
HETATM   20  N   UNL     1      -7.493   2.946  71.163  1.00  0.00    -0.033 NA 
HETATM   21  C   UNL     1      -6.922   4.064  71.566  1.00  0.00    -0.035 A  
HETATM   22  C   UNL     1      -5.520   4.464  71.290  1.00  0.00    -0.011 C  
ENDBRANCH  16  17
ENDBRANCH   7  16
TORSDOF 2
ENDMDL
MODEL      175
REMARK 921   NORMALIZED FREE ENERGY PREDICTED BY IDOCK:   -3.26 KCAL/MOL
REMARK 922        TOTAL FREE ENERGY PREDICTED BY IDOCK:   -3.37 KCAL/MOL
REMARK 923 INTER-LIGAND FREE ENERGY PREDICTED BY IDOCK:   -3.19 KCAL/MOL
REMARK 924 INTRA-LIGAND FREE ENERGY PREDICTED BY IDOCK:   -0.18 KCAL/MOL
REMARK 927      BINDING AFFINITY PREDICTED BY RF-SCORE:    0.00 PKD
ROOT
HETATM    1  C   UNL     1      -6.214   2.848  66.059  1.00  0.00    -0.024 C  
HETATM    2  N   UNL     1      -7.494   3.518  65.970  1.00  0.00    -0.075 NA 
HETATM    3  C   UNL     1      -7.932   4.544  66.767  1.00  0.00    -0.102 A  
HETATM    4  C   UNL     1      -9.236   4.839  66.407  1.00  0.00    -0.135 A  
HETATM    5  C   UNL     1      -9.580   4.011  65.306  1.00  0.00    -0.185 A  
HETATM    6  C   UNL     1     -10.009   5.840  67.132  1.00  0.00    -0.159 C  
HETATM    7  C   UNL     1      -9.387   6.287  68.461  1.00  0.00    -0.121 C  
HETATM    8  C   UNL     1     -10.734   3.871  64.509  1.00  0.00    -0.172 A  
HETATM    9  O   UNL     1     -11.100   6.248  66.745  1.00  0.00    -0.343 OA 
HETATM   10  C   UNL     1      -7.870   6.515  68.264  1.00  0.00    -0.106 C  
HETATM   11  C   UNL     1      -8.504   2.203  64.051  1.00  0.00    -0.082 A  
HETATM   12  C   UNL     1     -10.762   2.904  63.499  1.00  0.00    -0.228 A  
HETATM   13  C   UNL     1      -7.162   5.208  67.860  1.00  0.00    -0.067 C  
HETATM   14  C   UNL     1      -9.663   2.080  63.278  1.00  0.00    -0.104 A  
HETATM   15  C   UNL     1      -8.480   3.179  65.062  1.00  0.00    -0.096 A  
ENDROOT
BRANCH   7  16
HETATM   16  C   UNL     1     -10.126   7.516  68.991  1.00  0.00    -0.192 C  
BRANCH  16  17
HETATM   17  N   UNL     1      -9.310   8.718  68.996  1.00  0.00    -0.145 NA 
HETATM   18  C   UNL     1      -8.527   9.136  70.040  1.00  0.00    -0.157 A  
HETATM   19  C   UNL     1      -7.880  10.256  69.577  1.00  0.00    -0.168 A  
HETATM   20  N   UNL     1      -8.270  10.543  68.298  1.00  0.00    -0.113 NA 
HETATM   21  C   UNL     1      -9.152   9.620  67.969  1.00  0.00    -0.125 A  
HETATM   22  C   UNL     1      -9.877   9.542  66.676  1.00  0.00    -0.293 C  
ENDBRANCH  16  17
ENDBRANCH   7  16
TORSDOF 2
ENDMDL
MODEL      176
REMARK 921   NORMALIZED FREE ENERGY PREDICTED BY IDOCK:   -3.22 KCAL/MOL
REMARK 922        TOTAL FREE ENERGY PREDICTED BY IDOCK:   -3.33 KCAL/MOL
REMARK 923 INTER-LIGAND FREE ENERGY PREDICTED BY IDOCK:   -3.17 KCAL/MOL
REMARK 924 INTRA-LIGAND FREE ENERGY PREDICTED BY IDOCK:   -0.16 KCAL/MOL
REMARK 927      BINDING AFFINITY PREDICTED BY RF-SCORE:    0.00 PKD
ROOT
HETATM    1  C   UNL     1      -8.607   9.324  64.017  1.00  0.00    -0.186 C  
HETATM    2  N   UNL     1      -8.906   9.400  65.431  1.00  0.00    -0.171 NA 
HETATM    3  C   UNL     1      -8.519   8.503  66.393  1.00  0.00    -0.117 A  
HETATM    4  C   UNL     1      -9.079   8.898  67.596  1.00  0.00    -0.144 A  
HETATM    5  C   UNL     1      -9.775  10.115  67.372  1.00  0.00    -0.192 A  
HETATM    6  C   UNL     1      -8.915   8.095  68.802  1.00  0.00    -0.144 C  
HETATM    7  C   UNL     1      -8.361   6.686  68.560  1.00  0.00    -0.122 C  
HETATM    8  C   UNL     1     -10.510  10.989  68.198  1.00  0.00    -0.216 A  
HETATM    9  O   UNL     1      -9.250   8.489  69.915  1.00  0.00    -0.151 OA 
HETATM   10  C   UNL     1      -7.192   6.763  67.551  1.00  0.00    -0.090 C  
HETATM   11  C   UNL     1     -10.285  11.529  65.438  1.00  0.00    -0.311 A  
HETATM   12  C   UNL     1     -11.122  12.116  67.640  1.00  0.00    -0.320 A  
HETATM   13  C   UNL     1      -7.673   7.290  66.186  1.00  0.00    -0.101 C  
HETATM   14  C   UNL     1     -11.013  12.377  66.278  1.00  0.00    -0.323 A  
HETATM   15  C   UNL     1      -9.669  10.400  66.005  1.00  0.00    -0.211 A  
ENDROOT
BRANCH   7  16
HETATM   16  C   UNL     1      -7.975   6.045  69.894  1.00  0.00    -0.113 C  
BRANCH  16  17
HETATM   17  N   UNL     1      -7.009   4.968  69.755  1.00  0.00    -0.052 NA 
HETATM   18  C   UNL     1      -5.672   5.067  70.038  1.00  0.00    -0.016 A  
HETATM   19  C   UNL     1      -5.171   3.802  69.844  1.00  0.00    -0.008 A  
HETATM   20  N   UNL     1      -6.157   2.952  69.426  1.00  0.00    -0.024 NA 
HETATM   21  C   UNL     1      -7.257   3.676  69.353  1.00  0.00    -0.049 A  
HETATM   22  C   UNL     1      -8.585   3.184  68.910  1.00  0.00    -0.112 C  
ENDBRANCH  16  17
ENDBRANCH   7  16
TORSDOF 2
ENDMDL
MODEL      177
REMARK 921   NORMALIZED FREE ENERGY PREDICTED BY IDOCK:   -3.20 KCAL/MOL
REMARK 922        TOTAL FREE ENERGY PREDICTED BY IDOCK:   -3.31 KCAL/MOL
REMARK 923 INTER-LIGAND FREE ENERGY PREDICTED BY IDOCK:   -3.23 KCAL/MOL
REMARK 924 INTRA-LIGAND FREE ENERGY PREDICTED BY IDOCK:   -0.07 KCAL/MOL
REMARK 927      BINDING AFFINITY PREDICTED BY RF-SCORE:    0.00 PKD
ROOT
HETATM    1  C   UNL     1      -7.484  15.876  69.027  1.00  0.00    -0.194 C  
HETATM    2  N   UNL     1      -8.204  14.654  68.736  1.00  0.00    -0.155 NA 
HETATM    3  C   UNL     1      -7.730  13.376  68.884  1.00  0.00     0.049 A  
HETATM    4  C   UNL     1      -8.698  12.503  68.418  1.00  0.00    -0.122 A  
HETATM    5  C   UNL     1      -9.829  13.273  68.038  1.00  0.00    -0.230 A  
HETATM    6  C   UNL     1      -8.456  11.066  68.370  1.00  0.00    -0.144 C  
HETATM    7  C   UNL     1      -6.992  10.659  68.573  1.00  0.00    -0.067 C  
HETATM    8  C   UNL     1     -11.102  12.955  67.523  1.00  0.00    -0.302 A  
HETATM    9  O   UNL     1      -9.339  10.250  68.124  1.00  0.00    -0.137 OA 
HETATM   10  C   UNL     1      -6.391  11.477  69.740  1.00  0.00    -0.140 C  
HETATM   11  C   UNL     1     -10.382  15.656  67.908  1.00  0.00    -0.259 A  
HETATM   12  C   UNL     1     -11.996  13.983  67.207  1.00  0.00    -0.448 A  
HETATM   13  C   UNL     1      -6.391  12.983  69.417  1.00  0.00    -0.111 C  
HETATM   14  C   UNL     1     -11.636  15.314  67.393  1.00  0.00    -0.196 A  
HETATM   15  C   UNL     1      -9.490  14.618  68.227  1.00  0.00    -0.211 A  
ENDROOT
BRANCH   7  16
HETATM   16  C   UNL     1      -6.899   9.146  68.776  1.00  0.00    -0.061 C  
BRANCH  16  17
HETATM   17  N   UNL     1      -6.466   8.772  70.112  1.00  0.00    -0.037 NA 
HETATM   18  C   UNL     1      -5.195   8.390  70.451  1.00  0.00    -0.022 A  
HETATM   19  C   UNL     1      -5.225   8.214  71.813  1.00  0.00    -0.034 A  
HETATM   20  N   UNL     1      -6.481   8.450  72.301  1.00  0.00    -0.074 NA 
HETATM   21  C   UNL     1      -7.225   8.763  71.259  1.00  0.00    -0.095 A  
HETATM   22  C   UNL     1      -8.677   9.071  71.298  1.00  0.00    -0.240 C  
ENDBRANCH  16  17
ENDBRANCH   7  16
TORSDOF 2
ENDMDL
MODEL      178
REMARK 921   NORMALIZED FREE ENERGY PREDICTED BY IDOCK:   -3.08 KCAL/MOL
REMARK 922        TOTAL FREE ENERGY PREDICTED BY IDOCK:   -3.17 KCAL/MOL
REMARK 923 INTER-LIGAND FREE ENERGY PREDICTED BY IDOCK:   -2.89 KCAL/MOL
REMARK 924 INTRA-LIGAND FREE ENERGY PREDICTED BY IDOCK:   -0.27 KCAL/MOL
REMARK 927      BINDING AFFINITY PREDICTED BY RF-SCORE:    0.00 PKD
ROOT
HETATM    1  C   UNL     1      -6.802   9.827  69.312  1.00  0.00    -0.055 C  
HETATM    2  N   UNL     1      -8.061  10.541  69.298  1.00  0.00    -0.155 NA 
HETATM    3  C   UNL     1      -8.329  11.703  68.623  1.00  0.00    -0.100 A  
HETATM    4  C   UNL     1      -9.618  12.096  68.941  1.00  0.00     0.133 A  
HETATM    5  C   UNL     1     -10.179  11.102  69.785  1.00  0.00     0.318 A  
HETATM    6  C   UNL     1     -10.169  13.349  68.437  1.00  0.00    -0.251 C  
HETATM    7  C   UNL     1      -9.137  14.296  67.814  1.00  0.00    -0.195 C  
HETATM    8  C   UNL     1     -11.435  10.936  70.402  1.00  0.00    -0.367 A  
HETATM    9  O   UNL     1     -11.353  13.651  68.556  1.00  0.00    -0.254 OA 
HETATM   10  C   UNL     1      -8.180  13.485  66.909  1.00  0.00     0.046 C  
HETATM   11  C   UNL     1      -9.395   9.036  70.844  1.00  0.00    -0.326 A  
HETATM   12  C   UNL     1     -11.657   9.830  71.229  1.00  0.00    -0.465 A  
HETATM   13  C   UNL     1      -7.391  12.446  67.728  1.00  0.00    -0.123 C  
HETATM   14  C   UNL     1     -10.648   8.898  71.449  1.00  0.00    -0.374 A  
HETATM   15  C   UNL     1      -9.180  10.147  70.011  1.00  0.00     0.005 A  
ENDROOT
BRANCH   7  16
HETATM   16  C   UNL     1      -9.851  15.433  67.083  1.00  0.00    -0.221 C  
BRANCH  16  17
HETATM   17  N   UNL     1      -9.002  16.589  66.852  1.00  0.00    -0.207 NA 
HETATM   18  C   UNL     1      -8.259  16.809  65.722  1.00  0.00     0.367 A  
HETATM   19  C   UNL     1      -7.691  18.046  65.903  1.00  0.00    -0.095 A  
HETATM   20  N   UNL     1      -8.043  18.566  67.117  1.00  0.00    -0.240 NA 
HETATM   21  C   UNL     1      -8.817  17.664  67.690  1.00  0.00    -0.236 A  
HETATM   22  C   UNL     1      -9.417  17.777  69.042  1.00  0.00    -0.098 C  
ENDBRANCH  16  17
ENDBRANCH   7  16
TORSDOF 2
ENDMDL
MODEL      179
REMARK 921   NORMALIZED FREE ENERGY PREDICTED BY IDOCK:   -3.04 KCAL/MOL
REMARK 922        TOTAL FREE ENERGY PREDICTED BY IDOCK:   -3.13 KCAL/MOL
REMARK 923 INTER-LIGAND FREE ENERGY PREDICTED BY IDOCK:   -3.49 KCAL/MOL
REMARK 924 INTRA-LIGAND FREE ENERGY PREDICTED BY IDOCK:    0.36 KCAL/MOL
REMARK 927      BINDING AFFINITY PREDICTED BY RF-SCORE:    0.00 PKD
ROOT
HETATM    1  C   UNL     1      -6.489   7.674  63.129  1.00  0.00    -0.062 C  
HETATM    2  N   UNL     1      -7.359   6.907  63.995  1.00  0.00    -0.079 NA 
HETATM    3  C   UNL     1      -8.193   7.408  64.960  1.00  0.00    -0.098 A  
HETATM    4  C   UNL     1      -8.782   6.339  65.614  1.00  0.00    -0.122 A  
HETATM    5  C   UNL     1      -8.344   5.147  64.978  1.00  0.00    -0.144 A  
HETATM    6  C   UNL     1      -9.667   6.549  66.754  1.00  0.00    -0.164 C  
HETATM    7  C   UNL     1      -9.637   7.969  67.332  1.00  0.00    -0.196 C  
HETATM    8  C   UNL     1      -8.612   3.777  65.175  1.00  0.00    -0.113 A  
HETATM    9  O   UNL     1     -10.336   5.648  67.252  1.00  0.00    -0.192 OA 
HETATM   10  C   UNL     1      -9.658   8.993  66.174  1.00  0.00    -0.341 C  
HETATM   11  C   UNL     1      -6.785   4.575  63.178  1.00  0.00    -0.034 A  
HETATM   12  C   UNL     1      -7.966   2.826  64.378  1.00  0.00    -0.082 A  
HETATM   13  C   UNL     1      -8.408   8.849  65.285  1.00  0.00    -0.168 C  
HETATM   14  C   UNL     1      -7.063   3.222  63.398  1.00  0.00    -0.049 A  
HETATM   15  C   UNL     1      -7.439   5.526  63.980  1.00  0.00    -0.062 A  
ENDROOT
BRANCH   7  16
HETATM   16  C   UNL     1     -10.785   8.147  68.327  1.00  0.00    -0.016 C  
BRANCH  16  17
HETATM   17  N   UNL     1     -10.995   9.531  68.717  1.00  0.00    -0.137 NA 
HETATM   18  C   UNL     1     -11.407  10.533  67.879  1.00  0.00    -0.222 A  
HETATM   19  C   UNL     1     -11.550  11.637  68.685  1.00  0.00    -0.312 A  
HETATM   20  N   UNL     1     -11.208  11.339  69.975  1.00  0.00    -0.197 NA 
HETATM   21  C   UNL     1     -10.852  10.069  69.975  1.00  0.00    -0.302 A  
HETATM   22  C   UNL     1     -10.370   9.309  71.155  1.00  0.00    -0.392 C  
ENDBRANCH  16  17
ENDBRANCH   7  16
TORSDOF 2
ENDMDL
MODEL      180
REMARK 921   NORMALIZED FREE ENERGY PREDICTED BY IDOCK:   -2.84 KCAL/MOL
REMARK 922        TOTAL FREE ENERGY PREDICTED BY IDOCK:   -2.90 KCAL/MOL
REMARK 923 INTER-LIGAND FREE ENERGY PREDICTED BY IDOCK:   -2.99 KCAL/MOL
REMARK 924 INTRA-LIGAND FREE ENERGY PREDICTED BY IDOCK:    0.08 KCAL/MOL
REMARK 927      BINDING AFFINITY PREDICTED BY RF-SCORE:    0.00 PKD
ROOT
HETATM    1  C   UNL     1      -6.383   9.940  65.496  1.00  0.00    -0.086 C  
HETATM    2  N   UNL     1      -7.401  10.932  65.771  1.00  0.00    -0.056 NA 
HETATM    3  C   UNL     1      -7.331  11.930  66.709  1.00  0.00    -0.011 A  
HETATM    4  C   UNL     1      -8.541  12.603  66.708  1.00  0.00    -0.101 A  
HETATM    5  C   UNL     1      -9.350  12.041  65.685  1.00  0.00    -0.086 A  
HETATM    6  C   UNL     1      -8.806  13.676  67.660  1.00  0.00    -0.194 C  
HETATM    7  C   UNL     1      -7.797  13.772  68.810  1.00  0.00    -0.059 C  
HETATM    8  C   UNL     1     -10.645  12.313  65.200  1.00  0.00    -0.320 A  
HETATM    9  O   UNL     1      -9.791  14.404  67.584  1.00  0.00    -0.220 OA 
HETATM   10  C   UNL     1      -6.365  13.611  68.248  1.00  0.00    -0.107 C  
HETATM   11  C   UNL     1      -9.156  10.183  64.101  1.00  0.00    -0.287 A  
HETATM   12  C   UNL     1     -11.180  11.522  64.178  1.00  0.00    -0.393 A  
HETATM   13  C   UNL     1      -6.175  12.224  67.607  1.00  0.00    -0.120 C  
HETATM   14  C   UNL     1     -10.445  10.470  63.641  1.00  0.00     0.178 A  
HETATM   15  C   UNL     1      -8.623  10.983  65.125  1.00  0.00    -0.013 A  
ENDROOT
BRANCH   7  16
HETATM   16  C   UNL     1      -8.009  15.077  69.577  1.00  0.00    -0.135 C  
BRANCH  16  17
HETATM   17  N   UNL     1      -6.953  16.050  69.357  1.00  0.00    -0.212 NA 
HETATM   18  C   UNL     1      -5.957  16.349  70.250  1.00  0.00    -0.064 A  
HETATM   19  C   UNL     1      -5.149  17.247  69.596  1.00  0.00    -0.164 A  
HETATM   20  N   UNL     1      -5.642  17.522  68.351  1.00  0.00    -0.149 NA 
HETATM   21  C   UNL     1      -6.745  16.810  68.229  1.00  0.00    -0.154 A  
HETATM   22  C   UNL     1      -7.644  16.809  67.049  1.00  0.00    -0.235 C  
ENDBRANCH  16  17
ENDBRANCH   7  16
TORSDOF 2
ENDMDL
MODEL      181
REMARK 921   NORMALIZED FREE ENERGY PREDICTED BY IDOCK:   -2.36 KCAL/MOL
REMARK 922        TOTAL FREE ENERGY PREDICTED BY IDOCK:   -2.37 KCAL/MOL
REMARK 923 INTER-LIGAND FREE ENERGY PREDICTED BY IDOCK:   -2.81 KCAL/MOL
REMARK 924 INTRA-LIGAND FREE ENERGY PREDICTED BY IDOCK:    0.44 KCAL/MOL
REMARK 927      BINDING AFFINITY PREDICTED BY RF-SCORE:    0.00 PKD
ROOT
HETATM    1  C   UNL     1      -6.954  16.166  68.992  1.00  0.00    -0.178 C  
HETATM    2  N   UNL     1      -7.673  14.913  68.892  1.00  0.00    -0.138 NA 
HETATM    3  C   UNL     1      -7.139  13.657  69.021  1.00  0.00    -0.077 A  
HETATM    4  C   UNL     1      -8.144  12.737  68.774  1.00  0.00     0.090 A  
HETATM    5  C   UNL     1      -9.348  13.459  68.557  1.00  0.00    -0.097 A  
HETATM    6  C   UNL     1      -7.867  11.306  68.757  1.00  0.00    -0.139 C  
HETATM    7  C   UNL     1      -6.377  10.945  68.724  1.00  0.00    -0.048 C  
HETATM    8  C   UNL     1     -10.680  13.083  68.287  1.00  0.00    -0.261 A  
HETATM    9  O   UNL     1      -8.753  10.457  68.709  1.00  0.00    -0.129 OA 
HETATM   10  C   UNL     1      -5.612  11.840  69.727  1.00  0.00    -0.091 C  
HETATM   11  C   UNL     1      -9.991  15.817  68.404  1.00  0.00    -0.217 A  
HETATM   12  C   UNL     1     -11.647  14.071  68.078  1.00  0.00    -0.372 A  
HETATM   13  C   UNL     1      -5.717  13.325  69.333  1.00  0.00    -0.088 C  
HETATM   14  C   UNL     1     -11.304  15.418  68.132  1.00  0.00    -0.353 A  
HETATM   15  C   UNL     1      -9.025  14.820  68.617  1.00  0.00    -0.185 A  
ENDROOT
BRANCH   7  16
HETATM   16  C   UNL     1      -6.202   9.448  68.984  1.00  0.00    -0.042 C  
BRANCH  16  17
HETATM   17  N   UNL     1      -6.762   8.614  67.935  1.00  0.00    -0.065 NA 
HETATM   18  C   UNL     1      -7.571   7.527  68.138  1.00  0.00    -0.114 A  
HETATM   19  C   UNL     1      -7.924   7.103  66.880  1.00  0.00    -0.115 A  
HETATM   20  N   UNL     1      -7.331   7.882  65.925  1.00  0.00    -0.075 NA 
HETATM   21  C   UNL     1      -6.613   8.775  66.577  1.00  0.00    -0.063 A  
HETATM   22  C   UNL     1      -5.762   9.819  65.952  1.00  0.00    -0.051 C  
ENDBRANCH  16  17
ENDBRANCH   7  16
TORSDOF 2
ENDMDL
MODEL      182
REMARK 921   NORMALIZED FREE ENERGY PREDICTED BY IDOCK:   -2.35 KCAL/MOL
REMARK 922        TOTAL FREE ENERGY PREDICTED BY IDOCK:   -2.36 KCAL/MOL
REMARK 923 INTER-LIGAND FREE ENERGY PREDICTED BY IDOCK:   -2.70 KCAL/MOL
REMARK 924 INTRA-LIGAND FREE ENERGY PREDICTED BY IDOCK:    0.34 KCAL/MOL
REMARK 927      BINDING AFFINITY PREDICTED BY RF-SCORE:    0.00 PKD
ROOT
HETATM    1  C   UNL     1     -12.691  14.122  69.526  1.00  0.00     0.227 C  
HETATM    2  N   UNL     1     -11.413  13.957  68.868  1.00  0.00    -0.279 NA 
HETATM    3  C   UNL     1     -10.711  14.927  68.200  1.00  0.00    -0.251 A  
HETATM    4  C   UNL     1      -9.585  14.338  67.649  1.00  0.00    -0.219 A  
HETATM    5  C   UNL     1      -9.565  12.978  68.055  1.00  0.00    -0.224 A  
HETATM    6  C   UNL     1      -8.673  15.101  66.805  1.00  0.00    -0.273 C  
HETATM    7  C   UNL     1      -9.214  16.461  66.347  1.00  0.00    -0.335 C  
HETATM    8  C   UNL     1      -8.679  11.903  67.834  1.00  0.00    -0.167 A  
HETATM    9  O   UNL     1      -7.585  14.667  66.438  1.00  0.00     0.659 OA 
HETATM   10  C   UNL     1      -9.893  17.170  67.542  1.00  0.00    -0.266 C  
HETATM   11  C   UNL     1     -11.039  11.491  69.326  1.00  0.00    -0.305 A  
HETATM   12  C   UNL     1      -8.981  10.642  68.357  1.00  0.00    -0.149 A  
HETATM   13  C   UNL     1     -11.101  16.361  68.052  1.00  0.00    -0.292 C  
HETATM   14  C   UNL     1     -10.147  10.440  69.088  1.00  0.00    -0.236 A  
HETATM   15  C   UNL     1     -10.729  12.757  68.801  1.00  0.00    -0.214 A  
ENDROOT
BRANCH   7  16
HETATM   16  C   UNL     1      -8.089  17.278  65.711  1.00  0.00     0.240 C  
BRANCH  16  17
HETATM   17  N   UNL     1      -7.268  17.978  66.683  1.00  0.00    -0.200 NA 
HETATM   18  C   UNL     1      -7.661  19.073  67.407  1.00  0.00    -0.234 A  
HETATM   19  C   UNL     1      -6.609  19.342  68.249  1.00  0.00    -0.249 A  
HETATM   20  N   UNL     1      -5.584  18.463  68.035  1.00  0.00    -0.164 NA 
HETATM   21  C   UNL     1      -5.986  17.660  67.070  1.00  0.00    -0.144 A  
HETATM   22  C   UNL     1      -5.188  16.558  66.476  1.00  0.00     0.377 C  
ENDBRANCH  16  17
ENDBRANCH   7  16
TORSDOF 2
ENDMDL
MODEL      183
REMARK 921   NORMALIZED FREE ENERGY PREDICTED BY IDOCK:    2.34 KCAL/MOL
REMARK 922        TOTAL FREE ENERGY PREDICTED BY IDOCK:    2.88 KCAL/MOL
REMARK 923 INTER-LIGAND FREE ENERGY PREDICTED BY IDOCK:    1.84 KCAL/MOL
REMARK 924 INTRA-LIGAND FREE ENERGY PREDICTED BY IDOCK:    1.04 KCAL/MOL
REMARK 927      BINDING AFFINITY PREDICTED BY RF-SCORE:    0.00 PKD
ROOT
HETATM    1  C   UNL     1      -9.305  16.931  69.269  1.00  0.00    -0.031 C  
HETATM    2  N   UNL     1      -8.686  15.623  69.336  1.00  0.00    -0.258 NA 
HETATM    3  C   UNL     1      -9.082  14.501  68.656  1.00  0.00    -0.187 A  
HETATM    4  C   UNL     1      -8.280  13.449  69.064  1.00  0.00     0.311 A  
HETATM    5  C   UNL     1      -7.318  13.963  69.972  1.00  0.00     0.646 A  
HETATM    6  C   UNL     1      -8.510  12.094  68.575  1.00  0.00    -0.083 C  
HETATM    7  C   UNL     1      -9.847  11.895  67.852  1.00  0.00    -0.190 C  
HETATM    8  C   UNL     1      -6.245  13.394  70.689  1.00  0.00     0.087 A  
HETATM    9  O   UNL     1      -7.727  11.171  68.779  1.00  0.00    -0.121 OA 
HETATM   10  C   UNL     1     -10.093  13.084  66.895  1.00  0.00    -0.243 C  
HETATM   11  C   UNL     1      -6.854  16.130  71.015  1.00  0.00     2.260 A  
HETATM   12  C   UNL     1      -5.494  14.193  71.556  1.00  0.00    -0.216 A  
HETATM   13  C   UNL     1     -10.204  14.408  67.675  1.00  0.00    -0.229 C  
HETATM   14  C   UNL     1      -5.799  15.541  71.719  1.00  0.00     0.753 A  
HETATM   15  C   UNL     1      -7.603  15.323  70.142  1.00  0.00     0.295 A  
ENDROOT
BRANCH   7  16
HETATM   16  C   UNL     1      -9.860  10.535  67.153  1.00  0.00    -0.176 C  
BRANCH  16  17
HETATM   17  N   UNL     1      -9.416  10.597  65.771  1.00  0.00    -0.190 NA 
HETATM   18  C   UNL     1      -9.543  11.686  64.949  1.00  0.00    -0.150 A  
HETATM   19  C   UNL     1      -8.919  11.326  63.779  1.00  0.00     0.074 A  
HETATM   20  N   UNL     1      -8.447  10.046  63.859  1.00  0.00    -0.164 NA 
HETATM   21  C   UNL     1      -8.775   9.609  65.059  1.00  0.00    -0.175 A  
HETATM   22  C   UNL     1      -8.496   8.251  65.589  1.00  0.00    -0.173 C  
ENDBRANCH  16  17
ENDBRANCH   7  16
TORSDOF 2
ENDMDL
MODEL      184
REMARK 921   NORMALIZED FREE ENERGY PREDICTED BY IDOCK:    5.98 KCAL/MOL
REMARK 922        TOTAL FREE ENERGY PREDICTED BY IDOCK:    6.95 KCAL/MOL
REMARK 923 INTER-LIGAND FREE ENERGY PREDICTED BY IDOCK:    5.95 KCAL/MOL
REMARK 924 INTRA-LIGAND FREE ENERGY PREDICTED BY IDOCK:    1.00 KCAL/MOL
REMARK 927      BINDING AFFINITY PREDICTED BY RF-SCORE:    0.00 PKD
ROOT
HETATM    1  C   UNL     1     -11.353  19.411  63.976  1.00  0.00     7.108 C  
HETATM    2  N   UNL     1     -11.096  18.503  65.073  1.00  0.00    -0.265 NA 
HETATM    3  C   UNL     1     -10.465  18.808  66.251  1.00  0.00    -0.435 A  
HETATM    4  C   UNL     1     -10.350  17.642  66.989  1.00  0.00    -0.330 A  
HETATM    5  C   UNL     1     -10.995  16.605  66.266  1.00  0.00     0.123 A  
HETATM    6  C   UNL     1      -9.646  17.627  68.266  1.00  0.00    -0.306 C  
HETATM    7  C   UNL     1      -8.815  18.883  68.552  1.00  0.00    -0.387 C  
HETATM    8  C   UNL     1     -11.221  15.235  66.509  1.00  0.00    -0.228 A  
HETATM    9  O   UNL     1      -9.665  16.662  69.026  1.00  0.00    -0.260 OA 
HETATM   10  C   UNL     1      -9.635  20.137  68.168  1.00  0.00    -0.377 C  
HETATM   11  C   UNL     1     -12.092  16.389  64.086  1.00  0.00     0.926 A  
HETATM   12  C   UNL     1     -11.874  14.461  65.546  1.00  0.00    -0.357 A  
HETATM   13  C   UNL     1      -9.953  20.149  66.661  1.00  0.00    -0.595 C  
HETATM   14  C   UNL     1     -12.298  15.031  64.350  1.00  0.00    -0.283 A  
HETATM   15  C   UNL     1     -11.438  17.162  65.060  1.00  0.00     0.856 A  
ENDROOT
BRANCH   7  16
HETATM   16  C   UNL     1      -8.354  18.878  70.010  1.00  0.00     1.388 C  
BRANCH  16  17
HETATM   17  N   UNL     1      -7.087  19.560  70.213  1.00  0.00     0.209 NA 
HETATM   18  C   UNL     1      -6.527  19.837  71.433  1.00  0.00     0.262 A  
HETATM   19  C   UNL     1      -5.309  20.405  71.146  1.00  0.00    -0.259 A  
HETATM   20  N   UNL     1      -5.130  20.505  69.794  1.00  0.00    -0.250 NA 
HETATM   21  C   UNL     1      -6.222  20.012  69.244  1.00  0.00    -0.325 A  
HETATM   22  C   UNL     1      -6.497  19.941  67.787  1.00  0.00    -0.263 C  
ENDBRANCH  16  17
ENDBRANCH   7  16
TORSDOF 2
ENDMDL
MODEL      185
REMARK 921   NORMALIZED FREE ENERGY PREDICTED BY IDOCK:   19.72 KCAL/MOL
REMARK 922        TOTAL FREE ENERGY PREDICTED BY IDOCK:   22.29 KCAL/MOL
REMARK 923 INTER-LIGAND FREE ENERGY PREDICTED BY IDOCK:   20.72 KCAL/MOL
REMARK 924 INTRA-LIGAND FREE ENERGY PREDICTED BY IDOCK:    1.57 KCAL/MOL
REMARK 927      BINDING AFFINITY PREDICTED BY RF-SCORE:    0.00 PKD
ROOT
HETATM    1  C   UNL     1      -6.870   8.725  66.869  1.00  0.00    -0.070 C  
HETATM    2  N   UNL     1      -7.948   9.661  66.627  1.00  0.00    -0.108 NA 
HETATM    3  C   UNL     1      -8.309  10.710  67.431  1.00  0.00    -0.119 A  
HETATM    4  C   UNL     1      -9.435  11.301  66.884  1.00  0.00    -0.193 A  
HETATM    5  C   UNL     1      -9.728  10.631  65.667  1.00  0.00    -0.283 A  
HETATM    6  C   UNL     1     -10.110  12.404  67.558  1.00  0.00    -0.202 C  
HETATM    7  C   UNL     1      -9.670  12.629  69.010  1.00  0.00     0.323 C  
HETATM    8  C   UNL     1     -10.718  10.790  64.675  1.00  0.00    -0.160 A  
HETATM    9  O   UNL     1     -11.004  13.060  67.031  1.00  0.00    -0.258 OA 
HETATM   10  C   UNL     1      -8.129  12.534  69.097  1.00  0.00     0.478 C  
HETATM   11  C   UNL     1      -8.828   8.707  64.448  1.00  0.00     0.095 A  
HETATM   12  C   UNL     1     -10.753   9.911  63.588  1.00  0.00     2.803 A  
HETATM   13  C   UNL     1      -7.638  11.129  68.698  1.00  0.00    -0.127 C  
HETATM   14  C   UNL     1      -9.822   8.882  63.481  1.00  0.00     2.749 A  
HETATM   15  C   UNL     1      -8.795   9.596  65.536  1.00  0.00    -0.172 A  
ENDROOT
BRANCH   7  16
HETATM   16  C   UNL     1     -10.229  13.958  69.520  1.00  0.00     0.397 C  
BRANCH  16  17
HETATM   17  N   UNL     1      -9.323  14.655  70.417  1.00  0.00     1.110 NA 
HETATM   18  C   UNL     1      -9.568  14.917  71.739  1.00  0.00     3.941 A  
HETATM   19  C   UNL     1      -8.420  15.510  72.205  1.00  0.00     7.716 A  
HETATM   20  N   UNL     1      -7.503  15.641  71.199  1.00  0.00     2.425 NA 
HETATM   21  C   UNL     1      -8.071  15.142  70.119  1.00  0.00     0.510 A  
HETATM   22  C   UNL     1      -7.461  15.097  68.767  1.00  0.00    -0.132 C  
ENDBRANCH  16  17
ENDBRANCH   7  16
TORSDOF 2
ENDMDL
MODEL      186
REMARK 921   NORMALIZED FREE ENERGY PREDICTED BY IDOCK:   53.24 KCAL/MOL
REMARK 922        TOTAL FREE ENERGY PREDICTED BY IDOCK:   59.73 KCAL/MOL
REMARK 923 INTER-LIGAND FREE ENERGY PREDICTED BY IDOCK:   57.03 KCAL/MOL
REMARK 924 INTRA-LIGAND FREE ENERGY PREDICTED BY IDOCK:    2.71 KCAL/MOL
REMARK 927      BINDING AFFINITY PREDICTED BY RF-SCORE:    0.00 PKD
ROOT
HETATM    1  C   UNL     1      -7.338  17.480  73.249  1.00  0.00    11.623 C  
HETATM    2  N   UNL     1      -8.165  16.573  72.482  1.00  0.00    14.238 NA 
HETATM    3  C   UNL     1      -7.729  15.509  71.736  1.00  0.00     5.134 A  
HETATM    4  C   UNL     1      -8.826  14.956  71.098  1.00  0.00     3.222 A  
HETATM    5  C   UNL     1      -9.980  15.665  71.525  1.00  0.00     2.195 A  
HETATM    6  C   UNL     1      -8.673  13.849  70.161  1.00  0.00     2.472 C  
HETATM    7  C   UNL     1      -7.228  13.574  69.729  1.00  0.00     0.492 C  
HETATM    8  C   UNL     1     -11.357  15.553  71.246  1.00  0.00    -0.449 A  
HETATM    9  O   UNL     1      -9.627  13.225  69.706  1.00  0.00     1.345 OA 
HETATM   10  C   UNL     1      -6.303  13.637  70.966  1.00  0.00     0.404 C  
HETATM   11  C   UNL     1     -10.435  17.604  72.950  1.00  0.00     5.130 A  
HETATM   12  C   UNL     1     -12.253  16.462  71.817  1.00  0.00    -0.127 A  
HETATM   13  C   UNL     1      -6.318  15.042  71.597  1.00  0.00     0.841 C  
HETATM   14  C   UNL     1     -11.795  17.475  72.653  1.00  0.00     1.743 A  
HETATM   15  C   UNL     1      -9.540  16.685  72.377  1.00  0.00     9.622 A  
ENDROOT
BRANCH   7  16
HETATM   16  C   UNL     1      -7.155  12.244  68.979  1.00  0.00    -0.051 C  
BRANCH  16  17
HETATM   17  N   UNL     1      -8.007  12.201  67.803  1.00  0.00    -0.139 NA 
HETATM   18  C   UNL     1      -9.078  13.024  67.574  1.00  0.00    -0.191 A  
HETATM   19  C   UNL     1      -9.527  12.687  66.320  1.00  0.00    -0.207 A  
HETATM   20  N   UNL     1      -8.781  11.666  65.800  1.00  0.00    -0.022 NA 
HETATM   21  C   UNL     1      -7.882  11.367  66.716  1.00  0.00    -0.157 A  
HETATM   22  C   UNL     1      -6.865  10.290  66.607  1.00  0.00    -0.091 C  
ENDBRANCH  16  17
ENDBRANCH   7  16
TORSDOF 2
ENDMDL
