MODEL        1
REMARK 921   NORMALIZED FREE ENERGY PREDICTED BY IDOCK:   -8.83 KCAL/MOL
REMARK 922        TOTAL FREE ENERGY PREDICTED BY IDOCK:  -10.45 KCAL/MOL
REMARK 923 INTER-LIGAND FREE ENERGY PREDICTED BY IDOCK:   -9.86 KCAL/MOL
REMARK 924 INTRA-LIGAND FREE ENERGY PREDICTED BY IDOCK:   -0.59 KCAL/MOL
REMARK 927      BINDING AFFINITY PREDICTED BY RF-SCORE:    0.00 PKD
ROOT
HETATM    1  C   UNL     1      -9.224  16.051  69.378  1.00  0.00    -0.202 C  
HETATM    2  C   UNL     1      -9.793  16.286  67.992  1.00  0.00    -0.236 A  
HETATM    3  C   UNL     1     -10.264  15.239  67.150  1.00  0.00    -0.252 A  
HETATM    4 CL   UNL     1      -9.351  18.926  68.569  1.00  0.00    -0.391 Cl 
HETATM    5  C   UNL     1     -10.752  15.569  65.862  1.00  0.00    -0.339 A  
HETATM    6  C   UNL     1     -10.418  19.348  65.752  1.00  0.00    -0.478 C  
HETATM    7 CL   UNL     1     -11.393  14.349  64.785  1.00  0.00    -0.377 Cl 
HETATM    8  N   UNL     1     -10.779  16.910  65.418  1.00  0.00    -0.539 NA 
HETATM    9  C   UNL     1     -10.343  17.934  66.257  1.00  0.00    -0.364 A  
HETATM   10  O   UNL     1     -11.215  17.197  64.250  1.00  0.00    -1.126 OA 
HETATM   11  C   UNL     1      -9.862  17.620  67.534  1.00  0.00    -0.299 A  
ENDROOT
BRANCH   3  12
HETATM   12  C   UNL     1     -10.280  13.850  67.626  1.00  0.00    -0.242 A  
HETATM   13  O   UNL     1      -9.727  11.831  68.181  1.00  0.00    -0.180 OA 
HETATM   14  N   UNL     1      -9.300  12.948  67.451  1.00  0.00    -0.187 NA 
HETATM   15  C   UNL     1     -10.916  12.181  68.747  1.00  0.00    -0.232 A  
HETATM   16  N   UNL     1     -11.321  13.379  68.388  1.00  0.00    -0.273 NA 
BRANCH  15  17
HETATM   17  C   UNL     1     -11.520  11.296  69.741  1.00  0.00    -0.386 A  
HETATM   18  C   UNL     1     -11.286   9.910  69.824  1.00  0.00    -0.279 A  
HETATM   19  C   UNL     1     -11.915   9.144  70.833  1.00  0.00    -0.242 A  
HETATM   20  N   UNL     1     -11.669   7.701  70.900  1.00  0.00    -0.287 N  
HETATM   21  C   UNL     1     -12.767   9.752  71.765  1.00  0.00    -0.426 A  
HETATM   22  O   UNL     1     -13.435   9.126  72.787  1.00  0.00    -0.701 OA 
HETATM   23  O   UNL     1     -12.260   7.060  71.785  1.00  0.00    -0.318 OA 
HETATM   24  O   UNL     1     -10.891   7.206  70.074  1.00  0.00    -0.241 OA 
HETATM   25  C   UNL     1     -12.972  11.124  71.681  1.00  0.00    -0.443 A  
HETATM   26  H   UNL     1     -14.012   9.539  73.418  1.00  0.00     0.000 HD 
HETATM   27  C   UNL     1     -12.367  11.886  70.695  1.00  0.00    -0.405 A  
HETATM   28  O   UNL     1     -13.784  11.757  72.581  1.00  0.00    -0.410 OA 
HETATM   29  H   UNL     1     -13.925  12.695  72.523  1.00  0.00     0.000 HD 
ENDBRANCH  15  17
ENDBRANCH   3  12
TORSDOF 2
ENDMDL
MODEL        2
REMARK 921   NORMALIZED FREE ENERGY PREDICTED BY IDOCK:   -8.60 KCAL/MOL
REMARK 922        TOTAL FREE ENERGY PREDICTED BY IDOCK:  -10.20 KCAL/MOL
REMARK 923 INTER-LIGAND FREE ENERGY PREDICTED BY IDOCK:   -9.63 KCAL/MOL
REMARK 924 INTRA-LIGAND FREE ENERGY PREDICTED BY IDOCK:   -0.57 KCAL/MOL
REMARK 927      BINDING AFFINITY PREDICTED BY RF-SCORE:    0.00 PKD
ROOT
HETATM    1  C   UNL     1     -10.277  11.664  68.031  1.00  0.00    -0.202 C  
HETATM    2  C   UNL     1     -11.207  12.106  69.144  1.00  0.00    -0.303 A  
HETATM    3  C   UNL     1     -11.603  13.459  69.343  1.00  0.00    -0.365 A  
HETATM    4 CL   UNL     1     -11.286   9.438  69.752  1.00  0.00    -0.185 Cl 
HETATM    5  C   UNL     1     -12.455  13.766  70.433  1.00  0.00    -0.314 A  
HETATM    6  C   UNL     1     -13.078  10.377  72.023  1.00  0.00    -0.521 C  
HETATM    7 CL   UNL     1     -13.027  15.394  70.719  1.00  0.00    -0.512 Cl 
HETATM    8  N   UNL     1     -12.911  12.752  71.304  1.00  0.00    -0.284 NA 
HETATM    9  C   UNL     1     -12.543  11.425  71.087  1.00  0.00    -0.386 A  
HETATM   10  O   UNL     1     -13.676  13.040  72.289  1.00  0.00    -0.552 OA 
HETATM   11  C   UNL     1     -11.704  11.110  70.011  1.00  0.00    -0.356 A  
ENDROOT
BRANCH   3  12
HETATM   12  C   UNL     1     -11.167  14.508  68.413  1.00  0.00    -0.271 A  
HETATM   13  O   UNL     1     -11.035  15.915  66.772  1.00  0.00    -0.271 OA 
HETATM   14  N   UNL     1     -11.705  14.765  67.208  1.00  0.00    -0.375 NA 
HETATM   15  C   UNL     1     -10.174  16.255  67.772  1.00  0.00    -0.270 A  
HETATM   16  N   UNL     1     -10.176  15.393  68.764  1.00  0.00    -0.210 NA 
BRANCH  15  17
HETATM   17  C   UNL     1      -9.474  17.536  67.705  1.00  0.00    -0.269 A  
HETATM   18  C   UNL     1      -8.350  17.874  68.483  1.00  0.00    -0.305 A  
HETATM   19  C   UNL     1      -7.740  19.143  68.334  1.00  0.00    -0.324 A  
HETATM   20  N   UNL     1      -6.578  19.483  69.158  1.00  0.00    -0.312 N  
HETATM   21  C   UNL     1      -8.237  20.069  67.408  1.00  0.00    -0.332 A  
HETATM   22  O   UNL     1      -7.741  21.326  67.168  1.00  0.00    -0.732 OA 
HETATM   23  O   UNL     1      -6.086  20.615  69.015  1.00  0.00    -0.339 OA 
HETATM   24  O   UNL     1      -6.153  18.627  69.946  1.00  0.00    -0.255 OA 
HETATM   25  C   UNL     1      -9.335  19.713  66.635  1.00  0.00    -0.376 A  
HETATM   26  H   UNL     1      -8.078  21.954  66.540  1.00  0.00     0.000 HD 
HETATM   27  C   UNL     1      -9.946  18.477  66.773  1.00  0.00    -0.381 A  
HETATM   28  O   UNL     1      -9.840  20.583  65.710  1.00  0.00    -0.624 OA 
HETATM   29  H   UNL     1     -10.591  20.340  65.181  1.00  0.00     0.000 HD 
ENDBRANCH  15  17
ENDBRANCH   3  12
TORSDOF 2
ENDMDL
MODEL        3
REMARK 921   NORMALIZED FREE ENERGY PREDICTED BY IDOCK:   -8.50 KCAL/MOL
REMARK 922        TOTAL FREE ENERGY PREDICTED BY IDOCK:  -10.09 KCAL/MOL
REMARK 923 INTER-LIGAND FREE ENERGY PREDICTED BY IDOCK:   -9.57 KCAL/MOL
REMARK 924 INTRA-LIGAND FREE ENERGY PREDICTED BY IDOCK:   -0.51 KCAL/MOL
REMARK 927      BINDING AFFINITY PREDICTED BY RF-SCORE:    0.00 PKD
ROOT
HETATM    1  C   UNL     1     -12.883  15.166  70.581  1.00  0.00    -0.440 C  
HETATM    2  C   UNL     1     -12.407  13.765  70.249  1.00  0.00    -0.407 A  
HETATM    3  C   UNL     1     -11.612  13.457  69.110  1.00  0.00    -0.365 A  
HETATM    4 CL   UNL     1     -13.692  13.086  72.570  1.00  0.00    -0.624 Cl 
HETATM    5  C   UNL     1     -11.245  12.108  68.880  1.00  0.00    -0.269 A  
HETATM    6  C   UNL     1     -12.791  10.279  71.824  1.00  0.00    -0.565 C  
HETATM    7 CL   UNL     1     -10.230  11.652  67.530  1.00  0.00    -0.210 Cl 
HETATM    8  N   UNL     1     -11.652  11.085  69.765  1.00  0.00    -0.294 NA 
HETATM    9  C   UNL     1     -12.406  11.396  70.895  1.00  0.00    -0.381 A  
HETATM   10  O   UNL     1     -11.320   9.869  69.546  1.00  0.00    -0.209 OA 
HETATM   11  C   UNL     1     -12.772  12.727  71.134  1.00  0.00    -0.263 A  
ENDROOT
BRANCH   3  12
HETATM   12  C   UNL     1     -11.150  14.524  68.213  1.00  0.00    -0.261 A  
HETATM   13  O   UNL     1     -10.973  15.964  66.605  1.00  0.00    -0.262 OA 
HETATM   14  N   UNL     1     -11.656  14.807  67.000  1.00  0.00    -0.361 NA 
HETATM   15  C   UNL     1     -10.136  16.280  67.633  1.00  0.00    -0.260 A  
HETATM   16  N   UNL     1     -10.167  15.398  68.607  1.00  0.00    -0.212 NA 
BRANCH  15  17
HETATM   17  C   UNL     1      -9.432  17.561  67.611  1.00  0.00    -0.256 A  
HETATM   18  C   UNL     1      -8.322  17.876  68.418  1.00  0.00    -0.307 A  
HETATM   19  C   UNL     1      -7.706  19.146  68.312  1.00  0.00    -0.315 A  
HETATM   20  N   UNL     1      -6.559  19.462  69.166  1.00  0.00    -0.308 N  
HETATM   21  C   UNL     1      -8.183  20.096  67.399  1.00  0.00    -0.340 A  
HETATM   22  O   UNL     1      -7.678  21.356  67.199  1.00  0.00    -0.767 OA 
HETATM   23  O   UNL     1      -6.062  20.596  69.061  1.00  0.00    -0.339 OA 
HETATM   24  O   UNL     1      -6.153  18.587  69.942  1.00  0.00    -0.246 OA 
HETATM   25  C   UNL     1      -9.266  19.761  66.597  1.00  0.00    -0.380 A  
HETATM   26  H   UNL     1      -8.001  22.000  66.580  1.00  0.00     0.000 HD 
HETATM   27  C   UNL     1      -9.883  18.525  66.693  1.00  0.00    -0.370 A  
HETATM   28  O   UNL     1      -9.751  20.656  65.683  1.00  0.00    -0.561 OA 
HETATM   29  H   UNL     1     -10.492  20.427  65.134  1.00  0.00     0.000 HD 
ENDBRANCH  15  17
ENDBRANCH   3  12
TORSDOF 2
ENDMDL
MODEL        4
REMARK 921   NORMALIZED FREE ENERGY PREDICTED BY IDOCK:   -8.38 KCAL/MOL
REMARK 922        TOTAL FREE ENERGY PREDICTED BY IDOCK:   -9.95 KCAL/MOL
REMARK 923 INTER-LIGAND FREE ENERGY PREDICTED BY IDOCK:   -9.57 KCAL/MOL
REMARK 924 INTRA-LIGAND FREE ENERGY PREDICTED BY IDOCK:   -0.38 KCAL/MOL
REMARK 927      BINDING AFFINITY PREDICTED BY RF-SCORE:    0.00 PKD
ROOT
HETATM    1  C   UNL     1      -9.339   7.736  68.552  1.00  0.00    -0.147 C  
HETATM    2  C   UNL     1     -10.294   7.991  69.702  1.00  0.00    -0.220 A  
HETATM    3  C   UNL     1     -10.809   9.279  70.023  1.00  0.00    -0.264 A  
HETATM    4 CL   UNL     1     -10.128   5.282  70.066  1.00  0.00    -0.313 Cl 
HETATM    5  C   UNL     1     -11.674   9.408  71.137  1.00  0.00    -0.345 A  
HETATM    6  C   UNL     1     -11.975   5.847  72.415  1.00  0.00    -0.206 C  
HETATM    7 CL   UNL     1     -12.387  10.946  71.570  1.00  0.00    -0.395 Cl 
HETATM    8  N   UNL     1     -12.029   8.283  71.914  1.00  0.00    -0.309 NA 
HETATM    9  C   UNL     1     -11.546   7.019  71.577  1.00  0.00    -0.287 A  
HETATM   10  O   UNL     1     -12.807   8.410  72.922  1.00  0.00    -0.178 OA 
HETATM   11  C   UNL     1     -10.692   6.880  70.476  1.00  0.00    -0.235 A  
ENDROOT
BRANCH   3  12
HETATM   12  C   UNL     1     -10.478  10.443  69.191  1.00  0.00    -0.227 A  
HETATM   13  O   UNL     1      -9.433  11.988  68.089  1.00  0.00    -0.189 OA 
HETATM   14  N   UNL     1      -9.263  11.007  69.075  1.00  0.00    -0.117 NA 
HETATM   15  C   UNL     1     -10.733  11.900  67.689  1.00  0.00    -0.215 A  
HETATM   16  N   UNL     1     -11.422  11.015  68.375  1.00  0.00    -0.312 NA 
BRANCH  15  17
HETATM   17  C   UNL     1     -11.170  12.659  66.518  1.00  0.00    -0.342 A  
HETATM   18  C   UNL     1     -10.841  14.005  66.270  1.00  0.00    -0.291 A  
HETATM   19  C   UNL     1     -11.310  14.646  65.099  1.00  0.00    -0.375 A  
HETATM   20  N   UNL     1     -10.968  16.050  64.861  1.00  0.00    -0.439 N  
HETATM   21  C   UNL     1     -12.094  13.949  64.170  1.00  0.00    -0.425 A  
HETATM   22  O   UNL     1     -12.609  14.451  63.001  1.00  0.00    -0.765 OA 
HETATM   23  O   UNL     1     -11.419  16.583  63.834  1.00  0.00    -1.145 OA 
HETATM   24  O   UNL     1     -10.252  16.623  65.693  1.00  0.00    -0.496 OA 
HETATM   25  C   UNL     1     -12.393  12.616  64.420  1.00  0.00    -0.446 A  
HETATM   26  H   UNL     1     -13.141  13.978  62.371  1.00  0.00     0.000 HD 
HETATM   27  C   UNL     1     -11.946  11.977  65.565  1.00  0.00    -0.168 A  
HETATM   28  O   UNL     1     -13.143  11.897  63.530  1.00  0.00    -0.715 OA 
HETATM   29  H   UNL     1     -13.348  10.985  63.702  1.00  0.00     0.000 HD 
ENDBRANCH  15  17
ENDBRANCH   3  12
TORSDOF 2
ENDMDL
MODEL        5
REMARK 921   NORMALIZED FREE ENERGY PREDICTED BY IDOCK:   -8.35 KCAL/MOL
REMARK 922        TOTAL FREE ENERGY PREDICTED BY IDOCK:   -9.91 KCAL/MOL
REMARK 923 INTER-LIGAND FREE ENERGY PREDICTED BY IDOCK:   -9.93 KCAL/MOL
REMARK 924 INTRA-LIGAND FREE ENERGY PREDICTED BY IDOCK:    0.02 KCAL/MOL
REMARK 927      BINDING AFFINITY PREDICTED BY RF-SCORE:    0.00 PKD
ROOT
HETATM    1  C   UNL     1     -12.609  11.463  71.083  1.00  0.00    -0.490 C  
HETATM    2  C   UNL     1     -11.994  10.129  70.708  1.00  0.00    -0.442 A  
HETATM    3  C   UNL     1     -10.986   9.981  69.714  1.00  0.00    -0.317 A  
HETATM    4 CL   UNL     1     -13.638   9.145  72.664  1.00  0.00    -0.479 Cl 
HETATM    5  C   UNL     1     -10.501   8.683  69.423  1.00  0.00    -0.218 A  
HETATM    6  C   UNL     1     -12.444   6.477  71.824  1.00  0.00    -0.293 C  
HETATM    7 CL   UNL     1      -9.229   8.420  68.251  1.00  0.00    -0.135 Cl 
HETATM    8  N   UNL     1     -10.999   7.552  70.108  1.00  0.00    -0.259 NA 
HETATM    9  C   UNL     1     -11.966   7.705  71.101  1.00  0.00    -0.297 A  
HETATM   10  O   UNL     1     -10.559   6.382  69.835  1.00  0.00    -0.204 OA 
HETATM   11  C   UNL     1     -12.450   8.985  71.399  1.00  0.00    -0.317 A  
ENDROOT
BRANCH   3  12
HETATM   12  C   UNL     1     -10.434  11.159  69.032  1.00  0.00    -0.206 A  
HETATM   13  O   UNL     1      -9.113  12.588  68.080  1.00  0.00    -0.196 OA 
HETATM   14  N   UNL     1      -9.129  11.451  68.899  1.00  0.00    -0.077 NA 
HETATM   15  C   UNL     1     -10.415  12.854  67.779  1.00  0.00    -0.220 A  
HETATM   16  N   UNL     1     -11.257  12.047  68.384  1.00  0.00    -0.239 NA 
BRANCH  15  17
HETATM   17  C   UNL     1     -10.718  13.865  66.767  1.00  0.00    -0.281 A  
HETATM   18  C   UNL     1     -10.364  15.224  66.865  1.00  0.00    -0.278 A  
HETATM   19  C   UNL     1     -10.699  16.121  65.823  1.00  0.00    -0.280 A  
HETATM   20  N   UNL     1     -10.332  17.534  65.944  1.00  0.00    -0.321 N  
HETATM   21  C   UNL     1     -11.375  15.669  64.682  1.00  0.00    -0.349 A  
HETATM   22  O   UNL     1     -11.756  16.432  63.607  1.00  0.00    -1.520 OA 
HETATM   23  O   UNL     1     -10.666  18.294  65.020  1.00  0.00    -0.594 OA 
HETATM   24  O   UNL     1      -9.713  17.890  66.957  1.00  0.00    -0.278 OA 
HETATM   25  C   UNL     1     -11.700  14.322  64.593  1.00  0.00    -0.430 A  
HETATM   26  H   UNL     1     -12.214  16.125  62.833  1.00  0.00     0.000 HD 
HETATM   27  C   UNL     1     -11.383  13.433  65.607  1.00  0.00    -0.316 A  
HETATM   28  O   UNL     1     -12.346  13.839  63.489  1.00  0.00    -0.893 OA 
HETATM   29  H   UNL     1     -12.569  12.917  63.428  1.00  0.00     0.000 HD 
ENDBRANCH  15  17
ENDBRANCH   3  12
TORSDOF 2
ENDMDL
MODEL        6
REMARK 921   NORMALIZED FREE ENERGY PREDICTED BY IDOCK:   -8.30 KCAL/MOL
REMARK 922        TOTAL FREE ENERGY PREDICTED BY IDOCK:   -9.87 KCAL/MOL
REMARK 923 INTER-LIGAND FREE ENERGY PREDICTED BY IDOCK:   -9.66 KCAL/MOL
REMARK 924 INTRA-LIGAND FREE ENERGY PREDICTED BY IDOCK:   -0.20 KCAL/MOL
REMARK 927      BINDING AFFINITY PREDICTED BY RF-SCORE:    0.00 PKD
ROOT
HETATM    1  C   UNL     1      -8.850  10.442  69.082  1.00  0.00    -0.180 C  
HETATM    2  C   UNL     1      -9.906   9.652  69.830  1.00  0.00    -0.271 A  
HETATM    3  C   UNL     1     -11.199  10.165  70.134  1.00  0.00    -0.377 A  
HETATM    4 CL   UNL     1      -8.024   7.664  69.814  1.00  0.00    -0.114 Cl 
HETATM    5  C   UNL     1     -12.100   9.350  70.863  1.00  0.00    -0.255 A  
HETATM    6  C   UNL     1     -10.138   6.144  71.387  1.00  0.00    -0.230 C  
HETATM    7 CL   UNL     1     -13.724   9.885  71.234  1.00  0.00    -0.264 Cl 
HETATM    8  N   UNL     1     -11.732   8.051  71.276  1.00  0.00    -0.279 NA 
HETATM    9  C   UNL     1     -10.475   7.543  70.951  1.00  0.00    -0.213 A  
HETATM   10  O   UNL     1     -12.551   7.325  71.939  1.00  0.00    -0.316 OA 
HETATM   11  C   UNL     1      -9.577   8.339  70.228  1.00  0.00    -0.168 A  
ENDROOT
BRANCH   3  12
HETATM   12  C   UNL     1     -11.602  11.497  69.667  1.00  0.00    -0.333 A  
HETATM   13  O   UNL     1     -12.136  13.593  69.554  1.00  0.00    -0.318 OA 
HETATM   14  N   UNL     1     -11.971  12.527  70.448  1.00  0.00    -0.313 NA 
HETATM   15  C   UNL     1     -11.825  13.105  68.321  1.00  0.00    -0.349 A  
HETATM   16  N   UNL     1     -11.552  11.819  68.333  1.00  0.00    -0.296 NA 
BRANCH  15  17
HETATM   17  C   UNL     1     -11.702  14.033  67.198  1.00  0.00    -0.421 A  
HETATM   18  C   UNL     1     -11.177  15.335  67.291  1.00  0.00    -0.306 A  
HETATM   19  C   UNL     1     -11.094  16.152  66.138  1.00  0.00     0.087 A  
HETATM   20  N   UNL     1     -10.555  17.509  66.255  1.00  0.00    -0.258 N  
HETATM   21  C   UNL     1     -11.521  15.673  64.893  1.00  0.00    -0.245 A  
HETATM   22  O   UNL     1     -11.495  16.359  63.705  1.00  0.00    -1.590 OA 
HETATM   23  O   UNL     1     -10.522  18.202  65.225  1.00  0.00    -0.529 OA 
HETATM   24  O   UNL     1     -10.165  17.886  67.368  1.00  0.00    -0.329 OA 
HETATM   25  C   UNL     1     -12.018  14.378  64.814  1.00  0.00    -0.447 A  
HETATM   26  H   UNL     1     -11.784  16.033  62.860  1.00  0.00     0.000 HD 
HETATM   27  C   UNL     1     -12.111  13.569  65.935  1.00  0.00    -0.477 A  
HETATM   28  O   UNL     1     -12.431  13.869  63.614  1.00  0.00    -0.872 OA 
HETATM   29  H   UNL     1     -12.772  12.983  63.560  1.00  0.00     0.000 HD 
ENDBRANCH  15  17
ENDBRANCH   3  12
TORSDOF 2
ENDMDL
MODEL        7
REMARK 921   NORMALIZED FREE ENERGY PREDICTED BY IDOCK:   -8.27 KCAL/MOL
REMARK 922        TOTAL FREE ENERGY PREDICTED BY IDOCK:   -9.83 KCAL/MOL
REMARK 923 INTER-LIGAND FREE ENERGY PREDICTED BY IDOCK:   -9.42 KCAL/MOL
REMARK 924 INTRA-LIGAND FREE ENERGY PREDICTED BY IDOCK:   -0.42 KCAL/MOL
REMARK 927      BINDING AFFINITY PREDICTED BY RF-SCORE:    0.00 PKD
ROOT
HETATM    1  C   UNL     1      -8.120   8.257  68.942  1.00  0.00    -0.115 C  
HETATM    2  C   UNL     1      -9.288   8.564  69.859  1.00  0.00    -0.159 A  
HETATM    3  C   UNL     1     -10.340   9.459  69.515  1.00  0.00    -0.223 A  
HETATM    4 CL   UNL     1      -8.080   6.763  71.531  1.00  0.00    -0.109 Cl 
HETATM    5  C   UNL     1     -11.369   9.695  70.459  1.00  0.00    -0.296 A  
HETATM    6  C   UNL     1     -10.392   7.471  73.376  1.00  0.00    -0.405 C  
HETATM    7 CL   UNL     1     -12.724  10.741  70.097  1.00  0.00    -0.307 Cl 
HETATM    8  N   UNL     1     -11.361   9.051  71.717  1.00  0.00    -0.357 NA 
HETATM    9  C   UNL     1     -10.343   8.154  72.038  1.00  0.00    -0.254 A  
HETATM   10  O   UNL     1     -12.292   9.275  72.566  1.00  0.00    -0.252 OA 
HETATM   11  C   UNL     1      -9.322   7.911  71.110  1.00  0.00    -0.151 A  
ENDROOT
BRANCH   3  12
HETATM   12  C   UNL     1     -10.376  10.094  68.192  1.00  0.00    -0.185 A  
HETATM   13  O   UNL     1     -10.660  10.504  66.084  1.00  0.00    -0.200 OA 
HETATM   14  N   UNL     1     -10.605   9.467  67.025  1.00  0.00    -0.231 NA 
HETATM   15  C   UNL     1     -10.483  11.660  66.784  1.00  0.00    -0.230 A  
HETATM   16  N   UNL     1     -10.247  11.454  68.060  1.00  0.00    -0.180 NA 
BRANCH  15  17
HETATM   17  C   UNL     1     -10.694  12.940  66.110  1.00  0.00    -0.290 A  
HETATM   18  C   UNL     1     -10.128  14.162  66.521  1.00  0.00    -0.283 A  
HETATM   19  C   UNL     1     -10.390  15.346  65.791  1.00  0.00    -0.361 A  
HETATM   20  N   UNL     1      -9.802  16.611  66.238  1.00  0.00    -0.293 N  
HETATM   21  C   UNL     1     -11.202  15.316  64.650  1.00  0.00    -0.356 A  
HETATM   22  O   UNL     1     -11.532  16.386  63.858  1.00  0.00    -1.569 OA 
HETATM   23  O   UNL     1     -10.075  17.632  65.585  1.00  0.00    -0.575 OA 
HETATM   24  O   UNL     1      -9.069  16.591  67.236  1.00  0.00    -0.201 OA 
HETATM   25  C   UNL     1     -11.736  14.099  64.247  1.00  0.00    -0.345 A  
HETATM   26  H   UNL     1     -12.082  16.366  63.084  1.00  0.00     0.000 HD 
HETATM   27  C   UNL     1     -11.494  12.932  64.954  1.00  0.00    -0.351 A  
HETATM   28  O   UNL     1     -12.521  14.025  63.130  1.00  0.00    -1.137 OA 
HETATM   29  H   UNL     1     -12.887  13.193  62.854  1.00  0.00     0.000 HD 
ENDBRANCH  15  17
ENDBRANCH   3  12
TORSDOF 2
ENDMDL
MODEL        8
REMARK 921   NORMALIZED FREE ENERGY PREDICTED BY IDOCK:   -8.16 KCAL/MOL
REMARK 922        TOTAL FREE ENERGY PREDICTED BY IDOCK:   -9.70 KCAL/MOL
REMARK 923 INTER-LIGAND FREE ENERGY PREDICTED BY IDOCK:   -9.09 KCAL/MOL
REMARK 924 INTRA-LIGAND FREE ENERGY PREDICTED BY IDOCK:   -0.61 KCAL/MOL
REMARK 927      BINDING AFFINITY PREDICTED BY RF-SCORE:    0.00 PKD
ROOT
HETATM    1  C   UNL     1     -11.300   9.452  71.402  1.00  0.00    -0.451 C  
HETATM    2  C   UNL     1     -10.594   8.414  70.552  1.00  0.00    -0.236 A  
HETATM    3  C   UNL     1      -9.959   8.716  69.314  1.00  0.00    -0.195 A  
HETATM    4 CL   UNL     1     -11.279   6.703  72.576  1.00  0.00    -0.291 Cl 
HETATM    5  C   UNL     1      -9.351   7.664  68.586  1.00  0.00    -0.147 A  
HETATM    6  C   UNL     1      -9.929   4.636  70.800  1.00  0.00    -0.284 C  
HETATM    7 CL   UNL     1      -8.508   7.957  67.081  1.00  0.00    -0.116 Cl 
HETATM    8  N   UNL     1      -9.366   6.339  69.077  1.00  0.00    -0.127 NA 
HETATM    9  C   UNL     1      -9.964   6.055  70.303  1.00  0.00    -0.187 A  
HETATM   10  O   UNL     1      -8.819   5.395  68.410  1.00  0.00    -0.102 OA 
HETATM   11  C   UNL     1     -10.565   7.088  71.033  1.00  0.00    -0.218 A  
ENDROOT
BRANCH   3  12
HETATM   12  C   UNL     1      -9.902  10.099  68.822  1.00  0.00    -0.175 A  
HETATM   13  O   UNL     1      -9.259  12.099  68.295  1.00  0.00    -0.194 OA 
HETATM   14  N   UNL     1      -8.922  10.983  69.073  1.00  0.00    -0.112 NA 
HETATM   15  C   UNL     1     -10.402  11.765  67.631  1.00  0.00    -0.200 A  
HETATM   16  N   UNL     1     -10.862  10.581  67.966  1.00  0.00    -0.241 NA 
BRANCH  15  17
HETATM   17  C   UNL     1     -10.896  12.649  66.577  1.00  0.00    -0.285 A  
HETATM   18  C   UNL     1     -10.521  13.997  66.423  1.00  0.00    -0.284 A  
HETATM   19  C   UNL     1     -11.053  14.765  65.360  1.00  0.00    -0.357 A  
HETATM   20  N   UNL     1     -10.660  16.169  65.220  1.00  0.00    -0.397 N  
HETATM   21  C   UNL     1     -11.947  14.194  64.445  1.00  0.00    -0.457 A  
HETATM   22  O   UNL     1     -12.532  14.826  63.377  1.00  0.00    -0.946 OA 
HETATM   23  O   UNL     1     -11.169  16.816  64.289  1.00  0.00    -1.163 OA 
HETATM   24  O   UNL     1      -9.849  16.630  66.034  1.00  0.00    -0.323 OA 
HETATM   25  C   UNL     1     -12.292  12.857  64.600  1.00  0.00    -0.439 A  
HETATM   26  H   UNL     1     -13.138  14.438  62.756  1.00  0.00     0.000 HD 
HETATM   27  C   UNL     1     -11.784  12.094  65.638  1.00  0.00    -0.385 A  
HETATM   28  O   UNL     1     -13.150  12.259  63.719  1.00  0.00    -0.780 OA 
HETATM   29  H   UNL     1     -13.386  11.345  63.824  1.00  0.00     0.000 HD 
ENDBRANCH  15  17
ENDBRANCH   3  12
TORSDOF 2
ENDMDL
MODEL        9
REMARK 921   NORMALIZED FREE ENERGY PREDICTED BY IDOCK:   -8.14 KCAL/MOL
REMARK 922        TOTAL FREE ENERGY PREDICTED BY IDOCK:   -9.68 KCAL/MOL
REMARK 923 INTER-LIGAND FREE ENERGY PREDICTED BY IDOCK:   -9.17 KCAL/MOL
REMARK 924 INTRA-LIGAND FREE ENERGY PREDICTED BY IDOCK:   -0.51 KCAL/MOL
REMARK 927      BINDING AFFINITY PREDICTED BY RF-SCORE:    0.00 PKD
ROOT
HETATM    1  C   UNL     1     -11.789   9.781  69.586  1.00  0.00     0.137 C  
HETATM    2  C   UNL     1     -10.445   9.570  70.256  1.00  0.00    -0.319 A  
HETATM    3  C   UNL     1      -9.206   9.951  69.667  1.00  0.00    -0.246 A  
HETATM    4 CL   UNL     1     -11.948   8.553  72.306  1.00  0.00    -0.446 Cl 
HETATM    5  C   UNL     1      -8.007   9.681  70.370  1.00  0.00    -0.165 A  
HETATM    6  C   UNL     1      -9.230   8.067  73.579  1.00  0.00    -0.312 C  
HETATM    7 CL   UNL     1      -6.447  10.161  69.739  1.00  0.00    -0.060 Cl 
HETATM    8  N   UNL     1      -8.033   9.052  71.635  1.00  0.00    -0.348 NA 
HETATM    9  C   UNL     1      -9.250   8.707  72.219  1.00  0.00    -0.227 A  
HETATM   10  O   UNL     1      -6.943   8.807  72.259  1.00  0.00    -0.246 OA 
HETATM   11  C   UNL     1     -10.442   8.972  71.535  1.00  0.00    -0.339 A  
ENDROOT
BRANCH   3  12
HETATM   12  C   UNL     1      -9.178  10.646  68.374  1.00  0.00    -0.159 A  
HETATM   13  O   UNL     1      -9.105  11.113  66.260  1.00  0.00    -0.181 OA 
HETATM   14  N   UNL     1      -8.873  10.090  67.189  1.00  0.00    -0.135 NA 
HETATM   15  C   UNL     1      -9.553  12.181  66.978  1.00  0.00    -0.205 A  
HETATM   16  N   UNL     1      -9.556  11.962  68.274  1.00  0.00    -0.198 NA 
BRANCH  15  17
HETATM   17  C   UNL     1     -10.079  13.346  66.268  1.00  0.00    -0.299 A  
HETATM   18  C   UNL     1      -9.807  14.683  66.615  1.00  0.00    -0.280 A  
HETATM   19  C   UNL     1     -10.362  15.740  65.855  1.00  0.00    -0.354 A  
HETATM   20  N   UNL     1     -10.078  17.125  66.236  1.00  0.00    -0.312 N  
HETATM   21  C   UNL     1     -11.175  15.471  64.747  1.00  0.00    -0.390 A  
HETATM   22  O   UNL     1     -11.771  16.399  63.931  1.00  0.00    -1.504 OA 
HETATM   23  O   UNL     1     -10.603  18.025  65.558  1.00  0.00    -0.639 OA 
HETATM   24  O   UNL     1      -9.334  17.321  67.206  1.00  0.00    -0.232 OA 
HETATM   25  C   UNL     1     -11.418  14.146  64.406  1.00  0.00    -0.332 A  
HETATM   26  H   UNL     1     -12.322  16.217  63.178  1.00  0.00     0.000 HD 
HETATM   27  C   UNL     1     -10.887  13.101  65.144  1.00  0.00    -0.321 A  
HETATM   28  O   UNL     1     -12.194  13.843  63.322  1.00  0.00    -1.061 OA 
HETATM   29  H   UNL     1     -12.360  12.937  63.089  1.00  0.00     0.000 HD 
ENDBRANCH  15  17
ENDBRANCH   3  12
TORSDOF 2
ENDMDL
MODEL       10
REMARK 921   NORMALIZED FREE ENERGY PREDICTED BY IDOCK:   -8.07 KCAL/MOL
REMARK 922        TOTAL FREE ENERGY PREDICTED BY IDOCK:   -9.60 KCAL/MOL
REMARK 923 INTER-LIGAND FREE ENERGY PREDICTED BY IDOCK:   -9.39 KCAL/MOL
REMARK 924 INTRA-LIGAND FREE ENERGY PREDICTED BY IDOCK:   -0.21 KCAL/MOL
REMARK 927      BINDING AFFINITY PREDICTED BY RF-SCORE:    0.00 PKD
ROOT
HETATM    1  C   UNL     1     -11.984  13.389  66.935  1.00  0.00    -0.437 C  
HETATM    2  C   UNL     1     -11.493  14.693  67.533  1.00  0.00    -0.378 A  
HETATM    3  C   UNL     1     -11.592  15.007  68.918  1.00  0.00    -0.349 A  
HETATM    4 CL   UNL     1     -10.708  15.243  64.968  1.00  0.00    -0.448 Cl 
HETATM    5  C   UNL     1     -11.126  16.268  69.366  1.00  0.00    -0.328 A  
HETATM    6  C   UNL     1      -9.815  17.881  66.190  1.00  0.00    -0.256 C  
HETATM    7 CL   UNL     1     -11.167  16.712  71.057  1.00  0.00    -0.054 Cl 
HETATM    8  N   UNL     1     -10.566  17.197  68.461  1.00  0.00    -0.362 NA 
HETATM    9  C   UNL     1     -10.445  16.873  67.111  1.00  0.00    -0.296 A  
HETATM   10  O   UNL     1     -10.152  18.335  68.874  1.00  0.00    -0.389 OA 
HETATM   11  C   UNL     1     -10.899  15.628  66.658  1.00  0.00    -0.266 A  
ENDROOT
BRANCH   3  12
HETATM   12  C   UNL     1     -12.132  14.026  69.868  1.00  0.00    -0.345 A  
HETATM   13  O   UNL     1     -13.386  12.961  71.276  1.00  0.00    -0.165 OA 
HETATM   14  N   UNL     1     -13.204  14.205  70.659  1.00  0.00    -0.174 NA 
HETATM   15  C   UNL     1     -12.417  12.144  70.775  1.00  0.00    -0.271 A  
HETATM   16  N   UNL     1     -11.594  12.767  69.961  1.00  0.00    -0.188 NA 
BRANCH  15  17
HETATM   17  C   UNL     1     -12.467  10.714  71.072  1.00  0.00    -0.515 A  
HETATM   18  C   UNL     1     -11.642   9.744  70.471  1.00  0.00    -0.365 A  
HETATM   19  C   UNL     1     -11.766   8.383  70.836  1.00  0.00    -0.246 A  
HETATM   20  N   UNL     1     -10.907   7.384  70.194  1.00  0.00    -0.252 N  
HETATM   21  C   UNL     1     -12.697   7.985  71.804  1.00  0.00    -0.329 A  
HETATM   22  O   UNL     1     -12.915   6.705  72.247  1.00  0.00    -0.548 OA 
HETATM   23  O   UNL     1     -11.063   6.197  70.524  1.00  0.00    -0.302 OA 
HETATM   24  O   UNL     1     -10.079   7.778  69.362  1.00  0.00    -0.185 OA 
HETATM   25  C   UNL     1     -13.489   8.957  72.402  1.00  0.00    -0.450 A  
HETATM   26  H   UNL     1     -13.547   6.436  72.903  1.00  0.00     0.000 HD 
HETATM   27  C   UNL     1     -13.384  10.293  72.051  1.00  0.00    -0.466 A  
HETATM   28  O   UNL     1     -14.400   8.612  73.362  1.00  0.00    -1.033 OA 
HETATM   29  H   UNL     1     -14.942   9.277  73.771  1.00  0.00     0.000 HD 
ENDBRANCH  15  17
ENDBRANCH   3  12
TORSDOF 2
ENDMDL
MODEL       11
REMARK 921   NORMALIZED FREE ENERGY PREDICTED BY IDOCK:   -8.05 KCAL/MOL
REMARK 922        TOTAL FREE ENERGY PREDICTED BY IDOCK:   -9.58 KCAL/MOL
REMARK 923 INTER-LIGAND FREE ENERGY PREDICTED BY IDOCK:   -8.99 KCAL/MOL
REMARK 924 INTRA-LIGAND FREE ENERGY PREDICTED BY IDOCK:   -0.59 KCAL/MOL
REMARK 927      BINDING AFFINITY PREDICTED BY RF-SCORE:    0.00 PKD
ROOT
HETATM    1  C   UNL     1      -8.802  15.999  69.136  1.00  0.00    -0.245 C  
HETATM    2  C   UNL     1      -9.475  16.264  67.803  1.00  0.00    -0.221 A  
HETATM    3  C   UNL     1      -9.877  15.231  66.909  1.00  0.00    -0.242 A  
HETATM    4 CL   UNL     1      -9.294  18.890  68.555  1.00  0.00    -0.391 Cl 
HETATM    5  C   UNL     1     -10.474  15.592  65.677  1.00  0.00    -0.374 A  
HETATM    6  C   UNL     1     -10.567  19.382  65.838  1.00  0.00    -0.551 C  
HETATM    7 CL   UNL     1     -11.040  14.384  64.545  1.00  0.00    -0.342 Cl 
HETATM    8  N   UNL     1     -10.676  16.948  65.338  1.00  0.00    -0.539 NA 
HETATM    9  C   UNL     1     -10.306  17.954  66.229  1.00  0.00    -0.364 A  
HETATM   10  O   UNL     1     -11.211  17.264  64.219  1.00  0.00    -1.013 OA 
HETATM   11  C   UNL     1      -9.718  17.609  67.452  1.00  0.00    -0.283 A  
ENDROOT
BRANCH   3  12
HETATM   12  C   UNL     1      -9.711  13.819  67.278  1.00  0.00    -0.242 A  
HETATM   13  O   UNL     1      -8.892  11.865  67.726  1.00  0.00    -0.153 OA 
HETATM   14  N   UNL     1      -8.593  13.091  67.118  1.00  0.00    -0.203 NA 
HETATM   15  C   UNL     1     -10.158  11.985  68.216  1.00  0.00    -0.201 A  
HETATM   16  N   UNL     1     -10.717  13.135  67.915  1.00  0.00    -0.231 NA 
BRANCH  15  17
HETATM   17  C   UNL     1     -10.685  10.938  69.090  1.00  0.00    -0.265 A  
HETATM   18  C   UNL     1     -11.625  11.152  70.116  1.00  0.00    -0.410 A  
HETATM   19  C   UNL     1     -12.078  10.065  70.901  1.00  0.00    -0.355 A  
HETATM   20  N   UNL     1     -13.049  10.306  71.971  1.00  0.00    -0.453 N  
HETATM   21  C   UNL     1     -11.609   8.767  70.661  1.00  0.00    -0.205 A  
HETATM   22  O   UNL     1     -11.967   7.633  71.346  1.00  0.00    -0.292 OA 
HETATM   23  O   UNL     1     -13.403   9.330  72.654  1.00  0.00    -0.430 OA 
HETATM   24  O   UNL     1     -13.458  11.463  72.136  1.00  0.00    -0.397 OA 
HETATM   25  C   UNL     1     -10.697   8.570  69.632  1.00  0.00    -0.197 A  
HETATM   26  H   UNL     1     -11.649   6.753  71.183  1.00  0.00     0.000 HD 
HETATM   27  C   UNL     1     -10.240   9.625  68.859  1.00  0.00    -0.214 A  
HETATM   28  O   UNL     1     -10.227   7.316  69.357  1.00  0.00    -0.182 OA 
HETATM   29  H   UNL     1      -9.602   7.181  68.653  1.00  0.00     0.000 HD 
ENDBRANCH  15  17
ENDBRANCH   3  12
TORSDOF 2
ENDMDL
MODEL       12
REMARK 921   NORMALIZED FREE ENERGY PREDICTED BY IDOCK:   -7.92 KCAL/MOL
REMARK 922        TOTAL FREE ENERGY PREDICTED BY IDOCK:   -9.44 KCAL/MOL
REMARK 923 INTER-LIGAND FREE ENERGY PREDICTED BY IDOCK:   -8.83 KCAL/MOL
REMARK 924 INTRA-LIGAND FREE ENERGY PREDICTED BY IDOCK:   -0.61 KCAL/MOL
REMARK 927      BINDING AFFINITY PREDICTED BY RF-SCORE:    0.00 PKD
ROOT
HETATM    1  C   UNL     1     -11.243   9.578  70.587  1.00  0.00    -0.364 C  
HETATM    2  C   UNL     1     -10.628   8.653  69.555  1.00  0.00    -0.218 A  
HETATM    3  C   UNL     1      -9.954   9.116  68.389  1.00  0.00    -0.202 A  
HETATM    4 CL   UNL     1     -11.494   6.670  71.233  1.00  0.00    -0.341 Cl 
HETATM    5  C   UNL     1      -9.440   8.163  67.476  1.00  0.00    -0.152 A  
HETATM    6  C   UNL     1     -10.324   4.848  69.097  1.00  0.00    -0.103 C  
HETATM    7 CL   UNL     1      -8.557   8.648  66.046  1.00  0.00    -0.156 Cl 
HETATM    8  N   UNL     1      -9.585   6.778  67.714  1.00  0.00    -0.124 NA 
HETATM    9  C   UNL     1     -10.220   6.330  68.871  1.00  0.00    -0.181 A  
HETATM   10  O   UNL     1      -9.122   5.925  66.880  1.00  0.00    -0.117 OA 
HETATM   11  C   UNL     1     -10.729   7.264  69.783  1.00  0.00    -0.239 A  
ENDROOT
BRANCH   3  12
HETATM   12  C   UNL     1      -9.762  10.554  68.161  1.00  0.00    -0.153 A  
HETATM   13  O   UNL     1      -8.923  12.544  67.992  1.00  0.00    -0.179 OA 
HETATM   14  N   UNL     1      -8.691  11.274  68.536  1.00  0.00    -0.155 NA 
HETATM   15  C   UNL     1     -10.105  12.456  67.318  1.00  0.00    -0.208 A  
HETATM   16  N   UNL     1     -10.681  11.281  67.445  1.00  0.00    -0.227 NA 
BRANCH  15  17
HETATM   17  C   UNL     1     -10.523  13.567  66.465  1.00  0.00    -0.284 A  
HETATM   18  C   UNL     1     -10.174  14.914  66.680  1.00  0.00    -0.264 A  
HETATM   19  C   UNL     1     -10.625  15.914  65.786  1.00  0.00    -0.355 A  
HETATM   20  N   UNL     1     -10.263  17.313  66.030  1.00  0.00    -0.331 N  
HETATM   21  C   UNL     1     -11.410  15.578  64.676  1.00  0.00    -0.357 A  
HETATM   22  O   UNL     1     -11.909  16.448  63.738  1.00  0.00    -1.455 OA 
HETATM   23  O   UNL     1     -10.699  18.164  65.236  1.00  0.00    -0.605 OA 
HETATM   24  O   UNL     1      -9.547  17.566  67.008  1.00  0.00    -0.253 OA 
HETATM   25  C   UNL     1     -11.728  14.242  64.467  1.00  0.00    -0.418 A  
HETATM   26  H   UNL     1     -12.441  16.219  62.985  1.00  0.00     0.000 HD 
HETATM   27  C   UNL     1     -11.299  13.252  65.336  1.00  0.00    -0.317 A  
HETATM   28  O   UNL     1     -12.480  13.872  63.386  1.00  0.00    -1.068 OA 
HETATM   29  H   UNL     1     -12.698  12.958  63.244  1.00  0.00     0.000 HD 
ENDBRANCH  15  17
ENDBRANCH   3  12
TORSDOF 2
ENDMDL
MODEL       13
REMARK 921   NORMALIZED FREE ENERGY PREDICTED BY IDOCK:   -7.89 KCAL/MOL
REMARK 922        TOTAL FREE ENERGY PREDICTED BY IDOCK:   -9.40 KCAL/MOL
REMARK 923 INTER-LIGAND FREE ENERGY PREDICTED BY IDOCK:   -8.81 KCAL/MOL
REMARK 924 INTRA-LIGAND FREE ENERGY PREDICTED BY IDOCK:   -0.59 KCAL/MOL
REMARK 927      BINDING AFFINITY PREDICTED BY RF-SCORE:    0.00 PKD
ROOT
HETATM    1  C   UNL     1     -11.123   7.034  66.962  1.00  0.00    -0.247 C  
HETATM    2  C   UNL     1      -9.925   7.404  67.814  1.00  0.00    -0.208 A  
HETATM    3  C   UNL     1      -9.631   8.737  68.217  1.00  0.00    -0.160 A  
HETATM    4 CL   UNL     1      -9.444   4.708  67.803  1.00  0.00    -0.174 Cl 
HETATM    5  C   UNL     1      -8.469   8.974  68.991  1.00  0.00    -0.132 A  
HETATM    6  C   UNL     1      -7.005   5.501  69.437  1.00  0.00    -0.063 C  
HETATM    7 CL   UNL     1      -8.062  10.575  69.568  1.00  0.00    -0.142 Cl 
HETATM    8  N   UNL     1      -7.617   7.910  69.365  1.00  0.00    -0.100 NA 
HETATM    9  C   UNL     1      -7.924   6.603  68.992  1.00  0.00    -0.112 A  
HETATM   10  O   UNL     1      -6.566   8.135  70.060  1.00  0.00    -0.036 OA 
HETATM   11  C   UNL     1      -9.073   6.357  68.229  1.00  0.00    -0.114 A  
ENDROOT
BRANCH   3  12
HETATM   12  C   UNL     1     -10.538   9.838  67.869  1.00  0.00    -0.259 A  
HETATM   13  O   UNL     1     -12.082  11.357  67.905  1.00  0.00    -0.646 OA 
HETATM   14  N   UNL     1     -11.637  10.198  68.554  1.00  0.00    -0.103 NA 
HETATM   15  C   UNL     1     -11.188  11.596  66.904  1.00  0.00    -0.313 A  
HETATM   16  N   UNL     1     -10.266  10.664  66.807  1.00  0.00    -0.224 NA 
BRANCH  15  17
HETATM   17  C   UNL     1     -11.262  12.858  66.170  1.00  0.00    -0.326 A  
HETATM   18  C   UNL     1     -10.715  14.076  66.616  1.00  0.00    -0.281 A  
HETATM   19  C   UNL     1     -10.835  15.241  65.823  1.00  0.00    -0.358 A  
HETATM   20  N   UNL     1     -10.269  16.503  66.306  1.00  0.00    -0.319 N  
HETATM   21  C   UNL     1     -11.487  15.196  64.583  1.00  0.00    -0.362 A  
HETATM   22  O   UNL     1     -11.671  16.248  63.722  1.00  0.00    -1.511 OA 
HETATM   23  O   UNL     1     -10.417  17.508  65.592  1.00  0.00    -0.588 OA 
HETATM   24  O   UNL     1      -9.679  16.495  67.395  1.00  0.00    -0.240 OA 
HETATM   25  C   UNL     1     -12.005  13.983  64.148  1.00  0.00    -0.408 A  
HETATM   26  H   UNL     1     -12.113  16.218  62.882  1.00  0.00     0.000 HD 
HETATM   27  C   UNL     1     -11.900  12.835  64.917  1.00  0.00    -0.424 A  
HETATM   28  O   UNL     1     -12.635  13.894  62.938  1.00  0.00    -0.966 OA 
HETATM   29  H   UNL     1     -12.989  13.064  62.641  1.00  0.00     0.000 HD 
ENDBRANCH  15  17
ENDBRANCH   3  12
TORSDOF 2
ENDMDL
MODEL       14
REMARK 921   NORMALIZED FREE ENERGY PREDICTED BY IDOCK:   -7.78 KCAL/MOL
REMARK 922        TOTAL FREE ENERGY PREDICTED BY IDOCK:   -9.28 KCAL/MOL
REMARK 923 INTER-LIGAND FREE ENERGY PREDICTED BY IDOCK:   -8.78 KCAL/MOL
REMARK 924 INTRA-LIGAND FREE ENERGY PREDICTED BY IDOCK:   -0.51 KCAL/MOL
REMARK 927      BINDING AFFINITY PREDICTED BY RF-SCORE:    0.00 PKD
ROOT
HETATM    1  C   UNL     1      -9.082  15.616  69.224  1.00  0.00    -0.270 C  
HETATM    2  C   UNL     1      -9.712  15.907  67.876  1.00  0.00    -0.216 A  
HETATM    3  C   UNL     1     -10.171  14.891  66.990  1.00  0.00    -0.256 A  
HETATM    4 CL   UNL     1      -9.357  18.525  68.593  1.00  0.00    -0.355 Cl 
HETATM    5  C   UNL     1     -10.719  15.273  65.741  1.00  0.00    -0.348 A  
HETATM    6  C   UNL     1     -10.544  19.063  65.845  1.00  0.00    -0.466 C  
HETATM    7 CL   UNL     1     -11.350  14.091  64.617  1.00  0.00    -0.368 Cl 
HETATM    8  N   UNL     1     -10.817  16.635  65.379  1.00  0.00    -0.412 NA 
HETATM    9  C   UNL     1     -10.393  17.627  66.262  1.00  0.00    -0.342 A  
HETATM   10  O   UNL     1     -11.309  16.970  64.246  1.00  0.00    -1.191 OA 
HETATM   11  C   UNL     1      -9.852  17.260  67.501  1.00  0.00    -0.275 A  
ENDROOT
BRANCH   3  12
HETATM   12  C   UNL     1     -10.112  13.477  67.383  1.00  0.00    -0.237 A  
HETATM   13  O   UNL     1      -9.491  11.427  67.701  1.00  0.00    -0.158 OA 
HETATM   14  N   UNL     1      -9.204  12.581  66.960  1.00  0.00    -0.207 NA 
HETATM   15  C   UNL     1     -10.533  11.751  68.518  1.00  0.00    -0.215 A  
HETATM   16  N   UNL     1     -10.982  12.969  68.316  1.00  0.00    -0.248 NA 
BRANCH  15  17
HETATM   17  C   UNL     1     -10.935  10.814  69.566  1.00  0.00    -0.317 A  
HETATM   18  C   UNL     1     -10.043  10.166  70.443  1.00  0.00    -0.052 A  
HETATM   19  C   UNL     1     -10.538   9.282  71.430  1.00  0.00    -0.347 A  
HETATM   20  N   UNL     1      -9.597   8.608  72.328  1.00  0.00    -0.300 N  
HETATM   21  C   UNL     1     -11.913   9.049  71.556  1.00  0.00    -0.344 A  
HETATM   22  O   UNL     1     -12.519   8.220  72.467  1.00  0.00    -0.516 OA 
HETATM   23  O   UNL     1     -10.068   7.820  73.166  1.00  0.00    -0.287 OA 
HETATM   24  O   UNL     1      -8.391   8.859  72.202  1.00  0.00    -0.381 OA 
HETATM   25  C   UNL     1     -12.780   9.711  70.696  1.00  0.00    -0.029 A  
HETATM   26  H   UNL     1     -13.452   8.063  72.552  1.00  0.00     0.000 HD 
HETATM   27  C   UNL     1     -12.311  10.576  69.720  1.00  0.00    -0.200 A  
HETATM   28  O   UNL     1     -14.131   9.523  70.796  1.00  0.00    -0.438 OA 
HETATM   29  H   UNL     1     -14.724   9.975  70.208  1.00  0.00     0.000 HD 
ENDBRANCH  15  17
ENDBRANCH   3  12
TORSDOF 2
ENDMDL
MODEL       15
REMARK 921   NORMALIZED FREE ENERGY PREDICTED BY IDOCK:   -7.76 KCAL/MOL
REMARK 922        TOTAL FREE ENERGY PREDICTED BY IDOCK:   -9.26 KCAL/MOL
REMARK 923 INTER-LIGAND FREE ENERGY PREDICTED BY IDOCK:   -8.79 KCAL/MOL
REMARK 924 INTRA-LIGAND FREE ENERGY PREDICTED BY IDOCK:   -0.46 KCAL/MOL
REMARK 927      BINDING AFFINITY PREDICTED BY RF-SCORE:    0.00 PKD
ROOT
HETATM    1  C   UNL     1     -12.782  14.458  70.206  1.00  0.00    -0.318 C  
HETATM    2  C   UNL     1     -12.167  13.118  69.853  1.00  0.00    -0.293 A  
HETATM    3  C   UNL     1     -11.364  12.905  68.697  1.00  0.00    -0.327 A  
HETATM    4 CL   UNL     1     -13.330  12.289  72.189  1.00  0.00    -0.587 Cl 
HETATM    5  C   UNL     1     -10.860  11.605  68.448  1.00  0.00    -0.219 A  
HETATM    6  C   UNL     1     -12.150   9.599  71.401  1.00  0.00    -0.472 C  
HETATM    7 CL   UNL     1      -9.826  11.269  67.077  1.00  0.00    -0.211 Cl 
HETATM    8  N   UNL     1     -11.140  10.537  69.330  1.00  0.00    -0.240 NA 
HETATM    9  C   UNL     1     -11.903  10.758  70.476  1.00  0.00    -0.356 A  
HETATM   10  O   UNL     1     -10.685   9.365  69.094  1.00  0.00    -0.223 OA 
HETATM   11  C   UNL     1     -12.403  12.041  70.734  1.00  0.00    -0.308 A  
ENDROOT
BRANCH   3  12
HETATM   12  C   UNL     1     -11.033  14.021  67.803  1.00  0.00    -0.258 A  
HETATM   13  O   UNL     1     -11.021  15.466  66.189  1.00  0.00    -0.323 OA 
HETATM   14  N   UNL     1     -11.547  14.227  66.578  1.00  0.00    -0.364 NA 
HETATM   15  C   UNL     1     -10.259  15.898  67.232  1.00  0.00    -0.278 A  
HETATM   16  N   UNL     1     -10.188  15.024  68.211  1.00  0.00    -0.219 NA 
BRANCH  15  17
HETATM   17  C   UNL     1      -9.737  17.263  67.216  1.00  0.00    -0.262 A  
HETATM   18  C   UNL     1      -8.652  17.694  66.428  1.00  0.00    -0.269 A  
HETATM   19  C   UNL     1      -8.230  19.044  66.480  1.00  0.00    -0.302 A  
HETATM   20  N   UNL     1      -7.094  19.474  65.663  1.00  0.00    -0.293 N  
HETATM   21  C   UNL     1      -8.890  19.967  67.302  1.00  0.00    -0.334 A  
HETATM   22  O   UNL     1      -8.582  21.297  67.443  1.00  0.00    -0.432 OA 
HETATM   23  O   UNL     1      -6.738  20.661  65.755  1.00  0.00    -0.227 OA 
HETATM   24  O   UNL     1      -6.553  18.635  64.930  1.00  0.00    -0.514 OA 
HETATM   25  C   UNL     1      -9.971  19.530  68.058  1.00  0.00    -0.406 A  
HETATM   26  H   UNL     1      -9.030  21.922  68.000  1.00  0.00     0.000 HD 
HETATM   27  C   UNL     1     -10.392  18.211  68.022  1.00  0.00    -0.405 A  
HETATM   28  O   UNL     1     -10.650  20.403  68.861  1.00  0.00    -0.352 OA 
HETATM   29  H   UNL     1     -11.389  20.104  69.378  1.00  0.00     0.000 HD 
ENDBRANCH  15  17
ENDBRANCH   3  12
TORSDOF 2
ENDMDL
MODEL       16
REMARK 921   NORMALIZED FREE ENERGY PREDICTED BY IDOCK:   -7.73 KCAL/MOL
REMARK 922        TOTAL FREE ENERGY PREDICTED BY IDOCK:   -9.22 KCAL/MOL
REMARK 923 INTER-LIGAND FREE ENERGY PREDICTED BY IDOCK:   -8.63 KCAL/MOL
REMARK 924 INTRA-LIGAND FREE ENERGY PREDICTED BY IDOCK:   -0.60 KCAL/MOL
REMARK 927      BINDING AFFINITY PREDICTED BY RF-SCORE:    0.00 PKD
ROOT
HETATM    1  C   UNL     1     -12.716  11.094  69.782  1.00  0.00    -0.007 C  
HETATM    2  C   UNL     1     -11.386  10.442  70.109  1.00  0.00    -0.397 A  
HETATM    3  C   UNL     1     -10.212  10.619  69.324  1.00  0.00    -0.235 A  
HETATM    4 CL   UNL     1     -12.732   9.447  72.276  1.00  0.00    -0.437 Cl 
HETATM    5  C   UNL     1      -9.029   9.940  69.706  1.00  0.00    -0.221 A  
HETATM    6  C   UNL     1     -10.072   8.089  72.851  1.00  0.00    -0.376 C  
HETATM    7 CL   UNL     1      -7.531  10.142  68.825  1.00  0.00    -0.082 Cl 
HETATM    8  N   UNL     1      -9.007   9.108  70.848  1.00  0.00    -0.236 NA 
HETATM    9  C   UNL     1     -10.152   8.961  71.629  1.00  0.00    -0.341 A  
HETATM   10  O   UNL     1      -7.934   8.495  71.182  1.00  0.00    -0.099 OA 
HETATM   11  C   UNL     1     -11.326   9.630  71.262  1.00  0.00    -0.388 A  
ENDROOT
BRANCH   3  12
HETATM   12  C   UNL     1     -10.219  11.519  68.164  1.00  0.00    -0.194 A  
HETATM   13  O   UNL     1     -10.508  12.385  66.200  1.00  0.00    -0.240 OA 
HETATM   14  N   UNL     1     -10.524  11.172  66.902  1.00  0.00    -0.235 NA 
HETATM   15  C   UNL     1     -10.219  13.350  67.118  1.00  0.00    -0.247 A  
HETATM   16  N   UNL     1      -9.976  12.862  68.314  1.00  0.00    -0.233 NA 
BRANCH  15  17
HETATM   17  C   UNL     1     -10.332  14.756  66.733  1.00  0.00    -0.268 A  
HETATM   18  C   UNL     1      -9.953  15.840  67.547  1.00  0.00    -0.236 A  
HETATM   19  C   UNL     1     -10.096  17.166  67.075  1.00  0.00    -0.297 A  
HETATM   20  N   UNL     1      -9.706  18.283  67.938  1.00  0.00    -0.293 N  
HETATM   21  C   UNL     1     -10.605  17.416  65.794  1.00  0.00    -0.182 A  
HETATM   22  O   UNL     1     -10.793  18.647  65.219  1.00  0.00    -0.591 OA 
HETATM   23  O   UNL     1      -9.871  19.433  67.497  1.00  0.00    -0.317 OA 
HETATM   24  O   UNL     1      -9.238  18.020  69.054  1.00  0.00    -0.188 OA 
HETATM   25  C   UNL     1     -10.956  16.334  64.996  1.00  0.00    -0.298 A  
HETATM   26  H   UNL     1     -11.138  18.817  64.350  1.00  0.00     0.000 HD 
HETATM   27  C   UNL     1     -10.827  15.031  65.446  1.00  0.00    -0.376 A  
HETATM   28  O   UNL     1     -11.442  16.536  63.734  1.00  0.00    -1.615 OA 
HETATM   29  H   UNL     1     -11.683  15.797  63.188  1.00  0.00     0.000 HD 
ENDBRANCH  15  17
ENDBRANCH   3  12
TORSDOF 2
ENDMDL
MODEL       17
REMARK 921   NORMALIZED FREE ENERGY PREDICTED BY IDOCK:   -7.72 KCAL/MOL
REMARK 922        TOTAL FREE ENERGY PREDICTED BY IDOCK:   -9.21 KCAL/MOL
REMARK 923 INTER-LIGAND FREE ENERGY PREDICTED BY IDOCK:   -8.67 KCAL/MOL
REMARK 924 INTRA-LIGAND FREE ENERGY PREDICTED BY IDOCK:   -0.54 KCAL/MOL
REMARK 927      BINDING AFFINITY PREDICTED BY RF-SCORE:    0.00 PKD
ROOT
HETATM    1  C   UNL     1      -8.439   9.632  68.666  1.00  0.00    -0.119 C  
HETATM    2  C   UNL     1      -9.524   9.556  69.723  1.00  0.00    -0.228 A  
HETATM    3  C   UNL     1     -10.709  10.345  69.689  1.00  0.00    -0.304 A  
HETATM    4 CL   UNL     1      -7.926   7.620  70.817  1.00  0.00    -0.100 Cl 
HETATM    5  C   UNL     1     -11.645  10.213  70.743  1.00  0.00    -0.357 A  
HETATM    6  C   UNL     1     -10.082   7.560  72.961  1.00  0.00    -0.342 C  
HETATM    7 CL   UNL     1     -13.148  11.109  70.752  1.00  0.00    -0.193 Cl 
HETATM    8  N   UNL     1     -11.416   9.314  71.808  1.00  0.00    -0.384 NA 
HETATM    9  C   UNL     1     -10.268   8.524  71.823  1.00  0.00    -0.282 A  
HETATM   10  O   UNL     1     -12.265   9.206  72.760  1.00  0.00    -0.070 OA 
HETATM   11  C   UNL     1      -9.337   8.643  70.783  1.00  0.00    -0.191 A  
ENDROOT
BRANCH   3  12
HETATM   12  C   UNL     1     -10.972  11.247  68.560  1.00  0.00    -0.220 A  
HETATM   13  O   UNL     1     -11.809  12.199  66.804  1.00  0.00    -0.561 OA 
HETATM   14  N   UNL     1     -11.817  11.008  67.542  1.00  0.00    -0.507 NA 
HETATM   15  C   UNL     1     -10.975  13.050  67.467  1.00  0.00    -0.259 A  
HETATM   16  N   UNL     1     -10.397  12.493  68.507  1.00  0.00    -0.235 NA 
BRANCH  15  17
HETATM   17  C   UNL     1     -10.915  14.451  67.056  1.00  0.00    -0.304 A  
HETATM   18  C   UNL     1     -10.680  15.530  67.930  1.00  0.00    -0.294 A  
HETATM   19  C   UNL     1     -10.633  16.852  67.427  1.00  0.00    -0.294 A  
HETATM   20  N   UNL     1     -10.398  17.965  68.351  1.00  0.00    -0.380 N  
HETATM   21  C   UNL     1     -10.807  17.103  66.060  1.00  0.00     0.014 A  
HETATM   22  O   UNL     1     -10.784  18.331  65.448  1.00  0.00    -0.610 OA 
HETATM   23  O   UNL     1     -10.388  19.112  67.875  1.00  0.00    -0.379 OA 
HETATM   24  O   UNL     1     -10.224  17.700  69.548  1.00  0.00    -0.170 OA 
HETATM   25  C   UNL     1     -11.018  16.025  65.209  1.00  0.00    -0.299 A  
HETATM   26  H   UNL     1     -10.901  18.500  64.521  1.00  0.00     0.000 HD 
HETATM   27  C   UNL     1     -11.073  14.726  65.687  1.00  0.00    -0.342 A  
HETATM   28  O   UNL     1     -11.177  16.227  63.866  1.00  0.00    -1.264 OA 
HETATM   29  H   UNL     1     -11.322  15.490  63.284  1.00  0.00     0.000 HD 
ENDBRANCH  15  17
ENDBRANCH   3  12
TORSDOF 2
ENDMDL
MODEL       18
REMARK 921   NORMALIZED FREE ENERGY PREDICTED BY IDOCK:   -7.70 KCAL/MOL
REMARK 922        TOTAL FREE ENERGY PREDICTED BY IDOCK:   -9.19 KCAL/MOL
REMARK 923 INTER-LIGAND FREE ENERGY PREDICTED BY IDOCK:   -8.64 KCAL/MOL
REMARK 924 INTRA-LIGAND FREE ENERGY PREDICTED BY IDOCK:   -0.55 KCAL/MOL
REMARK 927      BINDING AFFINITY PREDICTED BY RF-SCORE:    0.00 PKD
ROOT
HETATM    1  C   UNL     1     -10.899  18.412  67.474  1.00  0.00    -0.304 C  
HETATM    2  C   UNL     1      -9.497  18.165  67.998  1.00  0.00    -0.290 A  
HETATM    3  C   UNL     1      -9.049  16.900  68.471  1.00  0.00    -0.257 A  
HETATM    4 CL   UNL     1      -9.104  20.801  67.367  1.00  0.00    -0.409 Cl 
HETATM    5  C   UNL     1      -7.726  16.787  68.965  1.00  0.00    -0.213 A  
HETATM    6  C   UNL     1      -6.331  20.286  68.506  1.00  0.00    -0.347 C  
HETATM    7 CL   UNL     1      -7.082  15.257  69.519  1.00  0.00    -0.188 Cl 
HETATM    8  N   UNL     1      -6.862  17.904  68.984  1.00  0.00    -0.246 NA 
HETATM    9  C   UNL     1      -7.296  19.134  68.493  1.00  0.00    -0.313 A  
HETATM   10  O   UNL     1      -5.670  17.793  69.437  1.00  0.00    -0.199 OA 
HETATM   11  C   UNL     1      -8.601  19.256  67.999  1.00  0.00    -0.321 A  
ENDROOT
BRANCH   3  12
HETATM   12  C   UNL     1      -9.930  15.727  68.411  1.00  0.00    -0.217 A  
HETATM   13  O   UNL     1     -10.969  13.929  67.791  1.00  0.00    -0.250 OA 
HETATM   14  N   UNL     1     -10.182  14.987  67.317  1.00  0.00    -0.240 NA 
HETATM   15  C   UNL     1     -11.092  14.123  69.135  1.00  0.00    -0.262 A  
HETATM   16  N   UNL     1     -10.528  15.236  69.546  1.00  0.00    -0.246 NA 
BRANCH  15  17
HETATM   17  C   UNL     1     -11.689  13.070  69.954  1.00  0.00    -0.326 A  
HETATM   18  C   UNL     1     -11.412  11.696  69.816  1.00  0.00    -0.339 A  
HETATM   19  C   UNL     1     -12.039  10.757  70.668  1.00  0.00    -0.370 A  
HETATM   20  N   UNL     1     -11.748   9.330  70.504  1.00  0.00    -0.224 N  
HETATM   21  C   UNL     1     -12.930  11.179  71.663  1.00  0.00    -0.443 A  
HETATM   22  O   UNL     1     -13.601  10.375  72.549  1.00  0.00    -0.581 OA 
HETATM   23  O   UNL     1     -12.337   8.536  71.255  1.00  0.00    -0.307 OA 
HETATM   24  O   UNL     1     -10.936   8.999  69.630  1.00  0.00    -0.220 OA 
HETATM   25  C   UNL     1     -13.178  12.539  71.799  1.00  0.00    -0.344 A  
HETATM   26  H   UNL     1     -14.205  10.662  73.224  1.00  0.00     0.000 HD 
HETATM   27  C   UNL     1     -12.576  13.471  70.968  1.00  0.00    -0.438 A  
HETATM   28  O   UNL     1     -14.030  12.993  72.768  1.00  0.00    -0.745 OA 
HETATM   29  H   UNL     1     -14.199  13.923  72.861  1.00  0.00     0.000 HD 
ENDBRANCH  15  17
ENDBRANCH   3  12
TORSDOF 2
ENDMDL
MODEL       19
REMARK 921   NORMALIZED FREE ENERGY PREDICTED BY IDOCK:   -7.65 KCAL/MOL
REMARK 922        TOTAL FREE ENERGY PREDICTED BY IDOCK:   -9.13 KCAL/MOL
REMARK 923 INTER-LIGAND FREE ENERGY PREDICTED BY IDOCK:   -8.75 KCAL/MOL
REMARK 924 INTRA-LIGAND FREE ENERGY PREDICTED BY IDOCK:   -0.38 KCAL/MOL
REMARK 927      BINDING AFFINITY PREDICTED BY RF-SCORE:    0.00 PKD
ROOT
HETATM    1  C   UNL     1      -7.248  15.939  69.293  1.00  0.00    -0.217 C  
HETATM    2  C   UNL     1      -7.758  17.267  68.769  1.00  0.00    -0.261 A  
HETATM    3  C   UNL     1      -9.061  17.447  68.225  1.00  0.00    -0.272 A  
HETATM    4 CL   UNL     1      -5.308  18.197  69.562  1.00  0.00    -0.188 Cl 
HETATM    5  C   UNL     1      -9.426  18.727  67.739  1.00  0.00    -0.301 A  
HETATM    6  C   UNL     1      -6.337  20.823  68.423  1.00  0.00    -0.316 C  
HETATM    7 CL   UNL     1     -11.023  19.044  67.100  1.00  0.00    -0.450 Cl 
HETATM    8  N   UNL     1      -8.520  19.809  67.796  1.00  0.00    -0.312 NA 
HETATM    9  C   UNL     1      -7.255  19.635  68.356  1.00  0.00    -0.320 A  
HETATM   10  O   UNL     1      -8.857  20.960  67.350  1.00  0.00    -0.249 OA 
HETATM   11  C   UNL     1      -6.886  18.375  68.843  1.00  0.00    -0.265 A  
ENDROOT
BRANCH   3  12
HETATM   12  C   UNL     1     -10.021  16.336  68.206  1.00  0.00    -0.236 A  
HETATM   13  O   UNL     1     -11.251  14.654  67.613  1.00  0.00    -0.295 OA 
HETATM   14  N   UNL     1     -10.463  15.697  67.109  1.00  0.00    -0.297 NA 
HETATM   15  C   UNL     1     -11.185  14.753  68.971  1.00  0.00    -0.270 A  
HETATM   16  N   UNL     1     -10.497  15.797  69.375  1.00  0.00    -0.236 NA 
BRANCH  15  17
HETATM   17  C   UNL     1     -11.740  13.677  69.790  1.00  0.00    -0.364 A  
HETATM   18  C   UNL     1     -11.463  12.309  69.607  1.00  0.00    -0.285 A  
HETATM   19  C   UNL     1     -12.047  11.346  70.464  1.00  0.00    -0.394 A  
HETATM   20  N   UNL     1     -11.757   9.926  70.254  1.00  0.00    -0.242 N  
HETATM   21  C   UNL     1     -12.896  11.740  71.507  1.00  0.00    -0.345 A  
HETATM   22  O   UNL     1     -13.523  10.912  72.403  1.00  0.00    -0.587 OA 
HETATM   23  O   UNL     1     -12.309   9.110  71.011  1.00  0.00    -0.288 OA 
HETATM   24  O   UNL     1     -10.983   9.620  69.337  1.00  0.00    -0.231 OA 
HETATM   25  C   UNL     1     -13.143  13.095  71.686  1.00  0.00    -0.353 A  
HETATM   26  H   UNL     1     -14.097  11.179  73.110  1.00  0.00     0.000 HD 
HETATM   27  C   UNL     1     -12.583  14.049  70.852  1.00  0.00    -0.431 A  
HETATM   28  O   UNL     1     -13.953  13.521  72.702  1.00  0.00    -0.752 OA 
HETATM   29  H   UNL     1     -14.123  14.448  72.824  1.00  0.00     0.000 HD 
ENDBRANCH  15  17
ENDBRANCH   3  12
TORSDOF 2
ENDMDL
MODEL       20
REMARK 921   NORMALIZED FREE ENERGY PREDICTED BY IDOCK:   -7.61 KCAL/MOL
REMARK 922        TOTAL FREE ENERGY PREDICTED BY IDOCK:   -9.09 KCAL/MOL
REMARK 923 INTER-LIGAND FREE ENERGY PREDICTED BY IDOCK:   -8.49 KCAL/MOL
REMARK 924 INTRA-LIGAND FREE ENERGY PREDICTED BY IDOCK:   -0.61 KCAL/MOL
REMARK 927      BINDING AFFINITY PREDICTED BY RF-SCORE:    0.00 PKD
ROOT
HETATM    1  C   UNL     1      -7.927   8.531  69.687  1.00  0.00    -0.101 C  
HETATM    2  C   UNL     1      -9.225   8.613  70.466  1.00  0.00    -0.201 A  
HETATM    3  C   UNL     1     -10.331   9.415  70.065  1.00  0.00    -0.265 A  
HETATM    4 CL   UNL     1      -8.013   6.799  72.121  1.00  0.00    -0.096 Cl 
HETATM    5  C   UNL     1     -11.486   9.438  70.884  1.00  0.00    -0.316 A  
HETATM    6  C   UNL     1     -10.599   7.056  73.702  1.00  0.00    -0.383 C  
HETATM    7 CL   UNL     1     -12.906  10.359  70.439  1.00  0.00    -0.324 Cl 
HETATM    8  N   UNL     1     -11.549   8.677  72.072  1.00  0.00    -0.347 NA 
HETATM    9  C   UNL     1     -10.475   7.871  72.445  1.00  0.00    -0.277 A  
HETATM   10  O   UNL     1     -12.596   8.709  72.808  1.00  0.00    -0.319 OA 
HETATM   11  C   UNL     1      -9.328   7.838  71.641  1.00  0.00    -0.140 A  
ENDROOT
BRANCH   3  12
HETATM   12  C   UNL     1     -10.286  10.171  68.808  1.00  0.00    -0.186 A  
HETATM   13  O   UNL     1     -10.537  10.823  66.757  1.00  0.00    -0.246 OA 
HETATM   14  N   UNL     1     -10.636   9.705  67.597  1.00  0.00    -0.262 NA 
HETATM   15  C   UNL     1     -10.159  11.862  67.554  1.00  0.00    -0.193 A  
HETATM   16  N   UNL     1      -9.937  11.499  68.798  1.00  0.00    -0.190 NA 
BRANCH  15  17
HETATM   17  C   UNL     1     -10.169  13.218  67.008  1.00  0.00    -0.244 A  
HETATM   18  C   UNL     1     -11.010  13.654  65.967  1.00  0.00    -0.288 A  
HETATM   19  C   UNL     1     -10.946  14.994  65.517  1.00  0.00    -0.358 A  
HETATM   20  N   UNL     1     -11.820  15.429  64.425  1.00  0.00    -0.347 N  
HETATM   21  C   UNL     1     -10.058  15.903  66.106  1.00  0.00    -0.315 A  
HETATM   22  O   UNL     1      -9.898  17.222  65.765  1.00  0.00    -0.528 OA 
HETATM   23  O   UNL     1     -11.717  16.606  64.042  1.00  0.00    -1.143 OA 
HETATM   24  O   UNL     1     -12.610  14.602  63.947  1.00  0.00    -0.834 OA 
HETATM   25  C   UNL     1      -9.249  15.462  67.146  1.00  0.00    -0.213 A  
HETATM   26  H   UNL     1      -9.296  17.838  66.165  1.00  0.00     0.000 HD 
HETATM   27  C   UNL     1      -9.296  14.152  67.593  1.00  0.00    -0.209 A  
HETATM   28  O   UNL     1      -8.379  16.322  67.757  1.00  0.00    -0.159 OA 
HETATM   29  H   UNL     1      -7.826  16.021  68.468  1.00  0.00     0.000 HD 
ENDBRANCH  15  17
ENDBRANCH   3  12
TORSDOF 2
ENDMDL
MODEL       21
REMARK 921   NORMALIZED FREE ENERGY PREDICTED BY IDOCK:   -7.61 KCAL/MOL
REMARK 922        TOTAL FREE ENERGY PREDICTED BY IDOCK:   -9.09 KCAL/MOL
REMARK 923 INTER-LIGAND FREE ENERGY PREDICTED BY IDOCK:   -8.52 KCAL/MOL
REMARK 924 INTRA-LIGAND FREE ENERGY PREDICTED BY IDOCK:   -0.56 KCAL/MOL
REMARK 927      BINDING AFFINITY PREDICTED BY RF-SCORE:    0.00 PKD
ROOT
HETATM    1  C   UNL     1     -10.091  10.664  67.596  1.00  0.00    -0.208 C  
HETATM    2  C   UNL     1     -10.947  11.172  68.739  1.00  0.00    -0.268 A  
HETATM    3  C   UNL     1     -11.374  12.525  68.857  1.00  0.00    -0.346 A  
HETATM    4 CL   UNL     1     -10.886   8.564  69.569  1.00  0.00    -0.184 Cl 
HETATM    5  C   UNL     1     -12.149  12.899  69.982  1.00  0.00    -0.286 A  
HETATM    6  C   UNL     1     -12.530   9.640  71.890  1.00  0.00    -0.459 C  
HETATM    7 CL   UNL     1     -12.754  14.529  70.178  1.00  0.00    -0.331 Cl 
HETATM    8  N   UNL     1     -12.502  11.950  70.967  1.00  0.00    -0.348 NA 
HETATM    9  C   UNL     1     -12.106  10.620  70.832  1.00  0.00    -0.385 A  
HETATM   10  O   UNL     1     -13.199  12.298  71.983  1.00  0.00    -0.494 OA 
HETATM   11  C   UNL     1     -11.341  10.239  69.722  1.00  0.00    -0.273 A  
ENDROOT
BRANCH   3  12
HETATM   12  C   UNL     1     -11.047  13.504  67.812  1.00  0.00    -0.268 A  
HETATM   13  O   UNL     1     -11.099  14.782  66.064  1.00  0.00    -0.322 OA 
HETATM   14  N   UNL     1     -11.704  13.662  66.650  1.00  0.00    -0.366 NA 
HETATM   15  C   UNL     1     -10.151  15.205  66.947  1.00  0.00    -0.255 A  
HETATM   16  N   UNL     1     -10.043  14.422  67.997  1.00  0.00    -0.228 NA 
BRANCH  15  17
HETATM   17  C   UNL     1      -9.482  16.484  66.715  1.00  0.00    -0.266 A  
HETATM   18  C   UNL     1      -8.100  16.634  66.495  1.00  0.00    -0.337 A  
HETATM   19  C   UNL     1      -7.553  17.920  66.271  1.00  0.00    -0.280 A  
HETATM   20  N   UNL     1      -6.111  18.061  66.054  1.00  0.00    -0.207 N  
HETATM   21  C   UNL     1      -8.377  19.053  66.255  1.00  0.00    -0.283 A  
HETATM   22  O   UNL     1      -7.975  20.349  66.051  1.00  0.00    -0.525 OA 
HETATM   23  O   UNL     1      -5.666  19.209  65.886  1.00  0.00    -0.154 OA 
HETATM   24  O   UNL     1      -5.420  17.033  66.051  1.00  0.00    -0.293 OA 
HETATM   25  C   UNL     1      -9.741  18.885  66.455  1.00  0.00    -0.363 A  
HETATM   26  H   UNL     1      -8.534  21.117  66.039  1.00  0.00     0.000 HD 
HETATM   27  C   UNL     1     -10.290  17.633  66.680  1.00  0.00    -0.333 A  
HETATM   28  O   UNL     1     -10.581  19.964  66.431  1.00  0.00    -0.462 OA 
HETATM   29  H   UNL     1     -11.514  19.849  66.568  1.00  0.00     0.000 HD 
ENDBRANCH  15  17
ENDBRANCH   3  12
TORSDOF 2
ENDMDL
MODEL       22
REMARK 921   NORMALIZED FREE ENERGY PREDICTED BY IDOCK:   -7.57 KCAL/MOL
REMARK 922        TOTAL FREE ENERGY PREDICTED BY IDOCK:   -9.05 KCAL/MOL
REMARK 923 INTER-LIGAND FREE ENERGY PREDICTED BY IDOCK:   -8.57 KCAL/MOL
REMARK 924 INTRA-LIGAND FREE ENERGY PREDICTED BY IDOCK:   -0.48 KCAL/MOL
REMARK 927      BINDING AFFINITY PREDICTED BY RF-SCORE:    0.00 PKD
ROOT
HETATM    1  C   UNL     1      -8.695   9.905  69.811  1.00  0.00    -0.229 C  
HETATM    2  C   UNL     1      -9.826   9.089  70.406  1.00  0.00    -0.242 A  
HETATM    3  C   UNL     1     -11.170   9.552  70.485  1.00  0.00    -0.345 A  
HETATM    4 CL   UNL     1      -7.891   7.183  70.749  1.00  0.00    -0.094 Cl 
HETATM    5  C   UNL     1     -12.144   8.718  71.086  1.00  0.00    -0.267 A  
HETATM    6  C   UNL     1     -10.168   5.613  72.012  1.00  0.00    -0.252 C  
HETATM    7 CL   UNL     1     -13.825   9.192  71.179  1.00  0.00    -0.237 Cl 
HETATM    8  N   UNL     1     -11.796   7.446  71.592  1.00  0.00    -0.278 NA 
HETATM    9  C   UNL     1     -10.485   6.985  71.486  1.00  0.00    -0.204 A  
HETATM   10  O   UNL     1     -12.682   6.701  72.138  1.00  0.00    -0.236 OA 
HETATM   11  C   UNL     1      -9.514   7.800  70.891  1.00  0.00    -0.160 A  
ENDROOT
BRANCH   3  12
HETATM   12  C   UNL     1     -11.544  10.855  69.919  1.00  0.00    -0.331 A  
HETATM   13  O   UNL     1     -11.990  12.956  69.642  1.00  0.00    -0.313 OA 
HETATM   14  N   UNL     1     -11.812  11.970  70.621  1.00  0.00    -0.158 NA 
HETATM   15  C   UNL     1     -11.786  12.341  68.443  1.00  0.00    -0.304 A  
HETATM   16  N   UNL     1     -11.572  11.049  68.560  1.00  0.00    -0.370 NA 
BRANCH  15  17
HETATM   17  C   UNL     1     -11.700  13.154  67.231  1.00  0.00    -0.425 A  
HETATM   18  C   UNL     1     -12.148  12.744  65.961  1.00  0.00    -0.458 A  
HETATM   19  C   UNL     1     -12.025  13.613  64.851  1.00  0.00    -0.383 A  
HETATM   20  N   UNL     1     -12.487  13.169  63.534  1.00  0.00    -0.362 N  
HETATM   21  C   UNL     1     -11.469  14.890  65.003  1.00  0.00    -0.379 A  
HETATM   22  O   UNL     1     -11.294  15.824  64.013  1.00  0.00    -0.796 OA 
HETATM   23  O   UNL     1     -12.339  13.951  62.581  1.00  0.00    -0.082 OA 
HETATM   24  O   UNL     1     -12.996  12.043  63.446  1.00  0.00    -0.772 OA 
HETATM   25  C   UNL     1     -11.049  15.286  66.267  1.00  0.00    -0.273 A  
HETATM   26  H   UNL     1     -10.917  16.690  64.117  1.00  0.00     0.000 HD 
HETATM   27  C   UNL     1     -11.158  14.444  67.361  1.00  0.00    -0.317 A  
HETATM   28  O   UNL     1     -10.515  16.530  66.459  1.00  0.00    -0.301 OA 
HETATM   29  H   UNL     1     -10.227  16.800  67.323  1.00  0.00     0.000 HD 
ENDBRANCH  15  17
ENDBRANCH   3  12
TORSDOF 2
ENDMDL
MODEL       23
REMARK 921   NORMALIZED FREE ENERGY PREDICTED BY IDOCK:   -7.50 KCAL/MOL
REMARK 922        TOTAL FREE ENERGY PREDICTED BY IDOCK:   -8.97 KCAL/MOL
REMARK 923 INTER-LIGAND FREE ENERGY PREDICTED BY IDOCK:   -8.49 KCAL/MOL
REMARK 924 INTRA-LIGAND FREE ENERGY PREDICTED BY IDOCK:   -0.48 KCAL/MOL
REMARK 927      BINDING AFFINITY PREDICTED BY RF-SCORE:    0.00 PKD
ROOT
HETATM    1  C   UNL     1      -8.525  13.929  67.828  1.00  0.00    -0.183 C  
HETATM    2  C   UNL     1      -9.416  14.540  66.763  1.00  0.00    -0.284 A  
HETATM    3  C   UNL     1     -10.131  13.770  65.803  1.00  0.00    -0.322 A  
HETATM    4 CL   UNL     1      -8.725  16.909  67.950  1.00  0.00    -0.210 Cl 
HETATM    5  C   UNL     1     -10.913  14.445  64.834  1.00  0.00    -0.406 A  
HETATM    6  C   UNL     1     -10.451  18.100  65.747  1.00  0.00    -0.215 C  
HETATM    7 CL   UNL     1     -11.860  13.573  63.650  1.00  0.00    -0.434 Cl 
HETATM    8  N   UNL     1     -10.992  15.856  64.822  1.00  0.00    -0.552 NA 
HETATM    9  C   UNL     1     -10.313  16.603  65.782  1.00  0.00    -0.321 A  
HETATM   10  O   UNL     1     -11.698  16.457  63.939  1.00  0.00    -1.085 OA 
HETATM   11  C   UNL     1      -9.539  15.946  66.746  1.00  0.00    -0.236 A  
ENDROOT
BRANCH   3  12
HETATM   12  C   UNL     1     -10.087  12.302  65.841  1.00  0.00    -0.251 A  
HETATM   13  O   UNL     1      -9.583  10.223  65.506  1.00  0.00    -0.204 OA 
HETATM   14  N   UNL     1      -9.417  11.513  64.984  1.00  0.00    -0.196 NA 
HETATM   15  C   UNL     1     -10.318  10.366  66.644  1.00  0.00    -0.231 A  
HETATM   16  N   UNL     1     -10.698  11.607  66.855  1.00  0.00    -0.244 NA 
BRANCH  15  17
HETATM   17  C   UNL     1     -10.487   9.218  67.533  1.00  0.00    -0.338 A  
HETATM   18  C   UNL     1     -10.515   9.293  68.938  1.00  0.00    -0.235 A  
HETATM   19  C   UNL     1     -10.693   8.118  69.708  1.00  0.00    -0.229 A  
HETATM   20  N   UNL     1     -10.709   8.212  71.169  1.00  0.00    -0.218 N  
HETATM   21  C   UNL     1     -10.854   6.874  69.084  1.00  0.00    -0.228 A  
HETATM   22  O   UNL     1     -11.033   5.667  69.711  1.00  0.00    -0.345 OA 
HETATM   23  O   UNL     1     -10.842   7.155  71.809  1.00  0.00    -0.223 OA 
HETATM   24  O   UNL     1     -10.588   9.333  71.682  1.00  0.00    -0.349 OA 
HETATM   25  C   UNL     1     -10.843   6.821  67.696  1.00  0.00    -0.289 A  
HETATM   26  H   UNL     1     -11.143   4.824  69.288  1.00  0.00     0.000 HD 
HETATM   27  C   UNL     1     -10.665   7.961  66.929  1.00  0.00    -0.219 A  
HETATM   28  O   UNL     1     -11.013   5.628  67.049  1.00  0.00    -0.447 OA 
HETATM   29  H   UNL     1     -11.005   5.591  66.100  1.00  0.00     0.000 HD 
ENDBRANCH  15  17
ENDBRANCH   3  12
TORSDOF 2
ENDMDL
MODEL       24
REMARK 921   NORMALIZED FREE ENERGY PREDICTED BY IDOCK:   -7.50 KCAL/MOL
REMARK 922        TOTAL FREE ENERGY PREDICTED BY IDOCK:   -8.97 KCAL/MOL
REMARK 923 INTER-LIGAND FREE ENERGY PREDICTED BY IDOCK:   -8.40 KCAL/MOL
REMARK 924 INTRA-LIGAND FREE ENERGY PREDICTED BY IDOCK:   -0.57 KCAL/MOL
REMARK 927      BINDING AFFINITY PREDICTED BY RF-SCORE:    0.00 PKD
ROOT
HETATM    1  C   UNL     1     -11.286   6.155  68.834  1.00  0.00    -0.338 C  
HETATM    2  C   UNL     1     -10.594   5.938  70.166  1.00  0.00    -0.362 A  
HETATM    3  C   UNL     1     -10.785   6.784  71.295  1.00  0.00    -0.257 A  
HETATM    4 CL   UNL     1      -9.526   3.741  68.930  1.00  0.00    -0.232 Cl 
HETATM    5  C   UNL     1     -10.067   6.505  72.483  1.00  0.00    -0.172 A  
HETATM    6  C   UNL     1      -8.093   3.390  71.589  1.00  0.00    -0.061 C  
HETATM    7 CL   UNL     1     -10.280   7.466  73.930  1.00  0.00    -0.313 Cl 
HETATM    8  N   UNL     1      -9.183   5.406  72.556  1.00  0.00    -0.136 NA 
HETATM    9  C   UNL     1      -9.022   4.564  71.456  1.00  0.00    -0.128 A  
HETATM   10  O   UNL     1      -8.534   5.165  73.632  1.00  0.00    -0.112 OA 
HETATM   11  C   UNL     1      -9.729   4.829  70.277  1.00  0.00    -0.225 A  
ENDROOT
BRANCH   3  12
HETATM   12  C   UNL     1     -11.737   7.900  71.238  1.00  0.00    -0.287 A  
HETATM   13  O   UNL     1     -13.444   9.201  71.532  1.00  0.00    -0.360 OA 
HETATM   14  N   UNL     1     -12.996   7.886  71.709  1.00  0.00    -0.325 NA 
HETATM   15  C   UNL     1     -12.398   9.888  70.992  1.00  0.00    -0.357 A  
HETATM   16  N   UNL     1     -11.359   9.123  70.740  1.00  0.00    -0.269 NA 
BRANCH  15  17
HETATM   17  C   UNL     1     -12.483  11.343  70.879  1.00  0.00    -0.478 A  
HETATM   18  C   UNL     1     -12.012  12.088  69.781  1.00  0.00    -0.370 A  
HETATM   19  C   UNL     1     -12.152  13.496  69.767  1.00  0.00    -0.318 A  
HETATM   20  N   UNL     1     -11.646  14.257  68.622  1.00  0.00    -0.298 N  
HETATM   21  C   UNL     1     -12.768  14.162  70.833  1.00  0.00    -0.361 A  
HETATM   22  O   UNL     1     -12.966  15.516  70.942  1.00  0.00    -0.463 OA 
HETATM   23  O   UNL     1     -11.766  15.493  68.658  1.00  0.00    -0.353 OA 
HETATM   24  O   UNL     1     -11.130  13.629  67.688  1.00  0.00    -0.261 OA 
HETATM   25  C   UNL     1     -13.246  13.411  71.900  1.00  0.00    -0.431 A  
HETATM   26  H   UNL     1     -13.384  15.968  71.665  1.00  0.00     0.000 HD 
HETATM   27  C   UNL     1     -13.111  12.033  71.931  1.00  0.00    -0.475 A  
HETATM   28  O   UNL     1     -13.867  14.023  72.953  1.00  0.00    -0.657 OA 
HETATM   29  H   UNL     1     -14.193  13.509  73.682  1.00  0.00     0.000 HD 
ENDBRANCH  15  17
ENDBRANCH   3  12
TORSDOF 2
ENDMDL
MODEL       25
REMARK 921   NORMALIZED FREE ENERGY PREDICTED BY IDOCK:   -7.48 KCAL/MOL
REMARK 922        TOTAL FREE ENERGY PREDICTED BY IDOCK:   -8.95 KCAL/MOL
REMARK 923 INTER-LIGAND FREE ENERGY PREDICTED BY IDOCK:   -8.43 KCAL/MOL
REMARK 924 INTRA-LIGAND FREE ENERGY PREDICTED BY IDOCK:   -0.51 KCAL/MOL
REMARK 927      BINDING AFFINITY PREDICTED BY RF-SCORE:    0.00 PKD
ROOT
HETATM    1  C   UNL     1     -12.771  10.554  70.117  1.00  0.00    -0.191 C  
HETATM    2  C   UNL     1     -11.637   9.620  70.495  1.00  0.00    -0.341 A  
HETATM    3  C   UNL     1     -10.475   9.433  69.695  1.00  0.00    -0.236 A  
HETATM    4 CL   UNL     1     -13.135   9.174  72.744  1.00  0.00    -0.342 Cl 
HETATM    5  C   UNL     1      -9.489   8.515  70.130  1.00  0.00    -0.165 A  
HETATM    6  C   UNL     1     -10.883   7.247  73.425  1.00  0.00    -0.370 C  
HETATM    7 CL   UNL     1      -8.010   8.263  69.231  1.00  0.00    -0.112 Cl 
HETATM    8  N   UNL     1      -9.647   7.800  71.339  1.00  0.00    -0.155 NA 
HETATM    9  C   UNL     1     -10.773   8.008  72.133  1.00  0.00    -0.276 A  
HETATM   10  O   UNL     1      -8.752   6.968  71.721  1.00  0.00    -0.123 OA 
HETATM   11  C   UNL     1     -11.753   8.917  71.714  1.00  0.00    -0.362 A  
ENDROOT
BRANCH   3  12
HETATM   12  C   UNL     1     -10.287  10.208  68.462  1.00  0.00    -0.180 A  
HETATM   13  O   UNL     1     -10.293  10.886  66.404  1.00  0.00    -0.237 OA 
HETATM   14  N   UNL     1     -10.480   9.755  67.211  1.00  0.00    -0.255 NA 
HETATM   15  C   UNL     1     -10.030  11.918  67.255  1.00  0.00    -0.186 A  
HETATM   16  N   UNL     1      -9.957  11.540  68.511  1.00  0.00    -0.202 NA 
BRANCH  15  17
HETATM   17  C   UNL     1      -9.991  13.281  66.729  1.00  0.00    -0.263 A  
HETATM   18  C   UNL     1     -10.895  13.798  65.781  1.00  0.00    -0.277 A  
HETATM   19  C   UNL     1     -10.775  15.138  65.343  1.00  0.00    -0.381 A  
HETATM   20  N   UNL     1     -11.717  15.658  64.349  1.00  0.00    -0.318 N  
HETATM   21  C   UNL     1      -9.766  15.967  65.852  1.00  0.00    -0.343 A  
HETATM   22  O   UNL     1      -9.542  17.278  65.513  1.00  0.00    -0.464 OA 
HETATM   23  O   UNL     1     -11.562  16.832  63.972  1.00  0.00    -1.195 OA 
HETATM   24  O   UNL     1     -12.609  14.901  63.942  1.00  0.00    -0.831 OA 
HETATM   25  C   UNL     1      -8.895  15.448  66.801  1.00  0.00    -0.269 A  
HETATM   26  H   UNL     1      -8.859  17.840  65.859  1.00  0.00     0.000 HD 
HETATM   27  C   UNL     1      -8.997  14.136  67.235  1.00  0.00    -0.221 A  
HETATM   28  O   UNL     1      -7.907  16.229  67.333  1.00  0.00    -0.141 OA 
HETATM   29  H   UNL     1      -7.311  15.874  67.982  1.00  0.00     0.000 HD 
ENDBRANCH  15  17
ENDBRANCH   3  12
TORSDOF 2
ENDMDL
MODEL       26
REMARK 921   NORMALIZED FREE ENERGY PREDICTED BY IDOCK:   -7.45 KCAL/MOL
REMARK 922        TOTAL FREE ENERGY PREDICTED BY IDOCK:   -8.92 KCAL/MOL
REMARK 923 INTER-LIGAND FREE ENERGY PREDICTED BY IDOCK:   -8.34 KCAL/MOL
REMARK 924 INTRA-LIGAND FREE ENERGY PREDICTED BY IDOCK:   -0.58 KCAL/MOL
REMARK 927      BINDING AFFINITY PREDICTED BY RF-SCORE:    0.00 PKD
ROOT
HETATM    1  C   UNL     1     -10.192  15.112  69.278  1.00  0.00    -0.251 C  
HETATM    2  C   UNL     1     -10.506  15.480  67.840  1.00  0.00    -0.266 A  
HETATM    3  C   UNL     1     -10.894  14.530  66.854  1.00  0.00    -0.305 A  
HETATM    4 CL   UNL     1     -10.001  18.036  68.685  1.00  0.00    -0.377 Cl 
HETATM    5  C   UNL     1     -11.138  14.980  65.534  1.00  0.00    -0.357 A  
HETATM    6  C   UNL     1     -10.553  18.722  65.775  1.00  0.00    -0.321 C  
HETATM    7 CL   UNL     1     -11.666  13.886  64.275  1.00  0.00    -0.415 Cl 
HETATM    8  N   UNL     1     -11.006  16.346  65.197  1.00  0.00    -0.453 NA 
HETATM    9  C   UNL     1     -10.653  17.276  66.173  1.00  0.00    -0.204 A  
HETATM   10  O   UNL     1     -11.222  16.742  63.999  1.00  0.00    -1.089 OA 
HETATM   11  C   UNL     1     -10.413  16.843  67.483  1.00  0.00    -0.328 A  
ENDROOT
BRANCH   3  12
HETATM   12  C   UNL     1     -11.077  13.117  67.211  1.00  0.00    -0.279 A  
HETATM   13  O   UNL     1     -11.909  11.210  67.813  1.00  0.00    -0.608 OA 
HETATM   14  N   UNL     1     -12.166  12.587  67.794  1.00  0.00    -0.301 NA 
HETATM   15  C   UNL     1     -10.696  11.044  67.215  1.00  0.00    -0.265 A  
HETATM   16  N   UNL     1     -10.126  12.181  66.887  1.00  0.00    -0.205 NA 
BRANCH  15  17
HETATM   17  C   UNL     1     -10.239   9.692  66.896  1.00  0.00    -0.304 A  
HETATM   18  C   UNL     1     -10.654   8.528  67.571  1.00  0.00    -0.284 A  
HETATM   19  C   UNL     1     -10.156   7.264  67.177  1.00  0.00    -0.236 A  
HETATM   20  N   UNL     1     -10.591   6.064  67.896  1.00  0.00    -0.241 N  
HETATM   21  C   UNL     1      -9.257   7.152  66.109  1.00  0.00    -0.082 A  
HETATM   22  O   UNL     1      -8.703   5.992  65.630  1.00  0.00    -0.153 OA 
HETATM   23  O   UNL     1     -10.112   4.975  67.536  1.00  0.00    -0.174 OA 
HETATM   24  O   UNL     1     -11.406   6.201  68.818  1.00  0.00    -0.344 OA 
HETATM   25  C   UNL     1      -8.872   8.308  65.441  1.00  0.00    -0.073 A  
HETATM   26  H   UNL     1      -8.093   5.917  64.905  1.00  0.00     0.000 HD 
HETATM   27  C   UNL     1      -9.347   9.554  65.819  1.00  0.00    -0.293 A  
HETATM   28  O   UNL     1      -8.008   8.240  64.384  1.00  0.00    -0.132 OA 
HETATM   29  H   UNL     1      -7.744   9.030  63.927  1.00  0.00     0.000 HD 
ENDBRANCH  15  17
ENDBRANCH   3  12
TORSDOF 2
ENDMDL
MODEL       27
REMARK 921   NORMALIZED FREE ENERGY PREDICTED BY IDOCK:   -7.32 KCAL/MOL
REMARK 922        TOTAL FREE ENERGY PREDICTED BY IDOCK:   -8.77 KCAL/MOL
REMARK 923 INTER-LIGAND FREE ENERGY PREDICTED BY IDOCK:   -8.20 KCAL/MOL
REMARK 924 INTRA-LIGAND FREE ENERGY PREDICTED BY IDOCK:   -0.57 KCAL/MOL
REMARK 927      BINDING AFFINITY PREDICTED BY RF-SCORE:    0.00 PKD
ROOT
HETATM    1  C   UNL     1      -9.302   8.590  67.756  1.00  0.00    -0.153 C  
HETATM    2  C   UNL     1      -9.980   8.516  69.111  1.00  0.00    -0.194 A  
HETATM    3  C   UNL     1     -10.796   9.558  69.636  1.00  0.00    -0.255 A  
HETATM    4 CL   UNL     1      -8.847   6.026  69.225  1.00  0.00    -0.123 Cl 
HETATM    5  C   UNL     1     -11.360   9.396  70.925  1.00  0.00    -0.319 A  
HETATM    6  C   UNL     1     -10.152   5.953  71.971  1.00  0.00    -0.223 C  
HETATM    7 CL   UNL     1     -12.414  10.606  71.623  1.00  0.00    -0.458 Cl 
HETATM    8  N   UNL     1     -11.126   8.223  71.677  1.00  0.00    -0.251 NA 
HETATM    9  C   UNL     1     -10.349   7.195  71.147  1.00  0.00    -0.202 A  
HETATM   10  O   UNL     1     -11.635   8.089  72.844  1.00  0.00    -0.397 OA 
HETATM   11  C   UNL     1      -9.790   7.343  69.871  1.00  0.00    -0.178 A  
ENDROOT
BRANCH   3  12
HETATM   12  C   UNL     1     -11.079  10.758  68.839  1.00  0.00    -0.253 A  
HETATM   13  O   UNL     1     -11.968  12.206  67.496  1.00  0.00    -0.544 OA 
HETATM   14  N   UNL     1     -11.991  10.853  67.856  1.00  0.00    -0.501 NA 
HETATM   15  C   UNL     1     -11.057  12.801  68.318  1.00  0.00    -0.257 A  
HETATM   16  N   UNL     1     -10.448  11.947  69.110  1.00  0.00    -0.074 NA 
BRANCH  15  17
HETATM   17  C   UNL     1     -10.952  14.259  68.328  1.00  0.00    -0.261 A  
HETATM   18  C   UNL     1     -10.734  15.052  67.186  1.00  0.00    -0.303 A  
HETATM   19  C   UNL     1     -10.657  16.460  67.304  1.00  0.00    -0.293 A  
HETATM   20  N   UNL     1     -10.419  17.271  66.107  1.00  0.00    -0.318 N  
HETATM   21  C   UNL     1     -10.808  17.081  68.551  1.00  0.00    -0.310 A  
HETATM   22  O   UNL     1     -10.755  18.429  68.800  1.00  0.00    -0.315 OA 
HETATM   23  O   UNL     1     -10.333  18.501  66.256  1.00  0.00    -0.396 OA 
HETATM   24  O   UNL     1     -10.316  16.686  65.020  1.00  0.00    -0.623 OA 
HETATM   25  C   UNL     1     -11.042  16.285  69.665  1.00  0.00    -0.333 A  
HETATM   26  H   UNL     1     -10.858  18.850  69.646  1.00  0.00     0.000 HD 
HETATM   27  C   UNL     1     -11.115  14.905  69.566  1.00  0.00    -0.301 A  
HETATM   28  O   UNL     1     -11.210  16.854  70.897  1.00  0.00    -0.367 OA 
HETATM   29  H   UNL     1     -11.370  16.309  71.659  1.00  0.00     0.000 HD 
ENDBRANCH  15  17
ENDBRANCH   3  12
TORSDOF 2
ENDMDL
MODEL       28
REMARK 921   NORMALIZED FREE ENERGY PREDICTED BY IDOCK:   -7.31 KCAL/MOL
REMARK 922        TOTAL FREE ENERGY PREDICTED BY IDOCK:   -8.76 KCAL/MOL
REMARK 923 INTER-LIGAND FREE ENERGY PREDICTED BY IDOCK:   -8.17 KCAL/MOL
REMARK 924 INTRA-LIGAND FREE ENERGY PREDICTED BY IDOCK:   -0.59 KCAL/MOL
REMARK 927      BINDING AFFINITY PREDICTED BY RF-SCORE:    0.00 PKD
ROOT
HETATM    1  C   UNL     1      -6.964  10.244  70.318  1.00  0.00    -0.136 C  
HETATM    2  C   UNL     1      -7.892   9.050  70.206  1.00  0.00    -0.111 A  
HETATM    3  C   UNL     1      -8.708   8.795  69.067  1.00  0.00    -0.133 A  
HETATM    4 CL   UNL     1      -6.892   8.403  72.671  1.00  0.00    -0.109 Cl 
HETATM    5  C   UNL     1      -9.559   7.664  69.080  1.00  0.00    -0.151 A  
HETATM    6  C   UNL     1      -8.828   6.069  72.445  1.00  0.00    -0.133 C  
HETATM    7 CL   UNL     1     -10.557   7.252  67.703  1.00  0.00    -0.309 Cl 
HETATM    8  N   UNL     1      -9.598   6.797  70.194  1.00  0.00    -0.161 NA 
HETATM    9  C   UNL     1      -8.776   7.035  71.294  1.00  0.00    -0.130 A  
HETATM   10  O   UNL     1     -10.374   5.780  70.198  1.00  0.00    -0.213 OA 
HETATM   11  C   UNL     1      -7.927   8.149  71.292  1.00  0.00    -0.099 A  
ENDROOT
BRANCH   3  12
HETATM   12  C   UNL     1      -8.637   9.669  67.889  1.00  0.00    -0.122 A  
HETATM   13  O   UNL     1      -8.172  10.526  65.955  1.00  0.00    -0.142 OA 
HETATM   14  N   UNL     1      -7.761   9.554  66.877  1.00  0.00    -0.098 NA 
HETATM   15  C   UNL     1      -9.277  11.115  66.495  1.00  0.00    -0.179 A  
HETATM   16  N   UNL     1      -9.560  10.667  67.697  1.00  0.00    -0.160 NA 
BRANCH  15  17
HETATM   17  C   UNL     1     -10.065  12.035  65.676  1.00  0.00    -0.272 A  
HETATM   18  C   UNL     1      -9.972  13.439  65.737  1.00  0.00    -0.264 A  
HETATM   19  C   UNL     1     -10.776  14.240  64.893  1.00  0.00    -0.432 A  
HETATM   20  N   UNL     1     -10.675  15.699  64.976  1.00  0.00    -0.441 N  
HETATM   21  C   UNL     1     -11.662  13.651  63.982  1.00  0.00    -0.364 A  
HETATM   22  O   UNL     1     -12.493  14.311  63.111  1.00  0.00    -1.102 OA 
HETATM   23  O   UNL     1     -11.416  16.368  64.236  1.00  0.00    -0.876 OA 
HETATM   24  O   UNL     1      -9.862  16.181  65.777  1.00  0.00    -0.328 OA 
HETATM   25  C   UNL     1     -11.727  12.265  63.920  1.00  0.00    -0.451 A  
HETATM   26  H   UNL     1     -13.093  13.911  62.493  1.00  0.00     0.000 HD 
HETATM   27  C   UNL     1     -10.950  11.467  64.744  1.00  0.00    -0.303 A  
HETATM   28  O   UNL     1     -12.568  11.651  63.033  1.00  0.00    -0.950 OA 
HETATM   29  H   UNL     1     -12.613  10.703  62.991  1.00  0.00     0.000 HD 
ENDBRANCH  15  17
ENDBRANCH   3  12
TORSDOF 2
ENDMDL
MODEL       29
REMARK 921   NORMALIZED FREE ENERGY PREDICTED BY IDOCK:   -7.31 KCAL/MOL
REMARK 922        TOTAL FREE ENERGY PREDICTED BY IDOCK:   -8.75 KCAL/MOL
REMARK 923 INTER-LIGAND FREE ENERGY PREDICTED BY IDOCK:   -8.18 KCAL/MOL
REMARK 924 INTRA-LIGAND FREE ENERGY PREDICTED BY IDOCK:   -0.58 KCAL/MOL
REMARK 927      BINDING AFFINITY PREDICTED BY RF-SCORE:    0.00 PKD
ROOT
HETATM    1  C   UNL     1     -11.234   7.727  70.485  1.00  0.00    -0.267 C  
HETATM    2  C   UNL     1      -9.866   8.114  71.013  1.00  0.00    -0.212 A  
HETATM    3  C   UNL     1      -8.806   8.574  70.182  1.00  0.00    -0.138 A  
HETATM    4 CL   UNL     1     -10.956   7.518  73.454  1.00  0.00    -0.376 Cl 
HETATM    5  C   UNL     1      -7.559   8.883  70.778  1.00  0.00    -0.103 A  
HETATM    6  C   UNL     1      -8.175   8.221  74.464  1.00  0.00    -0.155 C  
HETATM    7 CL   UNL     1      -6.220   9.500  69.836  1.00  0.00    -0.043 Cl 
HETATM    8  N   UNL     1      -7.367   8.747  72.171  1.00  0.00    -0.315 NA 
HETATM    9  C   UNL     1      -8.417   8.323  72.984  1.00  0.00    -0.195 A  
HETATM   10  O   UNL     1      -6.235   9.023  72.699  1.00  0.00    -0.240 OA 
HETATM   11  C   UNL     1      -9.656   8.018  72.406  1.00  0.00    -0.232 A  
ENDROOT
BRANCH   3  12
HETATM   12  C   UNL     1      -9.016   8.761  68.741  1.00  0.00    -0.138 A  
HETATM   13  O   UNL     1      -9.352   8.441  66.625  1.00  0.00    -0.164 OA 
HETATM   14  N   UNL     1      -8.970   7.795  67.808  1.00  0.00    -0.128 NA 
HETATM   15  C   UNL     1      -9.615   9.734  66.969  1.00  0.00    -0.172 A  
HETATM   16  N   UNL     1      -9.366   9.988  68.234  1.00  0.00    -0.132 NA 
BRANCH  15  17
HETATM   17  C   UNL     1     -10.238  10.619  65.986  1.00  0.00    -0.309 A  
HETATM   18  C   UNL     1     -11.042  11.729  66.307  1.00  0.00    -0.364 A  
HETATM   19  C   UNL     1     -11.591  12.529  65.277  1.00  0.00    -0.364 A  
HETATM   20  N   UNL     1     -12.435  13.674  65.628  1.00  0.00    -0.485 N  
HETATM   21  C   UNL     1     -11.334  12.235  63.932  1.00  0.00    -0.429 A  
HETATM   22  O   UNL     1     -11.802  12.928  62.844  1.00  0.00    -0.783 OA 
HETATM   23  O   UNL     1     -12.918  14.336  64.694  1.00  0.00    -0.621 OA 
HETATM   24  O   UNL     1     -12.618  13.915  66.829  1.00  0.00    -0.311 OA 
HETATM   25  C   UNL     1     -10.522  11.149  63.633  1.00  0.00    -0.376 A  
HETATM   26  H   UNL     1     -11.627  12.729  61.932  1.00  0.00     0.000 HD 
HETATM   27  C   UNL     1      -9.982  10.353  64.630  1.00  0.00    -0.408 A  
HETATM   28  O   UNL     1     -10.234  10.838  62.332  1.00  0.00    -0.717 OA 
HETATM   29  H   UNL     1      -9.679  10.095  62.127  1.00  0.00     0.000 HD 
ENDBRANCH  15  17
ENDBRANCH   3  12
TORSDOF 2
ENDMDL
MODEL       30
REMARK 921   NORMALIZED FREE ENERGY PREDICTED BY IDOCK:   -7.29 KCAL/MOL
REMARK 922        TOTAL FREE ENERGY PREDICTED BY IDOCK:   -8.73 KCAL/MOL
REMARK 923 INTER-LIGAND FREE ENERGY PREDICTED BY IDOCK:   -8.17 KCAL/MOL
REMARK 924 INTRA-LIGAND FREE ENERGY PREDICTED BY IDOCK:   -0.57 KCAL/MOL
REMARK 927      BINDING AFFINITY PREDICTED BY RF-SCORE:    0.00 PKD
ROOT
HETATM    1  C   UNL     1     -10.204   7.270  73.779  1.00  0.00    -0.370 C  
HETATM    2  C   UNL     1     -10.034   6.477  72.498  1.00  0.00    -0.184 A  
HETATM    3  C   UNL     1     -10.776   6.736  71.311  1.00  0.00    -0.257 A  
HETATM    4 CL   UNL     1      -8.111   5.140  73.916  1.00  0.00    -0.102 Cl 
HETATM    5  C   UNL     1     -10.556   5.915  70.178  1.00  0.00    -0.292 A  
HETATM    6  C   UNL     1      -7.861   3.518  71.357  1.00  0.00    -0.060 C  
HETATM    7 CL   UNL     1     -11.391   6.197  68.666  1.00  0.00    -0.287 Cl 
HETATM    8  N   UNL     1      -9.616   4.862  70.216  1.00  0.00    -0.177 NA 
HETATM    9  C   UNL     1      -8.871   4.631  71.372  1.00  0.00    -0.123 A  
HETATM   10  O   UNL     1      -9.428   4.122  69.189  1.00  0.00    -0.154 OA 
HETATM   11  C   UNL     1      -9.078   5.439  72.497  1.00  0.00    -0.136 A  
ENDROOT
BRANCH   3  12
HETATM   12  C   UNL     1     -11.721   7.858  71.253  1.00  0.00    -0.287 A  
HETATM   13  O   UNL     1     -13.419   9.170  71.547  1.00  0.00    -0.360 OA 
HETATM   14  N   UNL     1     -12.979   7.852  71.726  1.00  0.00    -0.325 NA 
HETATM   15  C   UNL     1     -12.370   9.849  71.004  1.00  0.00    -0.357 A  
HETATM   16  N   UNL     1     -11.336   9.077  70.752  1.00  0.00    -0.269 NA 
BRANCH  15  17
HETATM   17  C   UNL     1     -12.446  11.304  70.888  1.00  0.00    -0.493 A  
HETATM   18  C   UNL     1     -11.872  12.054  69.844  1.00  0.00    -0.405 A  
HETATM   19  C   UNL     1     -12.012  13.462  69.821  1.00  0.00    -0.330 A  
HETATM   20  N   UNL     1     -11.400  14.228  68.734  1.00  0.00    -0.259 N  
HETATM   21  C   UNL     1     -12.730  14.124  70.826  1.00  0.00    -0.344 A  
HETATM   22  O   UNL     1     -12.939  15.477  70.919  1.00  0.00    -0.463 OA 
HETATM   23  O   UNL     1     -11.524  15.464  68.763  1.00  0.00    -0.301 OA 
HETATM   24  O   UNL     1     -10.794  13.604  67.852  1.00  0.00    -0.243 OA 
HETATM   25  C   UNL     1     -13.307  13.368  71.838  1.00  0.00    -0.451 A  
HETATM   26  H   UNL     1     -13.427  15.925  71.600  1.00  0.00     0.000 HD 
HETATM   27  C   UNL     1     -13.174  11.989  71.877  1.00  0.00    -0.469 A  
HETATM   28  O   UNL     1     -14.029  13.975  72.828  1.00  0.00    -0.669 OA 
HETATM   29  H   UNL     1     -14.424  13.458  73.521  1.00  0.00     0.000 HD 
ENDBRANCH  15  17
ENDBRANCH   3  12
TORSDOF 2
ENDMDL
MODEL       31
REMARK 921   NORMALIZED FREE ENERGY PREDICTED BY IDOCK:   -7.28 KCAL/MOL
REMARK 922        TOTAL FREE ENERGY PREDICTED BY IDOCK:   -8.72 KCAL/MOL
REMARK 923 INTER-LIGAND FREE ENERGY PREDICTED BY IDOCK:   -8.39 KCAL/MOL
REMARK 924 INTRA-LIGAND FREE ENERGY PREDICTED BY IDOCK:   -0.33 KCAL/MOL
REMARK 927      BINDING AFFINITY PREDICTED BY RF-SCORE:    0.00 PKD
ROOT
HETATM    1  C   UNL     1     -11.140   6.108  68.690  1.00  0.00    -0.378 C  
HETATM    2  C   UNL     1     -10.574   5.787  70.060  1.00  0.00    -0.380 A  
HETATM    3  C   UNL     1     -10.818   6.583  71.214  1.00  0.00    -0.294 A  
HETATM    4 CL   UNL     1      -9.511   3.603  68.795  1.00  0.00    -0.228 Cl 
HETATM    5  C   UNL     1     -10.216   6.207  72.440  1.00  0.00    -0.188 A  
HETATM    6  C   UNL     1      -8.325   3.042  71.539  1.00  0.00    -0.081 C  
HETATM    7 CL   UNL     1     -10.504   7.102  73.915  1.00  0.00    -0.382 Cl 
HETATM    8  N   UNL     1      -9.395   5.061  72.523  1.00  0.00    -0.132 NA 
HETATM    9  C   UNL     1      -9.182   4.269  71.396  1.00  0.00    -0.134 A  
HETATM   10  O   UNL     1      -8.851   4.732  73.634  1.00  0.00    -0.106 OA 
HETATM   11  C   UNL     1      -9.775   4.630  70.179  1.00  0.00    -0.215 A  
ENDROOT
BRANCH   3  12
HETATM   12  C   UNL     1     -11.708   7.749  71.142  1.00  0.00    -0.284 A  
HETATM   13  O   UNL     1     -13.281   9.196  71.495  1.00  0.00    -0.341 OA 
HETATM   14  N   UNL     1     -12.882   7.884  71.782  1.00  0.00    -0.324 NA 
HETATM   15  C   UNL     1     -12.291   9.732  70.727  1.00  0.00    -0.236 A  
HETATM   16  N   UNL     1     -11.343   8.869  70.436  1.00  0.00    -0.239 NA 
BRANCH  15  17
HETATM   17  C   UNL     1     -12.315  11.164  70.432  1.00  0.00    -0.430 A  
HETATM   18  C   UNL     1     -12.716  12.160  71.343  1.00  0.00    -0.368 A  
HETATM   19  C   UNL     1     -12.695  13.522  70.959  1.00  0.00    -0.322 A  
HETATM   20  N   UNL     1     -13.124  14.546  71.914  1.00  0.00    -0.330 N  
HETATM   21  C   UNL     1     -12.266  13.896  69.678  1.00  0.00    -0.321 A  
HETATM   22  O   UNL     1     -12.197  15.174  69.184  1.00  0.00    -0.532 OA 
HETATM   23  O   UNL     1     -13.114  15.727  71.531  1.00  0.00    -0.484 OA 
HETATM   24  O   UNL     1     -13.472  14.177  73.044  1.00  0.00    -0.661 OA 
HETATM   25  C   UNL     1     -11.855  12.902  68.799  1.00  0.00    -0.315 A  
HETATM   26  H   UNL     1     -11.906  15.427  68.316  1.00  0.00     0.000 HD 
HETATM   27  C   UNL     1     -11.876  11.565  69.158  1.00  0.00    -0.406 A  
HETATM   28  O   UNL     1     -11.415  13.228  67.546  1.00  0.00    -0.287 OA 
HETATM   29  H   UNL     1     -11.135  12.548  66.944  1.00  0.00     0.000 HD 
ENDBRANCH  15  17
ENDBRANCH   3  12
TORSDOF 2
ENDMDL
MODEL       32
REMARK 921   NORMALIZED FREE ENERGY PREDICTED BY IDOCK:   -7.21 KCAL/MOL
REMARK 922        TOTAL FREE ENERGY PREDICTED BY IDOCK:   -8.65 KCAL/MOL
REMARK 923 INTER-LIGAND FREE ENERGY PREDICTED BY IDOCK:   -8.10 KCAL/MOL
REMARK 924 INTRA-LIGAND FREE ENERGY PREDICTED BY IDOCK:   -0.55 KCAL/MOL
REMARK 927      BINDING AFFINITY PREDICTED BY RF-SCORE:    0.00 PKD
ROOT
HETATM    1  C   UNL     1      -8.404  10.015  70.298  1.00  0.00     0.041 C  
HETATM    2  C   UNL     1      -8.661   8.728  69.539  1.00  0.00    -0.130 A  
HETATM    3  C   UNL     1      -9.701   8.578  68.578  1.00  0.00    -0.174 A  
HETATM    4 CL   UNL     1      -6.485   7.811  70.926  1.00  0.00    -0.038 Cl 
HETATM    5  C   UNL     1      -9.868   7.322  67.946  1.00  0.00    -0.144 A  
HETATM    6  C   UNL     1      -7.085   5.222  69.446  1.00  0.00    -0.056 C  
HETATM    7 CL   UNL     1     -11.090   7.068  66.720  1.00  0.00    -0.213 Cl 
HETATM    8  N   UNL     1      -9.018   6.236  68.254  1.00  0.00    -0.116 NA 
HETATM    9  C   UNL     1      -7.983   6.397  69.173  1.00  0.00    -0.111 A  
HETATM   10  O   UNL     1      -9.181   5.104  67.681  1.00  0.00    -0.113 OA 
HETATM   11  C   UNL     1      -7.806   7.636  69.802  1.00  0.00    -0.110 A  
ENDROOT
BRANCH   3  12
HETATM   12  C   UNL     1     -10.557   9.717  68.223  1.00  0.00    -0.229 A  
HETATM   13  O   UNL     1     -12.005  11.328  68.262  1.00  0.00    -0.582 OA 
HETATM   14  N   UNL     1     -11.599  10.172  68.941  1.00  0.00    -0.070 NA 
HETATM   15  C   UNL     1     -11.148  11.470  67.211  1.00  0.00    -0.293 A  
HETATM   16  N   UNL     1     -10.289  10.481  67.114  1.00  0.00    -0.222 NA 
BRANCH  15  17
HETATM   17  C   UNL     1     -11.183  12.702  66.426  1.00  0.00    -0.350 A  
HETATM   18  C   UNL     1     -10.602  13.921  66.825  1.00  0.00    -0.277 A  
HETATM   19  C   UNL     1     -10.685  15.056  65.984  1.00  0.00    -0.326 A  
HETATM   20  N   UNL     1     -10.084  16.319  66.418  1.00  0.00    -0.289 N  
HETATM   21  C   UNL     1     -11.335  14.979  64.745  1.00  0.00    -0.406 A  
HETATM   22  O   UNL     1     -11.484  16.000  63.840  1.00  0.00    -1.188 OA 
HETATM   23  O   UNL     1     -10.200  17.298  65.663  1.00  0.00    -0.579 OA 
HETATM   24  O   UNL     1      -9.498  16.339  67.509  1.00  0.00    -0.224 OA 
HETATM   25  C   UNL     1     -11.886  13.765  64.358  1.00  0.00    -0.427 A  
HETATM   26  H   UNL     1     -11.924  15.948  63.000  1.00  0.00     0.000 HD 
HETATM   27  C   UNL     1     -11.817  12.646  65.172  1.00  0.00    -0.437 A  
HETATM   28  O   UNL     1     -12.514  13.645  63.149  1.00  0.00    -1.033 OA 
HETATM   29  H   UNL     1     -12.892  12.814  62.884  1.00  0.00     0.000 HD 
ENDBRANCH  15  17
ENDBRANCH   3  12
TORSDOF 2
ENDMDL
MODEL       33
REMARK 921   NORMALIZED FREE ENERGY PREDICTED BY IDOCK:   -7.20 KCAL/MOL
REMARK 922        TOTAL FREE ENERGY PREDICTED BY IDOCK:   -8.63 KCAL/MOL
REMARK 923 INTER-LIGAND FREE ENERGY PREDICTED BY IDOCK:   -8.06 KCAL/MOL
REMARK 924 INTRA-LIGAND FREE ENERGY PREDICTED BY IDOCK:   -0.57 KCAL/MOL
REMARK 927      BINDING AFFINITY PREDICTED BY RF-SCORE:    0.00 PKD
ROOT
HETATM    1  C   UNL     1     -10.164   8.720  71.949  1.00  0.00    -0.415 C  
HETATM    2  C   UNL     1     -10.009   7.431  71.166  1.00  0.00    -0.188 A  
HETATM    3  C   UNL     1      -9.745   7.390  69.768  1.00  0.00    -0.170 A  
HETATM    4 CL   UNL     1     -10.387   6.240  73.603  1.00  0.00    -0.257 Cl 
HETATM    5  C   UNL     1      -9.646   6.129  69.131  1.00  0.00    -0.135 A  
HETATM    6  C   UNL     1     -10.156   3.677  71.982  1.00  0.00    -0.199 C  
HETATM    7 CL   UNL     1      -9.275   5.990  67.427  1.00  0.00    -0.110 Cl 
HETATM    8  N   UNL     1      -9.799   4.932  69.864  1.00  0.00    -0.205 NA 
HETATM    9  C   UNL     1     -10.030   4.977  71.238  1.00  0.00    -0.197 A  
HETATM   10  O   UNL     1      -9.714   3.797  69.278  1.00  0.00    -0.176 OA 
HETATM   11  C   UNL     1     -10.126   6.219  71.880  1.00  0.00    -0.181 A  
ENDROOT
BRANCH   3  12
HETATM   12  C   UNL     1      -9.540   8.632  69.012  1.00  0.00    -0.163 A  
HETATM   13  O   UNL     1      -8.667  10.346  68.016  1.00  0.00    -0.121 OA 
HETATM   14  N   UNL     1      -8.394   9.330  68.942  1.00  0.00    -0.118 NA 
HETATM   15  C   UNL     1      -9.948  10.142  67.598  1.00  0.00    -0.181 A  
HETATM   16  N   UNL     1     -10.538   9.147  68.222  1.00  0.00    -0.202 NA 
BRANCH  15  17
HETATM   17  C   UNL     1     -10.462  10.919  66.471  1.00  0.00    -0.308 A  
HETATM   18  C   UNL     1     -11.207  12.108  66.594  1.00  0.00    -0.375 A  
HETATM   19  C   UNL     1     -11.651  12.789  65.436  1.00  0.00    -0.358 A  
HETATM   20  N   UNL     1     -12.434  14.019  65.581  1.00  0.00    -0.489 N  
HETATM   21  C   UNL     1     -11.347  12.299  64.159  1.00  0.00    -0.376 A  
HETATM   22  O   UNL     1     -11.716  12.862  62.963  1.00  0.00    -0.831 OA 
HETATM   23  O   UNL     1     -12.826  14.574  64.541  1.00  0.00    -0.613 OA 
HETATM   24  O   UNL     1     -12.660  14.433  66.726  1.00  0.00    -0.219 OA 
HETATM   25  C   UNL     1     -10.595  11.136  64.056  1.00  0.00    -0.368 A  
HETATM   26  H   UNL     1     -11.509  12.530  62.098  1.00  0.00     0.000 HD 
HETATM   27  C   UNL     1     -10.158  10.455  65.180  1.00  0.00    -0.379 A  
HETATM   28  O   UNL     1     -10.265  10.634  62.827  1.00  0.00    -0.730 OA 
HETATM   29  H   UNL     1      -9.750   9.839  62.756  1.00  0.00     0.000 HD 
ENDBRANCH  15  17
ENDBRANCH   3  12
TORSDOF 2
ENDMDL
MODEL       34
REMARK 921   NORMALIZED FREE ENERGY PREDICTED BY IDOCK:   -7.18 KCAL/MOL
REMARK 922        TOTAL FREE ENERGY PREDICTED BY IDOCK:   -8.62 KCAL/MOL
REMARK 923 INTER-LIGAND FREE ENERGY PREDICTED BY IDOCK:   -8.26 KCAL/MOL
REMARK 924 INTRA-LIGAND FREE ENERGY PREDICTED BY IDOCK:   -0.35 KCAL/MOL
REMARK 927      BINDING AFFINITY PREDICTED BY RF-SCORE:    0.00 PKD
ROOT
HETATM    1  C   UNL     1     -10.336   6.995  73.828  1.00  0.00    -0.408 C  
HETATM    2  C   UNL     1     -10.161   6.233  72.529  1.00  0.00    -0.203 A  
HETATM    3  C   UNL     1     -10.842   6.570  71.325  1.00  0.00    -0.294 A  
HETATM    4 CL   UNL     1      -8.370   4.747  73.972  1.00  0.00    -0.104 Cl 
HETATM    5  C   UNL     1     -10.625   5.773  70.174  1.00  0.00    -0.307 A  
HETATM    6  C   UNL     1      -8.113   3.192  71.371  1.00  0.00    -0.062 C  
HETATM    7 CL   UNL     1     -11.384   6.148  68.643  1.00  0.00    -0.287 Cl 
HETATM    8  N   UNL     1      -9.746   4.668  70.212  1.00  0.00    -0.206 NA 
HETATM    9  C   UNL     1      -9.061   4.360  71.386  1.00  0.00    -0.127 A  
HETATM   10  O   UNL     1      -9.561   3.950  69.169  1.00  0.00    -0.178 OA 
HETATM   11  C   UNL     1      -9.265   5.143  72.529  1.00  0.00    -0.132 A  
ENDROOT
BRANCH   3  12
HETATM   12  C   UNL     1     -11.721   7.745  71.269  1.00  0.00    -0.288 A  
HETATM   13  O   UNL     1     -13.264   9.214  71.660  1.00  0.00    -0.340 OA 
HETATM   14  N   UNL     1     -12.869   7.902  71.950  1.00  0.00    -0.319 NA 
HETATM   15  C   UNL     1     -12.297   9.730  70.849  1.00  0.00    -0.290 A  
HETATM   16  N   UNL     1     -11.370   8.852  70.536  1.00  0.00    -0.256 NA 
BRANCH  15  17
HETATM   17  C   UNL     1     -12.316  11.158  70.537  1.00  0.00    -0.454 A  
HETATM   18  C   UNL     1     -12.773  12.161  71.413  1.00  0.00    -0.368 A  
HETATM   19  C   UNL     1     -12.741  13.518  71.015  1.00  0.00    -0.322 A  
HETATM   20  N   UNL     1     -13.230  14.549  71.934  1.00  0.00    -0.336 N  
HETATM   21  C   UNL     1     -12.247  13.881  69.755  1.00  0.00    -0.332 A  
HETATM   22  O   UNL     1     -12.161  15.154  69.251  1.00  0.00    -0.512 OA 
HETATM   23  O   UNL     1     -13.208  15.726  71.538  1.00  0.00    -0.490 OA 
HETATM   24  O   UNL     1     -13.636  14.190  73.048  1.00  0.00    -0.651 OA 
HETATM   25  C   UNL     1     -11.782  12.881  68.911  1.00  0.00    -0.327 A  
HETATM   26  H   UNL     1     -11.825  15.400  68.397  1.00  0.00     0.000 HD 
HETATM   27  C   UNL     1     -11.812  11.547  69.284  1.00  0.00    -0.414 A  
HETATM   28  O   UNL     1     -11.277  13.196  67.680  1.00  0.00    -0.259 OA 
HETATM   29  H   UNL     1     -10.959  12.512  67.102  1.00  0.00     0.000 HD 
ENDBRANCH  15  17
ENDBRANCH   3  12
TORSDOF 2
ENDMDL
MODEL       35
REMARK 921   NORMALIZED FREE ENERGY PREDICTED BY IDOCK:   -7.18 KCAL/MOL
REMARK 922        TOTAL FREE ENERGY PREDICTED BY IDOCK:   -8.61 KCAL/MOL
REMARK 923 INTER-LIGAND FREE ENERGY PREDICTED BY IDOCK:   -8.47 KCAL/MOL
REMARK 924 INTRA-LIGAND FREE ENERGY PREDICTED BY IDOCK:   -0.15 KCAL/MOL
REMARK 927      BINDING AFFINITY PREDICTED BY RF-SCORE:    0.00 PKD
ROOT
HETATM    1  C   UNL     1      -9.334   9.186  65.298  1.00  0.00    -0.224 C  
HETATM    2  C   UNL     1      -9.286   8.766  66.755  1.00  0.00    -0.229 A  
HETATM    3  C   UNL     1      -9.867   9.526  67.809  1.00  0.00    -0.196 A  
HETATM    4 CL   UNL     1      -7.973   6.569  65.783  1.00  0.00    -0.108 Cl 
HETATM    5  C   UNL     1      -9.739   9.054  69.139  1.00  0.00    -0.167 A  
HETATM    6  C   UNL     1      -7.822   5.805  68.723  1.00  0.00    -0.097 C  
HETATM    7 CL   UNL     1     -10.465   9.902  70.486  1.00  0.00    -0.354 Cl 
HETATM    8  N   UNL     1      -9.056   7.850  69.418  1.00  0.00    -0.146 NA 
HETATM    9  C   UNL     1      -8.514   7.095  68.380  1.00  0.00    -0.124 A  
HETATM   10  O   UNL     1      -8.942   7.435  70.623  1.00  0.00    -0.153 OA 
HETATM   11  C   UNL     1      -8.637   7.550  67.061  1.00  0.00    -0.122 A  
ENDROOT
BRANCH   3  12
HETATM   12  C   UNL     1     -10.617  10.754  67.517  1.00  0.00    -0.237 A  
HETATM   13  O   UNL     1     -12.106  12.327  67.474  1.00  0.00    -0.514 OA 
HETATM   14  N   UNL     1     -11.894  10.996  67.859  1.00  0.00    -0.608 NA 
HETATM   15  C   UNL     1     -10.922  12.764  66.959  1.00  0.00    -0.263 A  
HETATM   16  N   UNL     1     -10.006  11.823  66.909  1.00  0.00    -0.197 NA 
BRANCH  15  17
HETATM   17  C   UNL     1     -10.760  14.185  66.655  1.00  0.00    -0.289 A  
HETATM   18  C   UNL     1     -10.117  15.113  67.496  1.00  0.00    -0.232 A  
HETATM   19  C   UNL     1     -10.006  16.468  67.102  1.00  0.00    -0.266 A  
HETATM   20  N   UNL     1      -9.343  17.424  67.993  1.00  0.00    -0.269 N  
HETATM   21  C   UNL     1     -10.521  16.899  65.873  1.00  0.00    -0.285 A  
HETATM   22  O   UNL     1     -10.479  18.177  65.376  1.00  0.00    -0.598 OA 
HETATM   23  O   UNL     1      -9.287  18.608  67.623  1.00  0.00    -0.284 OA 
HETATM   24  O   UNL     1      -8.879  16.999  69.060  1.00  0.00    -0.232 OA 
HETATM   25  C   UNL     1     -11.135  15.966  65.046  1.00  0.00    -0.360 A  
HETATM   26  H   UNL     1     -10.827  18.469  64.542  1.00  0.00     0.000 HD 
HETATM   27  C   UNL     1     -11.256  14.638  65.420  1.00  0.00    -0.347 A  
HETATM   28  O   UNL     1     -11.637  16.344  63.832  1.00  0.00    -1.564 OA 
HETATM   29  H   UNL     1     -12.057  15.706  63.266  1.00  0.00     0.000 HD 
ENDBRANCH  15  17
ENDBRANCH   3  12
TORSDOF 2
ENDMDL
MODEL       36
REMARK 921   NORMALIZED FREE ENERGY PREDICTED BY IDOCK:   -7.18 KCAL/MOL
REMARK 922        TOTAL FREE ENERGY PREDICTED BY IDOCK:   -8.61 KCAL/MOL
REMARK 923 INTER-LIGAND FREE ENERGY PREDICTED BY IDOCK:   -8.05 KCAL/MOL
REMARK 924 INTRA-LIGAND FREE ENERGY PREDICTED BY IDOCK:   -0.56 KCAL/MOL
REMARK 927      BINDING AFFINITY PREDICTED BY RF-SCORE:    0.00 PKD
ROOT
HETATM    1  C   UNL     1     -11.913  12.631  69.899  1.00  0.00    -0.365 C  
HETATM    2  C   UNL     1     -11.395  11.521  69.006  1.00  0.00    -0.339 A  
HETATM    3  C   UNL     1     -11.067  11.708  67.633  1.00  0.00    -0.314 A  
HETATM    4 CL   UNL     1     -11.558  10.003  71.279  1.00  0.00    -0.446 Cl 
HETATM    5  C   UNL     1     -10.617  10.595  66.883  1.00  0.00    -0.254 A  
HETATM    6  C   UNL     1     -10.599   7.784  69.433  1.00  0.00    -0.211 C  
HETATM    7 CL   UNL     1     -10.147  10.750  65.204  1.00  0.00    -0.341 Cl 
HETATM    8  N   UNL     1     -10.486   9.322  67.481  1.00  0.00    -0.261 NA 
HETATM    9  C   UNL     1     -10.781   9.150  68.832  1.00  0.00    -0.141 A  
HETATM   10  O   UNL     1     -10.083   8.321  66.793  1.00  0.00    -0.257 OA 
HETATM   11  C   UNL     1     -11.224  10.245  69.585  1.00  0.00    -0.269 A  
ENDROOT
BRANCH   3  12
HETATM   12  C   UNL     1     -11.158  13.040  67.020  1.00  0.00    -0.281 A  
HETATM   13  O   UNL     1     -11.856  14.833  66.025  1.00  0.00    -0.311 OA 
HETATM   14  N   UNL     1     -12.175  13.490  66.264  1.00  0.00    -0.424 NA 
HETATM   15  C   UNL     1     -10.686  15.067  66.685  1.00  0.00    -0.312 A  
HETATM   16  N   UNL     1     -10.194  13.989  67.253  1.00  0.00    -0.258 NA 
BRANCH  15  17
HETATM   17  C   UNL     1     -10.196  16.439  66.799  1.00  0.00    -0.285 A  
HETATM   18  C   UNL     1      -9.136  16.842  67.633  1.00  0.00    -0.223 A  
HETATM   19  C   UNL     1      -8.732  18.198  67.663  1.00  0.00    -0.248 A  
HETATM   20  N   UNL     1      -7.634  18.603  68.544  1.00  0.00    -0.302 N  
HETATM   21  C   UNL     1      -9.371  19.151  66.858  1.00  0.00    -0.319 A  
HETATM   22  O   UNL     1      -9.078  20.489  66.794  1.00  0.00    -0.539 OA 
HETATM   23  O   UNL     1      -7.326  19.806  68.560  1.00  0.00    -0.317 OA 
HETATM   24  O   UNL     1      -7.079  17.727  69.221  1.00  0.00    -0.220 OA 
HETATM   25  C   UNL     1     -10.402  18.733  66.026  1.00  0.00    -0.422 A  
HETATM   26  H   UNL     1      -9.511  21.135  66.247  1.00  0.00     0.000 HD 
HETATM   27  C   UNL     1     -10.812  17.410  65.990  1.00  0.00     0.016 A  
HETATM   28  O   UNL     1     -11.040  19.630  65.214  1.00  0.00    -0.409 OA 
HETATM   29  H   UNL     1     -11.746  19.344  64.645  1.00  0.00     0.000 HD 
ENDBRANCH  15  17
ENDBRANCH   3  12
TORSDOF 2
ENDMDL
MODEL       37
REMARK 921   NORMALIZED FREE ENERGY PREDICTED BY IDOCK:   -7.18 KCAL/MOL
REMARK 922        TOTAL FREE ENERGY PREDICTED BY IDOCK:   -8.61 KCAL/MOL
REMARK 923 INTER-LIGAND FREE ENERGY PREDICTED BY IDOCK:   -8.06 KCAL/MOL
REMARK 924 INTRA-LIGAND FREE ENERGY PREDICTED BY IDOCK:   -0.55 KCAL/MOL
REMARK 927      BINDING AFFINITY PREDICTED BY RF-SCORE:    0.00 PKD
ROOT
HETATM    1  C   UNL     1      -9.975  15.346  69.434  1.00  0.00    -0.272 C  
HETATM    2  C   UNL     1     -10.352  15.732  68.017  1.00  0.00    -0.252 A  
HETATM    3  C   UNL     1     -10.773  14.792  67.034  1.00  0.00    -0.300 A  
HETATM    4 CL   UNL     1      -9.833  18.279  68.876  1.00  0.00    -0.365 Cl 
HETATM    5  C   UNL     1     -11.076  15.258  65.731  1.00  0.00    -0.301 A  
HETATM    6  C   UNL     1     -10.513  19.002  66.001  1.00  0.00    -0.530 C  
HETATM    7 CL   UNL     1     -11.647  14.177  64.480  1.00  0.00    -0.399 Cl 
HETATM    8  N   UNL     1     -10.969  16.629  65.409  1.00  0.00    -0.274 NA 
HETATM    9  C   UNL     1     -10.583  17.549  66.382  1.00  0.00    -0.195 A  
HETATM   10  O   UNL     1     -11.239  17.040  64.227  1.00  0.00    -1.186 OA 
HETATM   11  C   UNL     1     -10.285  17.100  67.675  1.00  0.00    -0.329 A  
ENDROOT
BRANCH   3  12
HETATM   12  C   UNL     1     -10.929  13.373  67.378  1.00  0.00    -0.272 A  
HETATM   13  O   UNL     1     -11.710  11.457  68.021  1.00  0.00    -0.484 OA 
HETATM   14  N   UNL     1     -11.958  12.836  68.056  1.00  0.00    -0.323 NA 
HETATM   15  C   UNL     1     -10.564  11.298  67.300  1.00  0.00    -0.233 A  
HETATM   16  N   UNL     1     -10.022  12.439  66.941  1.00  0.00    -0.212 NA 
BRANCH  15  17
HETATM   17  C   UNL     1     -10.151   9.951  66.910  1.00  0.00    -0.285 A  
HETATM   18  C   UNL     1      -8.986   9.654  66.176  1.00  0.00    -0.186 A  
HETATM   19  C   UNL     1      -8.673   8.312  65.856  1.00  0.00    -0.159 A  
HETATM   20  N   UNL     1      -7.463   8.020  65.083  1.00  0.00    -0.080 N  
HETATM   21  C   UNL     1      -9.506   7.265  66.272  1.00  0.00    -0.073 A  
HETATM   22  O   UNL     1      -9.317   5.928  66.029  1.00  0.00    -0.213 OA 
HETATM   23  O   UNL     1      -7.236   6.832  64.801  1.00  0.00    -0.073 OA 
HETATM   24  O   UNL     1      -6.739   8.970  64.755  1.00  0.00    -0.075 OA 
HETATM   25  C   UNL     1     -10.641   7.574  67.012  1.00  0.00    -0.339 A  
HETATM   26  H   UNL     1      -9.882   5.219  66.312  1.00  0.00     0.000 HD 
HETATM   27  C   UNL     1     -10.964   8.883  67.328  1.00  0.00     0.093 A  
HETATM   28  O   UNL     1     -11.471   6.580  67.450  1.00  0.00    -0.740 OA 
HETATM   29  H   UNL     1     -12.248   6.791  67.956  1.00  0.00     0.000 HD 
ENDBRANCH  15  17
ENDBRANCH   3  12
TORSDOF 2
ENDMDL
MODEL       38
REMARK 921   NORMALIZED FREE ENERGY PREDICTED BY IDOCK:   -7.18 KCAL/MOL
REMARK 922        TOTAL FREE ENERGY PREDICTED BY IDOCK:   -8.61 KCAL/MOL
REMARK 923 INTER-LIGAND FREE ENERGY PREDICTED BY IDOCK:   -8.01 KCAL/MOL
REMARK 924 INTRA-LIGAND FREE ENERGY PREDICTED BY IDOCK:   -0.60 KCAL/MOL
REMARK 927      BINDING AFFINITY PREDICTED BY RF-SCORE:    0.00 PKD
ROOT
HETATM    1  C   UNL     1     -11.982  15.746  68.940  1.00  0.00    -0.268 C  
HETATM    2  C   UNL     1     -10.579  15.502  68.420  1.00  0.00    -0.252 A  
HETATM    3  C   UNL     1     -10.047  14.203  68.180  1.00  0.00    -0.239 A  
HETATM    4 CL   UNL     1     -10.423  18.235  68.381  1.00  0.00    -0.341 Cl 
HETATM    5  C   UNL     1      -8.712  14.089  67.719  1.00  0.00    -0.185 A  
HETATM    6  C   UNL     1      -7.587  17.701  67.422  1.00  0.00    -0.213 C  
HETATM    7 CL   UNL     1      -7.999  12.534  67.353  1.00  0.00    -0.171 Cl 
HETATM    8  N   UNL     1      -7.922  15.237  67.494  1.00  0.00    -0.160 NA 
HETATM    9  C   UNL     1      -8.457  16.507  67.704  1.00  0.00    -0.173 A  
HETATM   10  O   UNL     1      -6.715  15.123  67.083  1.00  0.00    -0.279 OA 
HETATM   11  C   UNL     1      -9.776  16.632  68.156  1.00  0.00    -0.244 A  
ENDROOT
BRANCH   3  12
HETATM   12  C   UNL     1     -10.881  13.009  68.369  1.00  0.00    -0.258 A  
HETATM   13  O   UNL     1     -12.163  11.292  68.057  1.00  0.00    -0.621 OA 
HETATM   14  N   UNL     1     -11.691  12.462  67.447  1.00  0.00    -0.433 NA 
HETATM   15  C   UNL     1     -11.568  11.237  69.282  1.00  0.00    -0.322 A  
HETATM   16  N   UNL     1     -10.826  12.292  69.538  1.00  0.00     0.046 NA 
BRANCH  15  17
HETATM   17  C   UNL     1     -11.699  10.022  70.084  1.00  0.00    -0.285 A  
HETATM   18  C   UNL     1     -10.972   8.837  69.864  1.00  0.00    -0.184 A  
HETATM   19  C   UNL     1     -11.169   7.717  70.706  1.00  0.00    -0.271 A  
HETATM   20  N   UNL     1     -10.412   6.488  70.457  1.00  0.00    -0.201 N  
HETATM   21  C   UNL     1     -12.077   7.776  71.771  1.00  0.00    -0.298 A  
HETATM   22  O   UNL     1     -12.359   6.767  72.656  1.00  0.00    -0.482 OA 
HETATM   23  O   UNL     1     -10.631   5.519  71.203  1.00  0.00    -0.240 OA 
HETATM   24  O   UNL     1      -9.600   6.484  69.521  1.00  0.00    -0.146 OA 
HETATM   25  C   UNL     1     -12.772   8.959  71.986  1.00  0.00    -0.394 A  
HETATM   26  H   UNL     1     -12.975   6.807  73.379  1.00  0.00     0.000 HD 
HETATM   27  C   UNL     1     -12.594  10.062  71.167  1.00  0.00    -0.480 A  
HETATM   28  O   UNL     1     -13.656   9.062  73.025  1.00  0.00    -0.915 OA 
HETATM   29  H   UNL     1     -14.132   9.871  73.172  1.00  0.00     0.000 HD 
ENDBRANCH  15  17
ENDBRANCH   3  12
TORSDOF 2
ENDMDL
MODEL       39
REMARK 921   NORMALIZED FREE ENERGY PREDICTED BY IDOCK:   -7.16 KCAL/MOL
REMARK 922        TOTAL FREE ENERGY PREDICTED BY IDOCK:   -8.59 KCAL/MOL
REMARK 923 INTER-LIGAND FREE ENERGY PREDICTED BY IDOCK:   -8.01 KCAL/MOL
REMARK 924 INTRA-LIGAND FREE ENERGY PREDICTED BY IDOCK:   -0.58 KCAL/MOL
REMARK 927      BINDING AFFINITY PREDICTED BY RF-SCORE:    0.00 PKD
ROOT
HETATM    1  C   UNL     1      -8.103   9.364  67.944  1.00  0.00    -0.103 C  
HETATM    2  C   UNL     1      -8.349   9.624  66.471  1.00  0.00    -0.120 A  
HETATM    3  C   UNL     1      -9.482  10.332  65.977  1.00  0.00    -0.234 A  
HETATM    4 CL   UNL     1      -5.960   8.328  66.136  1.00  0.00    -0.041 Cl 
HETATM    5  C   UNL     1      -9.627  10.494  64.578  1.00  0.00    -0.302 A  
HETATM    6  C   UNL     1      -6.533   8.793  63.186  1.00  0.00    -0.090 C  
HETATM    7 CL   UNL     1     -10.963  11.391  63.893  1.00  0.00    -0.455 Cl 
HETATM    8  N   UNL     1      -8.665   9.972  63.684  1.00  0.00    -0.197 NA 
HETATM    9  C   UNL     1      -7.544   9.305  64.173  1.00  0.00    -0.113 A  
HETATM   10  O   UNL     1      -8.808  10.119  62.421  1.00  0.00    -0.189 OA 
HETATM   11  C   UNL     1      -7.388   9.142  65.556  1.00  0.00    -0.089 A  
ENDROOT
BRANCH   3  12
HETATM   12  C   UNL     1     -10.459  10.914  66.906  1.00  0.00    -0.249 A  
HETATM   13  O   UNL     1     -12.041  11.202  68.357  1.00  0.00    -0.605 OA 
HETATM   14  N   UNL     1     -11.488  10.264  67.475  1.00  0.00    -0.226 NA 
HETATM   15  C   UNL     1     -11.270  12.321  68.251  1.00  0.00    -0.267 A  
HETATM   16  N   UNL     1     -10.333  12.212  67.336  1.00  0.00    -0.204 NA 
BRANCH  15  17
HETATM   17  C   UNL     1     -11.467  13.414  69.201  1.00  0.00    -0.351 A  
HETATM   18  C   UNL     1     -12.229  13.319  70.382  1.00  0.00    -0.404 A  
HETATM   19  C   UNL     1     -12.349  14.437  71.240  1.00  0.00    -0.359 A  
HETATM   20  N   UNL     1     -13.154  14.325  72.460  1.00  0.00    -0.437 N  
HETATM   21  C   UNL     1     -11.708  15.644  70.934  1.00  0.00    -0.387 A  
HETATM   22  O   UNL     1     -11.744  16.796  71.678  1.00  0.00    -0.594 OA 
HETATM   23  O   UNL     1     -13.255  15.336  73.174  1.00  0.00    -0.461 OA 
HETATM   24  O   UNL     1     -13.685  13.234  72.708  1.00  0.00    -0.669 OA 
HETATM   25  C   UNL     1     -10.944  15.715  69.776  1.00  0.00    -0.304 A  
HETATM   26  H   UNL     1     -11.308  17.615  71.471  1.00  0.00     0.000 HD 
HETATM   27  C   UNL     1     -10.821  14.631  68.923  1.00  0.00    -0.257 A  
HETATM   28  O   UNL     1     -10.290  16.871  69.450  1.00  0.00    -0.298 OA 
HETATM   29  H   UNL     1      -9.768  16.920  68.657  1.00  0.00     0.000 HD 
ENDBRANCH  15  17
ENDBRANCH   3  12
TORSDOF 2
ENDMDL
MODEL       40
REMARK 921   NORMALIZED FREE ENERGY PREDICTED BY IDOCK:   -7.15 KCAL/MOL
REMARK 922        TOTAL FREE ENERGY PREDICTED BY IDOCK:   -8.58 KCAL/MOL
REMARK 923 INTER-LIGAND FREE ENERGY PREDICTED BY IDOCK:   -7.99 KCAL/MOL
REMARK 924 INTRA-LIGAND FREE ENERGY PREDICTED BY IDOCK:   -0.59 KCAL/MOL
REMARK 927      BINDING AFFINITY PREDICTED BY RF-SCORE:    0.00 PKD
ROOT
HETATM    1  C   UNL     1     -10.081  10.283  67.768  1.00  0.00    -0.213 C  
HETATM    2  C   UNL     1     -10.957  10.760  68.910  1.00  0.00    -0.289 A  
HETATM    3  C   UNL     1     -11.408  12.104  69.044  1.00  0.00    -0.329 A  
HETATM    4 CL   UNL     1     -10.858   8.141  69.703  1.00  0.00    -0.204 Cl 
HETATM    5  C   UNL     1     -12.201  12.447  70.167  1.00  0.00    -0.229 A  
HETATM    6  C   UNL     1     -12.541   9.155  72.024  1.00  0.00    -0.463 C  
HETATM    7 CL   UNL     1     -12.836  14.063  70.380  1.00  0.00    -0.307 Cl 
HETATM    8  N   UNL     1     -12.545  11.478  71.135  1.00  0.00    -0.390 NA 
HETATM    9  C   UNL     1     -12.125  10.158  70.984  1.00  0.00    -0.377 A  
HETATM   10  O   UNL     1     -13.257  11.799  72.149  1.00  0.00    -0.498 OA 
HETATM   11  C   UNL     1     -11.344   9.806  69.876  1.00  0.00    -0.192 A  
ENDROOT
BRANCH   3  12
HETATM   12  C   UNL     1     -11.090  13.103  68.016  1.00  0.00    -0.263 A  
HETATM   13  O   UNL     1     -11.165  14.434  66.309  1.00  0.00    -0.325 OA 
HETATM   14  N   UNL     1     -11.783  13.315  66.884  1.00  0.00    -0.367 NA 
HETATM   15  C   UNL     1     -10.173  14.801  67.168  1.00  0.00    -0.245 A  
HETATM   16  N   UNL     1     -10.051  13.984  68.190  1.00  0.00    -0.238 NA 
BRANCH  15  17
HETATM   17  C   UNL     1      -9.473  16.066  66.948  1.00  0.00    -0.242 A  
HETATM   18  C   UNL     1     -10.069  17.337  67.056  1.00  0.00    -0.303 A  
HETATM   19  C   UNL     1      -9.299  18.503  66.831  1.00  0.00    -0.294 A  
HETATM   20  N   UNL     1      -9.936  19.818  66.936  1.00  0.00    -0.384 N  
HETATM   21  C   UNL     1      -7.938  18.408  66.511  1.00  0.00    -0.271 A  
HETATM   22  O   UNL     1      -7.084  19.455  66.270  1.00  0.00    -0.219 OA 
HETATM   23  O   UNL     1      -9.232  20.815  66.707  1.00  0.00    -0.184 OA 
HETATM   24  O   UNL     1     -11.134  19.860  67.246  1.00  0.00    -0.288 OA 
HETATM   25  C   UNL     1      -7.361  17.147  66.428  1.00  0.00    -0.299 A  
HETATM   26  H   UNL     1      -6.161  19.391  66.054  1.00  0.00     0.000 HD 
HETATM   27  C   UNL     1      -8.104  15.997  66.640  1.00  0.00    -0.311 A  
HETATM   28  O   UNL     1      -6.033  17.014  66.133  1.00  0.00    -0.267 OA 
HETATM   29  H   UNL     1      -5.638  16.151  66.076  1.00  0.00     0.000 HD 
ENDBRANCH  15  17
ENDBRANCH   3  12
TORSDOF 2
ENDMDL
MODEL       41
REMARK 921   NORMALIZED FREE ENERGY PREDICTED BY IDOCK:   -7.14 KCAL/MOL
REMARK 922        TOTAL FREE ENERGY PREDICTED BY IDOCK:   -8.56 KCAL/MOL
REMARK 923 INTER-LIGAND FREE ENERGY PREDICTED BY IDOCK:   -8.40 KCAL/MOL
REMARK 924 INTRA-LIGAND FREE ENERGY PREDICTED BY IDOCK:   -0.17 KCAL/MOL
REMARK 927      BINDING AFFINITY PREDICTED BY RF-SCORE:    0.00 PKD
ROOT
HETATM    1  C   UNL     1     -11.761  12.238  66.975  1.00  0.00    -0.399 C  
HETATM    2  C   UNL     1     -11.460  13.644  67.457  1.00  0.00    -0.360 A  
HETATM    3  C   UNL     1     -11.630  14.063  68.807  1.00  0.00    -0.366 A  
HETATM    4 CL   UNL     1     -10.701  14.066  64.860  1.00  0.00    -0.406 Cl 
HETATM    5  C   UNL     1     -11.344  15.409  69.143  1.00  0.00    -0.315 A  
HETATM    6  C   UNL     1     -10.191  16.897  65.847  1.00  0.00    -0.330 C  
HETATM    7 CL   UNL     1     -11.480  15.992  70.787  1.00  0.00    -0.422 Cl 
HETATM    8  N   UNL     1     -10.893  16.321  68.163  1.00  0.00    -0.330 NA 
HETATM    9  C   UNL     1     -10.701  15.898  66.849  1.00  0.00    -0.289 A  
HETATM   10  O   UNL     1     -10.643  17.537  68.476  1.00  0.00    -0.357 OA 
HETATM   11  C   UNL     1     -10.977  14.569  66.506  1.00  0.00    -0.321 A  
ENDROOT
BRANCH   3  12
HETATM   12  C   UNL     1     -12.055  13.106  69.837  1.00  0.00    -0.287 A  
HETATM   13  O   UNL     1     -13.183  12.016  71.331  1.00  0.00    -0.280 OA 
HETATM   14  N   UNL     1     -13.148  13.218  70.610  1.00  0.00     0.060 NA 
HETATM   15  C   UNL     1     -12.115  11.286  70.900  1.00  0.00    -0.301 A  
HETATM   16  N   UNL     1     -11.367  11.935  70.035  1.00  0.00    -0.109 NA 
BRANCH  15  17
HETATM   17  C   UNL     1     -11.993   9.891  71.316  1.00  0.00    -0.489 A  
HETATM   18  C   UNL     1     -10.772   9.203  71.457  1.00  0.00    -0.437 A  
HETATM   19  C   UNL     1     -10.763   7.852  71.876  1.00  0.00    -0.237 A  
HETATM   20  N   UNL     1      -9.485   7.148  72.007  1.00  0.00    -0.138 N  
HETATM   21  C   UNL     1     -11.962   7.186  72.165  1.00  0.00    -0.266 A  
HETATM   22  O   UNL     1     -12.090   5.884  72.578  1.00  0.00    -0.495 OA 
HETATM   23  O   UNL     1      -9.521   5.955  72.354  1.00  0.00    -0.147 OA 
HETATM   24  O   UNL     1      -8.447   7.778  71.767  1.00  0.00    -0.105 OA 
HETATM   25  C   UNL     1     -13.156   7.885  72.040  1.00  0.00    -0.231 A  
HETATM   26  H   UNL     1     -12.903   5.434  72.775  1.00  0.00     0.000 HD 
HETATM   27  C   UNL     1     -13.181   9.206  71.626  1.00  0.00    -0.438 A  
HETATM   28  O   UNL     1     -14.346   7.275  72.328  1.00  0.00    -0.602 OA 
HETATM   29  H   UNL     1     -15.163   7.753  72.242  1.00  0.00     0.000 HD 
ENDBRANCH  15  17
ENDBRANCH   3  12
TORSDOF 2
ENDMDL
MODEL       42
REMARK 921   NORMALIZED FREE ENERGY PREDICTED BY IDOCK:   -7.13 KCAL/MOL
REMARK 922        TOTAL FREE ENERGY PREDICTED BY IDOCK:   -8.56 KCAL/MOL
REMARK 923 INTER-LIGAND FREE ENERGY PREDICTED BY IDOCK:   -8.15 KCAL/MOL
REMARK 924 INTRA-LIGAND FREE ENERGY PREDICTED BY IDOCK:   -0.40 KCAL/MOL
REMARK 927      BINDING AFFINITY PREDICTED BY RF-SCORE:    0.00 PKD
ROOT
HETATM    1  C   UNL     1     -10.585  18.223  66.781  1.00  0.00    -0.338 C  
HETATM    2  C   UNL     1      -9.299  18.085  67.573  1.00  0.00    -0.257 A  
HETATM    3  C   UNL     1      -8.828  16.847  68.094  1.00  0.00    -0.223 A  
HETATM    4 CL   UNL     1      -9.058  20.772  67.103  1.00  0.00    -0.398 Cl 
HETATM    5  C   UNL     1      -7.626  16.838  68.844  1.00  0.00    -0.239 A  
HETATM    6  C   UNL     1      -6.531  20.471  68.768  1.00  0.00    -0.271 C  
HETATM    7 CL   UNL     1      -6.953  15.352  69.478  1.00  0.00    -0.176 Cl 
HETATM    8  N   UNL     1      -6.901  18.029  69.067  1.00  0.00    -0.253 NA 
HETATM    9  C   UNL     1      -7.351  19.234  68.530  1.00  0.00    -0.320 A  
HETATM   10  O   UNL     1      -5.819  18.011  69.750  1.00  0.00    -0.226 OA 
HETATM   11  C   UNL     1      -8.537  19.254  67.784  1.00  0.00    -0.305 A  
ENDROOT
BRANCH   3  12
HETATM   12  C   UNL     1      -9.555  15.600  67.826  1.00  0.00    -0.209 A  
HETATM   13  O   UNL     1     -10.338  13.799  66.912  1.00  0.00    -0.262 OA 
HETATM   14  N   UNL     1      -9.668  14.997  66.630  1.00  0.00    -0.246 NA 
HETATM   15  C   UNL     1     -10.541  13.787  68.260  1.00  0.00    -0.255 A  
HETATM   16  N   UNL     1     -10.135  14.890  68.848  1.00  0.00    -0.231 NA 
BRANCH  15  17
HETATM   17  C   UNL     1     -11.038  12.568  68.894  1.00  0.00    -0.309 A  
HETATM   18  C   UNL     1     -11.847  12.539  70.046  1.00  0.00    -0.363 A  
HETATM   19  C   UNL     1     -12.282  11.302  70.577  1.00  0.00    -0.383 A  
HETATM   20  N   UNL     1     -13.114  11.288  71.782  1.00  0.00    -0.468 N  
HETATM   21  C   UNL     1     -11.926  10.096  69.959  1.00  0.00    -0.136 A  
HETATM   22  O   UNL     1     -12.280   8.836  70.370  1.00  0.00    -0.471 OA 
HETATM   23  O   UNL     1     -13.456  10.181  72.230  1.00  0.00    -0.398 OA 
HETATM   24  O   UNL     1     -13.429  12.376  72.284  1.00  0.00    -0.541 OA 
HETATM   25  C   UNL     1     -11.144  10.143  68.812  1.00  0.00    -0.203 A  
HETATM   26  H   UNL     1     -12.039   8.018  69.951  1.00  0.00     0.000 HD 
HETATM   27  C   UNL     1     -10.705  11.346  68.284  1.00  0.00    -0.240 A  
HETATM   28  O   UNL     1     -10.788   8.988  68.171  1.00  0.00    -0.433 OA 
HETATM   29  H   UNL     1     -10.252   9.020  67.387  1.00  0.00     0.000 HD 
ENDBRANCH  15  17
ENDBRANCH   3  12
TORSDOF 2
ENDMDL
MODEL       43
REMARK 921   NORMALIZED FREE ENERGY PREDICTED BY IDOCK:   -7.09 KCAL/MOL
REMARK 922        TOTAL FREE ENERGY PREDICTED BY IDOCK:   -8.51 KCAL/MOL
REMARK 923 INTER-LIGAND FREE ENERGY PREDICTED BY IDOCK:   -7.92 KCAL/MOL
REMARK 924 INTRA-LIGAND FREE ENERGY PREDICTED BY IDOCK:   -0.59 KCAL/MOL
REMARK 927      BINDING AFFINITY PREDICTED BY RF-SCORE:    0.00 PKD
ROOT
HETATM    1  C   UNL     1      -8.628  15.334  68.734  1.00  0.00    -0.190 C  
HETATM    2  C   UNL     1      -9.403  15.642  67.468  1.00  0.00    -0.206 A  
HETATM    3  C   UNL     1      -9.902  14.638  66.590  1.00  0.00    -0.280 A  
HETATM    4 CL   UNL     1      -9.096  18.247  68.254  1.00  0.00    -0.307 Cl 
HETATM    5  C   UNL     1     -10.590  15.039  65.419  1.00  0.00    -0.380 A  
HETATM    6  C   UNL     1     -10.578  18.826  65.662  1.00  0.00    -0.202 C  
HETATM    7 CL   UNL     1     -11.277  13.869  64.314  1.00  0.00    -0.330 Cl 
HETATM    8  N   UNL     1     -10.786  16.407  65.124  1.00  0.00    -0.628 NA 
HETATM    9  C   UNL     1     -10.320  17.385  66.001  1.00  0.00    -0.304 A  
HETATM   10  O   UNL     1     -11.404  16.759  64.060  1.00  0.00    -1.153 OA 
HETATM   11  C   UNL     1      -9.641  17.000  67.165  1.00  0.00    -0.253 A  
ENDROOT
BRANCH   3  12
HETATM   12  C   UNL     1      -9.740  13.216  66.916  1.00  0.00    -0.243 A  
HETATM   13  O   UNL     1      -8.937  11.231  67.245  1.00  0.00    -0.146 OA 
HETATM   14  N   UNL     1      -8.665  12.461  66.631  1.00  0.00    -0.165 NA 
HETATM   15  C   UNL     1     -10.143  11.375  67.863  1.00  0.00    -0.183 A  
HETATM   16  N   UNL     1     -10.696  12.546  67.639  1.00  0.00    -0.214 NA 
BRANCH  15  17
HETATM   17  C   UNL     1     -10.610  10.326  68.767  1.00  0.00    -0.231 A  
HETATM   18  C   UNL     1     -10.161   8.991  68.741  1.00  0.00    -0.214 A  
HETATM   19  C   UNL     1     -10.672   8.053  69.669  1.00  0.00    -0.207 A  
HETATM   20  N   UNL     1     -10.202   6.667  69.622  1.00  0.00    -0.181 N  
HETATM   21  C   UNL     1     -11.618   8.440  70.627  1.00  0.00    -0.191 A  
HETATM   22  O   UNL     1     -12.190   7.633  71.578  1.00  0.00    -0.301 OA 
HETATM   23  O   UNL     1     -10.693   5.868  70.437  1.00  0.00    -0.259 OA 
HETATM   24  O   UNL     1      -9.347   6.370  68.777  1.00  0.00    -0.126 OA 
HETATM   25  C   UNL     1     -12.036   9.764  70.651  1.00  0.00    -0.259 A  
HETATM   26  H   UNL     1     -12.831   7.895  72.228  1.00  0.00     0.000 HD 
HETATM   27  C   UNL     1     -11.549  10.693  69.746  1.00  0.00    -0.385 A  
HETATM   28  O   UNL     1     -12.947  10.185  71.581  1.00  0.00    -0.385 OA 
HETATM   29  H   UNL     1     -13.233  11.091  71.597  1.00  0.00     0.000 HD 
ENDBRANCH  15  17
ENDBRANCH   3  12
TORSDOF 2
ENDMDL
MODEL       44
REMARK 921   NORMALIZED FREE ENERGY PREDICTED BY IDOCK:   -7.04 KCAL/MOL
REMARK 922        TOTAL FREE ENERGY PREDICTED BY IDOCK:   -8.45 KCAL/MOL
REMARK 923 INTER-LIGAND FREE ENERGY PREDICTED BY IDOCK:   -8.01 KCAL/MOL
REMARK 924 INTRA-LIGAND FREE ENERGY PREDICTED BY IDOCK:   -0.44 KCAL/MOL
REMARK 927      BINDING AFFINITY PREDICTED BY RF-SCORE:    0.00 PKD
ROOT
HETATM    1  C   UNL     1     -12.114  10.135  71.050  1.00  0.00    -0.476 C  
HETATM    2  C   UNL     1     -11.355   9.115  70.223  1.00  0.00    -0.217 A  
HETATM    3  C   UNL     1     -10.882   9.370  68.904  1.00  0.00    -0.151 A  
HETATM    4 CL   UNL     1     -11.617   7.539  72.446  1.00  0.00    -0.343 Cl 
HETATM    5  C   UNL     1     -10.208   8.335  68.211  1.00  0.00    -0.208 A  
HETATM    6  C   UNL     1     -10.169   5.492  70.724  1.00  0.00    -0.302 C  
HETATM    7 CL   UNL     1      -9.553   8.582  66.607  1.00  0.00    -0.268 Cl 
HETATM    8  N   UNL     1     -10.000   7.075  68.813  1.00  0.00    -0.156 NA 
HETATM    9  C   UNL     1     -10.439   6.839  70.114  1.00  0.00    -0.209 A  
HETATM   10  O   UNL     1      -9.394   6.145  68.176  1.00  0.00    -0.117 OA 
HETATM   11  C   UNL     1     -11.104   7.856  70.811  1.00  0.00    -0.256 A  
ENDROOT
BRANCH   3  12
HETATM   12  C   UNL     1     -11.057  10.694  68.293  1.00  0.00    -0.279 A  
HETATM   13  O   UNL     1     -11.792  12.382  67.152  1.00  0.00    -0.470 OA 
HETATM   14  N   UNL     1     -11.903  10.992  67.292  1.00  0.00    -0.345 NA 
HETATM   15  C   UNL     1     -10.905  12.788  68.103  1.00  0.00    -0.228 A  
HETATM   16  N   UNL     1     -10.387  11.788  68.781  1.00  0.00    -0.205 NA 
BRANCH  15  17
HETATM   17  C   UNL     1     -10.730  14.218  68.349  1.00  0.00    -0.257 A  
HETATM   18  C   UNL     1     -10.081  15.107  67.471  1.00  0.00    -0.232 A  
HETATM   19  C   UNL     1      -9.973  16.478  67.801  1.00  0.00    -0.253 A  
HETATM   20  N   UNL     1      -9.286  17.388  66.881  1.00  0.00    -0.255 N  
HETATM   21  C   UNL     1     -10.517  16.970  68.995  1.00  0.00    -0.337 A  
HETATM   22  O   UNL     1     -10.480  18.271  69.431  1.00  0.00    -0.389 OA 
HETATM   23  O   UNL     1      -9.191  18.580  67.218  1.00  0.00    -0.272 OA 
HETATM   24  O   UNL     1      -8.842  16.920  65.824  1.00  0.00    -0.522 OA 
HETATM   25  C   UNL     1     -11.170  16.084  69.842  1.00  0.00    -0.361 A  
HETATM   26  H   UNL     1     -10.850  18.604  70.240  1.00  0.00     0.000 HD 
HETATM   27  C   UNL     1     -11.280  14.737  69.535  1.00  0.00    -0.305 A  
HETATM   28  O   UNL     1     -11.728  16.528  71.009  1.00  0.00    -0.596 OA 
HETATM   29  H   UNL     1     -12.175  15.921  71.588  1.00  0.00     0.000 HD 
ENDBRANCH  15  17
ENDBRANCH   3  12
TORSDOF 2
ENDMDL
MODEL       45
REMARK 921   NORMALIZED FREE ENERGY PREDICTED BY IDOCK:   -7.00 KCAL/MOL
REMARK 922        TOTAL FREE ENERGY PREDICTED BY IDOCK:   -8.41 KCAL/MOL
REMARK 923 INTER-LIGAND FREE ENERGY PREDICTED BY IDOCK:   -8.32 KCAL/MOL
REMARK 924 INTRA-LIGAND FREE ENERGY PREDICTED BY IDOCK:   -0.09 KCAL/MOL
REMARK 927      BINDING AFFINITY PREDICTED BY RF-SCORE:    0.00 PKD
ROOT
HETATM    1  C   UNL     1     -11.118  11.156  68.292  1.00  0.00    -0.310 C  
HETATM    2  C   UNL     1     -11.585  12.359  69.088  1.00  0.00    -0.369 A  
HETATM    3  C   UNL     1     -12.234  12.260  70.351  1.00  0.00    -0.371 A  
HETATM    4 CL   UNL     1     -10.496  13.790  67.022  1.00  0.00    -0.272 Cl 
HETATM    5  C   UNL     1     -12.653  13.449  70.996  1.00  0.00    -0.343 A  
HETATM    6  C   UNL     1     -11.524  16.173  68.607  1.00  0.00    -0.340 C  
HETATM    7 CL   UNL     1     -13.414  13.418  72.571  1.00  0.00    -0.671 Cl 
HETATM    8  N   UNL     1     -12.429  14.713  70.405  1.00  0.00    -0.339 NA 
HETATM    9  C   UNL     1     -11.767  14.806  69.182  1.00  0.00    -0.313 A  
HETATM   10  O   UNL     1     -12.816  15.781  70.994  1.00  0.00    -0.475 OA 
HETATM   11  C   UNL     1     -11.345  13.636  68.537  1.00  0.00    -0.290 A  
ENDROOT
BRANCH   3  12
HETATM   12  C   UNL     1     -12.428  10.952  70.988  1.00  0.00    -0.411 A  
HETATM   13  O   UNL     1     -13.287   9.145  71.820  1.00  0.00    -0.358 OA 
HETATM   14  N   UNL     1     -13.603  10.445  71.402  1.00  0.00    -0.141 NA 
HETATM   15  C   UNL     1     -11.953   8.988  71.592  1.00  0.00    -0.356 A  
HETATM   16  N   UNL     1     -11.378  10.081  71.143  1.00  0.00    -0.359 NA 
BRANCH  15  17
HETATM   17  C   UNL     1     -11.358   7.660  71.734  1.00  0.00    -0.293 A  
HETATM   18  C   UNL     1     -11.000   6.826  70.658  1.00  0.00    -0.313 A  
HETATM   19  C   UNL     1     -10.421   5.558  70.906  1.00  0.00    -0.249 A  
HETATM   20  N   UNL     1     -10.065   4.697  69.776  1.00  0.00    -0.228 N  
HETATM   21  C   UNL     1     -10.187   5.125  72.217  1.00  0.00    -0.202 A  
HETATM   22  O   UNL     1      -9.634   3.926  72.591  1.00  0.00    -0.127 OA 
HETATM   23  O   UNL     1      -9.581   3.583  70.035  1.00  0.00    -0.188 OA 
HETATM   24  O   UNL     1     -10.265   5.127  68.631  1.00  0.00    -0.171 OA 
HETATM   25  C   UNL     1     -10.527   5.969  73.266  1.00  0.00    -0.240 A  
HETATM   26  H   UNL     1      -9.475   3.632  73.480  1.00  0.00     0.000 HD 
HETATM   27  C   UNL     1     -11.100   7.210  73.040  1.00  0.00    -0.323 A  
HETATM   28  O   UNL     1     -10.300   5.588  74.560  1.00  0.00    -0.269 OA 
HETATM   29  H   UNL     1     -10.533   6.165  75.278  1.00  0.00     0.000 HD 
ENDBRANCH  15  17
ENDBRANCH   3  12
TORSDOF 2
ENDMDL
MODEL       46
REMARK 921   NORMALIZED FREE ENERGY PREDICTED BY IDOCK:   -6.96 KCAL/MOL
REMARK 922        TOTAL FREE ENERGY PREDICTED BY IDOCK:   -8.36 KCAL/MOL
REMARK 923 INTER-LIGAND FREE ENERGY PREDICTED BY IDOCK:   -7.80 KCAL/MOL
REMARK 924 INTRA-LIGAND FREE ENERGY PREDICTED BY IDOCK:   -0.56 KCAL/MOL
REMARK 927      BINDING AFFINITY PREDICTED BY RF-SCORE:    0.00 PKD
ROOT
HETATM    1  C   UNL     1     -11.124  10.356  67.243  1.00  0.00    -0.251 C  
HETATM    2  C   UNL     1     -11.324  11.792  67.689  1.00  0.00    -0.370 A  
HETATM    3  C   UNL     1     -11.772  12.153  68.991  1.00  0.00    -0.377 A  
HETATM    4 CL   UNL     1     -10.427  12.398  65.174  1.00  0.00    -0.310 Cl 
HETATM    5  C   UNL     1     -11.951  13.525  69.293  1.00  0.00    -0.330 A  
HETATM    6  C   UNL     1     -10.923  15.259  66.077  1.00  0.00    -0.317 C  
HETATM    7 CL   UNL     1     -12.450  14.056  70.883  1.00  0.00    -0.418 Cl 
HETATM    8  N   UNL     1     -11.685  14.521  68.326  1.00  0.00    -0.328 NA 
HETATM    9  C   UNL     1     -11.220  14.163  67.062  1.00  0.00    -0.318 A  
HETATM   10  O   UNL     1     -11.856  15.758  68.607  1.00  0.00    -0.385 OA 
HETATM   11  C   UNL     1     -11.036  12.809  66.754  1.00  0.00    -0.277 A  
ENDROOT
BRANCH   3  12
HETATM   12  C   UNL     1     -12.004  11.123  70.012  1.00  0.00    -0.367 A  
HETATM   13  O   UNL     1     -12.883   9.584  71.256  1.00  0.00    -0.328 OA 
HETATM   14  N   UNL     1     -13.196  10.591  70.335  1.00  0.00    -0.110 NA 
HETATM   15  C   UNL     1     -11.525   9.592  71.379  1.00  0.00    -0.392 A  
HETATM   16  N   UNL     1     -10.954  10.551  70.686  1.00  0.00    -0.137 NA 
BRANCH  15  17
HETATM   17  C   UNL     1     -10.871   8.514  72.118  1.00  0.00    -0.427 A  
HETATM   18  C   UNL     1      -9.574   8.590  72.662  1.00  0.00    -0.294 A  
HETATM   19  C   UNL     1      -9.036   7.490  73.370  1.00  0.00    -0.203 A  
HETATM   20  N   UNL     1      -7.682   7.581  73.921  1.00  0.00    -0.120 N  
HETATM   21  C   UNL     1      -9.786   6.319  73.547  1.00  0.00    -0.168 A  
HETATM   22  O   UNL     1      -9.382   5.187  74.209  1.00  0.00    -0.120 OA 
HETATM   23  O   UNL     1      -7.236   6.585  74.514  1.00  0.00    -0.098 OA 
HETATM   24  O   UNL     1      -7.061   8.642  73.764  1.00  0.00    -0.309 OA 
HETATM   25  C   UNL     1     -11.070   6.267  73.021  1.00  0.00    -0.207 A  
HETATM   26  H   UNL     1      -9.891   4.394  74.330  1.00  0.00     0.000 HD 
HETATM   27  C   UNL     1     -11.609   7.335  72.321  1.00  0.00    -0.315 A  
HETATM   28  O   UNL     1     -11.839   5.149  73.186  1.00  0.00    -0.521 OA 
HETATM   29  H   UNL     1     -12.718   5.113  72.826  1.00  0.00     0.000 HD 
ENDBRANCH  15  17
ENDBRANCH   3  12
TORSDOF 2
ENDMDL
MODEL       47
REMARK 921   NORMALIZED FREE ENERGY PREDICTED BY IDOCK:   -6.95 KCAL/MOL
REMARK 922        TOTAL FREE ENERGY PREDICTED BY IDOCK:   -8.35 KCAL/MOL
REMARK 923 INTER-LIGAND FREE ENERGY PREDICTED BY IDOCK:   -7.77 KCAL/MOL
REMARK 924 INTRA-LIGAND FREE ENERGY PREDICTED BY IDOCK:   -0.58 KCAL/MOL
REMARK 927      BINDING AFFINITY PREDICTED BY RF-SCORE:    0.00 PKD
ROOT
HETATM    1  C   UNL     1      -7.569  16.005  69.303  1.00  0.00    -0.230 C  
HETATM    2  C   UNL     1      -8.420  16.650  68.226  1.00  0.00    -0.203 A  
HETATM    3  C   UNL     1      -9.317  15.921  67.395  1.00  0.00    -0.214 A  
HETATM    4 CL   UNL     1      -7.269  18.973  69.108  1.00  0.00    -0.337 Cl 
HETATM    5  C   UNL     1     -10.044  16.620  66.401  1.00  0.00    -0.315 A  
HETATM    6  C   UNL     1      -8.928  20.216  66.882  1.00  0.00    -0.448 C  
HETATM    7 CL   UNL     1     -11.202  15.808  65.371  1.00  0.00    -0.203 Cl 
HETATM    8  N   UNL     1      -9.893  18.015  66.238  1.00  0.00    -0.441 NA 
HETATM    9  C   UNL     1      -9.035  18.728  67.073  1.00  0.00    -0.291 A  
HETATM   10  O   UNL     1     -10.550  18.637  65.333  1.00  0.00    -0.572 OA 
HETATM   11  C   UNL     1      -8.313  18.048  68.062  1.00  0.00    -0.260 A  
ENDROOT
BRANCH   3  12
HETATM   12  C   UNL     1      -9.511  14.479  67.592  1.00  0.00    -0.209 A  
HETATM   13  O   UNL     1      -9.240  12.332  67.676  1.00  0.00    -0.172 OA 
HETATM   14  N   UNL     1      -8.707  13.506  67.129  1.00  0.00    -0.219 NA 
HETATM   15  C   UNL     1     -10.302  12.717  68.439  1.00  0.00    -0.243 A  
HETATM   16  N   UNL     1     -10.541  14.008  68.369  1.00  0.00    -0.247 NA 
BRANCH  15  17
HETATM   17  C   UNL     1     -10.947  11.736  69.309  1.00  0.00    -0.231 A  
HETATM   18  C   UNL     1     -10.591  10.375  69.381  1.00  0.00    -0.267 A  
HETATM   19  C   UNL     1     -11.275   9.509  70.266  1.00  0.00    -0.261 A  
HETATM   20  N   UNL     1     -10.900   8.094  70.321  1.00  0.00    -0.243 N  
HETATM   21  C   UNL     1     -12.302   9.993  71.087  1.00  0.00    -0.377 A  
HETATM   22  O   UNL     1     -13.040   9.262  71.984  1.00  0.00    -0.369 OA 
HETATM   23  O   UNL     1     -11.541   7.361  71.093  1.00  0.00    -0.271 OA 
HETATM   24  O   UNL     1      -9.971   7.710  69.598  1.00  0.00    -0.180 OA 
HETATM   25  C   UNL     1     -12.627  11.342  71.018  1.00  0.00    -0.394 A  
HETATM   26  H   UNL     1     -13.736   9.591  72.541  1.00  0.00     0.000 HD 
HETATM   27  C   UNL     1     -11.971  12.201  70.153  1.00  0.00    -0.394 A  
HETATM   28  O   UNL     1     -13.613  11.856  71.814  1.00  0.00    -0.181 OA 
HETATM   29  H   UNL     1     -13.836  12.779  71.767  1.00  0.00     0.000 HD 
ENDBRANCH  15  17
ENDBRANCH   3  12
TORSDOF 2
ENDMDL
MODEL       48
REMARK 921   NORMALIZED FREE ENERGY PREDICTED BY IDOCK:   -6.92 KCAL/MOL
REMARK 922        TOTAL FREE ENERGY PREDICTED BY IDOCK:   -8.32 KCAL/MOL
REMARK 923 INTER-LIGAND FREE ENERGY PREDICTED BY IDOCK:   -7.73 KCAL/MOL
REMARK 924 INTRA-LIGAND FREE ENERGY PREDICTED BY IDOCK:   -0.59 KCAL/MOL
REMARK 927      BINDING AFFINITY PREDICTED BY RF-SCORE:    0.00 PKD
ROOT
HETATM    1  C   UNL     1     -12.359  12.034  70.468  1.00  0.00    -0.369 C  
HETATM    2  C   UNL     1     -11.646  10.867  69.812  1.00  0.00    -0.399 A  
HETATM    3  C   UNL     1     -11.038  10.942  68.527  1.00  0.00    -0.311 A  
HETATM    4 CL   UNL     1     -12.263   9.553  72.134  1.00  0.00    -0.359 Cl 
HETATM    5  C   UNL     1     -10.422   9.783  67.996  1.00  0.00    -0.226 A  
HETATM    6  C   UNL     1     -10.902   7.213  70.748  1.00  0.00    -0.267 C  
HETATM    7 CL   UNL     1      -9.611   9.803  66.447  1.00  0.00    -0.238 Cl 
HETATM    8  N   UNL     1     -10.402   8.573  68.727  1.00  0.00    -0.217 NA 
HETATM    9  C   UNL     1     -10.974   8.513  69.996  1.00  0.00    -0.196 A  
HETATM   10  O   UNL     1      -9.848   7.529  68.236  1.00  0.00    -0.155 OA 
HETATM   11  C   UNL     1     -11.583   9.655  70.532  1.00  0.00    -0.272 A  
ENDROOT
BRANCH   3  12
HETATM   12  C   UNL     1     -11.017  12.209  67.785  1.00  0.00    -0.233 A  
HETATM   13  O   UNL     1     -11.553  13.930  66.583  1.00  0.00    -0.339 OA 
HETATM   14  N   UNL     1     -11.962  12.635  66.929  1.00  0.00    -0.506 NA 
HETATM   15  C   UNL     1     -10.411  14.167  67.288  1.00  0.00    -0.272 A  
HETATM   16  N   UNL     1     -10.015  13.126  67.987  1.00  0.00    -0.227 NA 
BRANCH  15  17
HETATM   17  C   UNL     1      -9.849  15.516  67.301  1.00  0.00    -0.224 A  
HETATM   18  C   UNL     1     -10.303  16.578  66.496  1.00  0.00    -0.307 A  
HETATM   19  C   UNL     1      -9.694  17.852  66.592  1.00  0.00    -0.319 A  
HETATM   20  N   UNL     1     -10.170  18.943  65.739  1.00  0.00    -0.256 N  
HETATM   21  C   UNL     1      -8.644  18.075  67.493  1.00  0.00    -0.244 A  
HETATM   22  O   UNL     1      -7.972  19.256  67.683  1.00  0.00    -0.268 OA 
HETATM   23  O   UNL     1      -9.593  20.039  65.836  1.00  0.00    -0.380 OA 
HETATM   24  O   UNL     1     -11.116  18.713  64.974  1.00  0.00    -0.488 OA 
HETATM   25  C   UNL     1      -8.222  17.022  68.294  1.00  0.00    -0.227 A  
HETATM   26  H   UNL     1      -7.261  19.407  68.294  1.00  0.00     0.000 HD 
HETATM   27  C   UNL     1      -8.805  15.768  68.208  1.00  0.00    -0.180 A  
HETATM   28  O   UNL     1      -7.211  17.203  69.197  1.00  0.00    -0.246 OA 
HETATM   29  H   UNL     1      -6.922  16.483  69.745  1.00  0.00     0.000 HD 
ENDBRANCH  15  17
ENDBRANCH   3  12
TORSDOF 2
ENDMDL
MODEL       49
REMARK 921   NORMALIZED FREE ENERGY PREDICTED BY IDOCK:   -6.90 KCAL/MOL
REMARK 922        TOTAL FREE ENERGY PREDICTED BY IDOCK:   -8.30 KCAL/MOL
REMARK 923 INTER-LIGAND FREE ENERGY PREDICTED BY IDOCK:   -7.73 KCAL/MOL
REMARK 924 INTRA-LIGAND FREE ENERGY PREDICTED BY IDOCK:   -0.57 KCAL/MOL
REMARK 927      BINDING AFFINITY PREDICTED BY RF-SCORE:    0.00 PKD
ROOT
HETATM    1  C   UNL     1     -11.713  12.499  68.358  1.00  0.00    -0.375 C  
HETATM    2  C   UNL     1     -11.297  11.988  66.992  1.00  0.00    -0.396 A  
HETATM    3  C   UNL     1     -10.444  10.865  66.802  1.00  0.00    -0.302 A  
HETATM    4 CL   UNL     1     -12.897  14.008  66.065  1.00  0.00    -0.393 Cl 
HETATM    5  C   UNL     1     -10.096  10.490  65.481  1.00  0.00    -0.283 A  
HETATM    6  C   UNL     1     -11.969  13.007  63.347  1.00  0.00    -0.592 C  
HETATM    7 CL   UNL     1      -9.093   9.093  65.159  1.00  0.00    -0.255 Cl 
HETATM    8  N   UNL     1     -10.589  11.209  64.370  1.00  0.00    -0.348 NA 
HETATM    9  C   UNL     1     -11.446  12.291  64.560  1.00  0.00    -0.341 A  
HETATM   10  O   UNL     1     -10.264  10.866  63.180  1.00  0.00    -0.320 OA 
HETATM   11  C   UNL     1     -11.800  12.668  65.862  1.00  0.00    -0.444 A  
ENDROOT
BRANCH   3  12
HETATM   12  C   UNL     1      -9.967  10.087  67.953  1.00  0.00    -0.154 A  
HETATM   13  O   UNL     1      -8.949   9.437  69.751  1.00  0.00    -0.158 OA 
HETATM   14  N   UNL     1      -8.924  10.405  68.739  1.00  0.00    -0.149 NA 
HETATM   15  C   UNL     1     -10.025   8.642  69.487  1.00  0.00    -0.196 A  
HETATM   16  N   UNL     1     -10.637   8.964  68.370  1.00  0.00    -0.182 NA 
BRANCH  15  17
HETATM   17  C   UNL     1     -10.443   7.656  70.482  1.00  0.00    -0.221 A  
HETATM   18  C   UNL     1      -9.576   6.751  71.123  1.00  0.00    -0.177 A  
HETATM   19  C   UNL     1     -10.082   5.840  72.080  1.00  0.00    -0.183 A  
HETATM   20  N   UNL     1      -9.169   4.897  72.730  1.00  0.00    -0.132 N  
HETATM   21  C   UNL     1     -11.444   5.835  72.410  1.00  0.00    -0.288 A  
HETATM   22  O   UNL     1     -12.059   5.009  73.316  1.00  0.00    -0.461 OA 
HETATM   23  O   UNL     1      -9.656   4.098  73.547  1.00  0.00    -0.112 OA 
HETATM   24  O   UNL     1      -7.968   4.950  72.430  1.00  0.00    -0.100 OA 
HETATM   25  C   UNL     1     -12.282   6.748  71.783  1.00  0.00    -0.358 A  
HETATM   26  H   UNL     1     -12.982   5.006  73.540  1.00  0.00     0.000 HD 
HETATM   27  C   UNL     1     -11.802   7.642  70.840  1.00  0.00    -0.272 A  
HETATM   28  O   UNL     1     -13.615   6.786  72.088  1.00  0.00    -0.544 OA 
HETATM   29  H   UNL     1     -14.189   7.410  71.659  1.00  0.00     0.000 HD 
ENDBRANCH  15  17
ENDBRANCH   3  12
TORSDOF 2
ENDMDL
MODEL       50
REMARK 921   NORMALIZED FREE ENERGY PREDICTED BY IDOCK:   -6.89 KCAL/MOL
REMARK 922        TOTAL FREE ENERGY PREDICTED BY IDOCK:   -8.29 KCAL/MOL
REMARK 923 INTER-LIGAND FREE ENERGY PREDICTED BY IDOCK:   -7.83 KCAL/MOL
REMARK 924 INTRA-LIGAND FREE ENERGY PREDICTED BY IDOCK:   -0.46 KCAL/MOL
REMARK 927      BINDING AFFINITY PREDICTED BY RF-SCORE:    0.00 PKD
ROOT
HETATM    1  C   UNL     1      -7.498  16.109  69.108  1.00  0.00    -0.221 C  
HETATM    2  C   UNL     1      -8.154  17.087  68.152  1.00  0.00    -0.212 A  
HETATM    3  C   UNL     1      -9.136  16.707  67.193  1.00  0.00    -0.227 A  
HETATM    4 CL   UNL     1      -6.613  18.944  69.445  1.00  0.00    -0.310 Cl 
HETATM    5  C   UNL     1      -9.663  17.698  66.330  1.00  0.00    -0.294 A  
HETATM    6  C   UNL     1      -7.886  20.858  67.454  1.00  0.00    -0.223 C  
HETATM    7 CL   UNL     1     -10.908  17.325  65.158  1.00  0.00    -0.133 Cl 
HETATM    8  N   UNL     1      -9.233  19.040  66.418  1.00  0.00    -0.336 NA 
HETATM    9  C   UNL     1      -8.292  19.412  67.377  1.00  0.00    -0.292 A  
HETATM   10  O   UNL     1      -9.711  19.928  65.630  1.00  0.00    -0.342 OA 
HETATM   11  C   UNL     1      -7.766  18.441  68.239  1.00  0.00    -0.293 A  
ENDROOT
BRANCH   3  12
HETATM   12  C   UNL     1      -9.619  15.322  67.130  1.00  0.00    -0.217 A  
HETATM   13  O   UNL     1      -9.914  13.239  66.612  1.00  0.00    -0.258 OA 
HETATM   14  N   UNL     1      -9.328  14.431  66.166  1.00  0.00    -0.239 NA 
HETATM   15  C   UNL     1     -10.482  13.525  67.818  1.00  0.00    -0.240 A  
HETATM   16  N   UNL     1     -10.379  14.794  68.145  1.00  0.00    -0.236 NA 
BRANCH  15  17
HETATM   17  C   UNL     1     -10.999  12.432  68.639  1.00  0.00    -0.283 A  
HETATM   18  C   UNL     1     -11.824  12.601  69.767  1.00  0.00    -0.379 A  
HETATM   19  C   UNL     1     -12.278  11.472  70.489  1.00  0.00    -0.377 A  
HETATM   20  N   UNL     1     -13.128  11.665  71.667  1.00  0.00    -0.424 N  
HETATM   21  C   UNL     1     -11.924  10.177  70.087  1.00  0.00    -0.185 A  
HETATM   22  O   UNL     1     -12.295   9.006  70.697  1.00  0.00    -0.492 OA 
HETATM   23  O   UNL     1     -13.485  10.650  72.288  1.00  0.00    -0.333 OA 
HETATM   24  O   UNL     1     -13.440  12.823  71.975  1.00  0.00    -0.495 OA 
HETATM   25  C   UNL     1     -11.125  10.027  68.961  1.00  0.00    -0.180 A  
HETATM   26  H   UNL     1     -12.055   8.128  70.424  1.00  0.00     0.000 HD 
HETATM   27  C   UNL     1     -10.668  11.123  68.247  1.00  0.00    -0.234 A  
HETATM   28  O   UNL     1     -10.770   8.780  68.527  1.00  0.00    -0.378 OA 
HETATM   29  H   UNL     1     -10.223   8.677  67.757  1.00  0.00     0.000 HD 
ENDBRANCH  15  17
ENDBRANCH   3  12
TORSDOF 2
ENDMDL
MODEL       51
REMARK 921   NORMALIZED FREE ENERGY PREDICTED BY IDOCK:   -6.86 KCAL/MOL
REMARK 922        TOTAL FREE ENERGY PREDICTED BY IDOCK:   -8.26 KCAL/MOL
REMARK 923 INTER-LIGAND FREE ENERGY PREDICTED BY IDOCK:   -7.64 KCAL/MOL
REMARK 924 INTRA-LIGAND FREE ENERGY PREDICTED BY IDOCK:   -0.61 KCAL/MOL
REMARK 927      BINDING AFFINITY PREDICTED BY RF-SCORE:    0.00 PKD
ROOT
HETATM    1  C   UNL     1      -9.806  15.926  69.499  1.00  0.00    -0.268 C  
HETATM    2  C   UNL     1     -10.218  16.225  68.070  1.00  0.00    -0.256 A  
HETATM    3  C   UNL     1     -10.700  15.234  67.170  1.00  0.00    -0.316 A  
HETATM    4 CL   UNL     1      -9.594  18.808  68.733  1.00  0.00    -0.409 Cl 
HETATM    5  C   UNL     1     -11.031  15.619  65.847  1.00  0.00    -0.231 A  
HETATM    6  C   UNL     1     -10.347  19.352  65.837  1.00  0.00    -0.536 C  
HETATM    7 CL   UNL     1     -11.676  14.473  64.694  1.00  0.00    -0.424 Cl 
HETATM    8  N   UNL     1     -10.894  16.961  65.427  1.00  0.00    -0.442 NA 
HETATM    9  C   UNL     1     -10.449  17.932  66.321  1.00  0.00    -0.320 A  
HETATM   10  O   UNL     1     -11.191  17.297  64.228  1.00  0.00    -1.013 OA 
HETATM   11  C   UNL     1     -10.121  17.563  67.632  1.00  0.00    -0.328 A  
ENDROOT
BRANCH   3  12
HETATM   12  C   UNL     1     -10.887  13.848  67.617  1.00  0.00    -0.254 A  
HETATM   13  O   UNL     1     -11.735  11.966  68.273  1.00  0.00    -0.305 OA 
HETATM   14  N   UNL     1     -12.022  13.328  68.113  1.00  0.00    -0.339 NA 
HETATM   15  C   UNL     1     -10.456  11.795  67.832  1.00  0.00    -0.196 A  
HETATM   16  N   UNL     1      -9.881  12.923  67.480  1.00  0.00    -0.205 NA 
BRANCH  15  17
HETATM   17  C   UNL     1      -9.932  10.439  67.677  1.00  0.00    -0.205 A  
HETATM   18  C   UNL     1      -8.605  10.132  67.318  1.00  0.00    -0.125 A  
HETATM   19  C   UNL     1      -8.196   8.782  67.204  1.00  0.00    -0.104 A  
HETATM   20  N   UNL     1      -6.815   8.480  66.820  1.00  0.00    -0.068 N  
HETATM   21  C   UNL     1      -9.097   7.740  67.457  1.00  0.00    -0.129 A  
HETATM   22  O   UNL     1      -8.828   6.396  67.382  1.00  0.00    -0.107 OA 
HETATM   23  O   UNL     1      -6.502   7.283  66.706  1.00  0.00    -0.048 OA 
HETATM   24  O   UNL     1      -6.043   9.429  66.629  1.00  0.00    -0.061 OA 
HETATM   25  C   UNL     1     -10.396   8.060  67.829  1.00  0.00    -0.231 A  
HETATM   26  H   UNL     1      -9.439   5.689  67.553  1.00  0.00     0.000 HD 
HETATM   27  C   UNL     1     -10.813   9.376  67.939  1.00  0.00    -0.215 A  
HETATM   28  O   UNL     1     -11.301   7.071  68.098  1.00  0.00    -0.509 OA 
HETATM   29  H   UNL     1     -12.190   7.290  68.353  1.00  0.00     0.000 HD 
ENDBRANCH  15  17
ENDBRANCH   3  12
TORSDOF 2
ENDMDL
MODEL       52
REMARK 921   NORMALIZED FREE ENERGY PREDICTED BY IDOCK:   -6.86 KCAL/MOL
REMARK 922        TOTAL FREE ENERGY PREDICTED BY IDOCK:   -8.25 KCAL/MOL
REMARK 923 INTER-LIGAND FREE ENERGY PREDICTED BY IDOCK:   -7.70 KCAL/MOL
REMARK 924 INTRA-LIGAND FREE ENERGY PREDICTED BY IDOCK:   -0.56 KCAL/MOL
REMARK 927      BINDING AFFINITY PREDICTED BY RF-SCORE:    0.00 PKD
ROOT
HETATM    1  C   UNL     1      -9.115   9.407  65.262  1.00  0.00    -0.287 C  
HETATM    2  C   UNL     1     -10.083  10.543  65.526  1.00  0.00    -0.349 A  
HETATM    3  C   UNL     1     -10.520  10.916  66.829  1.00  0.00    -0.302 A  
HETATM    4 CL   UNL     1      -9.992  10.873  62.809  1.00  0.00    -0.250 Cl 
HETATM    5  C   UNL     1     -11.449  11.977  66.958  1.00  0.00    -0.338 A  
HETATM    6  C   UNL     1     -11.998  13.088  63.371  1.00  0.00    -0.592 C  
HETATM    7 CL   UNL     1     -11.998  12.528  68.525  1.00  0.00    -0.328 Cl 
HETATM    8  N   UNL     1     -11.931  12.661  65.821  1.00  0.00    -0.466 NA 
HETATM    9  C   UNL     1     -11.479  12.312  64.550  1.00  0.00    -0.341 A  
HETATM   10  O   UNL     1     -12.775  13.615  65.948  1.00  0.00    -0.450 OA 
HETATM   11  C   UNL     1     -10.558  11.266  64.410  1.00  0.00    -0.345 A  
ENDROOT
BRANCH   3  12
HETATM   12  C   UNL     1      -9.985  10.236  68.016  1.00  0.00    -0.153 A  
HETATM   13  O   UNL     1      -8.953   9.769  69.862  1.00  0.00    -0.206 OA 
HETATM   14  N   UNL     1      -9.020  10.707  68.823  1.00  0.00    -0.165 NA 
HETATM   15  C   UNL     1      -9.908   8.835  69.589  1.00  0.00    -0.183 A  
HETATM   16  N   UNL     1     -10.519   9.046  68.445  1.00  0.00    -0.207 NA 
BRANCH  15  17
HETATM   17  C   UNL     1     -10.228   7.828  70.600  1.00  0.00    -0.199 A  
HETATM   18  C   UNL     1      -9.274   7.052  71.284  1.00  0.00    -0.152 A  
HETATM   19  C   UNL     1      -9.690   6.108  72.253  1.00  0.00    -0.155 A  
HETATM   20  N   UNL     1      -8.686   5.301  72.949  1.00  0.00    -0.118 N  
HETATM   21  C   UNL     1     -11.050   5.943  72.550  1.00  0.00    -0.283 A  
HETATM   22  O   UNL     1     -11.582   5.068  73.463  1.00  0.00    -0.462 OA 
HETATM   23  O   UNL     1      -9.093   4.466  73.775  1.00  0.00    -0.105 OA 
HETATM   24  O   UNL     1      -7.493   5.494  72.676  1.00  0.00    -0.093 OA 
HETATM   25  C   UNL     1     -11.976   6.731  71.880  1.00  0.00    -0.333 A  
HETATM   26  H   UNL     1     -12.504   4.957  73.665  1.00  0.00     0.000 HD 
HETATM   27  C   UNL     1     -11.585   7.655  70.925  1.00  0.00    -0.299 A  
HETATM   28  O   UNL     1     -13.311   6.611  72.153  1.00  0.00    -0.536 OA 
HETATM   29  H   UNL     1     -13.945   7.150  71.694  1.00  0.00     0.000 HD 
ENDBRANCH  15  17
ENDBRANCH   3  12
TORSDOF 2
ENDMDL
MODEL       53
REMARK 921   NORMALIZED FREE ENERGY PREDICTED BY IDOCK:   -6.82 KCAL/MOL
REMARK 922        TOTAL FREE ENERGY PREDICTED BY IDOCK:   -8.21 KCAL/MOL
REMARK 923 INTER-LIGAND FREE ENERGY PREDICTED BY IDOCK:   -7.63 KCAL/MOL
REMARK 924 INTRA-LIGAND FREE ENERGY PREDICTED BY IDOCK:   -0.58 KCAL/MOL
REMARK 927      BINDING AFFINITY PREDICTED BY RF-SCORE:    0.00 PKD
ROOT
HETATM    1  C   UNL     1     -11.039  10.182  68.700  1.00  0.00    -0.254 C  
HETATM    2  C   UNL     1     -10.372   9.790  67.396  1.00  0.00    -0.297 A  
HETATM    3  C   UNL     1     -10.279  10.657  66.271  1.00  0.00    -0.304 A  
HETATM    4 CL   UNL     1      -9.855   7.437  68.699  1.00  0.00    -0.159 Cl 
HETATM    5  C   UNL     1      -9.659  10.177  65.091  1.00  0.00    -0.292 A  
HETATM    6  C   UNL     1      -8.605   6.657  66.039  1.00  0.00    -0.152 C  
HETATM    7 CL   UNL     1      -9.460  11.195  63.682  1.00  0.00    -0.264 Cl 
HETATM    8  N   UNL     1      -9.134   8.867  65.029  1.00  0.00    -0.118 NA 
HETATM    9  C   UNL     1      -9.203   8.032  66.142  1.00  0.00    -0.163 A  
HETATM   10  O   UNL     1      -8.581   8.441  63.956  1.00  0.00    -0.050 OA 
HETATM   11  C   UNL     1      -9.811   8.497  67.315  1.00  0.00    -0.199 A  
ENDROOT
BRANCH   3  12
HETATM   12  C   UNL     1     -10.783  12.034  66.347  1.00  0.00    -0.259 A  
HETATM   13  O   UNL     1     -12.050  13.789  66.418  1.00  0.00    -0.406 OA 
HETATM   14  N   UNL     1     -12.042  12.427  66.091  1.00  0.00    -0.641 NA 
HETATM   15  C   UNL     1     -10.796  14.078  66.866  1.00  0.00    -0.290 A  
HETATM   16  N   UNL     1      -9.974  13.055  66.783  1.00  0.00    -0.239 NA 
BRANCH  15  17
HETATM   17  C   UNL     1     -10.541  15.380  67.480  1.00  0.00    -0.283 A  
HETATM   18  C   UNL     1      -9.847  16.435  66.857  1.00  0.00    -0.266 A  
HETATM   19  C   UNL     1      -9.661  17.661  67.538  1.00  0.00    -0.280 A  
HETATM   20  N   UNL     1      -8.928  18.745  66.880  1.00  0.00    -0.288 N  
HETATM   21  C   UNL     1     -10.173  17.845  68.829  1.00  0.00    -0.360 A  
HETATM   22  O   UNL     1     -10.063  18.979  69.593  1.00  0.00    -0.326 OA 
HETATM   23  O   UNL     1      -8.765  19.798  67.520  1.00  0.00    -0.310 OA 
HETATM   24  O   UNL     1      -8.513  18.552  65.729  1.00  0.00    -0.455 OA 
HETATM   25  C   UNL     1     -10.873  16.802  69.421  1.00  0.00    -0.250 A  
HETATM   26  H   UNL     1     -10.411  19.104  70.469  1.00  0.00     0.000 HD 
HETATM   27  C   UNL     1     -11.057  15.593  68.769  1.00  0.00    -0.307 A  
HETATM   28  O   UNL     1     -11.401  16.947  70.674  1.00  0.00    -0.414 OA 
HETATM   29  H   UNL     1     -11.879  16.233  71.079  1.00  0.00     0.000 HD 
ENDBRANCH  15  17
ENDBRANCH   3  12
TORSDOF 2
ENDMDL
MODEL       54
REMARK 921   NORMALIZED FREE ENERGY PREDICTED BY IDOCK:   -6.79 KCAL/MOL
REMARK 922        TOTAL FREE ENERGY PREDICTED BY IDOCK:   -8.18 KCAL/MOL
REMARK 923 INTER-LIGAND FREE ENERGY PREDICTED BY IDOCK:   -7.56 KCAL/MOL
REMARK 924 INTRA-LIGAND FREE ENERGY PREDICTED BY IDOCK:   -0.62 KCAL/MOL
REMARK 927      BINDING AFFINITY PREDICTED BY RF-SCORE:    0.00 PKD
ROOT
HETATM    1  C   UNL     1     -11.193   9.335  71.500  1.00  0.00    -0.457 C  
HETATM    2  C   UNL     1     -10.517   8.280  70.646  1.00  0.00    -0.224 A  
HETATM    3  C   UNL     1      -9.798   8.579  69.454  1.00  0.00    -0.185 A  
HETATM    4 CL   UNL     1     -11.429   6.551  72.564  1.00  0.00    -0.295 Cl 
HETATM    5  C   UNL     1      -9.228   7.512  68.717  1.00  0.00    -0.145 A  
HETATM    6  C   UNL     1     -10.136   4.457  70.778  1.00  0.00    -0.199 C  
HETATM    7 CL   UNL     1      -8.288   7.797  67.269  1.00  0.00    -0.118 Cl 
HETATM    8  N   UNL     1      -9.363   6.175  69.154  1.00  0.00    -0.126 NA 
HETATM    9  C   UNL     1     -10.044   5.891  70.336  1.00  0.00    -0.201 A  
HETATM   10  O   UNL     1      -8.850   5.218  68.478  1.00  0.00    -0.097 OA 
HETATM   11  C   UNL     1     -10.608   6.939  71.075  1.00  0.00    -0.220 A  
ENDROOT
BRANCH   3  12
HETATM   12  C   UNL     1      -9.618   9.970  69.021  1.00  0.00    -0.196 A  
HETATM   13  O   UNL     1      -8.811  11.940  68.618  1.00  0.00    -0.139 OA 
HETATM   14  N   UNL     1      -8.603  10.779  69.373  1.00  0.00    -0.041 NA 
HETATM   15  C   UNL     1      -9.922  11.706  67.863  1.00  0.00    -0.182 A  
HETATM   16  N   UNL     1     -10.480  10.544  68.120  1.00  0.00    -0.174 NA 
BRANCH  15  17
HETATM   17  C   UNL     1     -10.281  12.656  66.812  1.00  0.00    -0.246 A  
HETATM   18  C   UNL     1     -11.248  12.417  65.816  1.00  0.00    -0.370 A  
HETATM   19  C   UNL     1     -11.527  13.410  64.847  1.00  0.00    -0.325 A  
HETATM   20  N   UNL     1     -12.528  13.142  63.811  1.00  0.00    -0.333 N  
HETATM   21  C   UNL     1     -10.859  14.641  64.872  1.00  0.00    -0.419 A  
HETATM   22  O   UNL     1     -11.036  15.681  63.996  1.00  0.00    -0.633 OA 
HETATM   23  O   UNL     1     -12.727  14.029  62.965  1.00  0.00    -0.586 OA 
HETATM   24  O   UNL     1     -13.116  12.052  63.838  1.00  0.00    -0.695 OA 
HETATM   25  C   UNL     1      -9.922  14.867  65.873  1.00  0.00    -0.331 A  
HETATM   26  H   UNL     1     -10.583  16.516  64.014  1.00  0.00     0.000 HD 
HETATM   27  C   UNL     1      -9.634  13.903  66.825  1.00  0.00    -0.288 A  
HETATM   28  O   UNL     1      -9.259  16.061  65.941  1.00  0.00    -0.336 OA 
HETATM   29  H   UNL     1      -8.619  16.216  66.626  1.00  0.00     0.000 HD 
ENDBRANCH  15  17
ENDBRANCH   3  12
TORSDOF 2
ENDMDL
MODEL       55
REMARK 921   NORMALIZED FREE ENERGY PREDICTED BY IDOCK:   -6.78 KCAL/MOL
REMARK 922        TOTAL FREE ENERGY PREDICTED BY IDOCK:   -8.16 KCAL/MOL
REMARK 923 INTER-LIGAND FREE ENERGY PREDICTED BY IDOCK:   -7.55 KCAL/MOL
REMARK 924 INTRA-LIGAND FREE ENERGY PREDICTED BY IDOCK:   -0.61 KCAL/MOL
REMARK 927      BINDING AFFINITY PREDICTED BY RF-SCORE:    0.00 PKD
ROOT
HETATM    1  C   UNL     1      -9.000   9.594  65.159  1.00  0.00    -0.249 C  
HETATM    2  C   UNL     1      -9.987  10.724  65.377  1.00  0.00    -0.330 A  
HETATM    3  C   UNL     1     -10.333  11.225  66.664  1.00  0.00    -0.279 A  
HETATM    4 CL   UNL     1     -10.123  10.753  62.643  1.00  0.00    -0.084 Cl 
HETATM    5  C   UNL     1     -11.289  12.266  66.755  1.00  0.00    -0.339 A  
HETATM    6  C   UNL     1     -12.162  12.957  63.127  1.00  0.00    -0.315 C  
HETATM    7 CL   UNL     1     -11.733  12.971  68.293  1.00  0.00    -0.370 Cl 
HETATM    8  N   UNL     1     -11.886  12.806  65.594  1.00  0.00    -0.402 NA 
HETATM    9  C   UNL     1     -11.523  12.331  64.335  1.00  0.00    -0.354 A  
HETATM   10  O   UNL     1     -12.753  13.743  65.687  1.00  0.00    -0.509 OA 
HETATM   11  C   UNL     1     -10.576  11.304  64.233  1.00  0.00    -0.358 A  
ENDROOT
BRANCH   3  12
HETATM   12  C   UNL     1      -9.681  10.697  67.869  1.00  0.00    -0.161 A  
HETATM   13  O   UNL     1      -8.395  10.415  69.589  1.00  0.00    -0.152 OA 
HETATM   14  N   UNL     1      -8.530  11.143  68.400  1.00  0.00    -0.145 NA 
HETATM   15  C   UNL     1      -9.496   9.616  69.670  1.00  0.00    -0.210 A  
HETATM   16  N   UNL     1     -10.276   9.710  68.616  1.00  0.00    -0.182 NA 
BRANCH  15  17
HETATM   17  C   UNL     1      -9.752   8.879  70.906  1.00  0.00    -0.300 A  
HETATM   18  C   UNL     1      -8.782   8.143  71.613  1.00  0.00    -0.188 A  
HETATM   19  C   UNL     1      -9.133   7.471  72.808  1.00  0.00    -0.152 A  
HETATM   20  N   UNL     1      -8.114   6.701  73.526  1.00  0.00    -0.109 N  
HETATM   21  C   UNL     1     -10.440   7.537  73.306  1.00  0.00    -0.371 A  
HETATM   22  O   UNL     1     -10.908   6.935  74.447  1.00  0.00    -0.378 OA 
HETATM   23  O   UNL     1      -8.468   6.105  74.557  1.00  0.00    -0.122 OA 
HETATM   24  O   UNL     1      -6.964   6.688  73.066  1.00  0.00    -0.075 OA 
HETATM   25  C   UNL     1     -11.381   8.283  72.607  1.00  0.00    -0.350 A  
HETATM   26  H   UNL     1     -11.794   6.980  74.785  1.00  0.00     0.000 HD 
HETATM   27  C   UNL     1     -11.054   8.942  71.434  1.00  0.00    -0.376 A  
HETATM   28  O   UNL     1     -12.664   8.385  73.070  1.00  0.00    -0.697 OA 
HETATM   29  H   UNL     1     -13.307   8.895  72.591  1.00  0.00     0.000 HD 
ENDBRANCH  15  17
ENDBRANCH   3  12
TORSDOF 2
ENDMDL
MODEL       56
REMARK 921   NORMALIZED FREE ENERGY PREDICTED BY IDOCK:   -6.75 KCAL/MOL
REMARK 922        TOTAL FREE ENERGY PREDICTED BY IDOCK:   -8.13 KCAL/MOL
REMARK 923 INTER-LIGAND FREE ENERGY PREDICTED BY IDOCK:   -7.55 KCAL/MOL
REMARK 924 INTRA-LIGAND FREE ENERGY PREDICTED BY IDOCK:   -0.58 KCAL/MOL
REMARK 927      BINDING AFFINITY PREDICTED BY RF-SCORE:    0.00 PKD
ROOT
HETATM    1  C   UNL     1      -8.599  12.950  67.150  1.00  0.00    -0.198 C  
HETATM    2  C   UNL     1      -9.715  13.322  66.194  1.00  0.00    -0.258 A  
HETATM    3  C   UNL     1     -10.567  12.366  65.573  1.00  0.00    -0.307 A  
HETATM    4 CL   UNL     1      -8.924  15.890  66.722  1.00  0.00    -0.254 Cl 
HETATM    5  C   UNL     1     -11.562  12.822  64.674  1.00  0.00    -0.338 A  
HETATM    6  C   UNL     1     -11.116  16.591  64.734  1.00  0.00    -0.197 C  
HETATM    7 CL   UNL     1     -12.680  11.717  63.907  1.00  0.00    -0.419 Cl 
HETATM    8  N   UNL     1     -11.715  14.200  64.401  1.00  0.00    -0.403 NA 
HETATM    9  C   UNL     1     -10.897  15.134  65.033  1.00  0.00    -0.440 A  
HETATM   10  O   UNL     1     -12.613  14.602  63.583  1.00  0.00    -0.773 OA 
HETATM   11  C   UNL     1      -9.912  14.694  65.927  1.00  0.00    -0.328 A  
ENDROOT
BRANCH   3  12
HETATM   12  C   UNL     1     -10.440  10.938  65.890  1.00  0.00    -0.221 A  
HETATM   13  O   UNL     1      -9.835   8.858  65.935  1.00  0.00    -0.255 OA 
HETATM   14  N   UNL     1      -9.762  10.029  65.168  1.00  0.00    -0.296 NA 
HETATM   15  C   UNL     1     -10.532   9.185  67.060  1.00  0.00    -0.240 A  
HETATM   16  N   UNL     1     -10.971  10.424  67.048  1.00  0.00    -0.208 NA 
BRANCH  15  17
HETATM   17  C   UNL     1     -10.601   8.224  68.159  1.00  0.00    -0.169 A  
HETATM   18  C   UNL     1     -10.993   8.541  69.474  1.00  0.00    -0.057 A  
HETATM   19  C   UNL     1     -11.034   7.532  70.464  1.00  0.00    -0.252 A  
HETATM   20  N   UNL     1     -11.435   7.880  71.830  1.00  0.00    -0.258 N  
HETATM   21  C   UNL     1     -10.698   6.209  70.149  1.00  0.00    -0.302 A  
HETATM   22  O   UNL     1     -10.697   5.142  71.012  1.00  0.00    -0.179 OA 
HETATM   23  O   UNL     1     -11.435   6.970  72.676  1.00  0.00    -0.267 OA 
HETATM   24  O   UNL     1     -11.749   9.055  72.062  1.00  0.00    -0.357 OA 
HETATM   25  C   UNL     1     -10.332   5.909  68.843  1.00  0.00    -0.228 A  
HETATM   26  H   UNL     1     -10.470   4.245  70.798  1.00  0.00     0.000 HD 
HETATM   27  C   UNL     1     -10.282   6.888  67.864  1.00  0.00    -0.212 A  
HETATM   28  O   UNL     1     -10.012   4.627  68.492  1.00  0.00    -0.136 OA 
HETATM   29  H   UNL     1      -9.761   4.422  67.599  1.00  0.00     0.000 HD 
ENDBRANCH  15  17
ENDBRANCH   3  12
TORSDOF 2
ENDMDL
MODEL       57
REMARK 921   NORMALIZED FREE ENERGY PREDICTED BY IDOCK:   -6.75 KCAL/MOL
REMARK 922        TOTAL FREE ENERGY PREDICTED BY IDOCK:   -8.13 KCAL/MOL
REMARK 923 INTER-LIGAND FREE ENERGY PREDICTED BY IDOCK:   -7.59 KCAL/MOL
REMARK 924 INTRA-LIGAND FREE ENERGY PREDICTED BY IDOCK:   -0.53 KCAL/MOL
REMARK 927      BINDING AFFINITY PREDICTED BY RF-SCORE:    0.00 PKD
ROOT
HETATM    1  C   UNL     1     -12.401   7.310  71.433  1.00  0.00    -0.403 C  
HETATM    2  C   UNL     1     -10.963   6.858  71.264  1.00  0.00    -0.275 A  
HETATM    3  C   UNL     1     -10.027   7.520  70.420  1.00  0.00    -0.184 A  
HETATM    4 CL   UNL     1     -11.654   4.934  73.086  1.00  0.00    -0.375 Cl 
HETATM    5  C   UNL     1      -8.716   6.995  70.315  1.00  0.00    -0.144 A  
HETATM    6  C   UNL     1      -8.790   4.007  72.654  1.00  0.00    -0.114 C  
HETATM    7 CL   UNL     1      -7.492   7.776  69.339  1.00  0.00    -0.086 Cl 
HETATM    8  N   UNL     1      -8.336   5.842  71.037  1.00  0.00    -0.121 NA 
HETATM    9  C   UNL     1      -9.248   5.214  71.883  1.00  0.00    -0.137 A  
HETATM   10  O   UNL     1      -7.150   5.372  70.931  1.00  0.00    -0.060 OA 
HETATM   11  C   UNL     1     -10.547   5.726  71.997  1.00  0.00    -0.226 A  
ENDROOT
BRANCH   3  12
HETATM   12  C   UNL     1     -10.405   8.745  69.704  1.00  0.00    -0.213 A  
HETATM   13  O   UNL     1     -11.127  10.159  68.231  1.00  0.00    -0.260 OA 
HETATM   14  N   UNL     1     -10.732   8.826  68.403  1.00  0.00    -0.123 NA 
HETATM   15  C   UNL     1     -11.022  10.746  69.457  1.00  0.00    -0.266 A  
HETATM   16  N   UNL     1     -10.530   9.939  70.370  1.00  0.00    -0.288 NA 
BRANCH  15  17
HETATM   17  C   UNL     1     -11.561  12.091  69.651  1.00  0.00    -0.371 A  
HETATM   18  C   UNL     1     -12.435  12.459  70.692  1.00  0.00    -0.320 A  
HETATM   19  C   UNL     1     -12.893  13.794  70.795  1.00  0.00    -0.232 A  
HETATM   20  N   UNL     1     -13.810  14.158  71.878  1.00  0.00    -0.421 N  
HETATM   21  C   UNL     1     -12.476  14.764  69.875  1.00  0.00    -0.240 A  
HETATM   22  O   UNL     1     -12.843  16.086  69.864  1.00  0.00    -0.587 OA 
HETATM   23  O   UNL     1     -14.208  15.334  71.920  1.00  0.00    -0.501 OA 
HETATM   24  O   UNL     1     -14.135  13.277  72.686  1.00  0.00    -0.744 OA 
HETATM   25  C   UNL     1     -11.598  14.389  68.866  1.00  0.00    -0.306 A  
HETATM   26  H   UNL     1     -12.560  16.744  69.240  1.00  0.00     0.000 HD 
HETATM   27  C   UNL     1     -11.146  13.085  68.749  1.00  0.00    -0.311 A  
HETATM   28  O   UNL     1     -11.155  15.310  67.958  1.00  0.00    -0.288 OA 
HETATM   29  H   UNL     1     -10.555  15.054  67.267  1.00  0.00     0.000 HD 
ENDBRANCH  15  17
ENDBRANCH   3  12
TORSDOF 2
ENDMDL
MODEL       58
REMARK 921   NORMALIZED FREE ENERGY PREDICTED BY IDOCK:   -6.74 KCAL/MOL
REMARK 922        TOTAL FREE ENERGY PREDICTED BY IDOCK:   -8.12 KCAL/MOL
REMARK 923 INTER-LIGAND FREE ENERGY PREDICTED BY IDOCK:   -7.58 KCAL/MOL
REMARK 924 INTRA-LIGAND FREE ENERGY PREDICTED BY IDOCK:   -0.54 KCAL/MOL
REMARK 927      BINDING AFFINITY PREDICTED BY RF-SCORE:    0.00 PKD
ROOT
HETATM    1  C   UNL     1      -8.508   7.747  66.745  1.00  0.00    -0.126 C  
HETATM    2  C   UNL     1      -9.059   7.422  68.120  1.00  0.00    -0.131 A  
HETATM    3  C   UNL     1      -9.353   8.411  69.101  1.00  0.00    -0.151 A  
HETATM    4 CL   UNL     1      -9.005   4.838  67.218  1.00  0.00    -0.111 Cl 
HETATM    5  C   UNL     1      -9.838   7.994  70.364  1.00  0.00    -0.183 A  
HETATM    6  C   UNL     1     -10.027   4.220  70.014  1.00  0.00    -0.196 C  
HETATM    7 CL   UNL     1     -10.270   9.148  71.607  1.00  0.00    -0.411 Cl 
HETATM    8  N   UNL     1     -10.036   6.625  70.649  1.00  0.00    -0.184 NA 
HETATM    9  C   UNL     1      -9.774   5.663  69.676  1.00  0.00    -0.169 A  
HETATM   10  O   UNL     1     -10.470   6.258  71.796  1.00  0.00    -0.204 OA 
HETATM   11  C   UNL     1      -9.296   6.064  68.422  1.00  0.00    -0.119 A  
ENDROOT
BRANCH   3  12
HETATM   12  C   UNL     1      -9.191   9.838  68.792  1.00  0.00    -0.143 A  
HETATM   13  O   UNL     1      -8.401  11.838  68.533  1.00  0.00    -0.156 OA 
HETATM   14  N   UNL     1      -8.157  10.611  69.164  1.00  0.00    -0.148 NA 
HETATM   15  C   UNL     1      -9.552  11.674  67.821  1.00  0.00    -0.178 A  
HETATM   16  N   UNL     1     -10.099  10.493  67.997  1.00  0.00    -0.161 NA 
BRANCH  15  17
HETATM   17  C   UNL     1      -9.964  12.719  66.885  1.00  0.00    -0.232 A  
HETATM   18  C   UNL     1     -10.986  12.575  65.927  1.00  0.00    -0.314 A  
HETATM   19  C   UNL     1     -11.314  13.654  65.072  1.00  0.00    -0.329 A  
HETATM   20  N   UNL     1     -12.373  13.485  64.074  1.00  0.00    -0.371 N  
HETATM   21  C   UNL     1     -10.638  14.877  65.175  1.00  0.00    -0.428 A  
HETATM   22  O   UNL     1     -10.859  15.995  64.411  1.00  0.00    -0.877 OA 
HETATM   23  O   UNL     1     -12.614  14.447  63.326  1.00  0.00    -0.655 OA 
HETATM   24  O   UNL     1     -12.964  12.397  64.031  1.00  0.00    -0.748 OA 
HETATM   25  C   UNL     1      -9.646  15.008  66.138  1.00  0.00    -0.314 A  
HETATM   26  H   UNL     1     -10.400  16.824  64.481  1.00  0.00     0.000 HD 
HETATM   27  C   UNL     1      -9.310  13.959  66.978  1.00  0.00    -0.255 A  
HETATM   28  O   UNL     1      -8.973  16.190  66.280  1.00  0.00    -0.286 OA 
HETATM   29  H   UNL     1      -8.295  16.280  66.939  1.00  0.00     0.000 HD 
ENDBRANCH  15  17
ENDBRANCH   3  12
TORSDOF 2
ENDMDL
MODEL       59
REMARK 921   NORMALIZED FREE ENERGY PREDICTED BY IDOCK:   -6.66 KCAL/MOL
REMARK 922        TOTAL FREE ENERGY PREDICTED BY IDOCK:   -8.03 KCAL/MOL
REMARK 923 INTER-LIGAND FREE ENERGY PREDICTED BY IDOCK:   -7.43 KCAL/MOL
REMARK 924 INTRA-LIGAND FREE ENERGY PREDICTED BY IDOCK:   -0.60 KCAL/MOL
REMARK 927      BINDING AFFINITY PREDICTED BY RF-SCORE:    0.00 PKD
ROOT
HETATM    1  C   UNL     1      -9.916  16.435  69.963  1.00  0.00     0.309 C  
HETATM    2  C   UNL     1     -10.251  16.552  68.488  1.00  0.00    -0.266 A  
HETATM    3  C   UNL     1     -10.767  15.474  67.714  1.00  0.00    -0.297 A  
HETATM    4 CL   UNL     1      -9.474  19.158  68.810  1.00  0.00    -0.444 Cl 
HETATM    5  C   UNL     1     -11.020  15.685  66.337  1.00  0.00    -0.197 A  
HETATM    6  C   UNL     1     -10.076  19.327  65.834  1.00  0.00    -0.358 C  
HETATM    7 CL   UNL     1     -11.699  14.429  65.326  1.00  0.00    -0.353 Cl 
HETATM    8  N   UNL     1     -10.773  16.941  65.738  1.00  0.00    -0.284 NA 
HETATM    9  C   UNL     1     -10.295  18.001  66.507  1.00  0.00    -0.373 A  
HETATM   10  O   UNL     1     -10.999  17.121  64.492  1.00  0.00    -1.003 OA 
HETATM   11  C   UNL     1     -10.045  17.804  67.871  1.00  0.00    -0.342 A  
ENDROOT
BRANCH   3  12
HETATM   12  C   UNL     1     -11.067  14.182  68.343  1.00  0.00    -0.252 A  
HETATM   13  O   UNL     1     -12.062  12.495  69.269  1.00  0.00    -0.256 OA 
HETATM   14  N   UNL     1     -12.221  13.850  68.947  1.00  0.00    -0.314 NA 
HETATM   15  C   UNL     1     -10.833  12.137  68.802  1.00  0.00    -0.228 A  
HETATM   16  N   UNL     1     -10.168  13.145  68.285  1.00  0.00    -0.245 NA 
BRANCH  15  17
HETATM   17  C   UNL     1     -10.455  10.725  68.801  1.00  0.00    -0.221 A  
HETATM   18  C   UNL     1     -10.078   9.999  69.947  1.00  0.00    -0.289 A  
HETATM   19  C   UNL     1      -9.738   8.629  69.839  1.00  0.00    -0.173 A  
HETATM   20  N   UNL     1      -9.337   7.891  71.039  1.00  0.00    -0.151 N  
HETATM   21  C   UNL     1      -9.784   7.978  68.599  1.00  0.00    -0.159 A  
HETATM   22  O   UNL     1      -9.481   6.662  68.360  1.00  0.00    -0.127 OA 
HETATM   23  O   UNL     1      -9.022   6.697  70.898  1.00  0.00    -0.146 OA 
HETATM   24  O   UNL     1      -9.333   8.495  72.120  1.00  0.00    -0.239 OA 
HETATM   25  C   UNL     1     -10.177   8.704  67.482  1.00  0.00    -0.245 A  
HETATM   26  H   UNL     1      -9.512   6.221  67.519  1.00  0.00     0.000 HD 
HETATM   27  C   UNL     1     -10.507  10.047  67.571  1.00  0.00    -0.307 A  
HETATM   28  O   UNL     1     -10.250   8.101  66.257  1.00  0.00    -0.475 OA 
HETATM   29  H   UNL     1     -10.519   8.598  65.492  1.00  0.00     0.000 HD 
ENDBRANCH  15  17
ENDBRANCH   3  12
TORSDOF 2
ENDMDL
MODEL       60
REMARK 921   NORMALIZED FREE ENERGY PREDICTED BY IDOCK:   -6.66 KCAL/MOL
REMARK 922        TOTAL FREE ENERGY PREDICTED BY IDOCK:   -8.03 KCAL/MOL
REMARK 923 INTER-LIGAND FREE ENERGY PREDICTED BY IDOCK:   -7.67 KCAL/MOL
REMARK 924 INTRA-LIGAND FREE ENERGY PREDICTED BY IDOCK:   -0.35 KCAL/MOL
REMARK 927      BINDING AFFINITY PREDICTED BY RF-SCORE:    0.00 PKD
ROOT
HETATM    1  C   UNL     1     -13.312  12.889  72.411  1.00  0.00    -0.526 C  
HETATM    2  C   UNL     1     -12.661  13.000  71.046  1.00  0.00    -0.386 A  
HETATM    3  C   UNL     1     -12.204  11.876  70.301  1.00  0.00    -0.353 A  
HETATM    4 CL   UNL     1     -13.125  15.681  71.358  1.00  0.00    -0.558 Cl 
HETATM    5  C   UNL     1     -11.585  12.097  69.046  1.00  0.00    -0.319 A  
HETATM    6  C   UNL     1     -11.737  15.869  68.659  1.00  0.00    -0.328 C  
HETATM    7 CL   UNL     1     -11.040  10.768  68.047  1.00  0.00    -0.330 Cl 
HETATM    8  N   UNL     1     -11.426  13.404  68.535  1.00  0.00    -0.287 NA 
HETATM    9  C   UNL     1     -11.901  14.499  69.256  1.00  0.00    -0.323 A  
HETATM   10  O   UNL     1     -10.861  13.594  67.403  1.00  0.00    -0.268 OA 
HETATM   11  C   UNL     1     -12.518  14.292  70.496  1.00  0.00    -0.361 A  
ENDROOT
BRANCH   3  12
HETATM   12  C   UNL     1     -12.408  10.513  70.808  1.00  0.00    -0.378 A  
HETATM   13  O   UNL     1     -13.262   8.601  71.360  1.00  0.00    -0.310 OA 
HETATM   14  N   UNL     1     -13.595   9.908  70.982  1.00  0.00    -0.241 NA 
HETATM   15  C   UNL     1     -11.900   8.540  71.352  1.00  0.00    -0.296 A  
HETATM   16  N   UNL     1     -11.338   9.697  71.081  1.00  0.00    -0.357 NA 
BRANCH  15  17
HETATM   17  C   UNL     1     -11.244   7.243  71.505  1.00  0.00    -0.273 A  
HETATM   18  C   UNL     1     -10.444   6.632  70.522  1.00  0.00    -0.240 A  
HETATM   19  C   UNL     1      -9.846   5.374  70.775  1.00  0.00    -0.190 A  
HETATM   20  N   UNL     1      -9.024   4.747  69.737  1.00  0.00    -0.092 N  
HETATM   21  C   UNL     1     -10.032   4.730  72.005  1.00  0.00    -0.186 A  
HETATM   22  O   UNL     1      -9.511   3.516  72.374  1.00  0.00    -0.113 OA 
HETATM   23  O   UNL     1      -8.537   3.632  69.988  1.00  0.00    -0.058 OA 
HETATM   24  O   UNL     1      -8.863   5.359  68.673  1.00  0.00    -0.103 OA 
HETATM   25  C   UNL     1     -10.809   5.356  72.971  1.00  0.00    -0.276 A  
HETATM   26  H   UNL     1      -9.637   3.079  73.209  1.00  0.00     0.000 HD 
HETATM   27  C   UNL     1     -11.405   6.584  72.736  1.00  0.00    -0.221 A  
HETATM   28  O   UNL     1     -11.002   4.767  74.190  1.00  0.00    -0.302 OA 
HETATM   29  H   UNL     1     -11.534   5.195  74.851  1.00  0.00     0.000 HD 
ENDBRANCH  15  17
ENDBRANCH   3  12
TORSDOF 2
ENDMDL
MODEL       61
REMARK 921   NORMALIZED FREE ENERGY PREDICTED BY IDOCK:   -6.66 KCAL/MOL
REMARK 922        TOTAL FREE ENERGY PREDICTED BY IDOCK:   -8.02 KCAL/MOL
REMARK 923 INTER-LIGAND FREE ENERGY PREDICTED BY IDOCK:   -7.48 KCAL/MOL
REMARK 924 INTRA-LIGAND FREE ENERGY PREDICTED BY IDOCK:   -0.55 KCAL/MOL
REMARK 927      BINDING AFFINITY PREDICTED BY RF-SCORE:    0.00 PKD
ROOT
HETATM    1  C   UNL     1      -8.260  15.879  69.072  1.00  0.00    -0.234 C  
HETATM    2  C   UNL     1      -9.078  16.303  67.868  1.00  0.00    -0.196 A  
HETATM    3  C   UNL     1      -9.777  15.386  67.033  1.00  0.00    -0.231 A  
HETATM    4 CL   UNL     1      -8.355  18.833  68.624  1.00  0.00    -0.368 Cl 
HETATM    5  C   UNL     1     -10.489  15.888  65.916  1.00  0.00    -0.359 A  
HETATM    6  C   UNL     1      -9.935  19.635  66.152  1.00  0.00    -0.554 C  
HETATM    7 CL   UNL     1     -11.413  14.834  64.869  1.00  0.00    -0.395 Cl 
HETATM    8  N   UNL     1     -10.516  17.272  65.636  1.00  0.00    -0.590 NA 
HETATM    9  C   UNL     1      -9.854  18.168  66.473  1.00  0.00    -0.362 A  
HETATM   10  O   UNL     1     -11.158  17.716  64.622  1.00  0.00    -0.906 OA 
HETATM   11  C   UNL     1      -9.149  17.683  67.582  1.00  0.00    -0.241 A  
ENDROOT
BRANCH   3  12
HETATM   12  C   UNL     1      -9.789  13.951  67.347  1.00  0.00    -0.237 A  
HETATM   13  O   UNL     1     -10.291  11.991  68.120  1.00  0.00    -0.186 OA 
HETATM   14  N   UNL     1     -10.541  13.359  68.291  1.00  0.00    -0.247 NA 
HETATM   15  C   UNL     1      -9.428  11.892  67.070  1.00  0.00    -0.188 A  
HETATM   16  N   UNL     1      -9.048  13.063  66.607  1.00  0.00    -0.212 NA 
BRANCH  15  17
HETATM   17  C   UNL     1      -9.133  10.574  66.512  1.00  0.00    -0.175 A  
HETATM   18  C   UNL     1      -8.756   9.450  67.272  1.00  0.00    -0.133 A  
HETATM   19  C   UNL     1      -8.501   8.214  66.633  1.00  0.00    -0.128 A  
HETATM   20  N   UNL     1      -8.100   7.058  67.437  1.00  0.00    -0.115 N  
HETATM   21  C   UNL     1      -8.631   8.089  65.243  1.00  0.00    -0.086 A  
HETATM   22  O   UNL     1      -8.414   6.954  64.505  1.00  0.00    -0.337 OA 
HETATM   23  O   UNL     1      -7.861   5.997  66.836  1.00  0.00    -0.099 OA 
HETATM   24  O   UNL     1      -8.021   7.202  68.664  1.00  0.00    -0.119 OA 
HETATM   25  C   UNL     1      -9.023   9.202  64.510  1.00  0.00    -0.079 A  
HETATM   26  H   UNL     1      -8.502   6.869  63.563  1.00  0.00     0.000 HD 
HETATM   27  C   UNL     1      -9.270  10.420  65.121  1.00  0.00    -0.250 A  
HETATM   28  O   UNL     1      -9.175   9.117  63.154  1.00  0.00    -0.451 OA 
HETATM   29  H   UNL     1      -9.443   9.878  62.652  1.00  0.00     0.000 HD 
ENDBRANCH  15  17
ENDBRANCH   3  12
TORSDOF 2
ENDMDL
MODEL       62
REMARK 921   NORMALIZED FREE ENERGY PREDICTED BY IDOCK:   -6.62 KCAL/MOL
REMARK 922        TOTAL FREE ENERGY PREDICTED BY IDOCK:   -7.98 KCAL/MOL
REMARK 923 INTER-LIGAND FREE ENERGY PREDICTED BY IDOCK:   -7.68 KCAL/MOL
REMARK 924 INTRA-LIGAND FREE ENERGY PREDICTED BY IDOCK:   -0.30 KCAL/MOL
REMARK 927      BINDING AFFINITY PREDICTED BY RF-SCORE:    0.00 PKD
ROOT
HETATM    1  C   UNL     1     -10.581  15.434  70.455  1.00  0.00    -0.274 C  
HETATM    2  C   UNL     1     -10.798  15.071  68.998  1.00  0.00    -0.242 A  
HETATM    3  C   UNL     1     -11.203  13.777  68.565  1.00  0.00    -0.304 A  
HETATM    4 CL   UNL     1     -10.160  17.695  68.546  1.00  0.00    -0.355 Cl 
HETATM    5  C   UNL     1     -11.350  13.539  67.176  1.00  0.00    -0.321 A  
HETATM    6  C   UNL     1     -10.522  16.905  65.631  1.00  0.00    -0.252 C  
HETATM    7 CL   UNL     1     -11.891  11.992  66.563  1.00  0.00    -0.335 Cl 
HETATM    8  N   UNL     1     -11.108  14.565  66.235  1.00  0.00    -0.327 NA 
HETATM    9  C   UNL     1     -10.740  15.838  66.667  1.00  0.00    -0.287 A  
HETATM   10  O   UNL     1     -11.239  14.339  64.983  1.00  0.00    -0.330 OA 
HETATM   11  C   UNL     1     -10.595  16.085  68.038  1.00  0.00    -0.295 A  
ENDROOT
BRANCH   3  12
HETATM   12  C   UNL     1     -11.499  12.722  69.542  1.00  0.00    -0.225 A  
HETATM   13  O   UNL     1     -12.431  11.488  71.060  1.00  0.00    -0.380 OA 
HETATM   14  N   UNL     1     -12.477  12.755  70.464  1.00  0.00    -0.253 NA 
HETATM   15  C   UNL     1     -11.442  10.804  70.418  1.00  0.00    -0.307 A  
HETATM   16  N   UNL     1     -10.808  11.536  69.529  1.00  0.00    -0.130 NA 
BRANCH  15  17
HETATM   17  C   UNL     1     -11.284   9.374  70.673  1.00  0.00    -0.345 A  
HETATM   18  C   UNL     1     -11.028   8.409  69.681  1.00  0.00    -0.094 A  
HETATM   19  C   UNL     1     -10.883   7.047  70.036  1.00  0.00    -0.261 A  
HETATM   20  N   UNL     1     -10.628   6.053  68.991  1.00  0.00    -0.258 N  
HETATM   21  C   UNL     1     -10.981   6.644  71.375  1.00  0.00    -0.250 A  
HETATM   22  O   UNL     1     -10.860   5.363  71.850  1.00  0.00    -0.231 OA 
HETATM   23  O   UNL     1     -10.531   4.865  69.341  1.00  0.00    -0.167 OA 
HETATM   24  O   UNL     1     -10.524   6.452  67.823  1.00  0.00    -0.171 OA 
HETATM   25  C   UNL     1     -11.214   7.612  72.344  1.00  0.00    -0.320 A  
HETATM   26  H   UNL     1     -10.926   5.091  72.758  1.00  0.00     0.000 HD 
HETATM   27  C   UNL     1     -11.363   8.948  72.011  1.00  0.00    -0.427 A  
HETATM   28  O   UNL     1     -11.300   7.262  73.663  1.00  0.00    -0.542 OA 
HETATM   29  H   UNL     1     -11.460   7.924  74.326  1.00  0.00     0.000 HD 
ENDBRANCH  15  17
ENDBRANCH   3  12
TORSDOF 2
ENDMDL
MODEL       63
REMARK 921   NORMALIZED FREE ENERGY PREDICTED BY IDOCK:   -6.57 KCAL/MOL
REMARK 922        TOTAL FREE ENERGY PREDICTED BY IDOCK:   -7.93 KCAL/MOL
REMARK 923 INTER-LIGAND FREE ENERGY PREDICTED BY IDOCK:   -7.51 KCAL/MOL
REMARK 924 INTRA-LIGAND FREE ENERGY PREDICTED BY IDOCK:   -0.42 KCAL/MOL
REMARK 927      BINDING AFFINITY PREDICTED BY RF-SCORE:    0.00 PKD
ROOT
HETATM    1  C   UNL     1     -10.783   9.684  67.457  1.00  0.00    -0.321 C  
HETATM    2  C   UNL     1     -11.101  11.144  67.711  1.00  0.00    -0.344 A  
HETATM    3  C   UNL     1     -11.599  11.634  68.952  1.00  0.00    -0.377 A  
HETATM    4 CL   UNL     1     -10.208  11.491  65.146  1.00  0.00    -0.305 Cl 
HETATM    5  C   UNL     1     -11.889  13.015  69.071  1.00  0.00    -0.316 A  
HETATM    6  C   UNL     1     -10.940  14.396  65.666  1.00  0.00    -0.314 C  
HETATM    7 CL   UNL     1     -12.457  13.705  70.575  1.00  0.00    -0.409 Cl 
HETATM    8  N   UNL     1     -11.684  13.896  67.986  1.00  0.00    -0.333 NA 
HETATM    9  C   UNL     1     -11.169  13.417  66.783  1.00  0.00    -0.310 A  
HETATM   10  O   UNL     1     -11.954  15.142  68.103  1.00  0.00    -0.290 OA 
HETATM   11  C   UNL     1     -10.876  12.053  66.654  1.00  0.00    -0.272 A  
ENDROOT
BRANCH   3  12
HETATM   12  C   UNL     1     -11.770  10.729  70.095  1.00  0.00    -0.339 A  
HETATM   13  O   UNL     1     -12.585   9.389  71.588  1.00  0.00    -0.327 OA 
HETATM   14  N   UNL     1     -12.944  10.322  70.607  1.00  0.00    -0.327 NA 
HETATM   15  C   UNL     1     -11.225   9.306  71.553  1.00  0.00    -0.386 A  
HETATM   16  N   UNL     1     -10.683  10.148  70.701  1.00  0.00    -0.257 NA 
BRANCH  15  17
HETATM   17  C   UNL     1     -10.555   8.259  72.322  1.00  0.00    -0.393 A  
HETATM   18  C   UNL     1     -11.124   7.010  72.636  1.00  0.00    -0.317 A  
HETATM   19  C   UNL     1     -10.385   6.061  73.380  1.00  0.00    -0.235 A  
HETATM   20  N   UNL     1     -10.995   4.770  73.708  1.00  0.00    -0.308 N  
HETATM   21  C   UNL     1      -9.080   6.345  73.803  1.00  0.00    -0.132 A  
HETATM   22  O   UNL     1      -8.260   5.516  74.527  1.00  0.00    -0.106 OA 
HETATM   23  O   UNL     1     -10.322   3.974  74.384  1.00  0.00    -0.184 OA 
HETATM   24  O   UNL     1     -12.141   4.547  73.295  1.00  0.00    -0.091 OA 
HETATM   25  C   UNL     1      -8.526   7.574  73.468  1.00  0.00    -0.168 A  
HETATM   26  H   UNL     1      -7.375   5.709  74.813  1.00  0.00     0.000 HD 
HETATM   27  C   UNL     1      -9.239   8.516  72.744  1.00  0.00    -0.230 A  
HETATM   28  O   UNL     1      -7.249   7.884  73.848  1.00  0.00    -0.116 OA 
HETATM   29  H   UNL     1      -6.871   8.725  73.620  1.00  0.00     0.000 HD 
ENDBRANCH  15  17
ENDBRANCH   3  12
TORSDOF 2
ENDMDL
MODEL       64
REMARK 921   NORMALIZED FREE ENERGY PREDICTED BY IDOCK:   -6.57 KCAL/MOL
REMARK 922        TOTAL FREE ENERGY PREDICTED BY IDOCK:   -7.93 KCAL/MOL
REMARK 923 INTER-LIGAND FREE ENERGY PREDICTED BY IDOCK:   -7.36 KCAL/MOL
REMARK 924 INTRA-LIGAND FREE ENERGY PREDICTED BY IDOCK:   -0.56 KCAL/MOL
REMARK 927      BINDING AFFINITY PREDICTED BY RF-SCORE:    0.00 PKD
ROOT
HETATM    1  C   UNL     1     -11.932  13.887  69.720  1.00  0.00    -0.398 C  
HETATM    2  C   UNL     1     -11.539  13.187  68.433  1.00  0.00    -0.372 A  
HETATM    3  C   UNL     1     -11.404  11.774  68.320  1.00  0.00    -0.343 A  
HETATM    4 CL   UNL     1     -11.529  15.719  67.392  1.00  0.00    -0.110 Cl 
HETATM    5  C   UNL     1     -11.005  11.226  67.076  1.00  0.00    -0.294 A  
HETATM    6  C   UNL     1     -10.660  14.284  64.855  1.00  0.00    -0.452 C  
HETATM    7 CL   UNL     1     -10.864   9.499  66.839  1.00  0.00    -0.174 Cl 
HETATM    8  N   UNL     1     -10.751  12.060  65.964  1.00  0.00    -0.269 NA 
HETATM    9  C   UNL     1     -10.912  13.440  66.073  1.00  0.00    -0.271 A  
HETATM   10  O   UNL     1     -10.386  11.555  64.846  1.00  0.00    -0.259 OA 
HETATM   11  C   UNL     1     -11.310  13.992  67.297  1.00  0.00    -0.330 A  
ENDROOT
BRANCH   3  12
HETATM   12  C   UNL     1     -11.712  10.902  69.460  1.00  0.00    -0.328 A  
HETATM   13  O   UNL     1     -12.705   9.616  70.893  1.00  0.00    -0.283 OA 
HETATM   14  N   UNL     1     -12.941  10.532  69.859  1.00  0.00    -0.030 NA 
HETATM   15  C   UNL     1     -11.351   9.505  70.998  1.00  0.00    -0.352 A  
HETATM   16  N   UNL     1     -10.706  10.314  70.187  1.00  0.00    -0.289 NA 
BRANCH  15  17
HETATM   17  C   UNL     1     -10.786   8.464  71.855  1.00  0.00    -0.373 A  
HETATM   18  C   UNL     1      -9.510   8.522  72.447  1.00  0.00    -0.350 A  
HETATM   19  C   UNL     1      -9.061   7.461  73.269  1.00  0.00    -0.174 A  
HETATM   20  N   UNL     1      -7.727   7.531  73.870  1.00  0.00    -0.120 N  
HETATM   21  C   UNL     1      -9.880   6.351  73.513  1.00  0.00    -0.185 A  
HETATM   22  O   UNL     1      -9.566   5.262  74.287  1.00  0.00    -0.133 OA 
HETATM   23  O   UNL     1      -7.360   6.569  74.565  1.00  0.00    -0.099 OA 
HETATM   24  O   UNL     1      -7.043   8.540  73.650  1.00  0.00    -0.257 OA 
HETATM   25  C   UNL     1     -11.144   6.319  72.937  1.00  0.00    -0.236 A  
HETATM   26  H   UNL     1     -10.122   4.510  74.452  1.00  0.00     0.000 HD 
HETATM   27  C   UNL     1     -11.595   7.347  72.126  1.00  0.00    -0.331 A  
HETATM   28  O   UNL     1     -11.979   5.260  73.163  1.00  0.00    -0.550 OA 
HETATM   29  H   UNL     1     -12.844   5.238  72.769  1.00  0.00     0.000 HD 
ENDBRANCH  15  17
ENDBRANCH   3  12
TORSDOF 2
ENDMDL
MODEL       65
REMARK 921   NORMALIZED FREE ENERGY PREDICTED BY IDOCK:   -6.52 KCAL/MOL
REMARK 922        TOTAL FREE ENERGY PREDICTED BY IDOCK:   -7.88 KCAL/MOL
REMARK 923 INTER-LIGAND FREE ENERGY PREDICTED BY IDOCK:   -7.28 KCAL/MOL
REMARK 924 INTRA-LIGAND FREE ENERGY PREDICTED BY IDOCK:   -0.59 KCAL/MOL
REMARK 927      BINDING AFFINITY PREDICTED BY RF-SCORE:    0.00 PKD
ROOT
HETATM    1  C   UNL     1     -12.275   6.545  70.745  1.00  0.00    -0.200 C  
HETATM    2  C   UNL     1     -10.806   6.191  70.866  1.00  0.00    -0.342 A  
HETATM    3  C   UNL     1      -9.804   6.690  69.986  1.00  0.00    -0.178 A  
HETATM    4 CL   UNL     1     -11.625   4.755  73.048  1.00  0.00    -0.307 Cl 
HETATM    5  C   UNL     1      -8.464   6.272  70.174  1.00  0.00    -0.134 A  
HETATM    6  C   UNL     1      -8.683   4.000  73.205  1.00  0.00    -0.095 C  
HETATM    7 CL   UNL     1      -7.166   6.876  69.167  1.00  0.00    -0.088 Cl 
HETATM    8  N   UNL     1      -8.120   5.384  71.216  1.00  0.00    -0.113 NA 
HETATM    9  C   UNL     1      -9.100   4.921  72.093  1.00  0.00    -0.131 A  
HETATM   10  O   UNL     1      -6.907   5.008  71.374  1.00  0.00    -0.041 OA 
HETATM   11  C   UNL     1     -10.429   5.330  71.919  1.00  0.00    -0.219 A  
ENDROOT
BRANCH   3  12
HETATM   12  C   UNL     1     -10.151   7.649  68.930  1.00  0.00    -0.197 A  
HETATM   13  O   UNL     1     -10.881   8.575  67.113  1.00  0.00    -0.216 OA 
HETATM   14  N   UNL     1     -10.564   7.338  67.689  1.00  0.00    -0.242 NA 
HETATM   15  C   UNL     1     -10.649   9.512  68.076  1.00  0.00    -0.230 A  
HETATM   16  N   UNL     1     -10.147   9.000  69.177  1.00  0.00    -0.190 NA 
BRANCH  15  17
HETATM   17  C   UNL     1     -11.082  10.889  67.848  1.00  0.00    -0.362 A  
HETATM   18  C   UNL     1     -11.614  11.369  66.636  1.00  0.00     0.010 A  
HETATM   19  C   UNL     1     -12.011  12.723  66.523  1.00  0.00    -0.358 A  
HETATM   20  N   UNL     1     -12.554  13.209  65.252  1.00  0.00    -0.495 N  
HETATM   21  C   UNL     1     -11.892  13.595  67.612  1.00  0.00    -0.369 A  
HETATM   22  O   UNL     1     -12.238  14.923  67.634  1.00  0.00    -0.524 OA 
HETATM   23  O   UNL     1     -12.868  14.410  65.185  1.00  0.00    -0.602 OA 
HETATM   24  O   UNL     1     -12.667  12.401  64.320  1.00  0.00    -0.638 OA 
HETATM   25  C   UNL     1     -11.383  13.101  68.807  1.00  0.00    -0.291 A  
HETATM   26  H   UNL     1     -12.157  15.514  68.373  1.00  0.00     0.000 HD 
HETATM   27  C   UNL     1     -10.984  11.780  68.931  1.00  0.00    -0.288 A  
HETATM   28  O   UNL     1     -11.264  13.917  69.897  1.00  0.00    -0.445 OA 
HETATM   29  H   UNL     1     -10.916  13.579  70.714  1.00  0.00     0.000 HD 
ENDBRANCH  15  17
ENDBRANCH   3  12
TORSDOF 2
ENDMDL
MODEL       66
REMARK 921   NORMALIZED FREE ENERGY PREDICTED BY IDOCK:   -6.51 KCAL/MOL
REMARK 922        TOTAL FREE ENERGY PREDICTED BY IDOCK:   -7.86 KCAL/MOL
REMARK 923 INTER-LIGAND FREE ENERGY PREDICTED BY IDOCK:   -7.28 KCAL/MOL
REMARK 924 INTRA-LIGAND FREE ENERGY PREDICTED BY IDOCK:   -0.58 KCAL/MOL
REMARK 927      BINDING AFFINITY PREDICTED BY RF-SCORE:    0.00 PKD
ROOT
HETATM    1  C   UNL     1     -10.983   6.708  67.361  1.00  0.00    -0.434 C  
HETATM    2  C   UNL     1      -9.547   7.051  67.015  1.00  0.00    -0.199 A  
HETATM    3  C   UNL     1      -9.066   8.386  66.904  1.00  0.00    -0.179 A  
HETATM    4 CL   UNL     1      -9.202   4.335  67.000  1.00  0.00    -0.148 Cl 
HETATM    5  C   UNL     1      -7.710   8.593  66.548  1.00  0.00    -0.095 A  
HETATM    6  C   UNL     1      -6.353   5.064  66.223  1.00  0.00    -0.036 C  
HETATM    7 CL   UNL     1      -7.027  10.200  66.437  1.00  0.00    -0.100 Cl 
HETATM    8  N   UNL     1      -6.847   7.500  66.314  1.00  0.00    -0.060 NA 
HETATM    9  C   UNL     1      -7.316   6.195  66.453  1.00  0.00    -0.085 A  
HETATM   10  O   UNL     1      -5.625   7.697  65.988  1.00  0.00    -0.031 OA 
HETATM   11  C   UNL     1      -8.654   5.978  66.807  1.00  0.00    -0.110 A  
ENDROOT
BRANCH   3  12
HETATM   12  C   UNL     1      -9.949   9.524  67.190  1.00  0.00    -0.204 A  
HETATM   13  O   UNL     1     -11.481  11.051  67.086  1.00  0.00    -0.447 OA 
HETATM   14  N   UNL     1     -10.779  10.115  66.314  1.00  0.00    -0.049 NA 
HETATM   15  C   UNL     1     -11.021  10.912  68.361  1.00  0.00    -0.237 A  
HETATM   16  N   UNL     1     -10.045  10.037  68.460  1.00  0.00    -0.163 NA 
BRANCH  15  17
HETATM   17  C   UNL     1     -11.707  11.610  69.446  1.00  0.00    -0.405 A  
HETATM   18  C   UNL     1     -11.847  13.009  69.534  1.00  0.00    -0.385 A  
HETATM   19  C   UNL     1     -12.540  13.585  70.625  1.00  0.00    -0.275 A  
HETATM   20  N   UNL     1     -12.667  15.042  70.707  1.00  0.00    -0.356 N  
HETATM   21  C   UNL     1     -13.102  12.776  71.620  1.00  0.00    -0.331 A  
HETATM   22  O   UNL     1     -13.795  13.207  72.724  1.00  0.00    -0.721 OA 
HETATM   23  O   UNL     1     -13.261  15.510  71.693  1.00  0.00    -0.437 OA 
HETATM   24  O   UNL     1     -12.177  15.721  69.794  1.00  0.00    -0.344 OA 
HETATM   25  C   UNL     1     -12.973  11.398  71.508  1.00  0.00    -0.399 A  
HETATM   26  H   UNL     1     -14.177  12.658  73.399  1.00  0.00     0.000 HD 
HETATM   27  C   UNL     1     -12.293  10.819  70.449  1.00  0.00    -0.438 A  
HETATM   28  O   UNL     1     -13.521  10.573  72.452  1.00  0.00    -0.606 OA 
HETATM   29  H   UNL     1     -13.432   9.630  72.375  1.00  0.00     0.000 HD 
ENDBRANCH  15  17
ENDBRANCH   3  12
TORSDOF 2
ENDMDL
MODEL       67
REMARK 921   NORMALIZED FREE ENERGY PREDICTED BY IDOCK:   -6.44 KCAL/MOL
REMARK 922        TOTAL FREE ENERGY PREDICTED BY IDOCK:   -7.79 KCAL/MOL
REMARK 923 INTER-LIGAND FREE ENERGY PREDICTED BY IDOCK:   -7.30 KCAL/MOL
REMARK 924 INTRA-LIGAND FREE ENERGY PREDICTED BY IDOCK:   -0.48 KCAL/MOL
REMARK 927      BINDING AFFINITY PREDICTED BY RF-SCORE:    0.00 PKD
ROOT
HETATM    1  C   UNL     1     -12.385  13.506  70.944  1.00  0.00    -0.437 C  
HETATM    2  C   UNL     1     -11.974  12.967  69.588  1.00  0.00    -0.367 A  
HETATM    3  C   UNL     1     -11.704  11.592  69.339  1.00  0.00    -0.413 A  
HETATM    4 CL   UNL     1     -12.257  15.570  68.786  1.00  0.00    -0.155 Cl 
HETATM    5  C   UNL     1     -11.301  11.202  68.039  1.00  0.00    -0.312 A  
HETATM    6  C   UNL     1     -11.348  14.466  66.103  1.00  0.00    -0.350 C  
HETATM    7 CL   UNL     1     -10.997   9.526  67.638  1.00  0.00    -0.248 Cl 
HETATM    8  N   UNL     1     -11.174  12.153  67.002  1.00  0.00    -0.294 NA 
HETATM    9  C   UNL     1     -11.468  13.494  67.244  1.00  0.00    -0.339 A  
HETATM   10  O   UNL     1     -10.804  11.791  65.832  1.00  0.00    -0.274 OA 
HETATM   11  C   UNL     1     -11.871  13.891  68.525  1.00  0.00    -0.366 A  
ENDROOT
BRANCH   3  12
HETATM   12  C   UNL     1     -11.878  10.594  70.402  1.00  0.00    -0.349 A  
HETATM   13  O   UNL     1     -12.698   9.134  71.776  1.00  0.00    -0.326 OA 
HETATM   14  N   UNL     1     -13.054  10.148  70.877  1.00  0.00    -0.374 NA 
HETATM   15  C   UNL     1     -11.338   9.052  71.735  1.00  0.00    -0.377 A  
HETATM   16  N   UNL     1     -10.794   9.962  70.958  1.00  0.00    -0.299 NA 
BRANCH  15  17
HETATM   17  C   UNL     1     -10.671   7.943  72.414  1.00  0.00    -0.367 A  
HETATM   18  C   UNL     1     -11.263   6.692  72.674  1.00  0.00    -0.285 A  
HETATM   19  C   UNL     1     -10.525   5.680  73.331  1.00  0.00    -0.242 A  
HETATM   20  N   UNL     1     -11.160   4.389  73.604  1.00  0.00    -0.288 N  
HETATM   21  C   UNL     1      -9.198   5.904  73.720  1.00  0.00    -0.127 A  
HETATM   22  O   UNL     1      -8.376   5.011  74.361  1.00  0.00    -0.104 OA 
HETATM   23  O   UNL     1     -10.486   3.535  74.205  1.00  0.00    -0.178 OA 
HETATM   24  O   UNL     1     -12.326   4.222  73.222  1.00  0.00     0.139 OA 
HETATM   25  C   UNL     1      -8.621   7.136  73.439  1.00  0.00    -0.134 A  
HETATM   26  H   UNL     1      -7.476   5.163  74.625  1.00  0.00     0.000 HD 
HETATM   27  C   UNL     1      -9.333   8.138  72.801  1.00  0.00    -0.344 A  
HETATM   28  O   UNL     1      -7.324   7.388  73.788  1.00  0.00    -0.094 OA 
HETATM   29  H   UNL     1      -6.929   8.231  73.596  1.00  0.00     0.000 HD 
ENDBRANCH  15  17
ENDBRANCH   3  12
TORSDOF 2
ENDMDL
MODEL       68
REMARK 921   NORMALIZED FREE ENERGY PREDICTED BY IDOCK:   -6.44 KCAL/MOL
REMARK 922        TOTAL FREE ENERGY PREDICTED BY IDOCK:   -7.78 KCAL/MOL
REMARK 923 INTER-LIGAND FREE ENERGY PREDICTED BY IDOCK:   -7.74 KCAL/MOL
REMARK 924 INTRA-LIGAND FREE ENERGY PREDICTED BY IDOCK:   -0.04 KCAL/MOL
REMARK 927      BINDING AFFINITY PREDICTED BY RF-SCORE:    0.00 PKD
ROOT
HETATM    1  C   UNL     1      -8.230   7.148  68.441  1.00  0.00    -0.125 C  
HETATM    2  C   UNL     1      -9.179   6.721  69.544  1.00  0.00    -0.147 A  
HETATM    3  C   UNL     1     -10.235   7.542  70.030  1.00  0.00    -0.215 A  
HETATM    4 CL   UNL     1      -7.753   4.385  69.477  1.00  0.00    -0.054 Cl 
HETATM    5  C   UNL     1     -11.047   7.055  71.084  1.00  0.00    -0.258 A  
HETATM    6  C   UNL     1      -9.621   3.600  71.744  1.00  0.00    -0.221 C  
HETATM    7 CL   UNL     1     -12.395   7.980  71.706  1.00  0.00    -0.330 Cl 
HETATM    8  N   UNL     1     -10.822   5.776  71.640  1.00  0.00    -0.255 NA 
HETATM    9  C   UNL     1      -9.804   4.965  71.141  1.00  0.00    -0.192 A  
HETATM   10  O   UNL     1     -11.557   5.347  72.596  1.00  0.00    -0.282 OA 
HETATM   11  C   UNL     1      -8.998   5.435  70.097  1.00  0.00    -0.134 A  
ENDROOT
BRANCH   3  12
HETATM   12  C   UNL     1     -10.500   8.853  69.423  1.00  0.00    -0.222 A  
HETATM   13  O   UNL     1     -11.015  10.450  68.053  1.00  0.00    -0.252 OA 
HETATM   14  N   UNL     1     -10.673   9.092  68.112  1.00  0.00    -0.177 NA 
HETATM   15  C   UNL     1     -11.039  10.890  69.343  1.00  0.00    -0.260 A  
HETATM   16  N   UNL     1     -10.674   9.968  70.206  1.00  0.00    -0.294 NA 
BRANCH  15  17
HETATM   17  C   UNL     1     -11.566  12.223  69.630  1.00  0.00    -0.348 A  
HETATM   18  C   UNL     1     -12.344  12.548  70.758  1.00  0.00    -0.376 A  
HETATM   19  C   UNL     1     -12.799  13.875  70.947  1.00  0.00    -0.300 A  
HETATM   20  N   UNL     1     -13.616  14.195  72.120  1.00  0.00    -0.429 N  
HETATM   21  C   UNL     1     -12.473  14.879  70.026  1.00  0.00    -0.275 A  
HETATM   22  O   UNL     1     -12.848  16.197  70.093  1.00  0.00    -0.561 OA 
HETATM   23  O   UNL     1     -14.016  15.365  72.237  1.00  0.00    -0.486 OA 
HETATM   24  O   UNL     1     -13.861  13.285  72.924  1.00  0.00    -0.584 OA 
HETATM   25  C   UNL     1     -11.688  14.545  68.930  1.00  0.00    -0.319 A  
HETATM   26  H   UNL     1     -12.627  16.878  69.468  1.00  0.00     0.000 HD 
HETATM   27  C   UNL     1     -11.241  13.250  68.728  1.00  0.00    -0.317 A  
HETATM   28  O   UNL     1     -11.336  15.500  68.016  1.00  0.00    -0.331 OA 
HETATM   29  H   UNL     1     -10.799  15.272  67.266  1.00  0.00     0.000 HD 
ENDBRANCH  15  17
ENDBRANCH   3  12
TORSDOF 2
ENDMDL
MODEL       69
REMARK 921   NORMALIZED FREE ENERGY PREDICTED BY IDOCK:   -6.42 KCAL/MOL
REMARK 922        TOTAL FREE ENERGY PREDICTED BY IDOCK:   -7.76 KCAL/MOL
REMARK 923 INTER-LIGAND FREE ENERGY PREDICTED BY IDOCK:   -7.19 KCAL/MOL
REMARK 924 INTRA-LIGAND FREE ENERGY PREDICTED BY IDOCK:   -0.57 KCAL/MOL
REMARK 927      BINDING AFFINITY PREDICTED BY RF-SCORE:    0.00 PKD
ROOT
HETATM    1  C   UNL     1      -6.522  10.822  65.883  1.00  0.00    -0.097 C  
HETATM    2  C   UNL     1      -7.706   9.917  66.163  1.00  0.00    -0.107 A  
HETATM    3  C   UNL     1      -8.867  10.339  66.871  1.00  0.00    -0.141 A  
HETATM    4 CL   UNL     1      -6.260   8.067  64.754  1.00  0.00    -0.048 Cl 
HETATM    5  C   UNL     1      -9.904   9.402  67.100  1.00  0.00    -0.187 A  
HETATM    6  C   UNL     1      -8.615   6.258  65.409  1.00  0.00    -0.097 C  
HETATM    7 CL   UNL     1     -11.383   9.853  67.918  1.00  0.00    -0.113 Cl 
HETATM    8  N   UNL     1      -9.797   8.073  66.631  1.00  0.00    -0.246 NA 
HETATM    9  C   UNL     1      -8.671   7.673  65.914  1.00  0.00    -0.152 A  
HETATM   10  O   UNL     1     -10.737   7.232  66.848  1.00  0.00    -0.338 OA 
HETATM   11  C   UNL     1      -7.641   8.592  65.678  1.00  0.00    -0.086 A  
ENDROOT
BRANCH   3  12
HETATM   12  C   UNL     1      -9.001  11.731  67.319  1.00  0.00    -0.172 A  
HETATM   13  O   UNL     1      -8.755  13.623  68.344  1.00  0.00    -0.176 OA 
HETATM   14  N   UNL     1      -8.438  12.261  68.419  1.00  0.00    -0.163 NA 
HETATM   15  C   UNL     1      -9.459  13.785  67.188  1.00  0.00    -0.244 A  
HETATM   16  N   UNL     1      -9.684  12.651  66.563  1.00  0.00    -0.251 NA 
BRANCH  15  17
HETATM   17  C   UNL     1      -9.759  15.137  66.721  1.00  0.00    -0.255 A  
HETATM   18  C   UNL     1      -9.305  16.316  67.341  1.00  0.00    -0.224 A  
HETATM   19  C   UNL     1      -9.646  17.579  66.801  1.00  0.00    -0.282 A  
HETATM   20  N   UNL     1      -9.175  18.797  67.465  1.00  0.00    -0.282 N  
HETATM   21  C   UNL     1     -10.427  17.672  65.642  1.00  0.00    -0.144 A  
HETATM   22  O   UNL     1     -10.826  18.828  65.020  1.00  0.00    -0.503 OA 
HETATM   23  O   UNL     1      -9.516  19.886  66.974  1.00  0.00    -0.337 OA 
HETATM   24  O   UNL     1      -8.466  18.672  68.473  1.00  0.00    -0.327 OA 
HETATM   25  C   UNL     1     -10.850  16.498  65.031  1.00  0.00    -0.229 A  
HETATM   26  H   UNL     1     -11.355  18.890  64.233  1.00  0.00     0.000 HD 
HETATM   27  C   UNL     1     -10.529  15.255  65.551  1.00  0.00    -0.396 A  
HETATM   28  O   UNL     1     -11.601  16.546  63.889  1.00  0.00    -1.598 OA 
HETATM   29  H   UNL     1     -11.891  15.744  63.471  1.00  0.00     0.000 HD 
ENDBRANCH  15  17
ENDBRANCH   3  12
TORSDOF 2
ENDMDL
MODEL       70
REMARK 921   NORMALIZED FREE ENERGY PREDICTED BY IDOCK:   -6.40 KCAL/MOL
REMARK 922        TOTAL FREE ENERGY PREDICTED BY IDOCK:   -7.74 KCAL/MOL
REMARK 923 INTER-LIGAND FREE ENERGY PREDICTED BY IDOCK:   -7.54 KCAL/MOL
REMARK 924 INTRA-LIGAND FREE ENERGY PREDICTED BY IDOCK:   -0.21 KCAL/MOL
REMARK 927      BINDING AFFINITY PREDICTED BY RF-SCORE:    0.00 PKD
ROOT
HETATM    1  C   UNL     1     -10.558  14.496  68.198  1.00  0.00    -0.238 C  
HETATM    2  C   UNL     1     -11.298  14.239  69.497  1.00  0.00    -0.315 A  
HETATM    3  C   UNL     1     -11.875  12.983  69.836  1.00  0.00    -0.377 A  
HETATM    4 CL   UNL     1     -10.648  16.842  70.049  1.00  0.00    -0.135 Cl 
HETATM    5  C   UNL     1     -12.569  12.861  71.065  1.00  0.00    -0.287 A  
HETATM    6  C   UNL     1     -12.213  16.312  72.603  1.00  0.00    -0.581 C  
HETATM    7 CL   UNL     1     -13.265  11.340  71.578  1.00  0.00    -0.430 Cl 
HETATM    8  N   UNL     1     -12.683  13.960  71.945  1.00  0.00    -0.301 NA 
HETATM    9  C   UNL     1     -12.091  15.180  71.622  1.00  0.00    -0.359 A  
HETATM   10  O   UNL     1     -13.316  13.842  73.051  1.00  0.00    -0.592 OA 
HETATM   11  C   UNL     1     -11.400  15.311  70.410  1.00  0.00    -0.296 A  
ENDROOT
BRANCH   3  12
HETATM   12  C   UNL     1     -11.720  11.827  68.944  1.00  0.00    -0.323 A  
HETATM   13  O   UNL     1     -11.642  10.523  67.216  1.00  0.00    -0.327 OA 
HETATM   14  N   UNL     1     -12.116  11.764  67.661  1.00  0.00    -0.558 NA 
HETATM   15  C   UNL     1     -10.982   9.969  68.272  1.00  0.00    -0.227 A  
HETATM   16  N   UNL     1     -11.055  10.700  69.362  1.00  0.00    -0.241 NA 
BRANCH  15  17
HETATM   17  C   UNL     1     -10.194   8.756  68.063  1.00  0.00    -0.264 A  
HETATM   18  C   UNL     1      -9.765   7.894  69.090  1.00  0.00    -0.162 A  
HETATM   19  C   UNL     1      -9.012   6.738  68.778  1.00  0.00    -0.130 A  
HETATM   20  N   UNL     1      -8.565   5.857  69.860  1.00  0.00    -0.128 N  
HETATM   21  C   UNL     1      -8.694   6.431  67.449  1.00  0.00    -0.106 A  
HETATM   22  O   UNL     1      -7.974   5.347  67.014  1.00  0.00    -0.100 OA 
HETATM   23  O   UNL     1      -7.885   4.866  69.547  1.00  0.00    -0.066 OA 
HETATM   24  O   UNL     1      -8.887   6.150  71.019  1.00  0.00    -0.138 OA 
HETATM   25  C   UNL     1      -9.141   7.281  66.445  1.00  0.00    -0.158 A  
HETATM   26  H   UNL     1      -7.759   5.138  66.113  1.00  0.00     0.000 HD 
HETATM   27  C   UNL     1      -9.874   8.420  66.736  1.00  0.00    -0.329 A  
HETATM   28  O   UNL     1      -8.864   7.008  65.134  1.00  0.00    -0.367 OA 
HETATM   29  H   UNL     1      -9.170   7.589  64.448  1.00  0.00     0.000 HD 
ENDBRANCH  15  17
ENDBRANCH   3  12
TORSDOF 2
ENDMDL
MODEL       71
REMARK 921   NORMALIZED FREE ENERGY PREDICTED BY IDOCK:   -6.37 KCAL/MOL
REMARK 922        TOTAL FREE ENERGY PREDICTED BY IDOCK:   -7.71 KCAL/MOL
REMARK 923 INTER-LIGAND FREE ENERGY PREDICTED BY IDOCK:   -7.16 KCAL/MOL
REMARK 924 INTRA-LIGAND FREE ENERGY PREDICTED BY IDOCK:   -0.55 KCAL/MOL
REMARK 927      BINDING AFFINITY PREDICTED BY RF-SCORE:    0.00 PKD
ROOT
HETATM    1  C   UNL     1      -8.611  13.064  67.142  1.00  0.00    -0.195 C  
HETATM    2  C   UNL     1      -9.735  13.403  66.183  1.00  0.00    -0.260 A  
HETATM    3  C   UNL     1     -10.586  12.425  65.596  1.00  0.00    -0.297 A  
HETATM    4 CL   UNL     1      -8.953  15.989  66.629  1.00  0.00    -0.263 Cl 
HETATM    5  C   UNL     1     -11.589  12.850  64.690  1.00  0.00    -0.346 A  
HETATM    6  C   UNL     1     -11.161  16.621  64.635  1.00  0.00    -0.023 C  
HETATM    7 CL   UNL     1     -12.707  11.718  63.963  1.00  0.00    -0.349 Cl 
HETATM    8  N   UNL     1     -11.751  14.218  64.377  1.00  0.00    -0.405 NA 
HETATM    9  C   UNL     1     -10.933  15.174  64.976  1.00  0.00    -0.430 A  
HETATM   10  O   UNL     1     -12.656  14.592  63.553  1.00  0.00    -0.746 OA 
HETATM   11  C   UNL     1      -9.940  14.766  65.876  1.00  0.00    -0.326 A  
ENDROOT
BRANCH   3  12
HETATM   12  C   UNL     1     -10.451  11.007  65.954  1.00  0.00    -0.240 A  
HETATM   13  O   UNL     1      -9.853   8.927  66.040  1.00  0.00    -0.272 OA 
HETATM   14  N   UNL     1      -9.812  10.071  65.232  1.00  0.00    -0.310 NA 
HETATM   15  C   UNL     1     -10.494   9.296  67.185  1.00  0.00    -0.249 A  
HETATM   16  N   UNL     1     -10.929  10.536  67.152  1.00  0.00    -0.265 NA 
BRANCH  15  17
HETATM   17  C   UNL     1     -10.516   8.372  68.318  1.00  0.00    -0.214 A  
HETATM   18  C   UNL     1     -10.302   6.984  68.221  1.00  0.00    -0.223 A  
HETATM   19  C   UNL     1     -10.336   6.178  69.384  1.00  0.00    -0.227 A  
HETATM   20  N   UNL     1     -10.122   4.734  69.265  1.00  0.00    -0.186 N  
HETATM   21  C   UNL     1     -10.569   6.750  70.641  1.00  0.00    -0.224 A  
HETATM   22  O   UNL     1     -10.626   6.084  71.840  1.00  0.00    -0.212 OA 
HETATM   23  O   UNL     1     -10.183   4.058  70.306  1.00  0.00    -0.009 OA 
HETATM   24  O   UNL     1      -9.894   4.271  68.139  1.00  0.00    -0.127 OA 
HETATM   25  C   UNL     1     -10.758   8.124  70.722  1.00  0.00    -0.222 A  
HETATM   26  H   UNL     1     -10.784   6.472  72.692  1.00  0.00     0.000 HD 
HETATM   27  C   UNL     1     -10.734   8.925  69.592  1.00  0.00    -0.222 A  
HETATM   28  O   UNL     1     -10.974   8.722  71.933  1.00  0.00    -0.318 OA 
HETATM   29  H   UNL     1     -11.103   9.661  71.988  1.00  0.00     0.000 HD 
ENDBRANCH  15  17
ENDBRANCH   3  12
TORSDOF 2
ENDMDL
MODEL       72
REMARK 921   NORMALIZED FREE ENERGY PREDICTED BY IDOCK:   -6.37 KCAL/MOL
REMARK 922        TOTAL FREE ENERGY PREDICTED BY IDOCK:   -7.71 KCAL/MOL
REMARK 923 INTER-LIGAND FREE ENERGY PREDICTED BY IDOCK:   -7.17 KCAL/MOL
REMARK 924 INTRA-LIGAND FREE ENERGY PREDICTED BY IDOCK:   -0.53 KCAL/MOL
REMARK 927      BINDING AFFINITY PREDICTED BY RF-SCORE:    0.00 PKD
ROOT
HETATM    1  C   UNL     1      -9.470  14.694  68.590  1.00  0.00    -0.211 C  
HETATM    2  C   UNL     1      -9.929  14.179  67.240  1.00  0.00    -0.249 A  
HETATM    3  C   UNL     1      -9.840  12.813  66.850  1.00  0.00    -0.236 A  
HETATM    4 CL   UNL     1     -10.660  16.783  66.814  1.00  0.00    -0.253 Cl 
HETATM    5  C   UNL     1     -10.274  12.445  65.553  1.00  0.00    -0.274 A  
HETATM    6  C   UNL     1     -11.489  15.727  64.085  1.00  0.00    -0.079 C  
HETATM    7 CL   UNL     1     -10.244  10.781  65.014  1.00  0.00    -0.366 Cl 
HETATM    8  N   UNL     1     -10.792  13.410  64.661  1.00  0.00    -0.371 NA 
HETATM    9  C   UNL     1     -10.904  14.741  65.057  1.00  0.00    -0.425 A  
HETATM   10  O   UNL     1     -11.176  13.068  63.489  1.00  0.00    -0.373 OA 
HETATM   11  C   UNL     1     -10.481  15.116  66.339  1.00  0.00    -0.297 A  
ENDROOT
BRANCH   3  12
HETATM   12  C   UNL     1      -9.344  11.800  67.791  1.00  0.00    -0.181 A  
HETATM   13  O   UNL     1      -8.111  10.623  69.127  1.00  0.00    -0.139 OA 
HETATM   14  N   UNL     1      -8.057  11.595  68.119  1.00  0.00    -0.140 NA 
HETATM   15  C   UNL     1      -9.433  10.356  69.325  1.00  0.00    -0.198 A  
HETATM   16  N   UNL     1     -10.216  11.005  68.493  1.00  0.00    -0.184 NA 
BRANCH  15  17
HETATM   17  C   UNL     1      -9.830   9.527  70.462  1.00  0.00    -0.331 A  
HETATM   18  C   UNL     1      -8.940   9.009  71.422  1.00  0.00    -0.243 A  
HETATM   19  C   UNL     1      -9.429   8.222  72.491  1.00  0.00    -0.286 A  
HETATM   20  N   UNL     1      -8.489   7.682  73.476  1.00  0.00    -0.164 N  
HETATM   21  C   UNL     1     -10.800   7.961  72.615  1.00  0.00    -0.364 A  
HETATM   22  O   UNL     1     -11.400   7.217  73.600  1.00  0.00    -0.542 OA 
HETATM   23  O   UNL     1      -8.955   6.976  74.386  1.00  0.00    -0.194 OA 
HETATM   24  O   UNL     1      -7.288   7.956  73.345  1.00  0.00    -0.106 OA 
HETATM   25  C   UNL     1     -11.667   8.496  71.671  1.00  0.00    -0.306 A  
HETATM   26  H   UNL     1     -12.330   7.040  73.684  1.00  0.00     0.000 HD 
HETATM   27  C   UNL     1     -11.202   9.263  70.615  1.00  0.00    -0.333 A  
HETATM   28  O   UNL     1     -13.013   8.276  71.766  1.00  0.00    -0.327 OA 
HETATM   29  H   UNL     1     -13.606   8.642  71.120  1.00  0.00     0.000 HD 
ENDBRANCH  15  17
ENDBRANCH   3  12
TORSDOF 2
ENDMDL
MODEL       73
REMARK 921   NORMALIZED FREE ENERGY PREDICTED BY IDOCK:   -6.36 KCAL/MOL
REMARK 922        TOTAL FREE ENERGY PREDICTED BY IDOCK:   -7.69 KCAL/MOL
REMARK 923 INTER-LIGAND FREE ENERGY PREDICTED BY IDOCK:   -7.13 KCAL/MOL
REMARK 924 INTRA-LIGAND FREE ENERGY PREDICTED BY IDOCK:   -0.56 KCAL/MOL
REMARK 927      BINDING AFFINITY PREDICTED BY RF-SCORE:    0.00 PKD
ROOT
HETATM    1  C   UNL     1     -10.163  12.643  67.669  1.00  0.00    -0.217 C  
HETATM    2  C   UNL     1     -10.990  12.333  68.901  1.00  0.00    -0.265 A  
HETATM    3  C   UNL     1     -10.971  11.071  69.560  1.00  0.00    -0.297 A  
HETATM    4 CL   UNL     1     -11.802  14.937  68.662  1.00  0.00    -0.348 Cl 
HETATM    5  C   UNL     1     -11.806  10.880  70.689  1.00  0.00    -0.352 A  
HETATM    6  C   UNL     1     -13.511  14.248  71.081  1.00  0.00    -0.335 C  
HETATM    7 CL   UNL     1     -11.807   9.378  71.585  1.00  0.00    -0.444 Cl 
HETATM    8  N   UNL     1     -12.638  11.920  71.159  1.00  0.00    -0.348 NA 
HETATM    9  C   UNL     1     -12.632  13.162  70.527  1.00  0.00    -0.165 A  
HETATM   10  O   UNL     1     -13.393  11.736  72.176  1.00  0.00    -0.497 OA 
HETATM   11  C   UNL     1     -11.808  13.363  69.412  1.00  0.00    -0.335 A  
ENDROOT
BRANCH   3  12
HETATM   12  C   UNL     1     -10.074  10.003  69.101  1.00  0.00    -0.208 A  
HETATM   13  O   UNL     1      -8.386   8.674  68.825  1.00  0.00    -0.119 OA 
HETATM   14  N   UNL     1      -8.761   9.908  69.372  1.00  0.00    -0.165 NA 
HETATM   15  C   UNL     1      -9.521   8.134  68.298  1.00  0.00    -0.141 A  
HETATM   16  N   UNL     1     -10.560   8.934  68.390  1.00  0.00    -0.182 NA 
BRANCH  15  17
HETATM   17  C   UNL     1      -9.500   6.748  67.833  1.00  0.00    -0.118 A  
HETATM   18  C   UNL     1      -8.639   5.751  68.330  1.00  0.00    -0.112 A  
HETATM   19  C   UNL     1      -8.706   4.435  67.815  1.00  0.00    -0.105 A  
HETATM   20  N   UNL     1      -7.796   3.412  68.335  1.00  0.00    -0.059 N  
HETATM   21  C   UNL     1      -9.633   4.105  66.817  1.00  0.00    -0.208 A  
HETATM   22  O   UNL     1      -9.799   2.873  66.237  1.00  0.00    -0.378 OA 
HETATM   23  O   UNL     1      -7.869   2.275  67.840  1.00  0.00    -0.059 OA 
HETATM   24  O   UNL     1      -7.009   3.737  69.234  1.00  0.00    -0.044 OA 
HETATM   25  C   UNL     1     -10.488   5.096  66.352  1.00  0.00    -0.303 A  
HETATM   26  H   UNL     1     -10.428   2.650  65.560  1.00  0.00     0.000 HD 
HETATM   27  C   UNL     1     -10.431   6.390  66.842  1.00  0.00    -0.340 A  
HETATM   28  O   UNL     1     -11.417   4.810  65.390  1.00  0.00    -0.990 OA 
HETATM   29  H   UNL     1     -12.002   5.487  65.071  1.00  0.00     0.000 HD 
ENDBRANCH  15  17
ENDBRANCH   3  12
TORSDOF 2
ENDMDL
MODEL       74
REMARK 921   NORMALIZED FREE ENERGY PREDICTED BY IDOCK:   -6.35 KCAL/MOL
REMARK 922        TOTAL FREE ENERGY PREDICTED BY IDOCK:   -7.68 KCAL/MOL
REMARK 923 INTER-LIGAND FREE ENERGY PREDICTED BY IDOCK:   -7.18 KCAL/MOL
REMARK 924 INTRA-LIGAND FREE ENERGY PREDICTED BY IDOCK:   -0.50 KCAL/MOL
REMARK 927      BINDING AFFINITY PREDICTED BY RF-SCORE:    0.00 PKD
ROOT
HETATM    1  C   UNL     1     -11.440   6.403  69.420  1.00  0.00    -0.374 C  
HETATM    2  C   UNL     1     -10.017   6.762  69.802  1.00  0.00    -0.189 A  
HETATM    3  C   UNL     1      -9.505   8.089  69.761  1.00  0.00    -0.159 A  
HETATM    4 CL   UNL     1      -9.793   4.088  70.348  1.00  0.00    -0.258 Cl 
HETATM    5  C   UNL     1      -8.151   8.308  70.114  1.00  0.00    -0.112 A  
HETATM    6  C   UNL     1      -6.923   4.834  71.022  1.00  0.00    -0.043 C  
HETATM    7 CL   UNL     1      -7.458   9.914  70.137  1.00  0.00    -0.166 Cl 
HETATM    8  N   UNL     1      -7.321   7.234  70.506  1.00  0.00    -0.073 NA 
HETATM    9  C   UNL     1      -7.835   5.941  70.571  1.00  0.00    -0.101 A  
HETATM   10  O   UNL     1      -6.097   7.442  70.817  1.00  0.00    -0.034 OA 
HETATM   11  C   UNL     1      -9.174   5.713  70.228  1.00  0.00    -0.151 A  
ENDROOT
BRANCH   3  12
HETATM   12  C   UNL     1     -10.378   9.214  69.398  1.00  0.00    -0.216 A  
HETATM   13  O   UNL     1     -11.782  10.862  69.446  1.00  0.00    -0.277 OA 
HETATM   14  N   UNL     1     -11.318   9.766  70.184  1.00  0.00    -0.254 NA 
HETATM   15  C   UNL     1     -11.054  10.877  68.294  1.00  0.00    -0.266 A  
HETATM   16  N   UNL     1     -10.230   9.858  68.195  1.00  0.00    -0.170 NA 
BRANCH  15  17
HETATM   17  C   UNL     1     -11.161  12.029  67.399  1.00  0.00    -0.337 A  
HETATM   18  C   UNL     1     -11.783  12.004  66.136  1.00  0.00    -0.313 A  
HETATM   19  C   UNL     1     -11.840  13.180  65.351  1.00  0.00    -0.372 A  
HETATM   20  N   UNL     1     -12.481  13.135  64.034  1.00  0.00    -0.309 N  
HETATM   21  C   UNL     1     -11.291  14.380  65.821  1.00  0.00    -0.330 A  
HETATM   22  O   UNL     1     -11.280  15.583  65.162  1.00  0.00    -0.358 OA 
HETATM   23  O   UNL     1     -12.489  14.182  63.365  1.00  0.00    -0.797 OA 
HETATM   24  O   UNL     1     -12.976  12.062  63.665  1.00  0.00    -0.747 OA 
HETATM   25  C   UNL     1     -10.699  14.392  67.078  1.00  0.00    -0.285 A  
HETATM   26  H   UNL     1     -10.908  16.397  65.482  1.00  0.00     0.000 HD 
HETATM   27  C   UNL     1     -10.630  13.248  67.856  1.00  0.00    -0.246 A  
HETATM   28  O   UNL     1     -10.165  15.547  67.579  1.00  0.00    -0.246 OA 
HETATM   29  H   UNL     1      -9.759  15.555  68.438  1.00  0.00     0.000 HD 
ENDBRANCH  15  17
ENDBRANCH   3  12
TORSDOF 2
ENDMDL
MODEL       75
REMARK 921   NORMALIZED FREE ENERGY PREDICTED BY IDOCK:   -6.29 KCAL/MOL
REMARK 922        TOTAL FREE ENERGY PREDICTED BY IDOCK:   -7.62 KCAL/MOL
REMARK 923 INTER-LIGAND FREE ENERGY PREDICTED BY IDOCK:   -7.02 KCAL/MOL
REMARK 924 INTRA-LIGAND FREE ENERGY PREDICTED BY IDOCK:   -0.60 KCAL/MOL
REMARK 927      BINDING AFFINITY PREDICTED BY RF-SCORE:    0.00 PKD
ROOT
HETATM    1  C   UNL     1      -7.460   6.408  69.249  1.00  0.00    -0.094 C  
HETATM    2  C   UNL     1      -8.629   6.116  70.169  1.00  0.00    -0.133 A  
HETATM    3  C   UNL     1      -9.923   6.686  69.999  1.00  0.00    -0.189 A  
HETATM    4 CL   UNL     1      -6.853   4.458  71.431  1.00  0.00    -0.030 Cl 
HETATM    5  C   UNL     1     -10.937   6.365  70.934  1.00  0.00    -0.280 A  
HETATM    6  C   UNL     1      -9.198   3.964  73.304  1.00  0.00    -0.118 C  
HETATM    7 CL   UNL     1     -12.565   6.984  70.769  1.00  0.00    -0.292 Cl 
HETATM    8  N   UNL     1     -10.678   5.490  72.012  1.00  0.00    -0.231 NA 
HETATM    9  C   UNL     1      -9.418   4.912  72.158  1.00  0.00    -0.145 A  
HETATM   10  O   UNL     1     -11.599   5.210  72.855  1.00  0.00    -0.297 OA 
HETATM   11  C   UNL     1      -8.409   5.220  71.237  1.00  0.00    -0.123 A  
ENDROOT
BRANCH   3  12
HETATM   12  C   UNL     1     -10.207   7.559  68.853  1.00  0.00    -0.208 A  
HETATM   13  O   UNL     1     -10.832   8.339  66.931  1.00  0.00    -0.228 OA 
HETATM   14  N   UNL     1     -10.551   7.152  67.619  1.00  0.00    -0.236 NA 
HETATM   15  C   UNL     1     -10.654   9.348  67.830  1.00  0.00    -0.237 A  
HETATM   16  N   UNL     1     -10.215   8.925  68.995  1.00  0.00    -0.201 NA 
BRANCH  15  17
HETATM   17  C   UNL     1     -11.070  10.703  67.472  1.00  0.00    -0.367 A  
HETATM   18  C   UNL     1     -11.265  11.157  66.153  1.00  0.00    -0.059 A  
HETATM   19  C   UNL     1     -11.678  12.489  65.915  1.00  0.00    -0.426 A  
HETATM   20  N   UNL     1     -11.867  12.948  64.537  1.00  0.00    -0.353 N  
HETATM   21  C   UNL     1     -11.909  13.366  66.983  1.00  0.00    -0.394 A  
HETATM   22  O   UNL     1     -12.310  14.675  66.889  1.00  0.00    -0.475 OA 
HETATM   23  O   UNL     1     -12.206  14.131  64.369  1.00  0.00    -0.484 OA 
HETATM   24  O   UNL     1     -11.677  12.135  63.622  1.00  0.00    -0.427 OA 
HETATM   25  C   UNL     1     -11.731  12.897  68.278  1.00  0.00    -0.350 A  
HETATM   26  H   UNL     1     -12.467  15.269  67.613  1.00  0.00     0.000 HD 
HETATM   27  C   UNL     1     -11.321  11.597  68.527  1.00  0.00    -0.332 A  
HETATM   28  O   UNL     1     -11.961  13.718  69.348  1.00  0.00    -0.312 OA 
HETATM   29  H   UNL     1     -11.838  13.397  70.234  1.00  0.00     0.000 HD 
ENDBRANCH  15  17
ENDBRANCH   3  12
TORSDOF 2
ENDMDL
MODEL       76
REMARK 921   NORMALIZED FREE ENERGY PREDICTED BY IDOCK:   -6.29 KCAL/MOL
REMARK 922        TOTAL FREE ENERGY PREDICTED BY IDOCK:   -7.61 KCAL/MOL
REMARK 923 INTER-LIGAND FREE ENERGY PREDICTED BY IDOCK:   -7.26 KCAL/MOL
REMARK 924 INTRA-LIGAND FREE ENERGY PREDICTED BY IDOCK:   -0.35 KCAL/MOL
REMARK 927      BINDING AFFINITY PREDICTED BY RF-SCORE:    0.00 PKD
ROOT
HETATM    1  C   UNL     1     -12.809  11.575  70.475  1.00  0.00    -0.091 C  
HETATM    2  C   UNL     1     -12.271  12.979  70.275  1.00  0.00    -0.368 A  
HETATM    3  C   UNL     1     -11.664  13.422  69.066  1.00  0.00    -0.368 A  
HETATM    4 CL   UNL     1     -13.192  13.386  72.821  1.00  0.00    -0.441 Cl 
HETATM    5  C   UNL     1     -11.171  14.747  68.997  1.00  0.00    -0.270 A  
HETATM    6  C   UNL     1     -12.025  16.165  72.413  1.00  0.00    -0.649 C  
HETATM    7 CL   UNL     1     -10.456  15.385  67.533  1.00  0.00    -0.269 Cl 
HETATM    8  N   UNL     1     -11.283  15.621  70.102  1.00  0.00    -0.304 NA 
HETATM    9  C   UNL     1     -11.903  15.191  71.274  1.00  0.00    -0.350 A  
HETATM   10  O   UNL     1     -10.829  16.815  70.032  1.00  0.00    -0.282 OA 
HETATM   11  C   UNL     1     -12.397  13.883  71.352  1.00  0.00    -0.296 A  
ENDROOT
BRANCH   3  12
HETATM   12  C   UNL     1     -11.588  12.531  67.901  1.00  0.00    -0.347 A  
HETATM   13  O   UNL     1     -11.741  11.679  65.915  1.00  0.00    -0.348 OA 
HETATM   14  N   UNL     1     -12.225  12.710  66.731  1.00  0.00    -0.476 NA 
HETATM   15  C   UNL     1     -10.837  10.992  66.670  1.00  0.00    -0.225 A  
HETATM   16  N   UNL     1     -10.757  11.438  67.904  1.00  0.00    -0.189 NA 
BRANCH  15  17
HETATM   17  C   UNL     1     -10.003   9.976  66.033  1.00  0.00    -0.334 A  
HETATM   18  C   UNL     1      -9.331  10.147  64.807  1.00  0.00    -0.324 A  
HETATM   19  C   UNL     1      -8.539   9.100  64.279  1.00  0.00    -0.175 A  
HETATM   20  N   UNL     1      -7.856   9.290  62.998  1.00  0.00    -0.128 N  
HETATM   21  C   UNL     1      -8.404   7.889  64.971  1.00  0.00    -0.103 A  
HETATM   22  O   UNL     1      -7.670   6.801  64.572  1.00  0.00    -0.100 OA 
HETATM   23  O   UNL     1      -7.190   8.339  62.556  1.00  0.00    -0.093 OA 
HETATM   24  O   UNL     1      -7.980  10.383  62.429  1.00  0.00    -0.141 OA 
HETATM   25  C   UNL     1      -9.057   7.744  66.189  1.00  0.00    -0.153 A  
HETATM   26  H   UNL     1      -7.578   5.981  65.041  1.00  0.00     0.000 HD 
HETATM   27  C   UNL     1      -9.840   8.758  66.715  1.00  0.00    -0.316 A  
HETATM   28  O   UNL     1      -8.937   6.583  66.902  1.00  0.00    -0.119 OA 
HETATM   29  H   UNL     1      -9.384   6.483  67.735  1.00  0.00     0.000 HD 
ENDBRANCH  15  17
ENDBRANCH   3  12
TORSDOF 2
ENDMDL
MODEL       77
REMARK 921   NORMALIZED FREE ENERGY PREDICTED BY IDOCK:   -6.27 KCAL/MOL
REMARK 922        TOTAL FREE ENERGY PREDICTED BY IDOCK:   -7.59 KCAL/MOL
REMARK 923 INTER-LIGAND FREE ENERGY PREDICTED BY IDOCK:   -7.06 KCAL/MOL
REMARK 924 INTRA-LIGAND FREE ENERGY PREDICTED BY IDOCK:   -0.53 KCAL/MOL
REMARK 927      BINDING AFFINITY PREDICTED BY RF-SCORE:    0.00 PKD
ROOT
HETATM    1  C   UNL     1     -12.747  11.529  70.577  1.00  0.00    -0.193 C  
HETATM    2  C   UNL     1     -12.222  12.933  70.349  1.00  0.00    -0.381 A  
HETATM    3  C   UNL     1     -11.563  13.339  69.154  1.00  0.00    -0.370 A  
HETATM    4 CL   UNL     1     -13.273  13.423  72.829  1.00  0.00    -0.441 Cl 
HETATM    5  C   UNL     1     -11.087  14.670  69.057  1.00  0.00    -0.259 A  
HETATM    6  C   UNL     1     -12.129  16.203  72.369  1.00  0.00    -0.630 C  
HETATM    7 CL   UNL     1     -10.311  15.263  67.605  1.00  0.00    -0.247 Cl 
HETATM    8  N   UNL     1     -11.266  15.583  70.120  1.00  0.00    -0.288 NA 
HETATM    9  C   UNL     1     -11.937  15.189  71.276  1.00  0.00    -0.344 A  
HETATM   10  O   UNL     1     -10.828  16.782  70.025  1.00  0.00    -0.282 OA 
HETATM   11  C   UNL     1     -12.414  13.876  71.381  1.00  0.00    -0.340 A  
ENDROOT
BRANCH   3  12
HETATM   12  C   UNL     1     -11.416  12.406  68.029  1.00  0.00    -0.322 A  
HETATM   13  O   UNL     1     -11.564  11.419  66.107  1.00  0.00    -0.286 OA 
HETATM   14  N   UNL     1     -12.163  12.397  66.912  1.00  0.00    -0.454 NA 
HETATM   15  C   UNL     1     -10.496  10.951  66.812  1.00  0.00    -0.251 A  
HETATM   16  N   UNL     1     -10.402  11.480  68.012  1.00  0.00    -0.184 NA 
BRANCH  15  17
HETATM   17  C   UNL     1      -9.542  10.061  66.153  1.00  0.00    -0.265 A  
HETATM   18  C   UNL     1      -9.426   8.682  66.411  1.00  0.00    -0.295 A  
HETATM   19  C   UNL     1      -8.472   7.907  65.709  1.00  0.00    -0.140 A  
HETATM   20  N   UNL     1      -8.357   6.475  65.996  1.00  0.00    -0.127 N  
HETATM   21  C   UNL     1      -7.643   8.496  64.746  1.00  0.00    -0.100 A  
HETATM   22  O   UNL     1      -6.684   7.860  63.999  1.00  0.00    -0.060 OA 
HETATM   23  O   UNL     1      -7.492   5.834  65.377  1.00  0.00    -0.074 OA 
HETATM   24  O   UNL     1      -9.125   5.987  66.837  1.00  0.00    -0.120 OA 
HETATM   25  C   UNL     1      -7.784   9.854  64.489  1.00  0.00    -0.142 A  
HETATM   26  H   UNL     1      -6.122   8.259  63.345  1.00  0.00     0.000 HD 
HETATM   27  C   UNL     1      -8.709  10.627  65.172  1.00  0.00    -0.196 A  
HETATM   28  O   UNL     1      -7.004  10.463  63.545  1.00  0.00    -0.264 OA 
HETATM   29  H   UNL     1      -7.100  11.392  63.370  1.00  0.00     0.000 HD 
ENDBRANCH  15  17
ENDBRANCH   3  12
TORSDOF 2
ENDMDL
MODEL       78
REMARK 921   NORMALIZED FREE ENERGY PREDICTED BY IDOCK:   -6.26 KCAL/MOL
REMARK 922        TOTAL FREE ENERGY PREDICTED BY IDOCK:   -7.58 KCAL/MOL
REMARK 923 INTER-LIGAND FREE ENERGY PREDICTED BY IDOCK:   -7.00 KCAL/MOL
REMARK 924 INTRA-LIGAND FREE ENERGY PREDICTED BY IDOCK:   -0.58 KCAL/MOL
REMARK 927      BINDING AFFINITY PREDICTED BY RF-SCORE:    0.00 PKD
ROOT
HETATM    1  C   UNL     1     -10.798  17.856  67.275  1.00  0.00    -0.188 C  
HETATM    2  C   UNL     1      -9.409  17.783  67.877  1.00  0.00    -0.266 A  
HETATM    3  C   UNL     1      -8.750  16.559  68.185  1.00  0.00    -0.194 A  
HETATM    4 CL   UNL     1      -9.501  20.515  67.704  1.00  0.00    -0.488 Cl 
HETATM    5  C   UNL     1      -7.462  16.608  68.772  1.00  0.00    -0.224 A  
HETATM    6  C   UNL     1      -6.753  20.330  68.992  1.00  0.00    -0.233 C  
HETATM    7 CL   UNL     1      -6.565  15.151  69.136  1.00  0.00    -0.120 Cl 
HETATM    8  N   UNL     1      -6.835  17.844  69.043  1.00  0.00    -0.246 NA 
HETATM    9  C   UNL     1      -7.472  19.039  68.713  1.00  0.00    -0.333 A  
HETATM   10  O   UNL     1      -5.673  17.878  69.578  1.00  0.00    -0.206 OA 
HETATM   11  C   UNL     1      -8.744  19.003  68.129  1.00  0.00    -0.316 A  
ENDROOT
BRANCH   3  12
HETATM   12  C   UNL     1      -9.381  15.273  67.864  1.00  0.00    -0.189 A  
HETATM   13  O   UNL     1      -9.984  13.432  66.895  1.00  0.00    -0.241 OA 
HETATM   14  N   UNL     1      -9.366  14.668  66.664  1.00  0.00    -0.259 NA 
HETATM   15  C   UNL     1     -10.289  13.404  68.223  1.00  0.00    -0.249 A  
HETATM   16  N   UNL     1      -9.995  14.527  68.839  1.00  0.00    -0.226 NA 
BRANCH  15  17
HETATM   17  C   UNL     1     -10.761  12.155  68.819  1.00  0.00    -0.252 A  
HETATM   18  C   UNL     1     -10.327  10.872  68.435  1.00  0.00    -0.196 A  
HETATM   19  C   UNL     1     -10.842   9.725  69.084  1.00  0.00    -0.207 A  
HETATM   20  N   UNL     1     -10.388   8.397  68.665  1.00  0.00    -0.205 N  
HETATM   21  C   UNL     1     -11.777   9.851  70.119  1.00  0.00    -0.174 A  
HETATM   22  O   UNL     1     -12.351   8.825  70.826  1.00  0.00    -0.489 OA 
HETATM   23  O   UNL     1     -10.882   7.414  69.243  1.00  0.00    -0.213 OA 
HETATM   24  O   UNL     1      -9.541   8.329  67.763  1.00  0.00    -0.143 OA 
HETATM   25  C   UNL     1     -12.180  11.125  70.499  1.00  0.00    -0.384 A  
HETATM   26  H   UNL     1     -12.985   8.910  71.529  1.00  0.00     0.000 HD 
HETATM   27  C   UNL     1     -11.689  12.257  69.870  1.00  0.00    -0.346 A  
HETATM   28  O   UNL     1     -13.080  11.290  71.516  1.00  0.00    -0.417 OA 
HETATM   29  H   UNL     1     -13.356  12.161  71.776  1.00  0.00     0.000 HD 
ENDBRANCH  15  17
ENDBRANCH   3  12
TORSDOF 2
ENDMDL
MODEL       79
REMARK 921   NORMALIZED FREE ENERGY PREDICTED BY IDOCK:   -6.25 KCAL/MOL
REMARK 922        TOTAL FREE ENERGY PREDICTED BY IDOCK:   -7.57 KCAL/MOL
REMARK 923 INTER-LIGAND FREE ENERGY PREDICTED BY IDOCK:   -6.97 KCAL/MOL
REMARK 924 INTRA-LIGAND FREE ENERGY PREDICTED BY IDOCK:   -0.60 KCAL/MOL
REMARK 927      BINDING AFFINITY PREDICTED BY RF-SCORE:    0.00 PKD
ROOT
HETATM    1  C   UNL     1      -9.186  11.547  64.819  1.00  0.00     0.020 C  
HETATM    2  C   UNL     1      -9.842  11.391  66.178  1.00  0.00    -0.255 A  
HETATM    3  C   UNL     1     -10.362  12.485  66.927  1.00  0.00    -0.242 A  
HETATM    4 CL   UNL     1      -9.373   8.723  65.782  1.00  0.00    -0.282 Cl 
HETATM    5  C   UNL     1     -10.931  12.229  68.199  1.00  0.00    -0.231 A  
HETATM    6  C   UNL     1     -10.616   8.463  68.545  1.00  0.00    -0.149 C  
HETATM    7 CL   UNL     1     -11.635  13.509  69.161  1.00  0.00    -0.335 Cl 
HETATM    8  N   UNL     1     -10.990  10.916  68.716  1.00  0.00    -0.217 NA 
HETATM    9  C   UNL     1     -10.505   9.846  67.966  1.00  0.00    -0.222 A  
HETATM   10  O   UNL     1     -11.500  10.696  69.869  1.00  0.00    -0.266 OA 
HETATM   11  C   UNL     1      -9.944  10.086  66.706  1.00  0.00    -0.210 A  
ENDROOT
BRANCH   3  12
HETATM   12  C   UNL     1     -10.344  13.844  66.372  1.00  0.00    -0.289 A  
HETATM   13  O   UNL     1     -10.897  15.740  65.483  1.00  0.00    -0.344 OA 
HETATM   14  N   UNL     1     -11.339  14.426  65.681  1.00  0.00    -0.323 NA 
HETATM   15  C   UNL     1      -9.684  15.828  66.099  1.00  0.00    -0.322 A  
HETATM   16  N   UNL     1      -9.281  14.683  66.601  1.00  0.00    -0.259 NA 
BRANCH  15  17
HETATM   17  C   UNL     1      -9.054  17.139  66.246  1.00  0.00    -0.260 A  
HETATM   18  C   UNL     1      -7.728  17.434  65.875  1.00  0.00    -0.093 A  
HETATM   19  C   UNL     1      -7.216  18.741  66.052  1.00  0.00    -0.261 A  
HETATM   20  N   UNL     1      -5.832  19.030  65.671  1.00  0.00    -0.166 N  
HETATM   21  C   UNL     1      -8.021  19.756  66.586  1.00  0.00    -0.310 A  
HETATM   22  O   UNL     1      -7.649  21.058  66.807  1.00  0.00    -0.548 OA 
HETATM   23  O   UNL     1      -5.413  20.183  65.865  1.00  0.00    -0.164 OA 
HETATM   24  O   UNL     1      -5.161  18.112  65.179  1.00  0.00    -0.159 OA 
HETATM   25  C   UNL     1      -9.333  19.453  66.928  1.00  0.00    -0.329 A  
HETATM   26  H   UNL     1      -8.195  21.747  67.169  1.00  0.00     0.000 HD 
HETATM   27  C   UNL     1      -9.846  18.177  66.766  1.00  0.00    -0.337 A  
HETATM   28  O   UNL     1     -10.155  20.420  67.438  1.00  0.00    -0.417 OA 
HETATM   29  H   UNL     1     -11.052  20.213  67.673  1.00  0.00     0.000 HD 
ENDBRANCH  15  17
ENDBRANCH   3  12
TORSDOF 2
ENDMDL
MODEL       80
REMARK 921   NORMALIZED FREE ENERGY PREDICTED BY IDOCK:   -6.21 KCAL/MOL
REMARK 922        TOTAL FREE ENERGY PREDICTED BY IDOCK:   -7.53 KCAL/MOL
REMARK 923 INTER-LIGAND FREE ENERGY PREDICTED BY IDOCK:   -7.40 KCAL/MOL
REMARK 924 INTRA-LIGAND FREE ENERGY PREDICTED BY IDOCK:   -0.14 KCAL/MOL
REMARK 927      BINDING AFFINITY PREDICTED BY RF-SCORE:    0.00 PKD
ROOT
HETATM    1  C   UNL     1      -7.356   7.141  69.973  1.00  0.00    -0.080 C  
HETATM    2  C   UNL     1      -8.712   6.851  70.585  1.00  0.00    -0.149 A  
HETATM    3  C   UNL     1      -9.823   7.736  70.485  1.00  0.00    -0.182 A  
HETATM    4 CL   UNL     1      -7.541   4.500  71.361  1.00  0.00    -0.071 Cl 
HETATM    5  C   UNL     1     -11.038   7.377  71.119  1.00  0.00    -0.252 A  
HETATM    6  C   UNL     1     -10.250   3.994  72.648  1.00  0.00    -0.232 C  
HETATM    7 CL   UNL     1     -12.463   8.385  71.004  1.00  0.00    -0.169 Cl 
HETATM    8  N   UNL     1     -11.153   6.163  71.833  1.00  0.00    -0.261 NA 
HETATM    9  C   UNL     1     -10.071   5.288  71.903  1.00  0.00    -0.197 A  
HETATM   10  O   UNL     1     -12.253   5.851  72.407  1.00  0.00    -0.239 OA 
HETATM   11  C   UNL     1      -8.866   5.630  71.277  1.00  0.00    -0.135 A  
ENDROOT
BRANCH   3  12
HETATM   12  C   UNL     1      -9.720   8.976  69.707  1.00  0.00    -0.175 A  
HETATM   13  O   UNL     1      -9.046  10.844  68.841  1.00  0.00    -0.171 OA 
HETATM   14  N   UNL     1      -8.812   9.949  69.894  1.00  0.00    -0.210 NA 
HETATM   15  C   UNL     1     -10.060  10.307  68.107  1.00  0.00    -0.150 A  
HETATM   16  N   UNL     1     -10.542   9.201  68.630  1.00  0.00    -0.203 NA 
BRANCH  15  17
HETATM   17  C   UNL     1     -10.401  10.906  66.817  1.00  0.00    -0.289 A  
HETATM   18  C   UNL     1     -11.118  12.107  66.659  1.00  0.00    -0.353 A  
HETATM   19  C   UNL     1     -11.388  12.606  65.363  1.00  0.00    -0.313 A  
HETATM   20  N   UNL     1     -12.144  13.851  65.215  1.00  0.00    -0.387 N  
HETATM   21  C   UNL     1     -10.938  11.921  64.226  1.00  0.00    -0.353 A  
HETATM   22  O   UNL     1     -11.132  12.296  62.921  1.00  0.00    -0.595 OA 
HETATM   23  O   UNL     1     -12.382  14.243  64.060  1.00  0.00    -0.641 OA 
HETATM   24  O   UNL     1     -12.503  14.440  66.244  1.00  0.00    -0.393 OA 
HETATM   25  C   UNL     1     -10.215  10.748  64.401  1.00  0.00    -0.364 A  
HETATM   26  H   UNL     1     -10.826  11.832  62.150  1.00  0.00     0.000 HD 
HETATM   27  C   UNL     1      -9.948  10.244  65.663  1.00  0.00    -0.347 A  
HETATM   28  O   UNL     1      -9.745  10.058  63.317  1.00  0.00    -0.483 OA 
HETATM   29  H   UNL     1      -9.251   9.256  63.436  1.00  0.00     0.000 HD 
ENDBRANCH  15  17
ENDBRANCH   3  12
TORSDOF 2
ENDMDL
MODEL       81
REMARK 921   NORMALIZED FREE ENERGY PREDICTED BY IDOCK:   -6.21 KCAL/MOL
REMARK 922        TOTAL FREE ENERGY PREDICTED BY IDOCK:   -7.53 KCAL/MOL
REMARK 923 INTER-LIGAND FREE ENERGY PREDICTED BY IDOCK:   -6.97 KCAL/MOL
REMARK 924 INTRA-LIGAND FREE ENERGY PREDICTED BY IDOCK:   -0.57 KCAL/MOL
REMARK 927      BINDING AFFINITY PREDICTED BY RF-SCORE:    0.00 PKD
ROOT
HETATM    1  C   UNL     1     -10.829   6.539  68.380  1.00  0.00    -0.357 C  
HETATM    2  C   UNL     1      -9.469   6.469  67.712  1.00  0.00    -0.119 A  
HETATM    3  C   UNL     1      -8.781   7.611  67.213  1.00  0.00    -0.124 A  
HETATM    4 CL   UNL     1      -9.656   3.792  68.257  1.00  0.00    -0.205 Cl 
HETATM    5  C   UNL     1      -7.527   7.428  66.582  1.00  0.00    -0.088 A  
HETATM    6  C   UNL     1      -6.970   3.683  66.835  1.00  0.00    -0.055 C  
HETATM    7 CL   UNL     1      -6.594   8.783  65.985  1.00  0.00    -0.057 Cl 
HETATM    8  N   UNL     1      -6.960   6.140  66.453  1.00  0.00    -0.065 NA 
HETATM    9  C   UNL     1      -7.625   5.029  66.969  1.00  0.00    -0.088 A  
HETATM   10  O   UNL     1      -5.829   5.985  65.876  1.00  0.00    -0.022 OA 
HETATM   11  C   UNL     1      -8.864   5.199  67.598  1.00  0.00    -0.105 A  
ENDROOT
BRANCH   3  12
HETATM   12  C   UNL     1      -9.346   8.956  67.386  1.00  0.00    -0.136 A  
HETATM   13  O   UNL     1      -9.843  10.927  68.132  1.00  0.00    -0.166 OA 
HETATM   14  N   UNL     1      -9.275   9.701  68.502  1.00  0.00    -0.137 NA 
HETATM   15  C   UNL     1     -10.179  10.807  66.816  1.00  0.00    -0.230 A  
HETATM   16  N   UNL     1      -9.950   9.605  66.337  1.00  0.00    -0.241 NA 
BRANCH  15  17
HETATM   17  C   UNL     1     -10.609  11.994  66.080  1.00  0.00    -0.303 A  
HETATM   18  C   UNL     1     -10.096  13.290  66.282  1.00  0.00    -0.294 A  
HETATM   19  C   UNL     1     -10.576  14.372  65.507  1.00  0.00    -0.347 A  
HETATM   20  N   UNL     1     -10.039  15.715  65.736  1.00  0.00    -0.338 N  
HETATM   21  C   UNL     1     -11.556  14.168  64.527  1.00  0.00    -0.389 A  
HETATM   22  O   UNL     1     -12.104  15.127  63.713  1.00  0.00    -0.939 OA 
HETATM   23  O   UNL     1     -10.505  16.643  65.054  1.00  0.00    -0.664 OA 
HETATM   24  O   UNL     1      -9.156  15.850  66.595  1.00  0.00    -0.215 OA 
HETATM   25  C   UNL     1     -12.038  12.881  64.327  1.00  0.00    -0.419 A  
HETATM   26  H   UNL     1     -12.768  14.988  63.048  1.00  0.00     0.000 HD 
HETATM   27  C   UNL     1     -11.582  11.812  65.081  1.00  0.00    -0.211 A  
HETATM   28  O   UNL     1     -12.984  12.638  63.369  1.00  0.00    -0.649 OA 
HETATM   29  H   UNL     1     -13.314  11.758  63.233  1.00  0.00     0.000 HD 
ENDBRANCH  15  17
ENDBRANCH   3  12
TORSDOF 2
ENDMDL
MODEL       82
REMARK 921   NORMALIZED FREE ENERGY PREDICTED BY IDOCK:   -6.21 KCAL/MOL
REMARK 922        TOTAL FREE ENERGY PREDICTED BY IDOCK:   -7.53 KCAL/MOL
REMARK 923 INTER-LIGAND FREE ENERGY PREDICTED BY IDOCK:   -7.10 KCAL/MOL
REMARK 924 INTRA-LIGAND FREE ENERGY PREDICTED BY IDOCK:   -0.43 KCAL/MOL
REMARK 927      BINDING AFFINITY PREDICTED BY RF-SCORE:    0.00 PKD
ROOT
HETATM    1  C   UNL     1     -12.357  12.369  64.645  1.00  0.00    -0.518 C  
HETATM    2  C   UNL     1     -11.332  13.119  65.472  1.00  0.00    -0.325 A  
HETATM    3  C   UNL     1     -10.433  12.481  66.373  1.00  0.00    -0.269 A  
HETATM    4 CL   UNL     1     -12.318  15.321  64.177  1.00  0.00    -0.275 Cl 
HETATM    5  C   UNL     1      -9.533  13.282  67.118  1.00  0.00    -0.240 A  
HETATM    6  C   UNL     1     -10.308  16.798  65.917  1.00  0.00    -0.341 C  
HETATM    7 CL   UNL     1      -8.363  12.574  68.209  1.00  0.00    -0.171 Cl 
HETATM    8  N   UNL     1      -9.518  14.687  66.968  1.00  0.00    -0.231 NA 
HETATM    9  C   UNL     1     -10.380  15.303  66.064  1.00  0.00    -0.312 A  
HETATM   10  O   UNL     1      -8.704  15.402  67.650  1.00  0.00    -0.161 OA 
HETATM   11  C   UNL     1     -11.272  14.521  65.320  1.00  0.00    -0.352 A  
ENDROOT
BRANCH   3  12
HETATM   12  C   UNL     1     -10.415  11.018  66.497  1.00  0.00    -0.257 A  
HETATM   13  O   UNL     1     -10.051   8.905  66.191  1.00  0.00    -0.291 OA 
HETATM   14  N   UNL     1      -9.983  10.155  65.562  1.00  0.00    -0.292 NA 
HETATM   15  C   UNL     1     -10.496   9.143  67.458  1.00  0.00    -0.270 A  
HETATM   16  N   UNL     1     -10.788  10.407  67.669  1.00  0.00    -0.287 NA 
BRANCH  15  17
HETATM   17  C   UNL     1     -10.479   8.055  68.435  1.00  0.00    -0.205 A  
HETATM   18  C   UNL     1     -10.747   8.211  69.808  1.00  0.00    -0.229 A  
HETATM   19  C   UNL     1     -10.712   7.089  70.669  1.00  0.00    -0.231 A  
HETATM   20  N   UNL     1     -10.984   7.269  72.097  1.00  0.00    -0.231 N  
HETATM   21  C   UNL     1     -10.422   5.813  70.167  1.00  0.00    -0.278 A  
HETATM   22  O   UNL     1     -10.357   4.650  70.892  1.00  0.00    -0.177 OA 
HETATM   23  O   UNL     1     -10.919   6.264  72.824  1.00  0.00    -0.239 OA 
HETATM   24  O   UNL     1     -11.260   8.408  72.497  1.00  0.00    -0.368 OA 
HETATM   25  C   UNL     1     -10.179   5.674  68.807  1.00  0.00    -0.204 A  
HETATM   26  H   UNL     1     -10.161   3.785  70.551  1.00  0.00     0.000 HD 
HETATM   27  C   UNL     1     -10.204   6.764  67.952  1.00  0.00    -0.207 A  
HETATM   28  O   UNL     1      -9.908   4.443  68.276  1.00  0.00    -0.138 OA 
HETATM   29  H   UNL     1      -9.741   4.348  67.346  1.00  0.00     0.000 HD 
ENDBRANCH  15  17
ENDBRANCH   3  12
TORSDOF 2
ENDMDL
MODEL       83
REMARK 921   NORMALIZED FREE ENERGY PREDICTED BY IDOCK:   -6.19 KCAL/MOL
REMARK 922        TOTAL FREE ENERGY PREDICTED BY IDOCK:   -7.50 KCAL/MOL
REMARK 923 INTER-LIGAND FREE ENERGY PREDICTED BY IDOCK:   -7.28 KCAL/MOL
REMARK 924 INTRA-LIGAND FREE ENERGY PREDICTED BY IDOCK:   -0.22 KCAL/MOL
REMARK 927      BINDING AFFINITY PREDICTED BY RF-SCORE:    0.00 PKD
ROOT
HETATM    1  C   UNL     1     -10.565  14.361  68.124  1.00  0.00    -0.236 C  
HETATM    2  C   UNL     1     -11.298  14.103  69.427  1.00  0.00    -0.318 A  
HETATM    3  C   UNL     1     -11.809  12.828  69.800  1.00  0.00    -0.380 A  
HETATM    4 CL   UNL     1     -10.792  16.751  69.905  1.00  0.00    -0.234 Cl 
HETATM    5  C   UNL     1     -12.502  12.705  71.029  1.00  0.00    -0.260 A  
HETATM    6  C   UNL     1     -12.341  16.214  72.466  1.00  0.00    -0.564 C  
HETATM    7 CL   UNL     1     -13.118  11.165  71.584  1.00  0.00    -0.560 Cl 
HETATM    8  N   UNL     1     -12.679  13.822  71.876  1.00  0.00    -0.288 NA 
HETATM    9  C   UNL     1     -12.152  15.062  71.519  1.00  0.00    -0.343 A  
HETATM   10  O   UNL     1     -13.312  13.702  72.982  1.00  0.00    -0.546 OA 
HETATM   11  C   UNL     1     -11.462  15.194  70.308  1.00  0.00    -0.282 A  
ENDROOT
BRANCH   3  12
HETATM   12  C   UNL     1     -11.586  11.656  68.943  1.00  0.00    -0.314 A  
HETATM   13  O   UNL     1     -11.440  10.304  67.257  1.00  0.00    -0.249 OA 
HETATM   14  N   UNL     1     -11.992  11.525  67.669  1.00  0.00    -0.634 NA 
HETATM   15  C   UNL     1     -10.733   9.831  68.321  1.00  0.00    -0.233 A  
HETATM   16  N   UNL     1     -10.843  10.590  69.388  1.00  0.00    -0.232 NA 
BRANCH  15  17
HETATM   17  C   UNL     1      -9.868   8.667  68.140  1.00  0.00    -0.192 A  
HETATM   18  C   UNL     1     -10.226   7.508  67.424  1.00  0.00    -0.318 A  
HETATM   19  C   UNL     1      -9.309   6.438  67.301  1.00  0.00    -0.119 A  
HETATM   20  N   UNL     1      -9.701   5.236  66.562  1.00  0.00    -0.154 N  
HETATM   21  C   UNL     1      -8.034   6.521  67.876  1.00  0.00    -0.109 A  
HETATM   22  O   UNL     1      -7.056   5.560  67.830  1.00  0.00    -0.067 OA 
HETATM   23  O   UNL     1      -8.876   4.309  66.497  1.00  0.00    -0.112 OA 
HETATM   24  O   UNL     1     -10.827   5.211  66.047  1.00  0.00    -0.252 OA 
HETATM   25  C   UNL     1      -7.689   7.679  68.562  1.00  0.00    -0.119 A  
HETATM   26  H   UNL     1      -6.192   5.617  68.220  1.00  0.00     0.000 HD 
HETATM   27  C   UNL     1      -8.578   8.733  68.697  1.00  0.00    -0.134 A  
HETATM   28  O   UNL     1      -6.449   7.805  69.125  1.00  0.00    -0.035 OA 
HETATM   29  H   UNL     1      -6.213   8.597  69.595  1.00  0.00     0.000 HD 
ENDBRANCH  15  17
ENDBRANCH   3  12
TORSDOF 2
ENDMDL
MODEL       84
REMARK 921   NORMALIZED FREE ENERGY PREDICTED BY IDOCK:   -6.18 KCAL/MOL
REMARK 922        TOTAL FREE ENERGY PREDICTED BY IDOCK:   -7.50 KCAL/MOL
REMARK 923 INTER-LIGAND FREE ENERGY PREDICTED BY IDOCK:   -7.13 KCAL/MOL
REMARK 924 INTRA-LIGAND FREE ENERGY PREDICTED BY IDOCK:   -0.37 KCAL/MOL
REMARK 927      BINDING AFFINITY PREDICTED BY RF-SCORE:    0.00 PKD
ROOT
HETATM    1  C   UNL     1     -10.278  12.361  63.458  1.00  0.00    -0.339 C  
HETATM    2  C   UNL     1      -9.796  11.465  64.583  1.00  0.00    -0.302 A  
HETATM    3  C   UNL     1      -9.757  11.872  65.947  1.00  0.00    -0.258 A  
HETATM    4 CL   UNL     1      -9.475   9.615  62.591  1.00  0.00    -0.082 Cl 
HETATM    5  C   UNL     1      -9.263  10.964  66.915  1.00  0.00    -0.161 A  
HETATM    6  C   UNL     1      -8.435   7.881  64.862  1.00  0.00    -0.045 C  
HETATM    7 CL   UNL     1      -9.227  11.367  68.617  1.00  0.00    -0.174 Cl 
HETATM    8  N   UNL     1      -8.821   9.675  66.541  1.00  0.00    -0.140 NA 
HETATM    9  C   UNL     1      -8.888   9.272  65.208  1.00  0.00    -0.198 A  
HETATM   10  O   UNL     1      -8.371   8.863  67.422  1.00  0.00    -0.108 OA 
HETATM   11  C   UNL     1      -9.379  10.161  64.243  1.00  0.00    -0.295 A  
ENDROOT
BRANCH   3  12
HETATM   12  C   UNL     1     -10.258  13.194  66.345  1.00  0.00    -0.286 A  
HETATM   13  O   UNL     1     -11.331  14.816  67.299  1.00  0.00    -0.335 OA 
HETATM   14  N   UNL     1     -11.345  13.429  67.099  1.00  0.00    -0.302 NA 
HETATM   15  C   UNL     1     -10.218  15.278  66.663  1.00  0.00    -0.271 A  
HETATM   16  N   UNL     1      -9.567  14.335  66.018  1.00  0.00    -0.278 NA 
BRANCH  15  17
HETATM   17  C   UNL     1      -9.810  16.668  66.860  1.00  0.00    -0.267 A  
HETATM   18  C   UNL     1      -8.740  17.078  67.678  1.00  0.00    -0.216 A  
HETATM   19  C   UNL     1      -8.422  18.452  67.794  1.00  0.00    -0.259 A  
HETATM   20  N   UNL     1      -7.312  18.864  68.656  1.00  0.00    -0.300 N  
HETATM   21  C   UNL     1      -9.157  19.417  67.092  1.00  0.00    -0.303 A  
HETATM   22  O   UNL     1      -8.953  20.773  67.117  1.00  0.00    -0.556 OA 
HETATM   23  O   UNL     1      -7.080  20.081  68.751  1.00  0.00    -0.305 OA 
HETATM   24  O   UNL     1      -6.671  17.980  69.240  1.00  0.00    -0.254 OA 
HETATM   25  C   UNL     1     -10.197  18.993  66.274  1.00  0.00    -0.446 A  
HETATM   26  H   UNL     1      -9.451  21.427  66.640  1.00  0.00     0.000 HD 
HETATM   27  C   UNL     1     -10.524  17.653  66.155  1.00  0.00    -0.295 A  
HETATM   28  O   UNL     1     -10.929  19.902  65.561  1.00  0.00    -0.350 OA 
HETATM   29  H   UNL     1     -11.641  19.613  65.002  1.00  0.00     0.000 HD 
ENDBRANCH  15  17
ENDBRANCH   3  12
TORSDOF 2
ENDMDL
MODEL       85
REMARK 921   NORMALIZED FREE ENERGY PREDICTED BY IDOCK:   -6.13 KCAL/MOL
REMARK 922        TOTAL FREE ENERGY PREDICTED BY IDOCK:   -7.44 KCAL/MOL
REMARK 923 INTER-LIGAND FREE ENERGY PREDICTED BY IDOCK:   -7.38 KCAL/MOL
REMARK 924 INTRA-LIGAND FREE ENERGY PREDICTED BY IDOCK:   -0.06 KCAL/MOL
REMARK 927      BINDING AFFINITY PREDICTED BY RF-SCORE:    0.00 PKD
ROOT
HETATM    1  C   UNL     1      -9.213   9.513  71.308  1.00  0.00     0.204 C  
HETATM    2  C   UNL     1     -10.311   8.502  71.577  1.00  0.00    -0.321 A  
HETATM    3  C   UNL     1     -11.698   8.824  71.548  1.00  0.00    -0.377 A  
HETATM    4 CL   UNL     1      -8.233   6.739  71.838  1.00  0.00    -0.102 Cl 
HETATM    5  C   UNL     1     -12.639   7.808  71.842  1.00  0.00    -0.311 A  
HETATM    6  C   UNL     1     -10.460   4.762  72.457  1.00  0.00    -0.264 C  
HETATM    7 CL   UNL     1     -14.362   8.109  71.780  1.00  0.00    -0.533 Cl 
HETATM    8  N   UNL     1     -12.217   6.496  72.151  1.00  0.00    -0.281 NA 
HETATM    9  C   UNL     1     -10.860   6.179  72.150  1.00  0.00    -0.247 A  
HETATM   10  O   UNL     1     -13.076   5.586  72.420  1.00  0.00     0.482 OA 
HETATM   11  C   UNL     1      -9.920   7.175  71.858  1.00  0.00    -0.167 A  
ENDROOT
BRANCH   3  12
HETATM   12  C   UNL     1     -12.141  10.176  71.182  1.00  0.00    -0.388 A  
HETATM   13  O   UNL     1     -12.974  12.175  71.210  1.00  0.00    -0.326 OA 
HETATM   14  N   UNL     1     -12.949  10.963  71.912  1.00  0.00    -0.451 NA 
HETATM   15  C   UNL     1     -12.154  12.006  70.135  1.00  0.00    -0.298 A  
HETATM   16  N   UNL     1     -11.673  10.786  70.044  1.00  0.00    -0.305 NA 
BRANCH  15  17
HETATM   17  C   UNL     1     -11.806  13.165  69.315  1.00  0.00    -0.377 A  
HETATM   18  C   UNL     1     -11.863  13.194  67.908  1.00  0.00    -0.390 A  
HETATM   19  C   UNL     1     -11.512  14.373  67.209  1.00  0.00    -0.359 A  
HETATM   20  N   UNL     1     -11.567  14.384  65.745  1.00  0.00    -0.349 N  
HETATM   21  C   UNL     1     -11.117  15.524  67.903  1.00  0.00    -0.321 A  
HETATM   22  O   UNL     1     -10.754  16.725  67.347  1.00  0.00    -0.314 OA 
HETATM   23  O   UNL     1     -11.228  15.430  65.167  1.00  0.00    -0.369 OA 
HETATM   24  O   UNL     1     -11.945  13.355  65.169  1.00  0.00    -0.343 OA 
HETATM   25  C   UNL     1     -11.085  15.484  69.291  1.00  0.00    -0.285 A  
HETATM   26  H   UNL     1     -10.486  17.505  67.818  1.00  0.00     0.000 HD 
HETATM   27  C   UNL     1     -11.420  14.336  69.990  1.00  0.00    -0.280 A  
HETATM   28  O   UNL     1     -10.719  16.591  70.006  1.00  0.00    -0.312 OA 
HETATM   29  H   UNL     1     -10.697  16.564  70.955  1.00  0.00     0.000 HD 
ENDBRANCH  15  17
ENDBRANCH   3  12
TORSDOF 2
ENDMDL
MODEL       86
REMARK 921   NORMALIZED FREE ENERGY PREDICTED BY IDOCK:   -6.12 KCAL/MOL
REMARK 922        TOTAL FREE ENERGY PREDICTED BY IDOCK:   -7.42 KCAL/MOL
REMARK 923 INTER-LIGAND FREE ENERGY PREDICTED BY IDOCK:   -6.83 KCAL/MOL
REMARK 924 INTRA-LIGAND FREE ENERGY PREDICTED BY IDOCK:   -0.59 KCAL/MOL
REMARK 927      BINDING AFFINITY PREDICTED BY RF-SCORE:    0.00 PKD
ROOT
HETATM    1  C   UNL     1     -11.909  12.877  65.916  1.00  0.00    -0.476 C  
HETATM    2  C   UNL     1     -10.594  13.381  66.477  1.00  0.00    -0.287 A  
HETATM    3  C   UNL     1      -9.725  12.583  67.274  1.00  0.00    -0.202 A  
HETATM    4 CL   UNL     1     -11.238  15.687  65.149  1.00  0.00    -0.318 Cl 
HETATM    5  C   UNL     1      -8.532  13.164  67.770  1.00  0.00    -0.185 A  
HETATM    6  C   UNL     1      -8.636  16.688  66.364  1.00  0.00    -0.345 C  
HETATM    7 CL   UNL     1      -7.386  12.239  68.715  1.00  0.00    -0.105 Cl 
HETATM    8  N   UNL     1      -8.202  14.506  67.477  1.00  0.00    -0.173 NA 
HETATM    9  C   UNL     1      -9.043  15.274  66.673  1.00  0.00    -0.282 A  
HETATM   10  O   UNL     1      -7.125  15.023  67.935  1.00  0.00    -0.119 OA 
HETATM   11  C   UNL     1     -10.223  14.709  66.174  1.00  0.00    -0.301 A  
ENDROOT
BRANCH   3  12
HETATM   12  C   UNL     1     -10.042  11.175  67.542  1.00  0.00    -0.183 A  
HETATM   13  O   UNL     1     -10.151   9.013  67.470  1.00  0.00    -0.196 OA 
HETATM   14  N   UNL     1      -9.776  10.140  66.727  1.00  0.00    -0.180 NA 
HETATM   15  C   UNL     1     -10.584   9.481  68.674  1.00  0.00    -0.210 A  
HETATM   16  N   UNL     1     -10.592  10.794  68.740  1.00  0.00    -0.187 NA 
BRANCH  15  17
HETATM   17  C   UNL     1     -10.854   8.531  69.752  1.00  0.00    -0.177 A  
HETATM   18  C   UNL     1     -10.396   7.200  69.776  1.00  0.00    -0.224 A  
HETATM   19  C   UNL     1     -10.707   6.363  70.875  1.00  0.00    -0.250 A  
HETATM   20  N   UNL     1     -10.233   4.977  70.880  1.00  0.00    -0.228 N  
HETATM   21  C   UNL     1     -11.459   6.850  71.952  1.00  0.00    -0.272 A  
HETATM   22  O   UNL     1     -11.826   6.146  73.071  1.00  0.00    -0.472 OA 
HETATM   23  O   UNL     1     -10.547   4.268  71.851  1.00  0.00    -0.059 OA 
HETATM   24  O   UNL     1      -9.549   4.593  69.921  1.00  0.00    -0.152 OA 
HETATM   25  C   UNL     1     -11.886   8.171  71.921  1.00  0.00    -0.317 A  
HETATM   26  H   UNL     1     -12.336   6.476  73.802  1.00  0.00     0.000 HD 
HETATM   27  C   UNL     1     -11.595   9.001  70.851  1.00  0.00    -0.344 A  
HETATM   28  O   UNL     1     -12.609   8.688  72.960  1.00  0.00    -0.589 OA 
HETATM   29  H   UNL     1     -12.901   9.592  72.939  1.00  0.00     0.000 HD 
ENDBRANCH  15  17
ENDBRANCH   3  12
TORSDOF 2
ENDMDL
MODEL       87
REMARK 921   NORMALIZED FREE ENERGY PREDICTED BY IDOCK:   -6.10 KCAL/MOL
REMARK 922        TOTAL FREE ENERGY PREDICTED BY IDOCK:   -7.41 KCAL/MOL
REMARK 923 INTER-LIGAND FREE ENERGY PREDICTED BY IDOCK:   -6.88 KCAL/MOL
REMARK 924 INTRA-LIGAND FREE ENERGY PREDICTED BY IDOCK:   -0.53 KCAL/MOL
REMARK 927      BINDING AFFINITY PREDICTED BY RF-SCORE:    0.00 PKD
ROOT
HETATM    1  C   UNL     1      -8.598  10.116  64.901  1.00  0.00    -0.188 C  
HETATM    2  C   UNL     1      -9.315   9.874  66.216  1.00  0.00    -0.224 A  
HETATM    3  C   UNL     1      -9.940  10.907  66.970  1.00  0.00    -0.227 A  
HETATM    4 CL   UNL     1      -8.663   7.253  65.760  1.00  0.00    -0.154 Cl 
HETATM    5  C   UNL     1     -10.558  10.573  68.199  1.00  0.00    -0.204 A  
HETATM    6  C   UNL     1     -10.034   6.821  68.440  1.00  0.00    -0.153 C  
HETATM    7 CL   UNL     1     -11.390  11.773  69.163  1.00  0.00    -0.312 Cl 
HETATM    8  N   UNL     1     -10.565   9.240  68.670  1.00  0.00    -0.209 NA 
HETATM    9  C   UNL     1      -9.977   8.228  67.913  1.00  0.00    -0.183 A  
HETATM   10  O   UNL     1     -11.122   8.950  69.785  1.00  0.00    -0.200 OA 
HETATM   11  C   UNL     1      -9.365   8.547  66.694  1.00  0.00    -0.189 A  
ENDROOT
BRANCH   3  12
HETATM   12  C   UNL     1      -9.974  12.284  66.462  1.00  0.00    -0.220 A  
HETATM   13  O   UNL     1     -10.527  14.122  65.459  1.00  0.00    -0.305 OA 
HETATM   14  N   UNL     1     -10.786  12.746  65.495  1.00  0.00    -0.273 NA 
HETATM   15  C   UNL     1      -9.600  14.359  66.430  1.00  0.00    -0.299 A  
HETATM   16  N   UNL     1      -9.190  13.261  67.025  1.00  0.00    -0.231 NA 
BRANCH  15  17
HETATM   17  C   UNL     1      -9.273  15.740  66.781  1.00  0.00    -0.268 A  
HETATM   18  C   UNL     1      -9.881  16.874  66.210  1.00  0.00    -0.320 A  
HETATM   19  C   UNL     1      -9.497  18.170  66.629  1.00  0.00    -0.302 A  
HETATM   20  N   UNL     1     -10.131  19.341  66.018  1.00  0.00    -0.411 N  
HETATM   21  C   UNL     1      -8.520  18.341  67.619  1.00  0.00    -0.255 A  
HETATM   22  O   UNL     1      -8.061  19.536  68.111  1.00  0.00    -0.303 OA 
HETATM   23  O   UNL     1      -9.748  20.462  66.394  1.00  0.00    -0.374 OA 
HETATM   24  O   UNL     1     -11.007  19.148  65.164  1.00  0.00    -0.464 OA 
HETATM   25  C   UNL     1      -7.945  17.210  68.186  1.00  0.00    -0.216 A  
HETATM   26  H   UNL     1      -7.399  19.651  68.783  1.00  0.00     0.000 HD 
HETATM   27  C   UNL     1      -8.307  15.935  67.783  1.00  0.00    -0.159 A  
HETATM   28  O   UNL     1      -7.000  17.334  69.166  1.00  0.00    -0.233 OA 
HETATM   29  H   UNL     1      -6.606  16.561  69.554  1.00  0.00     0.000 HD 
ENDBRANCH  15  17
ENDBRANCH   3  12
TORSDOF 2
ENDMDL
MODEL       88
REMARK 921   NORMALIZED FREE ENERGY PREDICTED BY IDOCK:   -6.10 KCAL/MOL
REMARK 922        TOTAL FREE ENERGY PREDICTED BY IDOCK:   -7.41 KCAL/MOL
REMARK 923 INTER-LIGAND FREE ENERGY PREDICTED BY IDOCK:   -7.08 KCAL/MOL
REMARK 924 INTRA-LIGAND FREE ENERGY PREDICTED BY IDOCK:   -0.32 KCAL/MOL
REMARK 927      BINDING AFFINITY PREDICTED BY RF-SCORE:    0.00 PKD
ROOT
HETATM    1  C   UNL     1     -11.687  12.298  66.604  1.00  0.00    -0.417 C  
HETATM    2  C   UNL     1     -11.358  13.617  67.274  1.00  0.00    -0.346 A  
HETATM    3  C   UNL     1     -11.323  13.792  68.687  1.00  0.00    -0.321 A  
HETATM    4 CL   UNL     1     -11.036  14.514  64.707  1.00  0.00    -0.400 Cl 
HETATM    5  C   UNL     1     -11.031  15.077  69.207  1.00  0.00    -0.264 A  
HETATM    6  C   UNL     1     -10.466  17.164  66.088  1.00  0.00    -0.277 C  
HETATM    7 CL   UNL     1     -10.921  15.365  70.929  1.00  0.00    -0.364 Cl 
HETATM    8  N   UNL     1     -10.771  16.166  68.345  1.00  0.00    -0.283 NA 
HETATM    9  C   UNL     1     -10.778  15.983  66.964  1.00  0.00    -0.277 A  
HETATM   10  O   UNL     1     -10.513  17.324  68.825  1.00  0.00    -0.333 OA 
HETATM   11  C   UNL     1     -11.063  14.716  66.439  1.00  0.00    -0.334 A  
ENDROOT
BRANCH   3  12
HETATM   12  C   UNL     1     -11.549  12.652  69.585  1.00  0.00    -0.251 A  
HETATM   13  O   UNL     1     -12.417  11.224  70.962  1.00  0.00    -0.382 OA 
HETATM   14  N   UNL     1     -12.585  12.508  70.428  1.00  0.00    -0.096 NA 
HETATM   15  C   UNL     1     -11.305  10.709  70.365  1.00  0.00    -0.304 A  
HETATM   16  N   UNL     1     -10.710  11.565  69.566  1.00  0.00    -0.080 NA 
BRANCH  15  17
HETATM   17  C   UNL     1     -10.981   9.297  70.561  1.00  0.00    -0.318 A  
HETATM   18  C   UNL     1     -10.508   8.745  71.767  1.00  0.00    -0.417 A  
HETATM   19  C   UNL     1     -10.231   7.360  71.853  1.00  0.00    -0.187 A  
HETATM   20  N   UNL     1      -9.730   6.804  73.112  1.00  0.00    -0.160 N  
HETATM   21  C   UNL     1     -10.435   6.522  70.749  1.00  0.00    -0.220 A  
HETATM   22  O   UNL     1     -10.207   5.170  70.701  1.00  0.00    -0.237 OA 
HETATM   23  O   UNL     1      -9.476   5.588  73.139  1.00  0.00    -0.143 OA 
HETATM   24  O   UNL     1      -9.587   7.573  74.072  1.00  0.00    -0.260 OA 
HETATM   25  C   UNL     1     -10.920   7.079  69.573  1.00  0.00    -0.220 A  
HETATM   26  H   UNL     1     -10.346   4.601  69.953  1.00  0.00     0.000 HD 
HETATM   27  C   UNL     1     -11.190   8.434  69.471  1.00  0.00     0.148 A  
HETATM   28  O   UNL     1     -11.146   6.292  68.478  1.00  0.00    -0.341 OA 
HETATM   29  H   UNL     1     -11.478   6.672  67.673  1.00  0.00     0.000 HD 
ENDBRANCH  15  17
ENDBRANCH   3  12
TORSDOF 2
ENDMDL
MODEL       89
REMARK 921   NORMALIZED FREE ENERGY PREDICTED BY IDOCK:   -6.09 KCAL/MOL
REMARK 922        TOTAL FREE ENERGY PREDICTED BY IDOCK:   -7.40 KCAL/MOL
REMARK 923 INTER-LIGAND FREE ENERGY PREDICTED BY IDOCK:   -6.89 KCAL/MOL
REMARK 924 INTRA-LIGAND FREE ENERGY PREDICTED BY IDOCK:   -0.51 KCAL/MOL
REMARK 927      BINDING AFFINITY PREDICTED BY RF-SCORE:    0.00 PKD
ROOT
HETATM    1  C   UNL     1     -11.518   8.892  70.513  1.00  0.00    -0.231 C  
HETATM    2  C   UNL     1     -10.275   8.023  70.504  1.00  0.00    -0.201 A  
HETATM    3  C   UNL     1      -9.457   7.838  69.354  1.00  0.00    -0.156 A  
HETATM    4 CL   UNL     1     -10.870   7.640  73.149  1.00  0.00    -0.453 Cl 
HETATM    5  C   UNL     1      -8.332   6.982  69.449  1.00  0.00    -0.133 A  
HETATM    6  C   UNL     1      -8.421   5.839  73.067  1.00  0.00    -0.118 C  
HETATM    7 CL   UNL     1      -7.248   6.740  68.098  1.00  0.00    -0.089 Cl 
HETATM    8  N   UNL     1      -8.020   6.327  70.661  1.00  0.00    -0.110 NA 
HETATM    9  C   UNL     1      -8.809   6.534  71.792  1.00  0.00    -0.138 A  
HETATM   10  O   UNL     1      -7.005   5.551  70.736  1.00  0.00    -0.050 OA 
HETATM   11  C   UNL     1      -9.921   7.381  71.710  1.00  0.00    -0.171 A  
ENDROOT
BRANCH   3  12
HETATM   12  C   UNL     1      -9.752   8.553  68.106  1.00  0.00    -0.155 A  
HETATM   13  O   UNL     1     -10.496   9.112  66.150  1.00  0.00    -0.141 OA 
HETATM   14  N   UNL     1     -10.311   8.019  67.007  1.00  0.00    -0.321 NA 
HETATM   15  C   UNL     1     -10.051  10.206  66.831  1.00  0.00    -0.223 A  
HETATM   16  N   UNL     1      -9.535   9.905  68.001  1.00  0.00    -0.134 NA 
BRANCH  15  17
HETATM   17  C   UNL     1     -10.301  11.537  66.281  1.00  0.00    -0.280 A  
HETATM   18  C   UNL     1     -10.114  12.741  66.986  1.00  0.00    -0.240 A  
HETATM   19  C   UNL     1     -10.377  13.980  66.357  1.00  0.00    -0.289 A  
HETATM   20  N   UNL     1     -10.188  15.224  67.108  1.00  0.00    -0.249 N  
HETATM   21  C   UNL     1     -10.814  14.026  65.026  1.00  0.00    -0.392 A  
HETATM   22  O   UNL     1     -11.103  15.156  64.303  1.00  0.00    -0.649 OA 
HETATM   23  O   UNL     1     -10.453  16.290  66.528  1.00  0.00    -0.301 OA 
HETATM   24  O   UNL     1      -9.776  15.142  68.273  1.00  0.00    -0.211 OA 
HETATM   25  C   UNL     1     -10.975  12.830  64.338  1.00  0.00    -0.361 A  
HETATM   26  H   UNL     1     -11.399  15.187  63.401  1.00  0.00     0.000 HD 
HETATM   27  C   UNL     1     -10.727  11.609  64.943  1.00  0.00    -0.352 A  
HETATM   28  O   UNL     1     -11.385  12.834  63.034  1.00  0.00    -0.746 OA 
HETATM   29  H   UNL     1     -11.496  12.016  62.563  1.00  0.00     0.000 HD 
ENDBRANCH  15  17
ENDBRANCH   3  12
TORSDOF 2
ENDMDL
MODEL       90
REMARK 921   NORMALIZED FREE ENERGY PREDICTED BY IDOCK:   -6.06 KCAL/MOL
REMARK 922        TOTAL FREE ENERGY PREDICTED BY IDOCK:   -7.36 KCAL/MOL
REMARK 923 INTER-LIGAND FREE ENERGY PREDICTED BY IDOCK:   -7.32 KCAL/MOL
REMARK 924 INTRA-LIGAND FREE ENERGY PREDICTED BY IDOCK:   -0.03 KCAL/MOL
REMARK 927      BINDING AFFINITY PREDICTED BY RF-SCORE:    0.00 PKD
ROOT
HETATM    1  C   UNL     1     -10.768   6.858  67.749  1.00  0.00    -0.321 C  
HETATM    2  C   UNL     1      -9.723   6.830  66.650  1.00  0.00    -0.213 A  
HETATM    3  C   UNL     1      -9.127   8.002  66.105  1.00  0.00    -0.224 A  
HETATM    4 CL   UNL     1      -9.994   4.113  66.854  1.00  0.00    -0.199 Cl 
HETATM    5  C   UNL     1      -8.181   7.862  65.061  1.00  0.00    -0.131 A  
HETATM    6  C   UNL     1      -7.962   4.102  64.591  1.00  0.00    -0.089 C  
HETATM    7 CL   UNL     1      -7.366   9.248  64.371  1.00  0.00    -0.103 Cl 
HETATM    8  N   UNL     1      -7.826   6.586  64.570  1.00  0.00    -0.109 NA 
HETATM    9  C   UNL     1      -8.392   5.440  65.126  1.00  0.00    -0.144 A  
HETATM   10  O   UNL     1      -6.974   6.470  63.622  1.00  0.00    -0.047 OA 
HETATM   11  C   UNL     1      -9.326   5.567  66.162  1.00  0.00    -0.157 A  
ENDROOT
BRANCH   3  12
HETATM   12  C   UNL     1      -9.459   9.327  66.645  1.00  0.00    -0.191 A  
HETATM   13  O   UNL     1      -9.685  11.059  67.925  1.00  0.00    -0.166 OA 
HETATM   14  N   UNL     1      -9.396   9.689  67.938  1.00  0.00    -0.128 NA 
HETATM   15  C   UNL     1      -9.871  11.395  66.617  1.00  0.00    -0.205 A  
HETATM   16  N   UNL     1      -9.802  10.361  65.809  1.00  0.00    -0.224 NA 
BRANCH  15  17
HETATM   17  C   UNL     1      -9.987  12.806  66.254  1.00  0.00    -0.269 A  
HETATM   18  C   UNL     1     -10.941  13.324  65.357  1.00  0.00    -0.299 A  
HETATM   19  C   UNL     1     -10.974  14.711  65.080  1.00  0.00    -0.405 A  
HETATM   20  N   UNL     1     -11.966  15.233  64.136  1.00  0.00    -0.268 N  
HETATM   21  C   UNL     1     -10.070  15.584  65.699  1.00  0.00    -0.376 A  
HETATM   22  O   UNL     1      -9.997  16.942  65.518  1.00  0.00    -0.572 OA 
HETATM   23  O   UNL     1     -11.946  16.452  63.901  1.00  0.00    -1.023 OA 
HETATM   24  O   UNL     1     -12.763  14.432  63.629  1.00  0.00    -0.773 OA 
HETATM   25  C   UNL     1      -9.148  15.060  66.596  1.00  0.00    -0.280 A  
HETATM   26  H   UNL     1      -9.384  17.534  65.938  1.00  0.00     0.000 HD 
HETATM   27  C   UNL     1      -9.100  13.703  66.873  1.00  0.00    -0.249 A  
HETATM   28  O   UNL     1      -8.259  15.881  67.232  1.00  0.00    -0.159 OA 
HETATM   29  H   UNL     1      -7.628  15.522  67.846  1.00  0.00     0.000 HD 
ENDBRANCH  15  17
ENDBRANCH   3  12
TORSDOF 2
ENDMDL
MODEL       91
REMARK 921   NORMALIZED FREE ENERGY PREDICTED BY IDOCK:   -6.05 KCAL/MOL
REMARK 922        TOTAL FREE ENERGY PREDICTED BY IDOCK:   -7.35 KCAL/MOL
REMARK 923 INTER-LIGAND FREE ENERGY PREDICTED BY IDOCK:   -6.76 KCAL/MOL
REMARK 924 INTRA-LIGAND FREE ENERGY PREDICTED BY IDOCK:   -0.59 KCAL/MOL
REMARK 927      BINDING AFFINITY PREDICTED BY RF-SCORE:    0.00 PKD
ROOT
HETATM    1  C   UNL     1     -10.726   9.502  67.248  1.00  0.00    -0.269 C  
HETATM    2  C   UNL     1      -9.812   9.154  66.090  1.00  0.00    -0.363 A  
HETATM    3  C   UNL     1      -9.617  10.002  64.963  1.00  0.00    -0.362 A  
HETATM    4 CL   UNL     1      -9.290   6.898  67.551  1.00  0.00    -0.123 Cl 
HETATM    5  C   UNL     1      -8.761   9.565  63.922  1.00  0.00    -0.216 A  
HETATM    6  C   UNL     1      -7.535   6.196  65.169  1.00  0.00    -0.085 C  
HETATM    7 CL   UNL     1      -8.429  10.567  62.527  1.00  0.00    -0.203 Cl 
HETATM    8  N   UNL     1      -8.105   8.316  63.999  1.00  0.00    -0.148 NA 
HETATM    9  C   UNL     1      -8.277   7.503  65.118  1.00  0.00    -0.120 A  
HETATM   10  O   UNL     1      -7.338   7.928  63.051  1.00  0.00    -0.092 OA 
HETATM   11  C   UNL     1      -9.119   7.926  66.154  1.00  0.00    -0.163 A  
ENDROOT
BRANCH   3  12
HETATM   12  C   UNL     1     -10.262  11.319  64.901  1.00  0.00    -0.286 A  
HETATM   13  O   UNL     1     -11.688  12.934  64.669  1.00  0.00    -0.327 OA 
HETATM   14  N   UNL     1     -11.476  11.578  64.386  1.00  0.00    -0.223 NA 
HETATM   15  C   UNL     1     -10.586  13.353  65.353  1.00  0.00    -0.303 A  
HETATM   16  N   UNL     1      -9.666  12.421  65.464  1.00  0.00    -0.189 NA 
BRANCH  15  17
HETATM   17  C   UNL     1     -10.593  14.678  65.972  1.00  0.00    -0.314 A  
HETATM   18  C   UNL     1     -10.460  14.915  67.353  1.00  0.00    -0.255 A  
HETATM   19  C   UNL     1     -10.472  16.239  67.850  1.00  0.00    -0.295 A  
HETATM   20  N   UNL     1     -10.342  16.469  69.291  1.00  0.00    -0.303 N  
HETATM   21  C   UNL     1     -10.605  17.328  66.978  1.00  0.00    -0.231 A  
HETATM   22  O   UNL     1     -10.631  18.654  67.329  1.00  0.00    -0.410 OA 
HETATM   23  O   UNL     1     -10.382  17.644  69.690  1.00  0.00    -0.097 OA 
HETATM   24  O   UNL     1     -10.201  15.482  70.027  1.00  0.00    -0.301 OA 
HETATM   25  C   UNL     1     -10.716  17.077  65.616  1.00  0.00    -0.144 A  
HETATM   26  H   UNL     1     -10.721  19.391  66.737  1.00  0.00     0.000 HD 
HETATM   27  C   UNL     1     -10.712  15.786  65.115  1.00  0.00    -0.455 A  
HETATM   28  O   UNL     1     -10.832  18.113  64.731  1.00  0.00    -0.484 OA 
HETATM   29  H   UNL     1     -10.909  17.942  63.799  1.00  0.00     0.000 HD 
ENDBRANCH  15  17
ENDBRANCH   3  12
TORSDOF 2
ENDMDL
MODEL       92
REMARK 921   NORMALIZED FREE ENERGY PREDICTED BY IDOCK:   -6.04 KCAL/MOL
REMARK 922        TOTAL FREE ENERGY PREDICTED BY IDOCK:   -7.34 KCAL/MOL
REMARK 923 INTER-LIGAND FREE ENERGY PREDICTED BY IDOCK:   -6.89 KCAL/MOL
REMARK 924 INTRA-LIGAND FREE ENERGY PREDICTED BY IDOCK:   -0.45 KCAL/MOL
REMARK 927      BINDING AFFINITY PREDICTED BY RF-SCORE:    0.00 PKD
ROOT
HETATM    1  C   UNL     1     -10.677   6.008  68.829  1.00  0.00    -0.375 C  
HETATM    2  C   UNL     1      -9.884   6.558  67.659  1.00  0.00    -0.146 A  
HETATM    3  C   UNL     1      -9.570   7.938  67.505  1.00  0.00    -0.190 A  
HETATM    4 CL   UNL     1      -9.748   3.935  66.885  1.00  0.00    -0.232 Cl 
HETATM    5  C   UNL     1      -8.846   8.347  66.358  1.00  0.00    -0.153 A  
HETATM    6  C   UNL     1      -8.237   5.089  64.512  1.00  0.00    -0.126 C  
HETATM    7 CL   UNL     1      -8.378  10.016  66.118  1.00  0.00    -0.118 Cl 
HETATM    8  N   UNL     1      -8.435   7.408  65.387  1.00  0.00    -0.126 NA 
HETATM    9  C   UNL     1      -8.720   6.055  65.557  1.00  0.00    -0.114 A  
HETATM   10  O   UNL     1      -7.786   7.789  64.351  1.00  0.00    -0.127 OA 
HETATM   11  C   UNL     1      -9.433   5.638  66.689  1.00  0.00    -0.147 A  
ENDROOT
BRANCH   3  12
HETATM   12  C   UNL     1      -9.956   8.910  68.536  1.00  0.00    -0.177 A  
HETATM   13  O   UNL     1     -10.026  10.148  70.312  1.00  0.00    -0.204 OA 
HETATM   14  N   UNL     1      -9.417   9.012  69.763  1.00  0.00    -0.168 NA 
HETATM   15  C   UNL     1     -10.856  10.635  69.347  1.00  0.00    -0.246 A  
HETATM   16  N   UNL     1     -10.892   9.880  68.272  1.00  0.00    -0.242 NA 
BRANCH  15  17
HETATM   17  C   UNL     1     -11.484  11.941  69.542  1.00  0.00    -0.357 A  
HETATM   18  C   UNL     1     -12.343  12.264  70.610  1.00  0.00    -0.375 A  
HETATM   19  C   UNL     1     -12.893  13.564  70.710  1.00  0.00    -0.173 A  
HETATM   20  N   UNL     1     -13.793  13.880  71.822  1.00  0.00    -0.373 N  
HETATM   21  C   UNL     1     -12.583  14.545  69.760  1.00  0.00    -0.120 A  
HETATM   22  O   UNL     1     -13.046  15.836  69.743  1.00  0.00    -0.513 OA 
HETATM   23  O   UNL     1     -14.274  15.025  71.861  1.00  0.00    -0.450 OA 
HETATM   24  O   UNL     1     -14.022  12.993  72.655  1.00  0.00    -0.657 OA 
HETATM   25  C   UNL     1     -11.718  14.216  68.723  1.00  0.00    -0.345 A  
HETATM   26  H   UNL     1     -12.835  16.502  69.098  1.00  0.00     0.000 HD 
HETATM   27  C   UNL     1     -11.177  12.946  68.608  1.00  0.00    -0.321 A  
HETATM   28  O   UNL     1     -11.379  15.150  67.784  1.00  0.00    -0.315 OA 
HETATM   29  H   UNL     1     -10.788  14.926  67.075  1.00  0.00     0.000 HD 
ENDBRANCH  15  17
ENDBRANCH   3  12
TORSDOF 2
ENDMDL
MODEL       93
REMARK 921   NORMALIZED FREE ENERGY PREDICTED BY IDOCK:   -6.01 KCAL/MOL
REMARK 922        TOTAL FREE ENERGY PREDICTED BY IDOCK:   -7.31 KCAL/MOL
REMARK 923 INTER-LIGAND FREE ENERGY PREDICTED BY IDOCK:   -6.91 KCAL/MOL
REMARK 924 INTRA-LIGAND FREE ENERGY PREDICTED BY IDOCK:   -0.40 KCAL/MOL
REMARK 927      BINDING AFFINITY PREDICTED BY RF-SCORE:    0.00 PKD
ROOT
HETATM    1  C   UNL     1      -7.930   6.912  69.176  1.00  0.00    -0.119 C  
HETATM    2  C   UNL     1      -9.008   6.486  70.153  1.00  0.00    -0.155 A  
HETATM    3  C   UNL     1     -10.187   7.246  70.400  1.00  0.00    -0.200 A  
HETATM    4 CL   UNL     1      -7.420   4.283  70.505  1.00  0.00    -0.048 Cl 
HETATM    5  C   UNL     1     -11.117   6.768  71.355  1.00  0.00    -0.254 A  
HETATM    6  C   UNL     1      -9.563   3.507  72.519  1.00  0.00    -0.194 C  
HETATM    7 CL   UNL     1     -12.612   7.616  71.682  1.00  0.00    -0.350 Cl 
HETATM    8  N   UNL     1     -10.889   5.557  72.047  1.00  0.00    -0.235 NA 
HETATM    9  C   UNL     1      -9.748   4.803  71.780  1.00  0.00    -0.166 A  
HETATM   10  O   UNL     1     -11.733   5.137  72.912  1.00  0.00    -0.283 OA 
HETATM   11  C   UNL     1      -8.823   5.265  70.835  1.00  0.00    -0.136 A  
ENDROOT
BRANCH   3  12
HETATM   12  C   UNL     1     -10.448   8.481  69.650  1.00  0.00    -0.221 A  
HETATM   13  O   UNL     1     -11.009   9.915  68.127  1.00  0.00    -0.251 OA 
HETATM   14  N   UNL     1     -10.717   8.561  68.336  1.00  0.00    -0.098 NA 
HETATM   15  C   UNL     1     -10.911  10.516  69.347  1.00  0.00    -0.250 A  
HETATM   16  N   UNL     1     -10.514   9.693  70.292  1.00  0.00    -0.262 NA 
BRANCH  15  17
HETATM   17  C   UNL     1     -11.360  11.899  69.498  1.00  0.00    -0.306 A  
HETATM   18  C   UNL     1     -11.056  12.940  68.601  1.00  0.00    -0.307 A  
HETATM   19  C   UNL     1     -11.548  14.245  68.835  1.00  0.00    -0.305 A  
HETATM   20  N   UNL     1     -11.214  15.320  67.898  1.00  0.00    -0.321 N  
HETATM   21  C   UNL     1     -12.351  14.515  69.952  1.00  0.00    -0.298 A  
HETATM   22  O   UNL     1     -12.890  15.730  70.292  1.00  0.00    -0.575 OA 
HETATM   23  O   UNL     1     -11.645  16.457  68.152  1.00  0.00    -0.221 OA 
HETATM   24  O   UNL     1     -10.523  15.036  66.910  1.00  0.00    -0.269 OA 
HETATM   25  C   UNL     1     -12.658  13.472  70.816  1.00  0.00    -0.309 A  
HETATM   26  H   UNL     1     -13.434  15.913  71.049  1.00  0.00     0.000 HD 
HETATM   27  C   UNL     1     -12.179  12.190  70.603  1.00  0.00    -0.392 A  
HETATM   28  O   UNL     1     -13.451  13.692  71.909  1.00  0.00    -0.383 OA 
HETATM   29  H   UNL     1     -13.661  12.979  72.501  1.00  0.00     0.000 HD 
ENDBRANCH  15  17
ENDBRANCH   3  12
TORSDOF 2
ENDMDL
MODEL       94
REMARK 921   NORMALIZED FREE ENERGY PREDICTED BY IDOCK:   -6.01 KCAL/MOL
REMARK 922        TOTAL FREE ENERGY PREDICTED BY IDOCK:   -7.30 KCAL/MOL
REMARK 923 INTER-LIGAND FREE ENERGY PREDICTED BY IDOCK:   -6.69 KCAL/MOL
REMARK 924 INTRA-LIGAND FREE ENERGY PREDICTED BY IDOCK:   -0.61 KCAL/MOL
REMARK 927      BINDING AFFINITY PREDICTED BY RF-SCORE:    0.00 PKD
ROOT
HETATM    1  C   UNL     1      -9.665   6.050  70.891  1.00  0.00    -0.207 C  
HETATM    2  C   UNL     1      -9.475   5.552  69.472  1.00  0.00    -0.185 A  
HETATM    3  C   UNL     1      -9.302   6.416  68.354  1.00  0.00    -0.121 A  
HETATM    4 CL   UNL     1      -9.610   3.073  70.628  1.00  0.00    -0.230 Cl 
HETATM    5  C   UNL     1      -9.160   5.843  67.066  1.00  0.00    -0.116 A  
HETATM    6  C   UNL     1      -9.315   2.114  67.757  1.00  0.00    -0.197 C  
HETATM    7 CL   UNL     1      -8.894   6.832  65.648  1.00  0.00    -0.095 Cl 
HETATM    8  N   UNL     1      -9.184   4.442  66.889  1.00  0.00    -0.130 NA 
HETATM    9  C   UNL     1      -9.325   3.599  67.991  1.00  0.00    -0.183 A  
HETATM   10  O   UNL     1      -9.061   3.934  65.721  1.00  0.00    -0.132 OA 
HETATM   11  C   UNL     1      -9.463   4.155  69.269  1.00  0.00    -0.188 A  
ENDROOT
BRANCH   3  12
HETATM   12  C   UNL     1      -9.232   7.870  68.540  1.00  0.00    -0.138 A  
HETATM   13  O   UNL     1      -8.545   9.913  68.758  1.00  0.00    -0.120 OA 
HETATM   14  N   UNL     1      -8.116   8.580  68.783  1.00  0.00    -0.119 NA 
HETATM   15  C   UNL     1      -9.878   9.877  68.476  1.00  0.00    -0.156 A  
HETATM   16  N   UNL     1     -10.351   8.653  68.396  1.00  0.00    -0.207 NA 
BRANCH  15  17
HETATM   17  C   UNL     1     -10.577  11.125  68.179  1.00  0.00    -0.227 A  
HETATM   18  C   UNL     1     -11.231  11.405  66.964  1.00  0.00    -0.350 A  
HETATM   19  C   UNL     1     -11.888  12.645  66.780  1.00  0.00    -0.370 A  
HETATM   20  N   UNL     1     -12.554  12.924  65.506  1.00  0.00    -0.409 N  
HETATM   21  C   UNL     1     -11.905  13.601  67.804  1.00  0.00    -0.368 A  
HETATM   22  O   UNL     1     -12.503  14.835  67.754  1.00  0.00    -0.533 OA 
HETATM   23  O   UNL     1     -13.098  14.034  65.375  1.00  0.00    -0.763 OA 
HETATM   24  O   UNL     1     -12.538  12.043  64.636  1.00  0.00    -0.394 OA 
HETATM   25  C   UNL     1     -11.272  13.302  69.004  1.00  0.00    -0.270 A  
HETATM   26  H   UNL     1     -12.515  15.483  68.448  1.00  0.00     0.000 HD 
HETATM   27  C   UNL     1     -10.621  12.095  69.196  1.00  0.00    -0.046 A  
HETATM   28  O   UNL     1     -11.280  14.203  70.032  1.00  0.00    -0.441 OA 
HETATM   29  H   UNL     1     -10.847  13.998  70.853  1.00  0.00     0.000 HD 
ENDBRANCH  15  17
ENDBRANCH   3  12
TORSDOF 2
ENDMDL
MODEL       95
REMARK 921   NORMALIZED FREE ENERGY PREDICTED BY IDOCK:   -5.99 KCAL/MOL
REMARK 922        TOTAL FREE ENERGY PREDICTED BY IDOCK:   -7.29 KCAL/MOL
REMARK 923 INTER-LIGAND FREE ENERGY PREDICTED BY IDOCK:   -7.05 KCAL/MOL
REMARK 924 INTRA-LIGAND FREE ENERGY PREDICTED BY IDOCK:   -0.24 KCAL/MOL
REMARK 927      BINDING AFFINITY PREDICTED BY RF-SCORE:    0.00 PKD
ROOT
HETATM    1  C   UNL     1      -9.850  10.931  66.470  1.00  0.00    -0.245 C  
HETATM    2  C   UNL     1      -9.023  10.418  67.632  1.00  0.00    -0.139 A  
HETATM    3  C   UNL     1      -8.033  11.197  68.295  1.00  0.00    -0.127 A  
HETATM    4 CL   UNL     1     -10.520   8.145  67.323  1.00  0.00    -0.370 Cl 
HETATM    5  C   UNL     1      -7.299  10.608  69.353  1.00  0.00    -0.133 A  
HETATM    6  C   UNL     1      -8.782   7.124  69.600  1.00  0.00    -0.141 C  
HETATM    7 CL   UNL     1      -6.099  11.512  70.251  1.00  0.00    -0.162 Cl 
HETATM    8  N   UNL     1      -7.545   9.276  69.754  1.00  0.00    -0.073 NA 
HETATM    9  C   UNL     1      -8.535   8.527  69.121  1.00  0.00    -0.125 A  
HETATM   10  O   UNL     1      -6.873   8.751  70.708  1.00  0.00    -0.043 OA 
HETATM   11  C   UNL     1      -9.270   9.100  68.075  1.00  0.00    -0.134 A  
ENDROOT
BRANCH   3  12
HETATM   12  C   UNL     1      -7.806  12.596  67.911  1.00  0.00    -0.154 A  
HETATM   13  O   UNL     1      -6.979  14.429  67.105  1.00  0.00    -0.173 OA 
HETATM   14  N   UNL     1      -6.659  13.104  67.429  1.00  0.00    -0.197 NA 
HETATM   15  C   UNL     1      -8.301  14.582  67.403  1.00  0.00    -0.200 A  
HETATM   16  N   UNL     1      -8.829  13.511  67.952  1.00  0.00    -0.179 NA 
BRANCH  15  17
HETATM   17  C   UNL     1      -8.988  15.802  66.983  1.00  0.00    -0.247 A  
HETATM   18  C   UNL     1      -8.902  17.038  67.653  1.00  0.00    -0.220 A  
HETATM   19  C   UNL     1      -9.603  18.163  67.158  1.00  0.00    -0.277 A  
HETATM   20  N   UNL     1      -9.511  19.439  67.871  1.00  0.00    -0.318 N  
HETATM   21  C   UNL     1     -10.378  18.066  65.995  1.00  0.00    -0.331 A  
HETATM   22  O   UNL     1     -11.102  19.076  65.413  1.00  0.00    -0.352 OA 
HETATM   23  O   UNL     1     -10.160  20.396  67.419  1.00  0.00    -0.417 OA 
HETATM   24  O   UNL     1      -8.795  19.490  68.881  1.00  0.00    -0.355 OA 
HETATM   25  C   UNL     1     -10.436  16.844  65.336  1.00  0.00    -0.154 A  
HETATM   26  H   UNL     1     -11.627  19.010  64.624  1.00  0.00     0.000 HD 
HETATM   27  C   UNL     1      -9.761  15.733  65.811  1.00  0.00    -0.372 A  
HETATM   28  O   UNL     1     -11.170  16.713  64.189  1.00  0.00    -1.410 OA 
HETATM   29  H   UNL     1     -11.211  15.877  63.738  1.00  0.00     0.000 HD 
ENDBRANCH  15  17
ENDBRANCH   3  12
TORSDOF 2
ENDMDL
MODEL       96
REMARK 921   NORMALIZED FREE ENERGY PREDICTED BY IDOCK:   -5.98 KCAL/MOL
REMARK 922        TOTAL FREE ENERGY PREDICTED BY IDOCK:   -7.27 KCAL/MOL
REMARK 923 INTER-LIGAND FREE ENERGY PREDICTED BY IDOCK:   -6.68 KCAL/MOL
REMARK 924 INTRA-LIGAND FREE ENERGY PREDICTED BY IDOCK:   -0.59 KCAL/MOL
REMARK 927      BINDING AFFINITY PREDICTED BY RF-SCORE:    0.00 PKD
ROOT
HETATM    1  C   UNL     1      -7.676   9.362  67.733  1.00  0.00    -0.088 C  
HETATM    2  C   UNL     1      -7.928   9.837  66.315  1.00  0.00    -0.109 A  
HETATM    3  C   UNL     1      -9.157  10.415  65.889  1.00  0.00    -0.192 A  
HETATM    4 CL   UNL     1      -5.338   9.054  65.896  1.00  0.00    -0.040 Cl 
HETATM    5  C   UNL     1      -9.295  10.799  64.533  1.00  0.00    -0.236 A  
HETATM    6  C   UNL     1      -5.912   9.938  63.043  1.00  0.00    -0.115 C  
HETATM    7 CL   UNL     1     -10.753  11.561  63.939  1.00  0.00    -0.421 Cl 
HETATM    8  N   UNL     1      -8.234  10.621  63.617  1.00  0.00    -0.070 NA 
HETATM    9  C   UNL     1      -7.023  10.081  64.046  1.00  0.00    -0.124 A  
HETATM   10  O   UNL     1      -8.370  10.966  62.392  1.00  0.00    -0.226 OA 
HETATM   11  C   UNL     1      -6.874   9.700  65.386  1.00  0.00    -0.094 A  
ENDROOT
BRANCH   3  12
HETATM   12  C   UNL     1     -10.245  10.643  66.848  1.00  0.00    -0.223 A  
HETATM   13  O   UNL     1     -11.890  10.387  68.234  1.00  0.00    -0.324 OA 
HETATM   14  N   UNL     1     -11.158   9.735  67.233  1.00  0.00    -0.075 NA 
HETATM   15  C   UNL     1     -11.328  11.621  68.371  1.00  0.00    -0.279 A  
HETATM   16  N   UNL     1     -10.363  11.843  67.506  1.00  0.00    -0.198 NA 
BRANCH  15  17
HETATM   17  C   UNL     1     -11.740  12.472  69.486  1.00  0.00    -0.375 A  
HETATM   18  C   UNL     1     -11.464  13.849  69.585  1.00  0.00    -0.310 A  
HETATM   19  C   UNL     1     -11.917  14.584  70.705  1.00  0.00    -0.322 A  
HETATM   20  N   UNL     1     -11.613  16.014  70.798  1.00  0.00    -0.398 N  
HETATM   21  C   UNL     1     -12.652  13.958  71.720  1.00  0.00    -0.254 A  
HETATM   22  O   UNL     1     -13.147  14.554  72.853  1.00  0.00    -0.467 OA 
HETATM   23  O   UNL     1     -12.007  16.619  71.809  1.00  0.00    -0.252 OA 
HETATM   24  O   UNL     1     -10.983  16.536  69.869  1.00  0.00    -0.349 OA 
HETATM   25  C   UNL     1     -12.932  12.603  71.598  1.00  0.00    -0.299 A  
HETATM   26  H   UNL     1     -13.645  14.129  73.541  1.00  0.00     0.000 HD 
HETATM   27  C   UNL     1     -12.491  11.868  70.510  1.00  0.00    -0.301 A  
HETATM   28  O   UNL     1     -13.660  11.958  72.560  1.00  0.00    -0.540 OA 
HETATM   29  H   UNL     1     -13.851  11.031  72.477  1.00  0.00     0.000 HD 
ENDBRANCH  15  17
ENDBRANCH   3  12
TORSDOF 2
ENDMDL
MODEL       97
REMARK 921   NORMALIZED FREE ENERGY PREDICTED BY IDOCK:   -5.98 KCAL/MOL
REMARK 922        TOTAL FREE ENERGY PREDICTED BY IDOCK:   -7.27 KCAL/MOL
REMARK 923 INTER-LIGAND FREE ENERGY PREDICTED BY IDOCK:   -6.82 KCAL/MOL
REMARK 924 INTRA-LIGAND FREE ENERGY PREDICTED BY IDOCK:   -0.45 KCAL/MOL
REMARK 927      BINDING AFFINITY PREDICTED BY RF-SCORE:    0.00 PKD
ROOT
HETATM    1  C   UNL     1      -7.383   8.894  71.712  1.00  0.00    -0.020 C  
HETATM    2  C   UNL     1      -7.997   7.578  71.274  1.00  0.00    -0.095 A  
HETATM    3  C   UNL     1      -9.299   7.470  70.708  1.00  0.00    -0.162 A  
HETATM    4 CL   UNL     1      -5.596   6.523  72.061  1.00  0.00    -0.035 Cl 
HETATM    5  C   UNL     1      -9.785   6.187  70.358  1.00  0.00    -0.169 A  
HETATM    6  C   UNL     1      -6.894   3.895  71.250  1.00  0.00    -0.031 C  
HETATM    7 CL   UNL     1     -11.354   5.972  69.614  1.00  0.00    -0.444 Cl 
HETATM    8  N   UNL     1      -8.994   5.033  70.557  1.00  0.00    -0.122 NA 
HETATM    9  C   UNL     1      -7.709   5.147  71.084  1.00  0.00    -0.096 A  
HETATM   10  O   UNL     1      -9.445   3.877  70.243  1.00  0.00    -0.152 OA 
HETATM   11  C   UNL     1      -7.217   6.412  71.431  1.00  0.00    -0.079 A  
ENDROOT
BRANCH   3  12
HETATM   12  C   UNL     1     -10.105   8.672  70.458  1.00  0.00    -0.196 A  
HETATM   13  O   UNL     1     -11.218  10.517  70.675  1.00  0.00    -0.316 OA 
HETATM   14  N   UNL     1     -10.672   9.448  71.398  1.00  0.00    -0.352 NA 
HETATM   15  C   UNL     1     -10.902  10.292  69.369  1.00  0.00    -0.245 A  
HETATM   16  N   UNL     1     -10.278   9.150  69.183  1.00  0.00    -0.201 NA 
BRANCH  15  17
HETATM   17  C   UNL     1     -11.156  11.341  68.383  1.00  0.00    -0.296 A  
HETATM   18  C   UNL     1     -11.011  11.182  66.992  1.00  0.00    -0.348 A  
HETATM   19  C   UNL     1     -11.291  12.263  66.122  1.00  0.00    -0.353 A  
HETATM   20  N   UNL     1     -11.125  12.084  64.678  1.00  0.00    -0.312 N  
HETATM   21  C   UNL     1     -11.725  13.494  66.630  1.00  0.00    -0.387 A  
HETATM   22  O   UNL     1     -12.029  14.614  65.898  1.00  0.00    -0.332 OA 
HETATM   23  O   UNL     1     -11.358  13.064  63.949  1.00  0.00    -0.392 OA 
HETATM   24  O   UNL     1     -10.764  10.973  64.266  1.00  0.00    -0.368 OA 
HETATM   25  C   UNL     1     -11.882  13.628  68.004  1.00  0.00    -0.362 A  
HETATM   26  H   UNL     1     -12.324  15.449  66.243  1.00  0.00     0.000 HD 
HETATM   27  C   UNL     1     -11.606  12.581  68.868  1.00  0.00    -0.364 A  
HETATM   28  O   UNL     1     -12.318  14.809  68.537  1.00  0.00    -0.590 OA 
HETATM   29  H   UNL     1     -12.425  14.901  69.477  1.00  0.00     0.000 HD 
ENDBRANCH  15  17
ENDBRANCH   3  12
TORSDOF 2
ENDMDL
MODEL       98
REMARK 921   NORMALIZED FREE ENERGY PREDICTED BY IDOCK:   -5.97 KCAL/MOL
REMARK 922        TOTAL FREE ENERGY PREDICTED BY IDOCK:   -7.26 KCAL/MOL
REMARK 923 INTER-LIGAND FREE ENERGY PREDICTED BY IDOCK:   -6.67 KCAL/MOL
REMARK 924 INTRA-LIGAND FREE ENERGY PREDICTED BY IDOCK:   -0.59 KCAL/MOL
REMARK 927      BINDING AFFINITY PREDICTED BY RF-SCORE:    0.00 PKD
ROOT
HETATM    1  C   UNL     1     -10.694   8.791  69.719  1.00  0.00    -0.220 C  
HETATM    2  C   UNL     1      -9.300   8.218  69.550  1.00  0.00    -0.158 A  
HETATM    3  C   UNL     1      -8.488   8.456  68.406  1.00  0.00    -0.135 A  
HETATM    4 CL   UNL     1      -9.743   7.161  72.037  1.00  0.00    -0.170 Cl 
HETATM    5  C   UNL     1      -7.210   7.848  68.339  1.00  0.00    -0.089 A  
HETATM    6  C   UNL     1      -6.981   5.960  71.623  1.00  0.00    -0.073 C  
HETATM    7 CL   UNL     1      -6.130   8.129  66.992  1.00  0.00    -0.053 Cl 
HETATM    8  N   UNL     1      -6.743   7.025  69.389  1.00  0.00    -0.048 NA 
HETATM    9  C   UNL     1      -7.531   6.818  70.519  1.00  0.00    -0.086 A  
HETATM   10  O   UNL     1      -5.590   6.476  69.317  1.00  0.00    -0.013 OA 
HETATM   11  C   UNL     1      -8.795   7.418  70.597  1.00  0.00    -0.150 A  
ENDROOT
BRANCH   3  12
HETATM   12  C   UNL     1      -8.951   9.347  67.335  1.00  0.00    -0.124 A  
HETATM   13  O   UNL     1      -9.969  10.188  65.618  1.00  0.00    -0.257 OA 
HETATM   14  N   UNL     1      -9.683   8.981  66.268  1.00  0.00    -0.256 NA 
HETATM   15  C   UNL     1      -9.400  11.169  66.373  1.00  0.00    -0.188 A  
HETATM   16  N   UNL     1      -8.720  10.699  67.394  1.00  0.00    -0.126 NA 
BRANCH  15  17
HETATM   17  C   UNL     1      -9.698  12.567  66.066  1.00  0.00    -0.247 A  
HETATM   18  C   UNL     1     -10.695  12.993  65.168  1.00  0.00    -0.324 A  
HETATM   19  C   UNL     1     -10.908  14.375  64.948  1.00  0.00    -0.416 A  
HETATM   20  N   UNL     1     -11.942  14.801  64.002  1.00  0.00    -0.244 N  
HETATM   21  C   UNL     1     -10.142  15.332  65.627  1.00  0.00    -0.371 A  
HETATM   22  O   UNL     1     -10.249  16.694  65.505  1.00  0.00    -0.550 OA 
HETATM   23  O   UNL     1     -12.082  16.022  63.819  1.00  0.00    -0.882 OA 
HETATM   24  O   UNL     1     -12.614  13.926  63.441  1.00  0.00    -0.853 OA 
HETATM   25  C   UNL     1      -9.177  14.895  66.524  1.00  0.00    -0.285 A  
HETATM   26  H   UNL     1      -9.730  17.343  65.965  1.00  0.00     0.000 HD 
HETATM   27  C   UNL     1      -8.952  13.546  66.746  1.00  0.00    -0.188 A  
HETATM   28  O   UNL     1      -8.419  15.798  67.218  1.00  0.00    -0.167 OA 
HETATM   29  H   UNL     1      -7.758  15.499  67.831  1.00  0.00     0.000 HD 
ENDBRANCH  15  17
ENDBRANCH   3  12
TORSDOF 2
ENDMDL
MODEL       99
REMARK 921   NORMALIZED FREE ENERGY PREDICTED BY IDOCK:   -5.96 KCAL/MOL
REMARK 922        TOTAL FREE ENERGY PREDICTED BY IDOCK:   -7.25 KCAL/MOL
REMARK 923 INTER-LIGAND FREE ENERGY PREDICTED BY IDOCK:   -6.71 KCAL/MOL
REMARK 924 INTRA-LIGAND FREE ENERGY PREDICTED BY IDOCK:   -0.54 KCAL/MOL
REMARK 927      BINDING AFFINITY PREDICTED BY RF-SCORE:    0.00 PKD
ROOT
HETATM    1  C   UNL     1     -11.285  11.673  68.670  1.00  0.00    -0.308 C  
HETATM    2  C   UNL     1     -10.670  10.901  67.520  1.00  0.00    -0.299 A  
HETATM    3  C   UNL     1     -10.351  11.487  66.263  1.00  0.00    -0.280 A  
HETATM    4 CL   UNL     1     -10.716   8.803  69.279  1.00  0.00    -0.206 Cl 
HETATM    5  C   UNL     1      -9.804  10.666  65.247  1.00  0.00    -0.275 A  
HETATM    6  C   UNL     1      -9.562   7.268  66.921  1.00  0.00    -0.225 C  
HETATM    7 CL   UNL     1      -9.340  11.318  63.691  1.00  0.00    -0.209 Cl 
HETATM    8  N   UNL     1      -9.569   9.291  65.474  1.00  0.00    -0.260 NA 
HETATM    9  C   UNL     1      -9.856   8.728  66.716  1.00  0.00    -0.247 A  
HETATM   10  O   UNL     1      -9.079   8.556  64.548  1.00  0.00     0.167 OA 
HETATM   11  C   UNL     1     -10.395   9.532  67.729  1.00  0.00    -0.239 A  
ENDROOT
BRANCH   3  12
HETATM   12  C   UNL     1     -10.552  12.925  66.039  1.00  0.00    -0.270 A  
HETATM   13  O   UNL     1     -11.418  14.892  65.772  1.00  0.00    -0.342 OA 
HETATM   14  N   UNL     1     -11.727  13.525  65.784  1.00  0.00    -0.332 NA 
HETATM   15  C   UNL     1     -10.086  14.981  66.046  1.00  0.00    -0.301 A  
HETATM   16  N   UNL     1      -9.506  13.807  66.156  1.00  0.00    -0.212 NA 
BRANCH  15  17
HETATM   17  C   UNL     1      -9.500  16.295  66.307  1.00  0.00    -0.347 A  
HETATM   18  C   UNL     1     -10.238  17.447  66.639  1.00  0.00    -0.324 A  
HETATM   19  C   UNL     1      -9.570  18.671  66.881  1.00  0.00    -0.310 A  
HETATM   20  N   UNL     1     -10.353  19.864  67.215  1.00  0.00    -0.434 N  
HETATM   21  C   UNL     1      -8.173  18.749  66.806  1.00  0.00    -0.278 A  
HETATM   22  O   UNL     1      -7.409  19.869  67.017  1.00  0.00    -0.226 OA 
HETATM   23  O   UNL     1      -9.731  20.924  67.396  1.00  0.00    -0.456 OA 
HETATM   24  O   UNL     1     -11.583  19.748  67.296  1.00  0.00     0.253 OA 
HETATM   25  C   UNL     1      -7.459  17.599  66.497  1.00  0.00    -0.264 A  
HETATM   26  H   UNL     1      -6.461  19.921  66.966  1.00  0.00     0.000 HD 
HETATM   27  C   UNL     1      -8.099  16.395  66.251  1.00  0.00    -0.311 A  
HETATM   28  O   UNL     1      -6.094  17.630  66.428  1.00  0.00    -0.174 OA 
HETATM   29  H   UNL     1      -5.606  16.843  66.217  1.00  0.00     0.000 HD 
ENDBRANCH  15  17
ENDBRANCH   3  12
TORSDOF 2
ENDMDL
MODEL      100
REMARK 921   NORMALIZED FREE ENERGY PREDICTED BY IDOCK:   -5.95 KCAL/MOL
REMARK 922        TOTAL FREE ENERGY PREDICTED BY IDOCK:   -7.24 KCAL/MOL
REMARK 923 INTER-LIGAND FREE ENERGY PREDICTED BY IDOCK:   -6.69 KCAL/MOL
REMARK 924 INTRA-LIGAND FREE ENERGY PREDICTED BY IDOCK:   -0.55 KCAL/MOL
REMARK 927      BINDING AFFINITY PREDICTED BY RF-SCORE:    0.00 PKD
ROOT
HETATM    1  C   UNL     1     -11.341   6.066  69.017  1.00  0.00    -0.141 C  
HETATM    2  C   UNL     1      -9.885   6.479  68.926  1.00  0.00    -0.142 A  
HETATM    3  C   UNL     1      -9.389   7.720  69.417  1.00  0.00    -0.152 A  
HETATM    4 CL   UNL     1      -9.555   4.016  67.776  1.00  0.00    -0.223 Cl 
HETATM    5  C   UNL     1      -8.013   8.015  69.255  1.00  0.00    -0.116 A  
HETATM    6  C   UNL     1      -6.660   4.916  67.533  1.00  0.00    -0.047 C  
HETATM    7 CL   UNL     1      -7.315   9.496  69.873  1.00  0.00    -0.088 Cl 
HETATM    8  N   UNL     1      -7.144   7.098  68.624  1.00  0.00    -0.082 NA 
HETATM    9  C   UNL     1      -7.628   5.873  68.171  1.00  0.00    -0.089 A  
HETATM   10  O   UNL     1      -5.903   7.377  68.477  1.00  0.00    -0.022 OA 
HETATM   11  C   UNL     1      -8.986   5.568  68.329  1.00  0.00    -0.108 A  
ENDROOT
BRANCH   3  12
HETATM   12  C   UNL     1     -10.281   8.655  70.114  1.00  0.00    -0.192 A  
HETATM   13  O   UNL     1     -11.417   9.726  71.616  1.00  0.00    -0.364 OA 
HETATM   14  N   UNL     1     -10.698   8.545  71.386  1.00  0.00    -0.234 NA 
HETATM   15  C   UNL     1     -11.340  10.446  70.461  1.00  0.00    -0.341 A  
HETATM   16  N   UNL     1     -10.710   9.807  69.500  1.00  0.00    -0.223 NA 
BRANCH  15  17
HETATM   17  C   UNL     1     -11.820  11.826  70.449  1.00  0.00    -0.362 A  
HETATM   18  C   UNL     1     -11.411  12.806  69.524  1.00  0.00    -0.293 A  
HETATM   19  C   UNL     1     -11.945  14.115  69.595  1.00  0.00    -0.336 A  
HETATM   20  N   UNL     1     -11.502  15.126  68.632  1.00  0.00    -0.308 N  
HETATM   21  C   UNL     1     -12.891  14.448  70.574  1.00  0.00    -0.294 A  
HETATM   22  O   UNL     1     -13.483  15.673  70.749  1.00  0.00    -0.785 OA 
HETATM   23  O   UNL     1     -11.976  16.269  68.743  1.00  0.00    -0.205 OA 
HETATM   24  O   UNL     1     -10.684  14.786  67.767  1.00  0.00    -0.260 OA 
HETATM   25  C   UNL     1     -13.298  13.464  71.466  1.00  0.00    -0.265 A  
HETATM   26  H   UNL     1     -14.125  15.898  71.413  1.00  0.00     0.000 HD 
HETATM   27  C   UNL     1     -12.780  12.180  71.413  1.00  0.00    -0.368 A  
HETATM   28  O   UNL     1     -14.230  13.745  72.426  1.00  0.00    -0.648 OA 
HETATM   29  H   UNL     1     -14.509  13.072  73.036  1.00  0.00     0.000 HD 
ENDBRANCH  15  17
ENDBRANCH   3  12
TORSDOF 2
ENDMDL
MODEL      101
REMARK 921   NORMALIZED FREE ENERGY PREDICTED BY IDOCK:   -5.92 KCAL/MOL
REMARK 922        TOTAL FREE ENERGY PREDICTED BY IDOCK:   -7.21 KCAL/MOL
REMARK 923 INTER-LIGAND FREE ENERGY PREDICTED BY IDOCK:   -6.72 KCAL/MOL
REMARK 924 INTRA-LIGAND FREE ENERGY PREDICTED BY IDOCK:   -0.48 KCAL/MOL
REMARK 927      BINDING AFFINITY PREDICTED BY RF-SCORE:    0.00 PKD
ROOT
HETATM    1  C   UNL     1      -9.461  12.230  66.583  1.00  0.00    -0.227 C  
HETATM    2  C   UNL     1      -8.750  11.594  67.761  1.00  0.00    -0.152 A  
HETATM    3  C   UNL     1      -7.685  12.222  68.466  1.00  0.00    -0.118 A  
HETATM    4 CL   UNL     1     -10.529   9.550  67.366  1.00  0.00    -0.322 Cl 
HETATM    5  C   UNL     1      -7.072  11.525  69.536  1.00  0.00     0.018 A  
HETATM    6  C   UNL     1      -9.020   8.271  69.676  1.00  0.00    -0.149 C  
HETATM    7 CL   UNL     1      -5.791  12.246  70.485  1.00  0.00    -0.162 Cl 
HETATM    8  N   UNL     1      -7.509  10.233  69.905  1.00  0.00    -0.166 NA 
HETATM    9  C   UNL     1      -8.570   9.634  69.229  1.00  0.00    -0.153 A  
HETATM   10  O   UNL     1      -6.945   9.609  70.869  1.00  0.00    -0.231 OA 
HETATM   11  C   UNL     1      -9.186  10.316  68.172  1.00  0.00    -0.136 A  
ENDROOT
BRANCH   3  12
HETATM   12  C   UNL     1      -7.259  13.583  68.115  1.00  0.00    -0.117 A  
HETATM   13  O   UNL     1      -6.240  15.293  67.261  1.00  0.00    -0.321 OA 
HETATM   14  N   UNL     1      -6.133  13.910  67.459  1.00  0.00    -0.346 NA 
HETATM   15  C   UNL     1      -7.438  15.660  67.798  1.00  0.00    -0.145 A  
HETATM   16  N   UNL     1      -8.064  14.663  68.382  1.00  0.00    -0.140 NA 
BRANCH  15  17
HETATM   17  C   UNL     1      -7.936  17.015  67.567  1.00  0.00    -0.189 A  
HETATM   18  C   UNL     1      -8.976  17.342  66.677  1.00  0.00    -0.274 A  
HETATM   19  C   UNL     1      -9.390  18.688  66.533  1.00  0.00    -0.320 A  
HETATM   20  N   UNL     1     -10.467  19.014  65.595  1.00  0.00    -0.307 N  
HETATM   21  C   UNL     1      -8.781  19.705  67.280  1.00  0.00    -0.312 A  
HETATM   22  O   UNL     1      -9.086  21.042  67.235  1.00  0.00    -0.568 OA 
HETATM   23  O   UNL     1     -10.784  20.209  65.480  1.00  0.00    -0.371 OA 
HETATM   24  O   UNL     1     -10.997  18.084  64.972  1.00  0.00    -0.748 OA 
HETATM   25  C   UNL     1      -7.769  19.362  68.168  1.00  0.00    -0.307 A  
HETATM   26  H   UNL     1      -8.674  21.731  67.742  1.00  0.00     0.000 HD 
HETATM   27  C   UNL     1      -7.350  18.050  68.315  1.00  0.00    -0.259 A  
HETATM   28  O   UNL     1      -7.161  20.324  68.926  1.00  0.00    -0.200 OA 
HETATM   29  H   UNL     1      -6.468  20.090  69.534  1.00  0.00     0.000 HD 
ENDBRANCH  15  17
ENDBRANCH   3  12
TORSDOF 2
ENDMDL
MODEL      102
REMARK 921   NORMALIZED FREE ENERGY PREDICTED BY IDOCK:   -5.91 KCAL/MOL
REMARK 922        TOTAL FREE ENERGY PREDICTED BY IDOCK:   -7.19 KCAL/MOL
REMARK 923 INTER-LIGAND FREE ENERGY PREDICTED BY IDOCK:   -6.98 KCAL/MOL
REMARK 924 INTRA-LIGAND FREE ENERGY PREDICTED BY IDOCK:   -0.21 KCAL/MOL
REMARK 927      BINDING AFFINITY PREDICTED BY RF-SCORE:    0.00 PKD
ROOT
HETATM    1  C   UNL     1     -11.447  15.950  68.646  1.00  0.00    -0.391 C  
HETATM    2  C   UNL     1     -10.001  15.762  68.231  1.00  0.00    -0.221 A  
HETATM    3  C   UNL     1      -9.436  14.496  67.908  1.00  0.00    -0.212 A  
HETATM    4 CL   UNL     1      -9.872  18.486  68.484  1.00  0.00    -0.391 Cl 
HETATM    5  C   UNL     1      -8.065  14.431  67.558  1.00  0.00    -0.190 A  
HETATM    6  C   UNL     1      -6.956  18.056  67.731  1.00  0.00    -0.209 C  
HETATM    7 CL   UNL     1      -7.306  12.922  67.101  1.00  0.00    -0.066 Cl 
HETATM    8  N   UNL     1      -7.270  15.598  67.522  1.00  0.00    -0.172 NA 
HETATM    9  C   UNL     1      -7.834  16.839  67.811  1.00  0.00    -0.176 A  
HETATM   10  O   UNL     1      -6.030  15.528  67.211  1.00  0.00    -0.326 OA 
HETATM   11  C   UNL     1      -9.190  16.915  68.155  1.00  0.00    -0.234 A  
ENDROOT
BRANCH   3  12
HETATM   12  C   UNL     1     -10.271  13.288  67.900  1.00  0.00    -0.233 A  
HETATM   13  O   UNL     1     -11.717  11.756  67.394  1.00  0.00    -0.532 OA 
HETATM   14  N   UNL     1     -11.349  13.081  67.125  1.00  0.00    -0.290 NA 
HETATM   15  C   UNL     1     -10.804  11.285  68.290  1.00  0.00    -0.205 A  
HETATM   16  N   UNL     1      -9.942  12.200  68.672  1.00  0.00    -0.174 NA 
BRANCH  15  17
HETATM   17  C   UNL     1     -10.795   9.860  68.614  1.00  0.00    -0.244 A  
HETATM   18  C   UNL     1     -10.969   9.334  69.909  1.00  0.00    -0.231 A  
HETATM   19  C   UNL     1     -10.952   7.934  70.113  1.00  0.00    -0.233 A  
HETATM   20  N   UNL     1     -11.124   7.403  71.468  1.00  0.00    -0.237 N  
HETATM   21  C   UNL     1     -10.774   7.057  69.036  1.00  0.00    -0.210 A  
HETATM   22  O   UNL     1     -10.738   5.687  69.099  1.00  0.00    -0.276 OA 
HETATM   23  O   UNL     1     -11.079   6.170  71.610  1.00  0.00    -0.256 OA 
HETATM   24  O   UNL     1     -11.304   8.210  72.390  1.00  0.00    -0.336 OA 
HETATM   25  C   UNL     1     -10.623   7.592  67.762  1.00  0.00    -0.206 A  
HETATM   26  H   UNL     1     -10.618   5.092  68.367  1.00  0.00     0.000 HD 
HETATM   27  C   UNL     1     -10.632   8.960  67.547  1.00  0.00    -0.307 A  
HETATM   28  O   UNL     1     -10.462   6.768  66.682  1.00  0.00    -0.414 OA 
HETATM   29  H   UNL     1     -10.358   7.134  65.811  1.00  0.00     0.000 HD 
ENDBRANCH  15  17
ENDBRANCH   3  12
TORSDOF 2
ENDMDL
MODEL      103
REMARK 921   NORMALIZED FREE ENERGY PREDICTED BY IDOCK:   -5.88 KCAL/MOL
REMARK 922        TOTAL FREE ENERGY PREDICTED BY IDOCK:   -7.16 KCAL/MOL
REMARK 923 INTER-LIGAND FREE ENERGY PREDICTED BY IDOCK:   -6.57 KCAL/MOL
REMARK 924 INTRA-LIGAND FREE ENERGY PREDICTED BY IDOCK:   -0.60 KCAL/MOL
REMARK 927      BINDING AFFINITY PREDICTED BY RF-SCORE:    0.00 PKD
ROOT
HETATM    1  C   UNL     1     -10.549  15.475  67.648  1.00  0.00    -0.291 C  
HETATM    2  C   UNL     1     -11.151  14.929  68.928  1.00  0.00    -0.267 A  
HETATM    3  C   UNL     1     -11.623  13.593  69.065  1.00  0.00    -0.356 A  
HETATM    4 CL   UNL     1     -10.601  17.424  69.914  1.00  0.00     0.199 Cl 
HETATM    5  C   UNL     1     -12.194  13.196  70.299  1.00  0.00    -0.306 A  
HETATM    6  C   UNL     1     -11.894  16.319  72.435  1.00  0.00    -0.606 C  
HETATM    7 CL   UNL     1     -12.753  11.560  70.565  1.00  0.00    -0.246 Cl 
HETATM    8  N   UNL     1     -12.288  14.102  71.379  1.00  0.00    -0.352 NA 
HETATM    9  C   UNL     1     -11.799  15.400  71.249  1.00  0.00    -0.380 A  
HETATM   10  O   UNL     1     -12.810  13.734  72.488  1.00  0.00    -0.320 OA 
HETATM   11  C   UNL     1     -11.229  15.803  70.034  1.00  0.00    -0.342 A  
ENDROOT
BRANCH   3  12
HETATM   12  C   UNL     1     -11.485  12.637  67.959  1.00  0.00    -0.318 A  
HETATM   13  O   UNL     1     -11.736  11.540  66.109  1.00  0.00    -0.346 OA 
HETATM   14  N   UNL     1     -12.368  12.453  66.962  1.00  0.00    -0.266 NA 
HETATM   15  C   UNL     1     -10.519  11.281  66.665  1.00  0.00    -0.247 A  
HETATM   16  N   UNL     1     -10.347  11.880  67.822  1.00  0.00    -0.195 NA 
BRANCH  15  17
HETATM   17  C   UNL     1      -9.535  10.517  65.901  1.00  0.00    -0.236 A  
HETATM   18  C   UNL     1      -8.324  10.025  66.424  1.00  0.00    -0.126 A  
HETATM   19  C   UNL     1      -7.442   9.287  65.599  1.00  0.00    -0.094 A  
HETATM   20  N   UNL     1      -6.182   8.791  66.156  1.00  0.00    -0.058 N  
HETATM   21  C   UNL     1      -7.766   9.028  64.261  1.00  0.00    -0.123 A  
HETATM   22  O   UNL     1      -7.003   8.329  63.360  1.00  0.00    -0.083 OA 
HETATM   23  O   UNL     1      -5.424   8.169  65.393  1.00  0.00    -0.035 OA 
HETATM   24  O   UNL     1      -5.944   9.019  67.350  1.00  0.00    -0.049 OA 
HETATM   25  C   UNL     1      -8.974   9.504  63.765  1.00  0.00    -0.175 A  
HETATM   26  H   UNL     1      -7.223   8.153  62.452  1.00  0.00     0.000 HD 
HETATM   27  C   UNL     1      -9.844  10.232  64.559  1.00  0.00    -0.384 A  
HETATM   28  O   UNL     1      -9.333   9.259  62.469  1.00  0.00    -0.565 OA 
HETATM   29  H   UNL     1     -10.158   9.585  62.130  1.00  0.00     0.000 HD 
ENDBRANCH  15  17
ENDBRANCH   3  12
TORSDOF 2
ENDMDL
MODEL      104
REMARK 921   NORMALIZED FREE ENERGY PREDICTED BY IDOCK:   -5.86 KCAL/MOL
REMARK 922        TOTAL FREE ENERGY PREDICTED BY IDOCK:   -7.14 KCAL/MOL
REMARK 923 INTER-LIGAND FREE ENERGY PREDICTED BY IDOCK:   -6.57 KCAL/MOL
REMARK 924 INTRA-LIGAND FREE ENERGY PREDICTED BY IDOCK:   -0.56 KCAL/MOL
REMARK 927      BINDING AFFINITY PREDICTED BY RF-SCORE:    0.00 PKD
ROOT
HETATM    1  C   UNL     1     -12.141  12.680  64.080  1.00  0.00    -0.542 C  
HETATM    2  C   UNL     1     -11.171  13.391  65.003  1.00  0.00    -0.332 A  
HETATM    3  C   UNL     1     -10.233  12.710  65.829  1.00  0.00    -0.288 A  
HETATM    4 CL   UNL     1     -12.301  15.663  63.974  1.00  0.00    -0.049 Cl 
HETATM    5  C   UNL     1      -9.391  13.473  66.675  1.00  0.00    -0.245 A  
HETATM    6  C   UNL     1     -10.400  17.049  65.901  1.00  0.00    -0.310 C  
HETATM    7 CL   UNL     1      -8.178  12.718  67.685  1.00  0.00    -0.162 Cl 
HETATM    8  N   UNL     1      -9.471  14.884  66.697  1.00  0.00    -0.250 NA 
HETATM    9  C   UNL     1     -10.371  15.547  65.865  1.00  0.00    -0.347 A  
HETATM   10  O   UNL     1      -8.709  15.564  67.468  1.00  0.00    -0.164 OA 
HETATM   11  C   UNL     1     -11.206  14.802  65.022  1.00  0.00    -0.395 A  
ENDROOT
BRANCH   3  12
HETATM   12  C   UNL     1     -10.116  11.248  65.775  1.00  0.00    -0.247 A  
HETATM   13  O   UNL     1      -9.534   9.220  65.283  1.00  0.00    -0.245 OA 
HETATM   14  N   UNL     1      -9.463  10.545  64.833  1.00  0.00    -0.227 NA 
HETATM   15  C   UNL     1     -10.203   9.259  66.470  1.00  0.00    -0.246 A  
HETATM   16  N   UNL     1     -10.629  10.463  66.779  1.00  0.00    -0.230 NA 
BRANCH  15  17
HETATM   17  C   UNL     1     -10.261   8.053  67.295  1.00  0.00    -0.345 A  
HETATM   18  C   UNL     1      -9.983   6.753  66.830  1.00  0.00    -0.252 A  
HETATM   19  C   UNL     1     -10.060   5.652  67.716  1.00  0.00    -0.171 A  
HETATM   20  N   UNL     1      -9.778   4.305  67.214  1.00  0.00    -0.190 N  
HETATM   21  C   UNL     1     -10.400   5.841  69.061  1.00  0.00    -0.245 A  
HETATM   22  O   UNL     1     -10.508   4.864  70.018  1.00  0.00    -0.244 OA 
HETATM   23  O   UNL     1      -9.881   3.362  68.017  1.00  0.00    -0.072 OA 
HETATM   24  O   UNL     1      -9.457   4.183  66.024  1.00  0.00    -0.155 OA 
HETATM   25  C   UNL     1     -10.652   7.132  69.508  1.00  0.00    -0.234 A  
HETATM   26  H   UNL     1     -10.739   4.992  70.931  1.00  0.00     0.000 HD 
HETATM   27  C   UNL     1     -10.586   8.219  68.652  1.00  0.00    -0.144 A  
HETATM   28  O   UNL     1     -10.972   7.360  70.818  1.00  0.00    -0.244 OA 
HETATM   29  H   UNL     1     -11.144   8.243  71.124  1.00  0.00     0.000 HD 
ENDBRANCH  15  17
ENDBRANCH   3  12
TORSDOF 2
ENDMDL
MODEL      105
REMARK 921   NORMALIZED FREE ENERGY PREDICTED BY IDOCK:   -5.85 KCAL/MOL
REMARK 922        TOTAL FREE ENERGY PREDICTED BY IDOCK:   -7.12 KCAL/MOL
REMARK 923 INTER-LIGAND FREE ENERGY PREDICTED BY IDOCK:   -6.68 KCAL/MOL
REMARK 924 INTRA-LIGAND FREE ENERGY PREDICTED BY IDOCK:   -0.45 KCAL/MOL
REMARK 927      BINDING AFFINITY PREDICTED BY RF-SCORE:    0.00 PKD
ROOT
HETATM    1  C   UNL     1     -11.301  12.150  68.253  1.00  0.00    -0.343 C  
HETATM    2  C   UNL     1     -10.935  11.667  66.863  1.00  0.00    -0.342 A  
HETATM    3  C   UNL     1     -10.058  10.572  66.619  1.00  0.00    -0.275 A  
HETATM    4 CL   UNL     1     -12.636  13.647  66.037  1.00  0.00    -0.472 Cl 
HETATM    5  C   UNL     1      -9.762  10.223  65.278  1.00  0.00    -0.291 A  
HETATM    6  C   UNL     1     -11.809  12.706  63.266  1.00  0.00    -0.504 C  
HETATM    7 CL   UNL     1      -8.734   8.861  64.892  1.00  0.00    -0.204 Cl 
HETATM    8  N   UNL     1     -10.328  10.939  64.200  1.00  0.00    -0.366 NA 
HETATM    9  C   UNL     1     -11.208  11.992  64.445  1.00  0.00    -0.344 A  
HETATM   10  O   UNL     1     -10.050  10.619  62.993  1.00  0.00    -0.280 OA 
HETATM   11  C   UNL     1     -11.511  12.344  65.766  1.00  0.00    -0.370 A  
ENDROOT
BRANCH   3  12
HETATM   12  C   UNL     1      -9.504   9.797  67.736  1.00  0.00    -0.133 A  
HETATM   13  O   UNL     1      -8.469   9.187  69.538  1.00  0.00    -0.117 OA 
HETATM   14  N   UNL     1      -8.569  10.224  68.602  1.00  0.00    -0.121 NA 
HETATM   15  C   UNL     1      -9.376   8.244  69.156  1.00  0.00    -0.151 A  
HETATM   16  N   UNL     1      -9.986   8.546  68.032  1.00  0.00    -0.175 NA 
BRANCH  15  17
HETATM   17  C   UNL     1      -9.659   7.124  70.052  1.00  0.00    -0.164 A  
HETATM   18  C   UNL     1     -10.009   7.255  71.409  1.00  0.00    -0.193 A  
HETATM   19  C   UNL     1     -10.272   6.103  72.188  1.00  0.00    -0.186 A  
HETATM   20  N   UNL     1     -10.624   6.256  73.602  1.00  0.00    -0.272 N  
HETATM   21  C   UNL     1     -10.199   4.825  71.620  1.00  0.00    -0.179 A  
HETATM   22  O   UNL     1     -10.429   3.634  72.262  1.00  0.00    -0.123 OA 
HETATM   23  O   UNL     1     -10.824   5.220  74.258  1.00  0.00    -0.285 OA 
HETATM   24  O   UNL     1     -10.703   7.404  74.061  1.00  0.00    -0.254 OA 
HETATM   25  C   UNL     1      -9.872   4.714  70.274  1.00  0.00    -0.243 A  
HETATM   26  H   UNL     1     -10.380   2.768  71.876  1.00  0.00     0.000 HD 
HETATM   27  C   UNL     1      -9.606   5.832  69.500  1.00  0.00    -0.181 A  
HETATM   28  O   UNL     1      -9.805   3.485  69.678  1.00  0.00    -0.110 OA 
HETATM   29  H   UNL     1      -9.581   3.409  68.758  1.00  0.00     0.000 HD 
ENDBRANCH  15  17
ENDBRANCH   3  12
TORSDOF 2
ENDMDL
MODEL      106
REMARK 921   NORMALIZED FREE ENERGY PREDICTED BY IDOCK:   -5.84 KCAL/MOL
REMARK 922        TOTAL FREE ENERGY PREDICTED BY IDOCK:   -7.11 KCAL/MOL
REMARK 923 INTER-LIGAND FREE ENERGY PREDICTED BY IDOCK:   -6.97 KCAL/MOL
REMARK 924 INTRA-LIGAND FREE ENERGY PREDICTED BY IDOCK:   -0.14 KCAL/MOL
REMARK 927      BINDING AFFINITY PREDICTED BY RF-SCORE:    0.00 PKD
ROOT
HETATM    1  C   UNL     1     -10.776  15.583  69.947  1.00  0.00    -0.321 C  
HETATM    2  C   UNL     1     -10.946  15.160  68.500  1.00  0.00    -0.263 A  
HETATM    3  C   UNL     1     -11.205  13.818  68.102  1.00  0.00    -0.298 A  
HETATM    4 CL   UNL     1     -10.598  17.825  67.977  1.00  0.00    -0.387 Cl 
HETATM    5  C   UNL     1     -11.319  13.529  66.720  1.00  0.00    -0.328 A  
HETATM    6  C   UNL     1     -10.859  16.922  65.085  1.00  0.00    -0.105 C  
HETATM    7 CL   UNL     1     -11.684  11.916  66.149  1.00  0.00    -0.318 Cl 
HETATM    8  N   UNL     1     -11.188  14.549  65.752  1.00  0.00    -0.328 NA 
HETATM    9  C   UNL     1     -10.963  15.866  66.149  1.00  0.00    -0.126 A  
HETATM   10  O   UNL     1     -11.287  14.276  64.505  1.00  0.00    -0.369 OA 
HETATM   11  C   UNL     1     -10.851  16.164  67.513  1.00  0.00    -0.284 A  
ENDROOT
BRANCH   3  12
HETATM   12  C   UNL     1     -11.387  12.764  69.107  1.00  0.00    -0.281 A  
HETATM   13  O   UNL     1     -12.151  11.519  70.707  1.00  0.00    -0.364 OA 
HETATM   14  N   UNL     1     -12.280  12.780  70.111  1.00  0.00    -0.289 NA 
HETATM   15  C   UNL     1     -11.205  10.855  69.984  1.00  0.00    -0.263 A  
HETATM   16  N   UNL     1     -10.671  11.594  69.038  1.00  0.00    -0.202 NA 
BRANCH  15  17
HETATM   17  C   UNL     1     -10.990   9.430  70.232  1.00  0.00    -0.305 A  
HETATM   18  C   UNL     1     -10.971   8.835  71.508  1.00  0.00    -0.377 A  
HETATM   19  C   UNL     1     -10.762   7.442  71.638  1.00  0.00    -0.214 A  
HETATM   20  N   UNL     1     -10.735   6.840  72.973  1.00  0.00    -0.266 N  
HETATM   21  C   UNL     1     -10.585   6.638  70.504  1.00  0.00    -0.229 A  
HETATM   22  O   UNL     1     -10.375   5.282  70.493  1.00  0.00    -0.252 OA 
HETATM   23  O   UNL     1     -10.525   5.618  73.046  1.00  0.00    -0.191 OA 
HETATM   24  O   UNL     1     -10.921   7.580  73.949  1.00  0.00    -0.159 OA 
HETATM   25  C   UNL     1     -10.626   7.238  69.252  1.00  0.00    -0.221 A  
HETATM   26  H   UNL     1     -10.255   4.737  69.724  1.00  0.00     0.000 HD 
HETATM   27  C   UNL     1     -10.823   8.601  69.109  1.00  0.00    -0.060 A  
HETATM   28  O   UNL     1     -10.472   6.485  68.121  1.00  0.00    -0.174 OA 
HETATM   29  H   UNL     1     -10.500   6.895  67.264  1.00  0.00     0.000 HD 
ENDBRANCH  15  17
ENDBRANCH   3  12
TORSDOF 2
ENDMDL
MODEL      107
REMARK 921   NORMALIZED FREE ENERGY PREDICTED BY IDOCK:   -5.80 KCAL/MOL
REMARK 922        TOTAL FREE ENERGY PREDICTED BY IDOCK:   -7.07 KCAL/MOL
REMARK 923 INTER-LIGAND FREE ENERGY PREDICTED BY IDOCK:   -7.15 KCAL/MOL
REMARK 924 INTRA-LIGAND FREE ENERGY PREDICTED BY IDOCK:    0.08 KCAL/MOL
REMARK 927      BINDING AFFINITY PREDICTED BY RF-SCORE:    0.00 PKD
ROOT
HETATM    1  C   UNL     1     -11.795  13.457  68.650  1.00  0.00    -0.397 C  
HETATM    2  C   UNL     1     -11.334  12.493  67.574  1.00  0.00    -0.368 A  
HETATM    3  C   UNL     1     -10.945  11.149  67.840  1.00  0.00    -0.307 A  
HETATM    4 CL   UNL     1     -11.837  14.586  65.883  1.00  0.00    -0.358 Cl 
HETATM    5  C   UNL     1     -10.505  10.342  66.763  1.00  0.00    -0.225 A  
HETATM    6  C   UNL     1     -10.826  12.650  63.767  1.00  0.00    -0.466 C  
HETATM    7 CL   UNL     1     -10.056   8.667  66.995  1.00  0.00    -0.312 Cl 
HETATM    8  N   UNL     1     -10.457  10.853  65.446  1.00  0.00    -0.251 NA 
HETATM    9  C   UNL     1     -10.866  12.160  65.187  1.00  0.00    -0.300 A  
HETATM   10  O   UNL     1     -10.053  10.117  64.480  1.00  0.00    -0.304 OA 
HETATM   11  C   UNL     1     -11.307  12.966  66.245  1.00  0.00    -0.323 A  
ENDROOT
BRANCH   3  12
HETATM   12  C   UNL     1     -11.037  10.601  69.199  1.00  0.00    -0.255 A  
HETATM   13  O   UNL     1     -11.748   9.922  71.129  1.00  0.00    -0.338 OA 
HETATM   14  N   UNL     1     -12.101  10.694  70.015  1.00  0.00    -0.313 NA 
HETATM   15  C   UNL     1     -10.510   9.418  70.863  1.00  0.00    -0.310 A  
HETATM   16  N   UNL     1     -10.013   9.853  69.727  1.00  0.00    -0.231 NA 
BRANCH  15  17
HETATM   17  C   UNL     1      -9.950   8.400  71.750  1.00  0.00    -0.312 A  
HETATM   18  C   UNL     1     -10.640   7.253  72.187  1.00  0.00    -0.242 A  
HETATM   19  C   UNL     1     -10.001   6.323  73.041  1.00  0.00    -0.173 A  
HETATM   20  N   UNL     1     -10.737   5.140  73.495  1.00  0.00    -0.262 N  
HETATM   21  C   UNL     1      -8.677   6.524  73.451  1.00  0.00    -0.123 A  
HETATM   22  O   UNL     1      -7.946   5.702  74.273  1.00  0.00    -0.105 OA 
HETATM   23  O   UNL     1     -10.149   4.360  74.263  1.00  0.00    -0.156 OA 
HETATM   24  O   UNL     1     -11.897   4.986  73.090  1.00  0.00    -0.279 OA 
HETATM   25  C   UNL     1      -8.004   7.650  72.995  1.00  0.00    -0.115 A  
HETATM   26  H   UNL     1      -7.048   5.838  74.550  1.00  0.00     0.000 HD 
HETATM   27  C   UNL     1      -8.617   8.572  72.164  1.00  0.00    -0.242 A  
HETATM   28  O   UNL     1      -6.705   7.873  73.361  1.00  0.00    -0.081 OA 
HETATM   29  H   UNL     1      -6.244   8.644  73.049  1.00  0.00     0.000 HD 
ENDBRANCH  15  17
ENDBRANCH   3  12
TORSDOF 2
ENDMDL
MODEL      108
REMARK 921   NORMALIZED FREE ENERGY PREDICTED BY IDOCK:   -5.79 KCAL/MOL
REMARK 922        TOTAL FREE ENERGY PREDICTED BY IDOCK:   -7.06 KCAL/MOL
REMARK 923 INTER-LIGAND FREE ENERGY PREDICTED BY IDOCK:   -6.52 KCAL/MOL
REMARK 924 INTRA-LIGAND FREE ENERGY PREDICTED BY IDOCK:   -0.54 KCAL/MOL
REMARK 927      BINDING AFFINITY PREDICTED BY RF-SCORE:    0.00 PKD
ROOT
HETATM    1  C   UNL     1      -7.080  13.422  67.234  1.00  0.00     0.004 C  
HETATM    2  C   UNL     1      -7.942  14.581  67.694  1.00  0.00    -0.190 A  
HETATM    3  C   UNL     1      -9.357  14.501  67.828  1.00  0.00    -0.198 A  
HETATM    4 CL   UNL     1      -5.553  15.900  67.915  1.00  0.00    -0.138 Cl 
HETATM    5  C   UNL     1     -10.069  15.654  68.240  1.00  0.00    -0.218 A  
HETATM    6  C   UNL     1      -7.325  18.226  68.750  1.00  0.00    -0.298 C  
HETATM    7 CL   UNL     1     -11.802  15.626  68.476  1.00  0.00    -0.326 Cl 
HETATM    8  N   UNL     1      -9.392  16.863  68.519  1.00  0.00    -0.251 NA 
HETATM    9  C   UNL     1      -8.004  16.928  68.413  1.00  0.00    -0.232 A  
HETATM   10  O   UNL     1     -10.045  17.901  68.885  1.00  0.00    -0.368 OA 
HETATM   11  C   UNL     1      -7.290  15.792  68.010  1.00  0.00    -0.125 A  
ENDROOT
BRANCH   3  12
HETATM   12  C   UNL     1     -10.059  13.234  67.582  1.00  0.00    -0.229 A  
HETATM   13  O   UNL     1     -11.101  11.574  66.662  1.00  0.00    -0.292 OA 
HETATM   14  N   UNL     1     -10.720  12.907  66.459  1.00  0.00    -0.267 NA 
HETATM   15  C   UNL     1     -10.608  11.221  67.882  1.00  0.00    -0.194 A  
HETATM   16  N   UNL     1     -10.019  12.218  68.504  1.00  0.00    -0.201 NA 
BRANCH  15  17
HETATM   17  C   UNL     1     -10.662   9.819  68.295  1.00  0.00    -0.277 A  
HETATM   18  C   UNL     1     -10.867   9.383  69.617  1.00  0.00    -0.245 A  
HETATM   19  C   UNL     1     -10.912   7.999  69.909  1.00  0.00    -0.172 A  
HETATM   20  N   UNL     1     -11.115   7.561  71.292  1.00  0.00    -0.243 N  
HETATM   21  C   UNL     1     -10.766   7.050  68.889  1.00  0.00    -0.200 A  
HETATM   22  O   UNL     1     -10.790   5.686  69.037  1.00  0.00    -0.265 OA 
HETATM   23  O   UNL     1     -11.124   6.338  71.510  1.00  0.00    -0.259 OA 
HETATM   24  O   UNL     1     -11.266   8.431  72.161  1.00  0.00    -0.310 OA 
HETATM   25  C   UNL     1     -10.584   7.497  67.586  1.00  0.00    -0.233 A  
HETATM   26  H   UNL     1     -10.691   5.043  68.345  1.00  0.00     0.000 HD 
HETATM   27  C   UNL     1     -10.532   8.848  67.286  1.00  0.00    -0.348 A  
HETATM   28  O   UNL     1     -10.452   6.602  66.561  1.00  0.00    -0.445 OA 
HETATM   29  H   UNL     1     -10.328   6.908  65.670  1.00  0.00     0.000 HD 
ENDBRANCH  15  17
ENDBRANCH   3  12
TORSDOF 2
ENDMDL
MODEL      109
REMARK 921   NORMALIZED FREE ENERGY PREDICTED BY IDOCK:   -5.78 KCAL/MOL
REMARK 922        TOTAL FREE ENERGY PREDICTED BY IDOCK:   -7.05 KCAL/MOL
REMARK 923 INTER-LIGAND FREE ENERGY PREDICTED BY IDOCK:   -6.44 KCAL/MOL
REMARK 924 INTRA-LIGAND FREE ENERGY PREDICTED BY IDOCK:   -0.60 KCAL/MOL
REMARK 927      BINDING AFFINITY PREDICTED BY RF-SCORE:    0.00 PKD
ROOT
HETATM    1  C   UNL     1     -11.097  15.949  66.196  1.00  0.00    -0.024 C  
HETATM    2  C   UNL     1      -9.869  16.276  67.024  1.00  0.00    -0.247 A  
HETATM    3  C   UNL     1      -9.123  15.297  67.740  1.00  0.00    -0.182 A  
HETATM    4 CL   UNL     1     -10.309  18.832  66.148  1.00  0.00    -0.478 Cl 
HETATM    5  C   UNL     1      -8.008  15.716  68.505  1.00  0.00    -0.138 A  
HETATM    6  C   UNL     1      -7.895  19.459  67.889  1.00  0.00    -0.325 C  
HETATM    7 CL   UNL     1      -7.010  14.572  69.375  1.00  0.00    -0.148 Cl 
HETATM    8  N   UNL     1      -7.633  17.077  68.555  1.00  0.00    -0.220 NA 
HETATM    9  C   UNL     1      -8.349  18.027  67.829  1.00  0.00    -0.249 A  
HETATM   10  O   UNL     1      -6.627  17.447  69.254  1.00  0.00    -0.236 OA 
HETATM   11  C   UNL     1      -9.452  17.623  67.066  1.00  0.00    -0.266 A  
ENDROOT
BRANCH   3  12
HETATM   12  C   UNL     1      -9.483  13.876  67.654  1.00  0.00    -0.212 A  
HETATM   13  O   UNL     1      -9.540  11.766  67.166  1.00  0.00    -0.178 OA 
HETATM   14  N   UNL     1      -8.993  12.993  66.767  1.00  0.00    -0.207 NA 
HETATM   15  C   UNL     1     -10.290  12.029  68.274  1.00  0.00    -0.204 A  
HETATM   16  N   UNL     1     -10.333  13.308  68.571  1.00  0.00    -0.248 NA 
BRANCH  15  17
HETATM   17  C   UNL     1     -10.829  10.913  69.050  1.00  0.00    -0.275 A  
HETATM   18  C   UNL     1     -10.467   9.565  68.867  1.00  0.00    -0.235 A  
HETATM   19  C   UNL     1     -11.044   8.560  69.680  1.00  0.00    -0.009 A  
HETATM   20  N   UNL     1     -10.665   7.161  69.471  1.00  0.00    -0.237 N  
HETATM   21  C   UNL     1     -11.967   8.893  70.679  1.00  0.00    -0.073 A  
HETATM   22  O   UNL     1     -12.595   8.019  71.530  1.00  0.00    -0.305 OA 
HETATM   23  O   UNL     1     -11.211   6.306  70.188  1.00  0.00    -0.343 OA 
HETATM   24  O   UNL     1      -9.826   6.910  68.594  1.00  0.00    -0.142 OA 
HETATM   25  C   UNL     1     -12.298  10.230  70.859  1.00  0.00    -0.373 A  
HETATM   26  H   UNL     1     -13.221   8.245  72.208  1.00  0.00     0.000 HD 
HETATM   27  C   UNL     1     -11.747  11.224  70.068  1.00  0.00    -0.428 A  
HETATM   28  O   UNL     1     -13.184  10.597  71.834  1.00  0.00    -0.461 OA 
HETATM   29  H   UNL     1     -13.411  11.512  71.957  1.00  0.00     0.000 HD 
ENDBRANCH  15  17
ENDBRANCH   3  12
TORSDOF 2
ENDMDL
MODEL      110
REMARK 921   NORMALIZED FREE ENERGY PREDICTED BY IDOCK:   -5.77 KCAL/MOL
REMARK 922        TOTAL FREE ENERGY PREDICTED BY IDOCK:   -7.04 KCAL/MOL
REMARK 923 INTER-LIGAND FREE ENERGY PREDICTED BY IDOCK:   -6.46 KCAL/MOL
REMARK 924 INTRA-LIGAND FREE ENERGY PREDICTED BY IDOCK:   -0.58 KCAL/MOL
REMARK 927      BINDING AFFINITY PREDICTED BY RF-SCORE:    0.00 PKD
ROOT
HETATM    1  C   UNL     1     -10.916   6.335  67.380  1.00  0.00    -0.447 C  
HETATM    2  C   UNL     1      -9.402   6.412  67.430  1.00  0.00    -0.119 A  
HETATM    3  C   UNL     1      -8.675   7.630  67.312  1.00  0.00    -0.124 A  
HETATM    4 CL   UNL     1      -9.562   3.707  67.824  1.00  0.00    -0.226 Cl 
HETATM    5  C   UNL     1      -7.259   7.584  67.345  1.00  0.00    -0.087 A  
HETATM    6  C   UNL     1      -6.527   3.892  67.833  1.00  0.00    -0.038 C  
HETATM    7 CL   UNL     1      -6.292   9.039  67.257  1.00  0.00    -0.059 Cl 
HETATM    8  N   UNL     1      -6.577   6.356  67.499  1.00  0.00    -0.052 NA 
HETATM    9  C   UNL     1      -7.295   5.170  67.642  1.00  0.00    -0.075 A  
HETATM   10  O   UNL     1      -5.298   6.324  67.522  1.00  0.00    -0.004 OA 
HETATM   11  C   UNL     1      -8.695   5.204  67.614  1.00  0.00    -0.103 A  
ENDROOT
BRANCH   3  12
HETATM   12  C   UNL     1      -9.381   8.912  67.199  1.00  0.00    -0.145 A  
HETATM   13  O   UNL     1     -10.556  10.589  66.491  1.00  0.00    -0.231 OA 
HETATM   14  N   UNL     1      -9.880   9.438  66.066  1.00  0.00    -0.288 NA 
HETATM   15  C   UNL     1     -10.418  10.630  67.847  1.00  0.00    -0.208 A  
HETATM   16  N   UNL     1      -9.660   9.663  68.314  1.00  0.00    -0.140 NA 
BRANCH  15  17
HETATM   17  C   UNL     1     -11.189  11.608  68.612  1.00  0.00    -0.308 A  
HETATM   18  C   UNL     1     -11.793  11.351  69.857  1.00  0.00    -0.435 A  
HETATM   19  C   UNL     1     -12.513  12.373  70.520  1.00  0.00    -0.187 A  
HETATM   20  N   UNL     1     -13.145  12.087  71.811  1.00  0.00    -0.426 N  
HETATM   21  C   UNL     1     -12.624  13.650  69.955  1.00  0.00    -0.059 A  
HETATM   22  O   UNL     1     -13.290  14.723  70.492  1.00  0.00    -0.592 OA 
HETATM   23  O   UNL     1     -13.788  13.004  72.349  1.00  0.00    -0.564 OA 
HETATM   24  O   UNL     1     -13.003  10.954  72.289  1.00  0.00    -0.324 OA 
HETATM   25  C   UNL     1     -12.006  13.893  68.735  1.00  0.00    -0.358 A  
HETATM   26  H   UNL     1     -13.365  15.589  70.108  1.00  0.00     0.000 HD 
HETATM   27  C   UNL     1     -11.302  12.901  68.071  1.00  0.00    -0.333 A  
HETATM   28  O   UNL     1     -12.078  15.130  68.157  1.00  0.00    -0.524 OA 
HETATM   29  H   UNL     1     -11.655  15.296  67.322  1.00  0.00     0.000 HD 
ENDBRANCH  15  17
ENDBRANCH   3  12
TORSDOF 2
ENDMDL
MODEL      111
REMARK 921   NORMALIZED FREE ENERGY PREDICTED BY IDOCK:   -5.72 KCAL/MOL
REMARK 922        TOTAL FREE ENERGY PREDICTED BY IDOCK:   -6.98 KCAL/MOL
REMARK 923 INTER-LIGAND FREE ENERGY PREDICTED BY IDOCK:   -6.37 KCAL/MOL
REMARK 924 INTRA-LIGAND FREE ENERGY PREDICTED BY IDOCK:   -0.61 KCAL/MOL
REMARK 927      BINDING AFFINITY PREDICTED BY RF-SCORE:    0.00 PKD
ROOT
HETATM    1  C   UNL     1     -11.140   5.760  69.978  1.00  0.00    -0.329 C  
HETATM    2  C   UNL     1      -9.711   6.039  70.399  1.00  0.00    -0.206 A  
HETATM    3  C   UNL     1      -9.219   7.344  70.686  1.00  0.00    -0.157 A  
HETATM    4 CL   UNL     1      -9.432   3.320  70.235  1.00  0.00    -0.242 Cl 
HETATM    5  C   UNL     1      -7.857   7.495  71.044  1.00  0.00    -0.091 A  
HETATM    6  C   UNL     1      -6.552   3.931  70.997  1.00  0.00    -0.031 C  
HETATM    7 CL   UNL     1      -7.186   9.056  71.459  1.00  0.00    -0.078 Cl 
HETATM    8  N   UNL     1      -7.000   6.375  71.124  1.00  0.00    -0.067 NA 
HETATM    9  C   UNL     1      -7.494   5.096  70.870  1.00  0.00    -0.078 A  
HETATM   10  O   UNL     1      -5.769   6.522  71.443  1.00  0.00    -0.027 OA 
HETATM   11  C   UNL     1      -8.840   4.935  70.518  1.00  0.00    -0.115 A  
ENDROOT
BRANCH   3  12
HETATM   12  C   UNL     1     -10.118   8.505  70.648  1.00  0.00    -0.192 A  
HETATM   13  O   UNL     1     -11.457  10.122  71.179  1.00  0.00    -0.357 OA 
HETATM   14  N   UNL     1     -10.894   8.932  71.658  1.00  0.00    -0.323 NA 
HETATM   15  C   UNL     1     -10.943  10.308  69.931  1.00  0.00    -0.303 A  
HETATM   16  N   UNL     1     -10.170   9.318  69.542  1.00  0.00    -0.198 NA 
BRANCH  15  17
HETATM   17  C   UNL     1     -11.181  11.577  69.244  1.00  0.00    -0.336 A  
HETATM   18  C   UNL     1     -10.697  11.893  67.961  1.00  0.00    -0.242 A  
HETATM   19  C   UNL     1     -10.992  13.150  67.381  1.00  0.00    -0.264 A  
HETATM   20  N   UNL     1     -10.473  13.468  66.049  1.00  0.00    -0.293 N  
HETATM   21  C   UNL     1     -11.775  14.086  68.069  1.00  0.00    -0.359 A  
HETATM   22  O   UNL     1     -12.133  15.333  67.622  1.00  0.00    -0.356 OA 
HETATM   23  O   UNL     1     -10.733  14.591  65.586  1.00  0.00    -0.299 OA 
HETATM   24  O   UNL     1      -9.805  12.605  65.464  1.00  0.00    -0.242 OA 
HETATM   25  C   UNL     1     -12.261  13.750  69.326  1.00  0.00    -0.264 A  
HETATM   26  H   UNL     1     -12.664  15.968  68.088  1.00  0.00     0.000 HD 
HETATM   27  C   UNL     1     -11.976  12.526  69.909  1.00  0.00    -0.371 A  
HETATM   28  O   UNL     1     -13.042  14.631  70.023  1.00  0.00    -0.557 OA 
HETATM   29  H   UNL     1     -13.374  14.401  70.883  1.00  0.00     0.000 HD 
ENDBRANCH  15  17
ENDBRANCH   3  12
TORSDOF 2
ENDMDL
MODEL      112
REMARK 921   NORMALIZED FREE ENERGY PREDICTED BY IDOCK:   -5.72 KCAL/MOL
REMARK 922        TOTAL FREE ENERGY PREDICTED BY IDOCK:   -6.98 KCAL/MOL
REMARK 923 INTER-LIGAND FREE ENERGY PREDICTED BY IDOCK:   -6.68 KCAL/MOL
REMARK 924 INTRA-LIGAND FREE ENERGY PREDICTED BY IDOCK:   -0.30 KCAL/MOL
REMARK 927      BINDING AFFINITY PREDICTED BY RF-SCORE:    0.00 PKD
ROOT
HETATM    1  C   UNL     1     -11.416  11.890  67.104  1.00  0.00    -0.386 C  
HETATM    2  C   UNL     1     -10.007  11.537  67.540  1.00  0.00    -0.207 A  
HETATM    3  C   UNL     1      -9.075  12.494  68.031  1.00  0.00    -0.200 A  
HETATM    4 CL   UNL     1     -10.762   8.979  66.918  1.00  0.00    -0.236 Cl 
HETATM    5  C   UNL     1      -7.775  12.059  68.385  1.00  0.00    -0.138 A  
HETATM    6  C   UNL     1      -7.902   8.325  67.719  1.00  0.00    -0.114 C  
HETATM    7 CL   UNL     1      -6.586  13.162  69.042  1.00  0.00    -0.101 Cl 
HETATM    8  N   UNL     1      -7.406  10.701  68.261  1.00  0.00    -0.086 NA 
HETATM    9  C   UNL     1      -8.331   9.763  67.806  1.00  0.00    -0.114 A  
HETATM   10  O   UNL     1      -6.226  10.319  68.578  1.00  0.00    -0.048 OA 
HETATM   11  C   UNL     1      -9.621  10.182  67.457  1.00  0.00    -0.156 A  
ENDROOT
BRANCH   3  12
HETATM   12  C   UNL     1      -9.470  13.898  68.204  1.00  0.00    -0.207 A  
HETATM   13  O   UNL     1     -10.332  15.746  68.934  1.00  0.00    -0.208 OA 
HETATM   14  N   UNL     1     -10.415  14.352  69.045  1.00  0.00    -0.239 NA 
HETATM   15  C   UNL     1      -9.324  15.996  68.052  1.00  0.00    -0.202 A  
HETATM   16  N   UNL     1      -8.811  14.901  67.537  1.00  0.00    -0.180 NA 
BRANCH  15  17
HETATM   17  C   UNL     1      -8.853  17.369  67.879  1.00  0.00    -0.237 A  
HETATM   18  C   UNL     1      -7.827  17.963  68.638  1.00  0.00    -0.294 A  
HETATM   19  C   UNL     1      -7.440  19.301  68.384  1.00  0.00    -0.311 A  
HETATM   20  N   UNL     1      -6.378  19.908  69.189  1.00  0.00    -0.301 N  
HETATM   21  C   UNL     1      -8.062  20.044  67.372  1.00  0.00    -0.323 A  
HETATM   22  O   UNL     1      -7.782  21.341  67.026  1.00  0.00    -0.733 OA 
HETATM   23  O   UNL     1      -6.084  21.091  68.952  1.00  0.00    -0.280 OA 
HETATM   24  O   UNL     1      -5.835  19.210  70.057  1.00  0.00    -0.243 OA 
HETATM   25  C   UNL     1      -9.060  19.436  66.620  1.00  0.00    -0.346 A  
HETATM   26  H   UNL     1      -8.204  21.845  66.340  1.00  0.00     0.000 HD 
HETATM   27  C   UNL     1      -9.453  18.130  66.860  1.00  0.00    -0.286 A  
HETATM   28  O   UNL     1      -9.680  20.123  65.613  1.00  0.00    -0.502 OA 
HETATM   29  H   UNL     1     -10.363  19.707  65.099  1.00  0.00     0.000 HD 
ENDBRANCH  15  17
ENDBRANCH   3  12
TORSDOF 2
ENDMDL
MODEL      113
REMARK 921   NORMALIZED FREE ENERGY PREDICTED BY IDOCK:   -5.72 KCAL/MOL
REMARK 922        TOTAL FREE ENERGY PREDICTED BY IDOCK:   -6.98 KCAL/MOL
REMARK 923 INTER-LIGAND FREE ENERGY PREDICTED BY IDOCK:   -6.39 KCAL/MOL
REMARK 924 INTRA-LIGAND FREE ENERGY PREDICTED BY IDOCK:   -0.59 KCAL/MOL
REMARK 927      BINDING AFFINITY PREDICTED BY RF-SCORE:    0.00 PKD
ROOT
HETATM    1  C   UNL     1     -11.268  16.349  68.092  1.00  0.00    -0.273 C  
HETATM    2  C   UNL     1      -9.754  16.441  68.106  1.00  0.00    -0.229 A  
HETATM    3  C   UNL     1      -8.899  15.306  68.025  1.00  0.00    -0.169 A  
HETATM    4 CL   UNL     1     -10.204  19.139  68.231  1.00  0.00    -0.473 Cl 
HETATM    5  C   UNL     1      -7.498  15.504  68.075  1.00  0.00    -0.127 A  
HETATM    6  C   UNL     1      -7.168  19.275  68.345  1.00  0.00    -0.338 C  
HETATM    7 CL   UNL     1      -6.377  14.168  67.933  1.00  0.00    -0.158 Cl 
HETATM    8  N   UNL     1      -6.953  16.802  68.196  1.00  0.00    -0.153 NA 
HETATM    9  C   UNL     1      -7.794  17.912  68.246  1.00  0.00    -0.285 A  
HETATM   10  O   UNL     1      -5.685  16.970  68.246  1.00  0.00    -0.120 OA 
HETATM   11  C   UNL     1      -9.181  17.728  68.194  1.00  0.00    -0.277 A  
ENDROOT
BRANCH   3  12
HETATM   12  C   UNL     1      -9.461  13.960  67.854  1.00  0.00    -0.212 A  
HETATM   13  O   UNL     1     -10.070  12.042  67.052  1.00  0.00    -0.202 OA 
HETATM   14  N   UNL     1      -9.621  13.317  66.684  1.00  0.00    -0.257 NA 
HETATM   15  C   UNL     1     -10.113  12.035  68.414  1.00  0.00    -0.210 A  
HETATM   16  N   UNL     1      -9.808  13.199  68.942  1.00  0.00     0.038 NA 
BRANCH  15  17
HETATM   17  C   UNL     1     -10.348  10.772  69.112  1.00  0.00    -0.238 A  
HETATM   18  C   UNL     1     -11.286  10.594  70.147  1.00  0.00    -0.402 A  
HETATM   19  C   UNL     1     -11.442   9.324  70.752  1.00  0.00    -0.292 A  
HETATM   20  N   UNL     1     -12.415   9.158  71.834  1.00  0.00    -0.362 N  
HETATM   21  C   UNL     1     -10.678   8.231  70.324  1.00  0.00    -0.235 A  
HETATM   22  O   UNL     1     -10.733   6.954  70.824  1.00  0.00    -0.223 OA 
HETATM   23  O   UNL     1     -12.505   8.034  72.356  1.00  0.00    -0.291 OA 
HETATM   24  O   UNL     1     -13.089  10.143  72.167  1.00  0.00    -0.435 OA 
HETATM   25  C   UNL     1      -9.772   8.419  69.288  1.00  0.00    -0.177 A  
HETATM   26  H   UNL     1     -10.215   6.213  70.533  1.00  0.00     0.000 HD 
HETATM   27  C   UNL     1      -9.603   9.657  68.690  1.00  0.00    -0.154 A  
HETATM   28  O   UNL     1      -9.018   7.373  68.832  1.00  0.00    -0.132 OA 
HETATM   29  H   UNL     1      -8.398   7.502  68.124  1.00  0.00     0.000 HD 
ENDBRANCH  15  17
ENDBRANCH   3  12
TORSDOF 2
ENDMDL
MODEL      114
REMARK 921   NORMALIZED FREE ENERGY PREDICTED BY IDOCK:   -5.70 KCAL/MOL
REMARK 922        TOTAL FREE ENERGY PREDICTED BY IDOCK:   -6.96 KCAL/MOL
REMARK 923 INTER-LIGAND FREE ENERGY PREDICTED BY IDOCK:   -6.37 KCAL/MOL
REMARK 924 INTRA-LIGAND FREE ENERGY PREDICTED BY IDOCK:   -0.59 KCAL/MOL
REMARK 927      BINDING AFFINITY PREDICTED BY RF-SCORE:    0.00 PKD
ROOT
HETATM    1  C   UNL     1     -10.803  13.216  68.148  1.00  0.00    -0.271 C  
HETATM    2  C   UNL     1     -10.566  12.485  66.840  1.00  0.00    -0.255 A  
HETATM    3  C   UNL     1      -9.579  11.472  66.677  1.00  0.00    -0.215 A  
HETATM    4 CL   UNL     1     -12.640  14.025  65.932  1.00  0.00    -0.516 Cl 
HETATM    5  C   UNL     1      -9.424  10.872  65.403  1.00  0.00    -0.214 A  
HETATM    6  C   UNL     1     -12.076  12.598  63.307  1.00  0.00    -0.524 C  
HETATM    7 CL   UNL     1      -8.269   9.587  65.130  1.00  0.00    -0.127 Cl 
HETATM    8  N   UNL     1     -10.234  11.263  64.314  1.00  0.00    -0.299 NA 
HETATM    9  C   UNL     1     -11.217  12.235  64.487  1.00  0.00    -0.326 A  
HETATM   10  O   UNL     1     -10.082  10.720  63.165  1.00  0.00    -0.319 OA 
HETATM   11  C   UNL     1     -11.382  12.832  65.743  1.00  0.00    -0.320 A  
ENDROOT
BRANCH   3  12
HETATM   12  C   UNL     1      -8.767  11.031  67.818  1.00  0.00    -0.130 A  
HETATM   13  O   UNL     1      -7.319  10.917  69.425  1.00  0.00    -0.122 OA 
HETATM   14  N   UNL     1      -7.646  11.626  68.262  1.00  0.00    -0.112 NA 
HETATM   15  C   UNL     1      -8.293   9.976  69.581  1.00  0.00    -0.176 A  
HETATM   16  N   UNL     1      -9.161   9.969  68.594  1.00  0.00    -0.134 NA 
BRANCH  15  17
HETATM   17  C   UNL     1      -8.346   9.205  70.822  1.00  0.00    -0.248 A  
HETATM   18  C   UNL     1      -9.531   8.741  71.423  1.00  0.00    -0.330 A  
HETATM   19  C   UNL     1      -9.472   7.994  72.624  1.00  0.00    -0.250 A  
HETATM   20  N   UNL     1     -10.714   7.527  73.243  1.00  0.00    -0.393 N  
HETATM   21  C   UNL     1      -8.239   7.698  73.220  1.00  0.00    -0.138 A  
HETATM   22  O   UNL     1      -8.044   6.987  74.377  1.00  0.00    -0.125 OA 
HETATM   23  O   UNL     1     -10.621   6.895  74.308  1.00  0.00    -0.232 OA 
HETATM   24  O   UNL     1     -11.782   7.787  72.672  1.00  0.00    -0.349 OA 
HETATM   25  C   UNL     1      -7.078   8.147  72.603  1.00  0.00    -0.097 A  
HETATM   26  H   UNL     1      -7.208   6.786  74.781  1.00  0.00     0.000 HD 
HETATM   27  C   UNL     1      -7.120   8.884  71.431  1.00  0.00    -0.096 A  
HETATM   28  O   UNL     1      -5.855   7.866  73.145  1.00  0.00    -0.051 OA 
HETATM   29  H   UNL     1      -5.060   8.173  72.723  1.00  0.00     0.000 HD 
ENDBRANCH  15  17
ENDBRANCH   3  12
TORSDOF 2
ENDMDL
MODEL      115
REMARK 921   NORMALIZED FREE ENERGY PREDICTED BY IDOCK:   -5.65 KCAL/MOL
REMARK 922        TOTAL FREE ENERGY PREDICTED BY IDOCK:   -6.91 KCAL/MOL
REMARK 923 INTER-LIGAND FREE ENERGY PREDICTED BY IDOCK:   -6.43 KCAL/MOL
REMARK 924 INTRA-LIGAND FREE ENERGY PREDICTED BY IDOCK:   -0.48 KCAL/MOL
REMARK 927      BINDING AFFINITY PREDICTED BY RF-SCORE:    0.00 PKD
ROOT
HETATM    1  C   UNL     1     -10.578   5.803  68.047  1.00  0.00    -0.295 C  
HETATM    2  C   UNL     1      -9.741   6.471  66.974  1.00  0.00    -0.188 A  
HETATM    3  C   UNL     1      -9.392   7.851  66.997  1.00  0.00    -0.200 A  
HETATM    4 CL   UNL     1      -9.643   3.959  65.889  1.00  0.00    -0.184 Cl 
HETATM    5  C   UNL     1      -8.628   8.378  65.927  1.00  0.00    -0.158 A  
HETATM    6  C   UNL     1      -8.041   5.353  63.712  1.00  0.00    -0.121 C  
HETATM    7 CL   UNL     1      -8.116  10.051  65.904  1.00  0.00    -0.122 Cl 
HETATM    8  N   UNL     1      -8.211   7.554  64.859  1.00  0.00    -0.116 NA 
HETATM    9  C   UNL     1      -8.531   6.198  64.855  1.00  0.00    -0.036 A  
HETATM   10  O   UNL     1      -7.526   8.041  63.894  1.00  0.00    -0.101 OA 
HETATM   11  C   UNL     1      -9.284   5.665  65.910  1.00  0.00    -0.132 A  
ENDROOT
BRANCH   3  12
HETATM   12  C   UNL     1      -9.785   8.701  68.129  1.00  0.00    -0.158 A  
HETATM   13  O   UNL     1      -9.867   9.728  70.034  1.00  0.00    -0.227 OA 
HETATM   14  N   UNL     1      -9.256   8.661  69.363  1.00  0.00    -0.149 NA 
HETATM   15  C   UNL     1     -10.689  10.324  69.125  1.00  0.00    -0.228 A  
HETATM   16  N   UNL     1     -10.717   9.697  67.970  1.00  0.00    -0.244 NA 
BRANCH  15  17
HETATM   17  C   UNL     1     -11.317  11.601  69.462  1.00  0.00    -0.328 A  
HETATM   18  C   UNL     1     -11.191  12.778  68.700  1.00  0.00    -0.322 A  
HETATM   19  C   UNL     1     -11.848  13.962  69.111  1.00  0.00    -0.358 A  
HETATM   20  N   UNL     1     -11.700  15.182  68.313  1.00  0.00    -0.338 N  
HETATM   21  C   UNL     1     -12.637  13.976  70.269  1.00  0.00    -0.291 A  
HETATM   22  O   UNL     1     -13.323  15.051  70.774  1.00  0.00    -0.565 OA 
HETATM   23  O   UNL     1     -12.272  16.206  68.721  1.00  0.00    -0.056 OA 
HETATM   24  O   UNL     1     -11.015  15.123  67.283  1.00  0.00    -0.313 OA 
HETATM   25  C   UNL     1     -12.766  12.800  70.998  1.00  0.00    -0.243 A  
HETATM   26  H   UNL     1     -13.859  15.060  71.559  1.00  0.00     0.000 HD 
HETATM   27  C   UNL     1     -12.124  11.635  70.612  1.00  0.00    -0.432 A  
HETATM   28  O   UNL     1     -13.539  12.768  72.126  1.00  0.00    -0.521 OA 
HETATM   29  H   UNL     1     -13.627  11.965  72.625  1.00  0.00     0.000 HD 
ENDBRANCH  15  17
ENDBRANCH   3  12
TORSDOF 2
ENDMDL
MODEL      116
REMARK 921   NORMALIZED FREE ENERGY PREDICTED BY IDOCK:   -5.65 KCAL/MOL
REMARK 922        TOTAL FREE ENERGY PREDICTED BY IDOCK:   -6.90 KCAL/MOL
REMARK 923 INTER-LIGAND FREE ENERGY PREDICTED BY IDOCK:   -6.34 KCAL/MOL
REMARK 924 INTRA-LIGAND FREE ENERGY PREDICTED BY IDOCK:   -0.56 KCAL/MOL
REMARK 927      BINDING AFFINITY PREDICTED BY RF-SCORE:    0.00 PKD
ROOT
HETATM    1  C   UNL     1      -7.408   6.155  68.371  1.00  0.00    -0.086 C  
HETATM    2  C   UNL     1      -8.370   5.826  69.496  1.00  0.00    -0.112 A  
HETATM    3  C   UNL     1      -9.616   6.490  69.682  1.00  0.00    -0.155 A  
HETATM    4 CL   UNL     1      -6.511   3.924  70.147  1.00  0.00    -0.031 Cl 
HETATM    5  C   UNL     1     -10.426   6.122  70.783  1.00  0.00    -0.230 A  
HETATM    6  C   UNL     1      -8.427   3.353  72.439  1.00  0.00    -0.088 C  
HETATM    7 CL   UNL     1     -11.991   6.855  71.055  1.00  0.00    -0.403 Cl 
HETATM    8  N   UNL     1     -10.015   5.110  71.679  1.00  0.00    -0.177 NA 
HETATM    9  C   UNL     1      -8.809   4.443  71.476  1.00  0.00    -0.118 A  
HETATM   10  O   UNL     1     -10.752   4.788  72.675  1.00  0.00    -0.207 OA 
HETATM   11  C   UNL     1      -8.001   4.797  70.388  1.00  0.00    -0.065 A  
ENDROOT
BRANCH   3  12
HETATM   12  C   UNL     1     -10.066   7.510  68.726  1.00  0.00    -0.185 A  
HETATM   13  O   UNL     1     -10.979   8.542  67.054  1.00  0.00    -0.095 OA 
HETATM   14  N   UNL     1     -10.610   7.273  67.520  1.00  0.00    -0.262 NA 
HETATM   15  C   UNL     1     -10.641   9.420  68.041  1.00  0.00    -0.226 A  
HETATM   16  N   UNL     1     -10.028   8.844  69.051  1.00  0.00    -0.184 NA 
BRANCH  15  17
HETATM   17  C   UNL     1     -11.087  10.808  67.941  1.00  0.00    -0.369 A  
HETATM   18  C   UNL     1     -11.494  11.597  69.034  1.00  0.00    -0.356 A  
HETATM   19  C   UNL     1     -11.901  12.936  68.830  1.00  0.00    -0.315 A  
HETATM   20  N   UNL     1     -12.331  13.740  69.976  1.00  0.00    -0.324 N  
HETATM   21  C   UNL     1     -11.893  13.497  67.546  1.00  0.00    -0.368 A  
HETATM   22  O   UNL     1     -12.262  14.776  67.214  1.00  0.00    -0.502 OA 
HETATM   23  O   UNL     1     -12.704  14.904  69.752  1.00  0.00    -0.174 OA 
HETATM   24  O   UNL     1     -12.300  13.217  71.098  1.00  0.00    -0.333 OA 
HETATM   25  C   UNL     1     -11.471  12.711  66.481  1.00  0.00    -0.353 A  
HETATM   26  H   UNL     1     -12.256  15.156  66.343  1.00  0.00     0.000 HD 
HETATM   27  C   UNL     1     -11.075  11.396  66.665  1.00  0.00    -0.333 A  
HETATM   28  O   UNL     1     -11.434  13.226  65.215  1.00  0.00    -0.290 OA 
HETATM   29  H   UNL     1     -11.145  12.689  64.486  1.00  0.00     0.000 HD 
ENDBRANCH  15  17
ENDBRANCH   3  12
TORSDOF 2
ENDMDL
MODEL      117
REMARK 921   NORMALIZED FREE ENERGY PREDICTED BY IDOCK:   -5.63 KCAL/MOL
REMARK 922        TOTAL FREE ENERGY PREDICTED BY IDOCK:   -6.88 KCAL/MOL
REMARK 923 INTER-LIGAND FREE ENERGY PREDICTED BY IDOCK:   -6.64 KCAL/MOL
REMARK 924 INTRA-LIGAND FREE ENERGY PREDICTED BY IDOCK:   -0.24 KCAL/MOL
REMARK 927      BINDING AFFINITY PREDICTED BY RF-SCORE:    0.00 PKD
ROOT
HETATM    1  C   UNL     1     -11.791   7.625  72.355  1.00  0.00    -0.336 C  
HETATM    2  C   UNL     1     -10.581   6.911  71.784  1.00  0.00    -0.235 A  
HETATM    3  C   UNL     1      -9.932   7.307  70.581  1.00  0.00    -0.187 A  
HETATM    4 CL   UNL     1     -10.817   5.336  74.012  1.00  0.00    -0.287 Cl 
HETATM    5  C   UNL     1      -8.826   6.550  70.123  1.00  0.00    -0.144 A  
HETATM    6  C   UNL     1      -8.444   3.877  72.791  1.00  0.00    -0.099 C  
HETATM    7 CL   UNL     1      -7.943   6.998  68.681  1.00  0.00    -0.118 Cl 
HETATM    8  N   UNL     1      -8.366   5.427  70.847  1.00  0.00    -0.116 NA 
HETATM    9  C   UNL     1      -8.987   5.061  72.039  1.00  0.00    -0.132 A  
HETATM   10  O   UNL     1      -7.369   4.747  70.422  1.00  0.00    -0.048 OA 
HETATM   11  C   UNL     1     -10.080   5.804  72.503  1.00  0.00    -0.180 A  
ENDROOT
BRANCH   3  12
HETATM   12  C   UNL     1     -10.379   8.499  69.850  1.00  0.00    -0.210 A  
HETATM   13  O   UNL     1     -11.251   9.849  68.398  1.00  0.00    -0.188 OA 
HETATM   14  N   UNL     1     -10.849   8.521  68.591  1.00  0.00    -0.024 NA 
HETATM   15  C   UNL     1     -11.006  10.494  69.573  1.00  0.00    -0.264 A  
HETATM   16  N   UNL     1     -10.420   9.727  70.465  1.00  0.00    -0.295 NA 
BRANCH  15  17
HETATM   17  C   UNL     1     -11.509  11.854  69.759  1.00  0.00    -0.303 A  
HETATM   18  C   UNL     1     -11.198  12.942  68.921  1.00  0.00    -0.327 A  
HETATM   19  C   UNL     1     -11.747  14.219  69.184  1.00  0.00    -0.320 A  
HETATM   20  N   UNL     1     -11.406  15.343  68.309  1.00  0.00    -0.334 N  
HETATM   21  C   UNL     1     -12.612  14.414  70.269  1.00  0.00    -0.323 A  
HETATM   22  O   UNL     1     -13.208  15.596  70.632  1.00  0.00    -0.703 OA 
HETATM   23  O   UNL     1     -11.888  16.453  68.588  1.00  0.00    -0.178 OA 
HETATM   24  O   UNL     1     -10.659  15.124  67.346  1.00  0.00    -0.261 OA 
HETATM   25  C   UNL     1     -12.923  13.326  71.074  1.00  0.00    -0.156 A  
HETATM   26  H   UNL     1     -13.794  15.728  71.368  1.00  0.00     0.000 HD 
HETATM   27  C   UNL     1     -12.390  12.071  70.833  1.00  0.00    -0.384 A  
HETATM   28  O   UNL     1     -13.775  13.473  72.134  1.00  0.00    -0.484 OA 
HETATM   29  H   UNL     1     -13.988  12.728  72.685  1.00  0.00     0.000 HD 
ENDBRANCH  15  17
ENDBRANCH   3  12
TORSDOF 2
ENDMDL
MODEL      118
REMARK 921   NORMALIZED FREE ENERGY PREDICTED BY IDOCK:   -5.60 KCAL/MOL
REMARK 922        TOTAL FREE ENERGY PREDICTED BY IDOCK:   -6.85 KCAL/MOL
REMARK 923 INTER-LIGAND FREE ENERGY PREDICTED BY IDOCK:   -7.66 KCAL/MOL
REMARK 924 INTRA-LIGAND FREE ENERGY PREDICTED BY IDOCK:    0.81 KCAL/MOL
REMARK 927      BINDING AFFINITY PREDICTED BY RF-SCORE:    0.00 PKD
ROOT
HETATM    1  C   UNL     1     -10.721   8.934  71.363  1.00  0.00    -0.382 C  
HETATM    2  C   UNL     1     -10.428   7.479  71.055  1.00  0.00    -0.222 A  
HETATM    3  C   UNL     1     -10.275   6.972  69.733  1.00  0.00    -0.213 A  
HETATM    4 CL   UNL     1     -10.415   7.201  73.779  1.00  0.00    -0.409 Cl 
HETATM    5  C   UNL     1     -10.030   5.588  69.558  1.00  0.00    -0.210 A  
HETATM    6  C   UNL     1      -9.915   4.275  73.117  1.00  0.00    -0.191 C  
HETATM    7 CL   UNL     1      -9.781   4.895  67.971  1.00  0.00    -0.193 Cl 
HETATM    8  N   UNL     1      -9.933   4.723  70.670  1.00  0.00    -0.223 NA 
HETATM    9  C   UNL     1     -10.056   5.228  71.963  1.00  0.00    -0.194 A  
HETATM   10  O   UNL     1      -9.717   3.473  70.501  1.00  0.00    -0.185 OA 
HETATM   11  C   UNL     1     -10.294   6.596  72.148  1.00  0.00    -0.200 A  
ENDROOT
BRANCH   3  12
HETATM   12  C   UNL     1     -10.330   7.877  68.577  1.00  0.00    -0.200 A  
HETATM   13  O   UNL     1     -10.639   8.728  66.609  1.00  0.00    -0.226 OA 
HETATM   14  N   UNL     1     -10.565   7.514  67.305  1.00  0.00    -0.317 NA 
HETATM   15  C   UNL     1     -10.467   9.708  67.541  1.00  0.00    -0.262 A  
HETATM   16  N   UNL     1     -10.215   9.235  68.741  1.00  0.00    -0.199 NA 
BRANCH  15  17
HETATM   17  C   UNL     1     -10.697  11.100  67.160  1.00  0.00    -0.305 A  
HETATM   18  C   UNL     1     -11.490  11.510  66.071  1.00  0.00    -0.093 A  
HETATM   19  C   UNL     1     -11.656  12.887  65.793  1.00  0.00    -0.368 A  
HETATM   20  N   UNL     1     -12.476  13.297  64.651  1.00  0.00    -0.372 N  
HETATM   21  C   UNL     1     -11.045  13.857  66.599  1.00  0.00    -0.306 A  
HETATM   22  O   UNL     1     -11.125  15.217  66.439  1.00  0.00    -0.329 OA 
HETATM   23  O   UNL     1     -12.577  14.515  64.425  1.00  0.00    -0.665 OA 
HETATM   24  O   UNL     1     -13.020  12.411  63.977  1.00  0.00    -0.748 OA 
HETATM   25  C   UNL     1     -10.281  13.436  67.681  1.00  0.00    -0.228 A  
HETATM   26  H   UNL     1     -10.711  15.874  66.986  1.00  0.00     0.000 HD 
HETATM   27  C   UNL     1     -10.106  12.091  67.962  1.00  0.00    -0.199 A  
HETATM   28  O   UNL     1      -9.681  14.352  68.500  1.00  0.00    -0.216 OA 
HETATM   29  H   UNL     1      -9.159  14.064  69.240  1.00  0.00     0.000 HD 
ENDBRANCH  15  17
ENDBRANCH   3  12
TORSDOF 2
ENDMDL
MODEL      119
REMARK 921   NORMALIZED FREE ENERGY PREDICTED BY IDOCK:   -5.59 KCAL/MOL
REMARK 922        TOTAL FREE ENERGY PREDICTED BY IDOCK:   -6.84 KCAL/MOL
REMARK 923 INTER-LIGAND FREE ENERGY PREDICTED BY IDOCK:   -6.26 KCAL/MOL
REMARK 924 INTRA-LIGAND FREE ENERGY PREDICTED BY IDOCK:   -0.58 KCAL/MOL
REMARK 927      BINDING AFFINITY PREDICTED BY RF-SCORE:    0.00 PKD
ROOT
HETATM    1  C   UNL     1      -7.853  14.114  67.082  1.00  0.00    -0.063 C  
HETATM    2  C   UNL     1      -8.632  15.274  67.673  1.00  0.00    -0.178 A  
HETATM    3  C   UNL     1      -9.981  15.169  68.113  1.00  0.00    -0.221 A  
HETATM    4 CL   UNL     1      -6.292  16.652  67.322  1.00  0.00    -0.196 Cl 
HETATM    5  C   UNL     1     -10.623  16.323  68.624  1.00  0.00    -0.297 A  
HETATM    6  C   UNL     1      -7.914  18.974  68.430  1.00  0.00    -0.375 C  
HETATM    7 CL   UNL     1     -12.263  16.268  69.231  1.00  0.00     0.122 Cl 
HETATM    8  N   UNL     1      -9.939  17.557  68.704  1.00  0.00    -0.329 NA 
HETATM    9  C   UNL     1      -8.609  17.648  68.298  1.00  0.00    -0.268 A  
HETATM   10  O   UNL     1     -10.529  18.596  69.162  1.00  0.00    -0.083 OA 
HETATM   11  C   UNL     1      -7.964  16.511  67.794  1.00  0.00    -0.160 A  
ENDROOT
BRANCH   3  12
HETATM   12  C   UNL     1     -10.680  13.878  68.073  1.00  0.00    -0.247 A  
HETATM   13  O   UNL     1     -11.720  12.089  67.431  1.00  0.00    -0.470 OA 
HETATM   14  N   UNL     1     -11.342  13.373  67.018  1.00  0.00    -0.305 NA 
HETATM   15  C   UNL     1     -11.223  11.936  68.691  1.00  0.00    -0.257 A  
HETATM   16  N   UNL     1     -10.636  13.021  69.146  1.00  0.00    -0.042 NA 
BRANCH  15  17
HETATM   17  C   UNL     1     -11.274  10.618  69.322  1.00  0.00    -0.332 A  
HETATM   18  C   UNL     1     -10.628   9.470  68.826  1.00  0.00    -0.240 A  
HETATM   19  C   UNL     1     -10.735   8.241  69.519  1.00  0.00    -0.174 A  
HETATM   20  N   UNL     1     -10.065   7.053  68.984  1.00  0.00    -0.175 N  
HETATM   21  C   UNL     1     -11.471   8.154  70.708  1.00  0.00    -0.261 A  
HETATM   22  O   UNL     1     -11.651   7.029  71.472  1.00  0.00    -0.261 OA 
HETATM   23  O   UNL     1     -10.203   5.988  69.608  1.00  0.00    -0.178 OA 
HETATM   24  O   UNL     1      -9.403   7.177  67.944  1.00  0.00    -0.129 OA 
HETATM   25  C   UNL     1     -12.086   9.300  71.194  1.00  0.00    -0.316 A  
HETATM   26  H   UNL     1     -12.150   6.970  72.278  1.00  0.00     0.000 HD 
HETATM   27  C   UNL     1     -11.995  10.509  70.524  1.00  0.00    -0.436 A  
HETATM   28  O   UNL     1     -12.801   9.260  72.359  1.00  0.00    -0.387 OA 
HETATM   29  H   UNL     1     -13.222  10.044  72.691  1.00  0.00     0.000 HD 
ENDBRANCH  15  17
ENDBRANCH   3  12
TORSDOF 2
ENDMDL
MODEL      120
REMARK 921   NORMALIZED FREE ENERGY PREDICTED BY IDOCK:   -5.58 KCAL/MOL
REMARK 922        TOTAL FREE ENERGY PREDICTED BY IDOCK:   -6.82 KCAL/MOL
REMARK 923 INTER-LIGAND FREE ENERGY PREDICTED BY IDOCK:   -6.66 KCAL/MOL
REMARK 924 INTRA-LIGAND FREE ENERGY PREDICTED BY IDOCK:   -0.16 KCAL/MOL
REMARK 927      BINDING AFFINITY PREDICTED BY RF-SCORE:    0.00 PKD
ROOT
HETATM    1  C   UNL     1     -10.755  14.771  68.565  1.00  0.00    -0.247 C  
HETATM    2  C   UNL     1     -11.528  14.152  69.713  1.00  0.00    -0.309 A  
HETATM    3  C   UNL     1     -12.023  12.817  69.697  1.00  0.00    -0.354 A  
HETATM    4 CL   UNL     1     -11.099  16.568  70.928  1.00  0.00    -0.120 Cl 
HETATM    5  C   UNL     1     -12.757  12.349  70.814  1.00  0.00    -0.123 A  
HETATM    6  C   UNL     1     -12.726  15.321  73.174  1.00  0.00    -0.586 C  
HETATM    7 CL   UNL     1     -13.357  10.708  70.894  1.00  0.00    -0.203 Cl 
HETATM    8  N   UNL     1     -12.990  13.184  71.930  1.00  0.00    -0.338 NA 
HETATM    9  C   UNL     1     -12.478  14.480  71.953  1.00  0.00    -0.332 A  
HETATM   10  O   UNL     1     -13.658  12.754  72.932  1.00  0.00    -0.356 OA 
HETATM   11  C   UNL     1     -11.748  14.952  70.855  1.00  0.00    -0.323 A  
ENDROOT
BRANCH   3  12
HETATM   12  C   UNL     1     -11.743  11.933  68.558  1.00  0.00    -0.330 A  
HETATM   13  O   UNL     1     -11.487  11.113  66.570  1.00  0.00    -0.289 OA 
HETATM   14  N   UNL     1     -12.065  12.176  67.276  1.00  0.00    -0.525 NA 
HETATM   15  C   UNL     1     -10.850  10.345  67.498  1.00  0.00    -0.301 A  
HETATM   16  N   UNL     1     -11.030  10.772  68.728  1.00  0.00    -0.228 NA 
BRANCH  15  17
HETATM   17  C   UNL     1      -9.973   9.265  67.048  1.00  0.00    -0.286 A  
HETATM   18  C   UNL     1      -8.628   9.434  66.666  1.00  0.00    -0.138 A  
HETATM   19  C   UNL     1      -7.862   8.318  66.253  1.00  0.00    -0.098 A  
HETATM   20  N   UNL     1      -6.468   8.512  65.850  1.00  0.00    -0.053 N  
HETATM   21  C   UNL     1      -8.425   7.035  66.230  1.00  0.00    -0.134 A  
HETATM   22  O   UNL     1      -7.795   5.877  65.853  1.00  0.00    -0.099 OA 
HETATM   23  O   UNL     1      -5.837   7.512  65.470  1.00  0.00    -0.036 OA 
HETATM   24  O   UNL     1      -6.000   9.658  65.908  1.00  0.00    -0.056 OA 
HETATM   25  C   UNL     1      -9.747   6.883  66.628  1.00  0.00    -0.163 A  
HETATM   26  H   UNL     1      -8.177   5.007  65.837  1.00  0.00     0.000 HD 
HETATM   27  C   UNL     1     -10.511   7.967  67.030  1.00  0.00    -0.419 A  
HETATM   28  O   UNL     1     -10.329   5.645  66.634  1.00  0.00    -0.213 OA 
HETATM   29  H   UNL     1     -11.233   5.541  66.906  1.00  0.00     0.000 HD 
ENDBRANCH  15  17
ENDBRANCH   3  12
TORSDOF 2
ENDMDL
MODEL      121
REMARK 921   NORMALIZED FREE ENERGY PREDICTED BY IDOCK:   -5.57 KCAL/MOL
REMARK 922        TOTAL FREE ENERGY PREDICTED BY IDOCK:   -6.82 KCAL/MOL
REMARK 923 INTER-LIGAND FREE ENERGY PREDICTED BY IDOCK:   -6.33 KCAL/MOL
REMARK 924 INTRA-LIGAND FREE ENERGY PREDICTED BY IDOCK:   -0.49 KCAL/MOL
REMARK 927      BINDING AFFINITY PREDICTED BY RF-SCORE:    0.00 PKD
ROOT
HETATM    1  C   UNL     1      -9.248   9.722  69.599  1.00  0.00    -0.239 C  
HETATM    2  C   UNL     1      -8.625   8.863  68.516  1.00  0.00    -0.133 A  
HETATM    3  C   UNL     1      -8.680   9.187  67.130  1.00  0.00    -0.130 A  
HETATM    4 CL   UNL     1      -7.811   7.305  70.615  1.00  0.00    -0.093 Cl 
HETATM    5  C   UNL     1      -8.087   8.299  66.200  1.00  0.00    -0.111 A  
HETATM    6  C   UNL     1      -6.650   5.567  68.407  1.00  0.00    -0.049 C  
HETATM    7 CL   UNL     1      -8.068   8.647  64.485  1.00  0.00    -0.154 Cl 
HETATM    8  N   UNL     1      -7.445   7.117  66.632  1.00  0.00    -0.086 NA 
HETATM    9  C   UNL     1      -7.369   6.820  67.992  1.00  0.00    -0.097 A  
HETATM   10  O   UNL     1      -6.916   6.319  65.783  1.00  0.00    -0.055 OA 
HETATM   11  C   UNL     1      -7.949   7.692  68.921  1.00  0.00    -0.125 A  
ENDROOT
BRANCH   3  12
HETATM   12  C   UNL     1      -9.307  10.436  66.681  1.00  0.00    -0.158 A  
HETATM   13  O   UNL     1     -10.707  11.927  65.969  1.00  0.00    -0.265 OA 
HETATM   14  N   UNL     1     -10.508  10.545  66.088  1.00  0.00    -0.205 NA 
HETATM   15  C   UNL     1      -9.613  12.517  66.526  1.00  0.00    -0.242 A  
HETATM   16  N   UNL     1      -8.707  11.649  66.919  1.00  0.00    -0.179 NA 
BRANCH  15  17
HETATM   17  C   UNL     1      -9.615  13.963  66.741  1.00  0.00    -0.288 A  
HETATM   18  C   UNL     1     -10.187  14.901  65.860  1.00  0.00    -0.333 A  
HETATM   19  C   UNL     1     -10.142  16.281  66.166  1.00  0.00    -0.344 A  
HETATM   20  N   UNL     1     -10.732  17.245  65.234  1.00  0.00    -0.159 N  
HETATM   21  C   UNL     1      -9.541  16.730  67.350  1.00  0.00    -0.236 A  
HETATM   22  O   UNL     1      -9.432  18.034  67.763  1.00  0.00    -0.257 OA 
HETATM   23  O   UNL     1     -10.650  18.449  65.527  1.00  0.00    -0.627 OA 
HETATM   24  O   UNL     1     -11.276  16.806  64.212  1.00  0.00    -1.163 OA 
HETATM   25  C   UNL     1      -8.999  15.791  68.217  1.00  0.00    -0.182 A  
HETATM   26  H   UNL     1      -9.024  18.338  68.565  1.00  0.00     0.000 HD 
HETATM   27  C   UNL     1      -9.030  14.436  67.928  1.00  0.00    -0.186 A  
HETATM   28  O   UNL     1      -8.417  16.188  69.390  1.00  0.00    -0.227 OA 
HETATM   29  H   UNL     1      -8.046  15.545  69.983  1.00  0.00     0.000 HD 
ENDBRANCH  15  17
ENDBRANCH   3  12
TORSDOF 2
ENDMDL
MODEL      122
REMARK 921   NORMALIZED FREE ENERGY PREDICTED BY IDOCK:   -5.56 KCAL/MOL
REMARK 922        TOTAL FREE ENERGY PREDICTED BY IDOCK:   -6.80 KCAL/MOL
REMARK 923 INTER-LIGAND FREE ENERGY PREDICTED BY IDOCK:   -6.23 KCAL/MOL
REMARK 924 INTRA-LIGAND FREE ENERGY PREDICTED BY IDOCK:   -0.58 KCAL/MOL
REMARK 927      BINDING AFFINITY PREDICTED BY RF-SCORE:    0.00 PKD
ROOT
HETATM    1  C   UNL     1     -10.651  11.013  64.898  1.00  0.00    -0.328 C  
HETATM    2  C   UNL     1     -10.599  12.417  65.468  1.00  0.00    -0.307 A  
HETATM    3  C   UNL     1     -10.012  12.731  66.727  1.00  0.00    -0.237 A  
HETATM    4 CL   UNL     1     -11.822  13.110  63.118  1.00  0.00    -0.383 Cl 
HETATM    5  C   UNL     1     -10.042  14.073  67.176  1.00  0.00    -0.259 A  
HETATM    6  C   UNL     1     -11.774  15.897  64.334  1.00  0.00    -0.179 C  
HETATM    7 CL   UNL     1      -9.302  14.551  68.688  1.00  0.00    -0.202 Cl 
HETATM    8  N   UNL     1     -10.634  15.088  66.391  1.00  0.00    -0.302 NA 
HETATM    9  C   UNL     1     -11.181  14.780  65.147  1.00  0.00    -0.382 A  
HETATM   10  O   UNL     1     -10.661  16.297  66.809  1.00  0.00    -0.293 OA 
HETATM   11  C   UNL     1     -11.155  13.456  64.691  1.00  0.00    -0.366 A  
ENDROOT
BRANCH   3  12
HETATM   12  C   UNL     1      -9.356  11.687  67.524  1.00  0.00    -0.168 A  
HETATM   13  O   UNL     1      -7.900  10.455  68.551  1.00  0.00    -0.098 OA 
HETATM   14  N   UNL     1      -8.034  11.450  67.574  1.00  0.00    -0.121 NA 
HETATM   15  C   UNL     1      -9.158  10.207  69.013  1.00  0.00    -0.173 A  
HETATM   16  N   UNL     1     -10.082  10.890  68.374  1.00  0.00    -0.176 NA 
BRANCH  15  17
HETATM   17  C   UNL     1      -9.330   9.358  70.190  1.00  0.00    -0.276 A  
HETATM   18  C   UNL     1     -10.462   8.559  70.441  1.00  0.00    -0.227 A  
HETATM   19  C   UNL     1     -10.525   7.765  71.611  1.00  0.00    -0.202 A  
HETATM   20  N   UNL     1     -11.714   6.948  71.862  1.00  0.00    -0.285 N  
HETATM   21  C   UNL     1      -9.462   7.755  72.524  1.00  0.00    -0.181 A  
HETATM   22  O   UNL     1      -9.398   7.033  73.689  1.00  0.00    -0.158 OA 
HETATM   23  O   UNL     1     -11.741   6.284  72.912  1.00  0.00    -0.109 OA 
HETATM   24  O   UNL     1     -12.621   6.965  71.019  1.00  0.00    -0.374 OA 
HETATM   25  C   UNL     1      -8.345   8.533  72.252  1.00  0.00    -0.117 A  
HETATM   26  H   UNL     1      -8.678   7.025  74.308  1.00  0.00     0.000 HD 
HETATM   27  C   UNL     1      -8.271   9.320  71.114  1.00  0.00    -0.051 A  
HETATM   28  O   UNL     1      -7.280   8.538  73.111  1.00  0.00    -0.268 OA 
HETATM   29  H   UNL     1      -6.516   9.071  72.925  1.00  0.00     0.000 HD 
ENDBRANCH  15  17
ENDBRANCH   3  12
TORSDOF 2
ENDMDL
MODEL      123
REMARK 921   NORMALIZED FREE ENERGY PREDICTED BY IDOCK:   -5.52 KCAL/MOL
REMARK 922        TOTAL FREE ENERGY PREDICTED BY IDOCK:   -6.76 KCAL/MOL
REMARK 923 INTER-LIGAND FREE ENERGY PREDICTED BY IDOCK:   -6.18 KCAL/MOL
REMARK 924 INTRA-LIGAND FREE ENERGY PREDICTED BY IDOCK:   -0.58 KCAL/MOL
REMARK 927      BINDING AFFINITY PREDICTED BY RF-SCORE:    0.00 PKD
ROOT
HETATM    1  C   UNL     1      -6.653  13.619  68.337  1.00  0.00    -0.096 C  
HETATM    2  C   UNL     1      -7.657  14.383  67.496  1.00  0.00    -0.212 A  
HETATM    3  C   UNL     1      -8.780  13.773  66.869  1.00  0.00    -0.172 A  
HETATM    4 CL   UNL     1      -6.127  16.556  68.155  1.00  0.00    -0.119 Cl 
HETATM    5  C   UNL     1      -9.641  14.576  66.083  1.00  0.00    -0.297 A  
HETATM    6  C   UNL     1      -8.113  18.037  66.392  1.00  0.00    -0.292 C  
HETATM    7 CL   UNL     1     -11.069  13.915  65.319  1.00  0.00    -0.308 Cl 
HETATM    8  N   UNL     1      -9.399  15.959  65.925  1.00  0.00    -0.338 NA 
HETATM    9  C   UNL     1      -8.314  16.557  66.564  1.00  0.00    -0.292 A  
HETATM   10  O   UNL     1     -10.179  16.676  65.208  1.00  0.00    -0.600 OA 
HETATM   11  C   UNL     1      -7.458  15.772  67.347  1.00  0.00    -0.194 A  
ENDROOT
BRANCH   3  12
HETATM   12  C   UNL     1      -9.060  12.345  67.068  1.00  0.00    -0.207 A  
HETATM   13  O   UNL     1      -9.062  10.183  66.934  1.00  0.00    -0.141 OA 
HETATM   14  N   UNL     1      -8.661  11.345  66.263  1.00  0.00    -0.182 NA 
HETATM   15  C   UNL     1      -9.644  10.598  68.095  1.00  0.00    -0.157 A  
HETATM   16  N   UNL     1      -9.719  11.907  68.190  1.00  0.00    -0.189 NA 
BRANCH  15  17
HETATM   17  C   UNL     1      -9.984   9.608  69.114  1.00  0.00    -0.189 A  
HETATM   18  C   UNL     1     -11.177   9.609  69.863  1.00  0.00    -0.244 A  
HETATM   19  C   UNL     1     -11.413   8.596  70.822  1.00  0.00    -0.259 A  
HETATM   20  N   UNL     1     -12.654   8.617  71.600  1.00  0.00    -0.325 N  
HETATM   21  C   UNL     1     -10.473   7.578  71.032  1.00  0.00    -0.215 A  
HETATM   22  O   UNL     1     -10.581   6.544  71.927  1.00  0.00    -0.206 OA 
HETATM   23  O   UNL     1     -12.813   7.725  72.450  1.00  0.00    -0.137 OA 
HETATM   24  O   UNL     1     -13.471   9.519  71.368  1.00  0.00    -0.374 OA 
HETATM   25  C   UNL     1      -9.311   7.581  70.272  1.00  0.00    -0.161 A  
HETATM   26  H   UNL     1      -9.943   5.853  72.068  1.00  0.00     0.000 HD 
HETATM   27  C   UNL     1      -9.063   8.568  69.332  1.00  0.00    -0.150 A  
HETATM   28  O   UNL     1      -8.376   6.596  70.435  1.00  0.00    -0.123 OA 
HETATM   29  H   UNL     1      -7.581   6.598  69.916  1.00  0.00     0.000 HD 
ENDBRANCH  15  17
ENDBRANCH   3  12
TORSDOF 2
ENDMDL
MODEL      124
REMARK 921   NORMALIZED FREE ENERGY PREDICTED BY IDOCK:   -5.49 KCAL/MOL
REMARK 922        TOTAL FREE ENERGY PREDICTED BY IDOCK:   -6.73 KCAL/MOL
REMARK 923 INTER-LIGAND FREE ENERGY PREDICTED BY IDOCK:   -6.59 KCAL/MOL
REMARK 924 INTRA-LIGAND FREE ENERGY PREDICTED BY IDOCK:   -0.14 KCAL/MOL
REMARK 927      BINDING AFFINITY PREDICTED BY RF-SCORE:    0.00 PKD
ROOT
HETATM    1  C   UNL     1     -10.690  13.254  68.165  1.00  0.00    -0.264 C  
HETATM    2  C   UNL     1     -11.539  13.137  69.416  1.00  0.00    -0.360 A  
HETATM    3  C   UNL     1     -11.834  11.898  70.051  1.00  0.00    -0.407 A  
HETATM    4 CL   UNL     1     -11.647  15.868  69.252  1.00  0.00    -0.371 Cl 
HETATM    5  C   UNL     1     -12.661  11.901  71.201  1.00  0.00    -0.284 A  
HETATM    6  C   UNL     1     -13.416  15.586  71.710  1.00  0.00    -0.576 C  
HETATM    7 CL   UNL     1     -13.032  10.428  72.068  1.00  0.00    -0.540 Cl 
HETATM    8  N   UNL     1     -13.180  13.110  71.717  1.00  0.00    -0.421 NA 
HETATM    9  C   UNL     1     -12.865  14.323  71.108  1.00  0.00    -0.359 A  
HETATM   10  O   UNL     1     -13.931  13.102  72.753  1.00  0.00    -0.657 OA 
HETATM   11  C   UNL     1     -12.045  14.332  69.973  1.00  0.00    -0.340 A  
ENDROOT
BRANCH   3  12
HETATM   12  C   UNL     1     -11.259  10.645  69.544  1.00  0.00    -0.272 A  
HETATM   13  O   UNL     1     -10.569   9.033  68.273  1.00  0.00    -0.214 OA 
HETATM   14  N   UNL     1     -11.384  10.172  68.293  1.00  0.00    -0.186 NA 
HETATM   15  C   UNL     1     -10.011   8.946  69.514  1.00  0.00    -0.191 A  
HETATM   16  N   UNL     1     -10.449   9.871  70.338  1.00  0.00    -0.288 NA 
BRANCH  15  17
HETATM   17  C   UNL     1      -8.945   7.973  69.749  1.00  0.00    -0.145 A  
HETATM   18  C   UNL     1      -8.376   7.156  68.754  1.00  0.00    -0.126 A  
HETATM   19  C   UNL     1      -7.341   6.251  69.086  1.00  0.00    -0.089 A  
HETATM   20  N   UNL     1      -6.766   5.400  68.041  1.00  0.00    -0.053 N  
HETATM   21  C   UNL     1      -6.863   6.164  70.400  1.00  0.00    -0.054 A  
HETATM   22  O   UNL     1      -5.869   5.333  70.852  1.00  0.00    -0.019 OA 
HETATM   23  O   UNL     1      -5.876   4.601  68.378  1.00  0.00    -0.023 OA 
HETATM   24  O   UNL     1      -7.198   5.524  66.887  1.00  0.00    -0.075 OA 
HETATM   25  C   UNL     1      -7.422   6.991  71.366  1.00  0.00    -0.081 A  
HETATM   26  H   UNL     1      -5.545   5.274  71.743  1.00  0.00     0.000 HD 
HETATM   27  C   UNL     1      -8.440   7.879  71.057  1.00  0.00    -0.125 A  
HETATM   28  O   UNL     1      -6.973   6.948  72.657  1.00  0.00    -0.069 OA 
HETATM   29  H   UNL     1      -7.355   7.513  73.318  1.00  0.00     0.000 HD 
ENDBRANCH  15  17
ENDBRANCH   3  12
TORSDOF 2
ENDMDL
MODEL      125
REMARK 921   NORMALIZED FREE ENERGY PREDICTED BY IDOCK:   -5.49 KCAL/MOL
REMARK 922        TOTAL FREE ENERGY PREDICTED BY IDOCK:   -6.72 KCAL/MOL
REMARK 923 INTER-LIGAND FREE ENERGY PREDICTED BY IDOCK:   -6.23 KCAL/MOL
REMARK 924 INTRA-LIGAND FREE ENERGY PREDICTED BY IDOCK:   -0.49 KCAL/MOL
REMARK 927      BINDING AFFINITY PREDICTED BY RF-SCORE:    0.00 PKD
ROOT
HETATM    1  C   UNL     1      -9.416  12.269  66.624  1.00  0.00    -0.227 C  
HETATM    2  C   UNL     1      -8.799  11.604  67.839  1.00  0.00    -0.155 A  
HETATM    3  C   UNL     1      -7.657  12.115  68.518  1.00  0.00    -0.124 A  
HETATM    4 CL   UNL     1     -10.847   9.811  67.542  1.00  0.00    -0.332 Cl 
HETATM    5  C   UNL     1      -7.147  11.398  69.628  1.00  0.00     0.037 A  
HETATM    6  C   UNL     1      -9.531   8.461  69.928  1.00  0.00    -0.166 C  
HETATM    7 CL   UNL     1      -5.777  11.983  70.546  1.00  0.00    -0.166 Cl 
HETATM    8  N   UNL     1      -7.760  10.202  70.062  1.00  0.00    -0.167 NA 
HETATM    9  C   UNL     1      -8.896   9.721  69.412  1.00  0.00    -0.182 A  
HETATM   10  O   UNL     1      -7.289   9.558  71.063  1.00  0.00    -0.283 OA 
HETATM   11  C   UNL     1      -9.410  10.424  68.315  1.00  0.00    -0.149 A  
ENDROOT
BRANCH   3  12
HETATM   12  C   UNL     1      -7.045  13.382  68.097  1.00  0.00    -0.116 A  
HETATM   13  O   UNL     1      -5.806  14.884  67.148  1.00  0.00    -0.230 OA 
HETATM   14  N   UNL     1      -5.897  13.511  67.409  1.00  0.00    -0.350 NA 
HETATM   15  C   UNL     1      -6.925  15.446  67.686  1.00  0.00    -0.184 A  
HETATM   16  N   UNL     1      -7.677  14.579  68.325  1.00  0.00    -0.117 NA 
BRANCH  15  17
HETATM   17  C   UNL     1      -7.225  16.848  67.400  1.00  0.00    -0.186 A  
HETATM   18  C   UNL     1      -6.799  17.537  66.248  1.00  0.00    -0.323 A  
HETATM   19  C   UNL     1      -7.153  18.895  66.063  1.00  0.00    -0.266 A  
HETATM   20  N   UNL     1      -6.693  19.601  64.865  1.00  0.00    -0.169 N  
HETATM   21  C   UNL     1      -7.936  19.564  67.012  1.00  0.00    -0.268 A  
HETATM   22  O   UNL     1      -8.346  20.872  66.952  1.00  0.00    -0.567 OA 
HETATM   23  O   UNL     1      -7.003  20.799  64.751  1.00  0.00    -0.161 OA 
HETATM   24  O   UNL     1      -6.024  18.968  64.037  1.00  0.00    -0.452 OA 
HETATM   25  C   UNL     1      -8.364  18.864  68.133  1.00  0.00    -0.309 A  
HETATM   26  H   UNL     1      -8.878  21.326  67.596  1.00  0.00     0.000 HD 
HETATM   27  C   UNL     1      -8.022  17.537  68.331  1.00  0.00    -0.261 A  
HETATM   28  O   UNL     1      -9.143  19.478  69.075  1.00  0.00    -0.355 OA 
HETATM   29  H   UNL     1      -9.436  18.999  69.842  1.00  0.00     0.000 HD 
ENDBRANCH  15  17
ENDBRANCH   3  12
TORSDOF 2
ENDMDL
MODEL      126
REMARK 921   NORMALIZED FREE ENERGY PREDICTED BY IDOCK:   -5.47 KCAL/MOL
REMARK 922        TOTAL FREE ENERGY PREDICTED BY IDOCK:   -6.70 KCAL/MOL
REMARK 923 INTER-LIGAND FREE ENERGY PREDICTED BY IDOCK:   -6.55 KCAL/MOL
REMARK 924 INTRA-LIGAND FREE ENERGY PREDICTED BY IDOCK:   -0.15 KCAL/MOL
REMARK 927      BINDING AFFINITY PREDICTED BY RF-SCORE:    0.00 PKD
ROOT
HETATM    1  C   UNL     1     -10.690  13.254  68.165  1.00  0.00    -0.264 C  
HETATM    2  C   UNL     1     -11.539  13.137  69.416  1.00  0.00    -0.360 A  
HETATM    3  C   UNL     1     -11.834  11.898  70.051  1.00  0.00    -0.407 A  
HETATM    4 CL   UNL     1     -11.647  15.868  69.252  1.00  0.00    -0.371 Cl 
HETATM    5  C   UNL     1     -12.661  11.901  71.201  1.00  0.00    -0.284 A  
HETATM    6  C   UNL     1     -13.416  15.586  71.710  1.00  0.00    -0.576 C  
HETATM    7 CL   UNL     1     -13.032  10.428  72.068  1.00  0.00    -0.540 Cl 
HETATM    8  N   UNL     1     -13.180  13.110  71.717  1.00  0.00    -0.421 NA 
HETATM    9  C   UNL     1     -12.865  14.323  71.108  1.00  0.00    -0.359 A  
HETATM   10  O   UNL     1     -13.931  13.102  72.753  1.00  0.00    -0.657 OA 
HETATM   11  C   UNL     1     -12.045  14.332  69.973  1.00  0.00    -0.340 A  
ENDROOT
BRANCH   3  12
HETATM   12  C   UNL     1     -11.259  10.645  69.544  1.00  0.00    -0.272 A  
HETATM   13  O   UNL     1     -10.569   9.033  68.273  1.00  0.00    -0.214 OA 
HETATM   14  N   UNL     1     -11.384  10.172  68.293  1.00  0.00    -0.186 NA 
HETATM   15  C   UNL     1     -10.011   8.946  69.514  1.00  0.00    -0.191 A  
HETATM   16  N   UNL     1     -10.449   9.871  70.338  1.00  0.00    -0.288 NA 
BRANCH  15  17
HETATM   17  C   UNL     1      -8.945   7.973  69.749  1.00  0.00    -0.145 A  
HETATM   18  C   UNL     1      -8.018   8.043  70.806  1.00  0.00    -0.099 A  
HETATM   19  C   UNL     1      -7.028   7.042  70.949  1.00  0.00    -0.062 A  
HETATM   20  N   UNL     1      -6.065   7.135  72.049  1.00  0.00    -0.037 N  
HETATM   21  C   UNL     1      -6.965   5.968  70.052  1.00  0.00    -0.069 A  
HETATM   22  O   UNL     1      -6.060   4.938  70.080  1.00  0.00    -0.020 OA 
HETATM   23  O   UNL     1      -5.196   6.250  72.125  1.00  0.00    -0.025 OA 
HETATM   24  O   UNL     1      -6.170   8.086  72.835  1.00  0.00    -0.062 OA 
HETATM   25  C   UNL     1      -7.899   5.904  69.026  1.00  0.00    -0.095 A  
HETATM   26  H   UNL     1      -6.017   4.209  69.471  1.00  0.00     0.000 HD 
HETATM   27  C   UNL     1      -8.870   6.879  68.870  1.00  0.00    -0.129 A  
HETATM   28  O   UNL     1      -7.880   4.863  68.139  1.00  0.00    -0.082 OA 
HETATM   29  H   UNL     1      -8.519   4.819  67.437  1.00  0.00     0.000 HD 
ENDBRANCH  15  17
ENDBRANCH   3  12
TORSDOF 2
ENDMDL
MODEL      127
REMARK 921   NORMALIZED FREE ENERGY PREDICTED BY IDOCK:   -5.47 KCAL/MOL
REMARK 922        TOTAL FREE ENERGY PREDICTED BY IDOCK:   -6.70 KCAL/MOL
REMARK 923 INTER-LIGAND FREE ENERGY PREDICTED BY IDOCK:   -6.09 KCAL/MOL
REMARK 924 INTRA-LIGAND FREE ENERGY PREDICTED BY IDOCK:   -0.61 KCAL/MOL
REMARK 927      BINDING AFFINITY PREDICTED BY RF-SCORE:    0.00 PKD
ROOT
HETATM    1  C   UNL     1     -11.047   6.063  69.818  1.00  0.00    -0.476 C  
HETATM    2  C   UNL     1      -9.684   6.276  70.448  1.00  0.00    -0.189 A  
HETATM    3  C   UNL     1      -9.077   7.556  70.591  1.00  0.00    -0.155 A  
HETATM    4 CL   UNL     1      -9.747   3.564  70.818  1.00  0.00    -0.245 Cl 
HETATM    5  C   UNL     1      -7.788   7.638  71.170  1.00  0.00    -0.090 A  
HETATM    6  C   UNL     1      -6.981   4.022  71.996  1.00  0.00    -0.045 C  
HETATM    7 CL   UNL     1      -6.993   9.175  71.426  1.00  0.00    -0.068 Cl 
HETATM    8  N   UNL     1      -7.114   6.475  71.607  1.00  0.00    -0.079 NA 
HETATM    9  C   UNL     1      -7.724   5.228  71.491  1.00  0.00    -0.104 A  
HETATM   10  O   UNL     1      -5.946   6.559  72.124  1.00  0.00    -0.037 OA 
HETATM   11  C   UNL     1      -9.001   5.135  70.922  1.00  0.00    -0.135 A  
ENDROOT
BRANCH   3  12
HETATM   12  C   UNL     1      -9.794   8.770  70.180  1.00  0.00    -0.176 A  
HETATM   13  O   UNL     1     -10.935  10.611  70.162  1.00  0.00    -0.282 OA 
HETATM   14  N   UNL     1     -10.597   9.512  70.962  1.00  0.00    -0.319 NA 
HETATM   15  C   UNL     1     -10.280  10.434  68.980  1.00  0.00    -0.217 A  
HETATM   16  N   UNL     1      -9.622   9.298  68.924  1.00  0.00    -0.153 NA 
BRANCH  15  17
HETATM   17  C   UNL     1     -10.266  11.522  68.003  1.00  0.00    -0.205 A  
HETATM   18  C   UNL     1     -10.550  12.868  68.303  1.00  0.00    -0.259 A  
HETATM   19  C   UNL     1     -10.501  13.847  67.282  1.00  0.00    -0.271 A  
HETATM   20  N   UNL     1     -10.808  15.242  67.608  1.00  0.00    -0.287 N  
HETATM   21  C   UNL     1     -10.160  13.494  65.970  1.00  0.00    -0.310 A  
HETATM   22  O   UNL     1     -10.077  14.342  64.895  1.00  0.00    -0.519 OA 
HETATM   23  O   UNL     1     -10.778  16.067  66.680  1.00  0.00    -0.311 OA 
HETATM   24  O   UNL     1     -11.080  15.518  68.784  1.00  0.00    -0.257 OA 
HETATM   25  C   UNL     1      -9.865  12.165  65.695  1.00  0.00    -0.237 A  
HETATM   26  H   UNL     1      -9.846  14.102  64.005  1.00  0.00     0.000 HD 
HETATM   27  C   UNL     1      -9.914  11.194  66.682  1.00  0.00    -0.244 A  
HETATM   28  O   UNL     1      -9.513  11.782  64.430  1.00  0.00    -0.419 OA 
HETATM   29  H   UNL     1      -9.311  10.873  64.242  1.00  0.00     0.000 HD 
ENDBRANCH  15  17
ENDBRANCH   3  12
TORSDOF 2
ENDMDL
MODEL      128
REMARK 921   NORMALIZED FREE ENERGY PREDICTED BY IDOCK:   -5.42 KCAL/MOL
REMARK 922        TOTAL FREE ENERGY PREDICTED BY IDOCK:   -6.65 KCAL/MOL
REMARK 923 INTER-LIGAND FREE ENERGY PREDICTED BY IDOCK:   -6.29 KCAL/MOL
REMARK 924 INTRA-LIGAND FREE ENERGY PREDICTED BY IDOCK:   -0.36 KCAL/MOL
REMARK 927      BINDING AFFINITY PREDICTED BY RF-SCORE:    0.00 PKD
ROOT
HETATM    1  C   UNL     1     -12.768  10.851  70.838  1.00  0.00    -0.464 C  
HETATM    2  C   UNL     1     -12.223  12.186  70.369  1.00  0.00    -0.378 A  
HETATM    3  C   UNL     1     -11.394  12.334  69.221  1.00  0.00    -0.317 A  
HETATM    4 CL   UNL     1     -13.638  13.188  72.488  1.00  0.00    -0.665 Cl 
HETATM    5  C   UNL     1     -10.917  13.626  68.888  1.00  0.00    -0.249 A  
HETATM    6  C   UNL     1     -12.455  15.833  71.565  1.00  0.00    -0.515 C  
HETATM    7 CL   UNL     1      -9.935  13.901  67.466  1.00  0.00    -0.237 Cl 
HETATM    8  N   UNL     1     -11.259  14.750  69.672  1.00  0.00    -0.266 NA 
HETATM    9  C   UNL     1     -12.094  14.604  70.778  1.00  0.00    -0.320 A  
HETATM   10  O   UNL     1     -10.818  15.912  69.366  1.00  0.00    -0.243 OA 
HETATM   11  C   UNL     1     -12.574  13.332  71.115  1.00  0.00    -0.325 A  
ENDROOT
BRANCH   3  12
HETATM   12  C   UNL     1     -11.074  11.176  68.378  1.00  0.00    -0.247 A  
HETATM   13  O   UNL     1     -10.823   9.818  66.709  1.00  0.00    -0.134 OA 
HETATM   14  N   UNL     1     -11.480  10.988  67.110  1.00  0.00    -0.442 NA 
HETATM   15  C   UNL     1     -10.063   9.427  67.771  1.00  0.00    -0.198 A  
HETATM   16  N   UNL     1     -10.231  10.189  68.828  1.00  0.00    -0.177 NA 
BRANCH  15  17
HETATM   17  C   UNL     1      -9.097   8.345  67.595  1.00  0.00    -0.144 A  
HETATM   18  C   UNL     1      -9.322   7.190  66.821  1.00  0.00    -0.199 A  
HETATM   19  C   UNL     1      -8.314   6.204  66.709  1.00  0.00    -0.110 A  
HETATM   20  N   UNL     1      -8.568   5.003  65.909  1.00  0.00    -0.121 N  
HETATM   21  C   UNL     1      -7.080   6.367  67.353  1.00  0.00    -0.077 A  
HETATM   22  O   UNL     1      -6.025   5.491  67.325  1.00  0.00    -0.020 OA 
HETATM   23  O   UNL     1      -7.667   4.150  65.855  1.00  0.00    -0.088 OA 
HETATM   24  O   UNL     1      -9.661   4.908  65.335  1.00  0.00    -0.159 OA 
HETATM   25  C   UNL     1      -6.867   7.522  68.096  1.00  0.00    -0.063 A  
HETATM   26  H   UNL     1      -5.189   5.602  67.762  1.00  0.00     0.000 HD 
HETATM   27  C   UNL     1      -7.846   8.493  68.220  1.00  0.00    -0.106 A  
HETATM   28  O   UNL     1      -5.671   7.725  68.728  1.00  0.00    -0.026 OA 
HETATM   29  H   UNL     1      -5.525   8.515  69.236  1.00  0.00     0.000 HD 
ENDBRANCH  15  17
ENDBRANCH   3  12
TORSDOF 2
ENDMDL
MODEL      129
REMARK 921   NORMALIZED FREE ENERGY PREDICTED BY IDOCK:   -5.42 KCAL/MOL
REMARK 922        TOTAL FREE ENERGY PREDICTED BY IDOCK:   -6.65 KCAL/MOL
REMARK 923 INTER-LIGAND FREE ENERGY PREDICTED BY IDOCK:   -6.11 KCAL/MOL
REMARK 924 INTRA-LIGAND FREE ENERGY PREDICTED BY IDOCK:   -0.53 KCAL/MOL
REMARK 927      BINDING AFFINITY PREDICTED BY RF-SCORE:    0.00 PKD
ROOT
HETATM    1  C   UNL     1     -12.160  12.128  66.140  1.00  0.00    -0.068 C  
HETATM    2  C   UNL     1     -11.561  13.433  66.629  1.00  0.00    -0.399 A  
HETATM    3  C   UNL     1     -11.142  13.648  67.972  1.00  0.00    -0.285 A  
HETATM    4 CL   UNL     1     -11.856  14.216  64.021  1.00  0.00    -0.356 Cl 
HETATM    5  C   UNL     1     -10.621  14.917  68.328  1.00  0.00    -0.240 A  
HETATM    6  C   UNL     1     -10.733  16.844  65.060  1.00  0.00    -0.057 C  
HETATM    7 CL   UNL     1     -10.039  15.248  69.944  1.00  0.00    -0.244 Cl 
HETATM    8  N   UNL     1     -10.511  15.950  67.370  1.00  0.00    -0.300 NA 
HETATM    9  C   UNL     1     -10.896  15.725  66.050  1.00  0.00    -0.255 A  
HETATM   10  O   UNL     1     -10.044  17.094  67.703  1.00  0.00    -0.284 OA 
HETATM   11  C   UNL     1     -11.410  14.473  65.687  1.00  0.00    -0.336 A  
ENDROOT
BRANCH   3  12
HETATM   12  C   UNL     1     -11.213  12.563  68.958  1.00  0.00    -0.268 A  
HETATM   13  O   UNL     1     -11.859  11.191  70.505  1.00  0.00    -0.337 OA 
HETATM   14  N   UNL     1     -12.150  12.427  69.912  1.00  0.00    -0.281 NA 
HETATM   15  C   UNL     1     -10.786  10.691  69.829  1.00  0.00    -0.230 A  
HETATM   16  N   UNL     1     -10.322  11.519  68.920  1.00  0.00    -0.199 NA 
BRANCH  15  17
HETATM   17  C   UNL     1     -10.367   9.313  70.078  1.00  0.00    -0.245 A  
HETATM   18  C   UNL     1      -9.590   8.541  69.193  1.00  0.00    -0.167 A  
HETATM   19  C   UNL     1      -9.231   7.216  69.534  1.00  0.00    -0.149 A  
HETATM   20  N   UNL     1      -8.432   6.423  68.597  1.00  0.00    -0.123 N  
HETATM   21  C   UNL     1      -9.632   6.660  70.756  1.00  0.00    -0.175 A  
HETATM   22  O   UNL     1      -9.352   5.395  71.206  1.00  0.00    -0.144 OA 
HETATM   23  O   UNL     1      -8.158   5.256  68.923  1.00  0.00    -0.085 OA 
HETATM   24  O   UNL     1      -8.076   6.958  67.539  1.00  0.00    -0.114 OA 
HETATM   25  C   UNL     1     -10.381   7.442  71.627  1.00  0.00    -0.196 A  
HETATM   26  H   UNL     1      -9.623   5.018  72.035  1.00  0.00     0.000 HD 
HETATM   27  C   UNL     1     -10.745   8.739  71.305  1.00  0.00    -0.339 A  
HETATM   28  O   UNL     1     -10.778   6.941  72.836  1.00  0.00    -0.239 OA 
HETATM   29  H   UNL     1     -11.291   7.475  73.432  1.00  0.00     0.000 HD 
ENDBRANCH  15  17
ENDBRANCH   3  12
TORSDOF 2
ENDMDL
MODEL      130
REMARK 921   NORMALIZED FREE ENERGY PREDICTED BY IDOCK:   -5.40 KCAL/MOL
REMARK 922        TOTAL FREE ENERGY PREDICTED BY IDOCK:   -6.62 KCAL/MOL
REMARK 923 INTER-LIGAND FREE ENERGY PREDICTED BY IDOCK:   -6.10 KCAL/MOL
REMARK 924 INTRA-LIGAND FREE ENERGY PREDICTED BY IDOCK:   -0.52 KCAL/MOL
REMARK 927      BINDING AFFINITY PREDICTED BY RF-SCORE:    0.00 PKD
ROOT
HETATM    1  C   UNL     1     -10.207  12.348  67.329  1.00  0.00    -0.224 C  
HETATM    2  C   UNL     1     -10.953  12.136  68.632  1.00  0.00    -0.284 A  
HETATM    3  C   UNL     1     -10.899  10.924  69.378  1.00  0.00    -0.286 A  
HETATM    4 CL   UNL     1     -11.760  14.726  68.262  1.00  0.00    -0.343 Cl 
HETATM    5  C   UNL     1     -11.658  10.824  70.570  1.00  0.00    -0.330 A  
HETATM    6  C   UNL     1     -13.309  14.231  70.832  1.00  0.00    -0.266 C  
HETATM    7 CL   UNL     1     -11.609   9.389  71.570  1.00  0.00    -0.443 Cl 
HETATM    8  N   UNL     1     -12.449  11.905  71.019  1.00  0.00    -0.348 NA 
HETATM    9  C   UNL     1     -12.476  13.099  70.300  1.00  0.00    -0.163 A  
HETATM   10  O   UNL     1     -13.136  11.802  72.094  1.00  0.00    -0.452 OA 
HETATM   11  C   UNL     1     -11.727  13.210  69.122  1.00  0.00    -0.325 A  
ENDROOT
BRANCH   3  12
HETATM   12  C   UNL     1     -10.042   9.816  68.939  1.00  0.00    -0.183 A  
HETATM   13  O   UNL     1      -8.375   8.470  68.621  1.00  0.00    -0.121 OA 
HETATM   14  N   UNL     1      -8.706   9.754  69.072  1.00  0.00    -0.139 NA 
HETATM   15  C   UNL     1      -9.553   7.873  68.282  1.00  0.00    -0.156 A  
HETATM   16  N   UNL     1     -10.587   8.676  68.402  1.00  0.00    -0.166 NA 
BRANCH  15  17
HETATM   17  C   UNL     1      -9.563   6.446  67.965  1.00  0.00    -0.118 A  
HETATM   18  C   UNL     1      -9.473   5.915  66.664  1.00  0.00    -0.165 A  
HETATM   19  C   UNL     1      -9.483   4.514  66.468  1.00  0.00    -0.173 A  
HETATM   20  N   UNL     1      -9.398   3.978  65.107  1.00  0.00    -0.152 N  
HETATM   21  C   UNL     1      -9.571   3.641  67.560  1.00  0.00    -0.144 A  
HETATM   22  O   UNL     1      -9.591   2.270  67.505  1.00  0.00    -0.402 OA 
HETATM   23  O   UNL     1      -9.435   2.743  64.974  1.00  0.00    -0.149 OA 
HETATM   24  O   UNL     1      -9.296   4.782  64.170  1.00  0.00    -0.081 OA 
HETATM   25  C   UNL     1      -9.640   4.180  68.838  1.00  0.00    -0.152 A  
HETATM   26  H   UNL     1      -9.650   1.678  68.246  1.00  0.00     0.000 HD 
HETATM   27  C   UNL     1      -9.637   5.550  69.046  1.00  0.00    -0.180 A  
HETATM   28  O   UNL     1      -9.712   3.361  69.930  1.00  0.00    -0.161 OA 
HETATM   29  H   UNL     1      -9.759   3.730  70.805  1.00  0.00     0.000 HD 
ENDBRANCH  15  17
ENDBRANCH   3  12
TORSDOF 2
ENDMDL
MODEL      131
REMARK 921   NORMALIZED FREE ENERGY PREDICTED BY IDOCK:   -5.38 KCAL/MOL
REMARK 922        TOTAL FREE ENERGY PREDICTED BY IDOCK:   -6.61 KCAL/MOL
REMARK 923 INTER-LIGAND FREE ENERGY PREDICTED BY IDOCK:   -6.02 KCAL/MOL
REMARK 924 INTRA-LIGAND FREE ENERGY PREDICTED BY IDOCK:   -0.59 KCAL/MOL
REMARK 927      BINDING AFFINITY PREDICTED BY RF-SCORE:    0.00 PKD
ROOT
HETATM    1  C   UNL     1     -10.364   9.241  66.090  1.00  0.00    -0.118 C  
HETATM    2  C   UNL     1      -9.805   8.703  67.393  1.00  0.00    -0.249 A  
HETATM    3  C   UNL     1      -8.943   9.451  68.244  1.00  0.00    -0.128 A  
HETATM    4 CL   UNL     1     -11.283   6.481  66.780  1.00  0.00    -0.290 Cl 
HETATM    5  C   UNL     1      -8.456   8.841  69.426  1.00  0.00    -0.125 A  
HETATM    6  C   UNL     1     -10.072   5.408  69.355  1.00  0.00    -0.304 C  
HETATM    7 CL   UNL     1      -7.432   9.707  70.550  1.00  0.00    -0.156 Cl 
HETATM    8  N   UNL     1      -8.821   7.519  69.763  1.00  0.00    -0.141 NA 
HETATM    9  C   UNL     1      -9.688   6.801  68.941  1.00  0.00    -0.137 A  
HETATM   10  O   UNL     1      -8.372   6.974  70.830  1.00  0.00    -0.126 OA 
HETATM   11  C   UNL     1     -10.178   7.396  67.771  1.00  0.00    -0.196 A  
ENDROOT
BRANCH   3  12
HETATM   12  C   UNL     1      -8.598  10.841  67.920  1.00  0.00    -0.125 A  
HETATM   13  O   UNL     1      -7.773  12.627  67.014  1.00  0.00    -0.123 OA 
HETATM   14  N   UNL     1      -7.626  11.235  67.080  1.00  0.00    -0.129 NA 
HETATM   15  C   UNL     1      -8.841  12.933  67.804  1.00  0.00    -0.188 A  
HETATM   16  N   UNL     1      -9.336  11.885  68.423  1.00  0.00    -0.200 NA 
BRANCH  15  17
HETATM   17  C   UNL     1      -9.378  14.292  67.781  1.00  0.00    -0.198 A  
HETATM   18  C   UNL     1      -8.797  15.369  67.085  1.00  0.00    -0.234 A  
HETATM   19  C   UNL     1      -9.403  16.647  67.121  1.00  0.00    -0.228 A  
HETATM   20  N   UNL     1      -8.780  17.759  66.399  1.00  0.00    -0.250 N  
HETATM   21  C   UNL     1     -10.590  16.854  67.837  1.00  0.00    -0.361 A  
HETATM   22  O   UNL     1     -11.275  18.037  67.951  1.00  0.00    -0.059 OA 
HETATM   23  O   UNL     1      -9.330  18.871  66.476  1.00  0.00    -0.317 OA 
HETATM   24  O   UNL     1      -7.746  17.530  65.758  1.00  0.00    -0.530 OA 
HETATM   25  C   UNL     1     -11.160  15.776  68.502  1.00  0.00    -0.335 A  
HETATM   26  H   UNL     1     -12.080  18.177  68.436  1.00  0.00     0.000 HD 
HETATM   27  C   UNL     1     -10.575  14.521  68.481  1.00  0.00    -0.252 A  
HETATM   28  O   UNL     1     -12.326  15.934  69.199  1.00  0.00    -0.522 OA 
HETATM   29  H   UNL     1     -12.717  15.197  69.655  1.00  0.00     0.000 HD 
ENDBRANCH  15  17
ENDBRANCH   3  12
TORSDOF 2
ENDMDL
MODEL      132
REMARK 921   NORMALIZED FREE ENERGY PREDICTED BY IDOCK:   -5.38 KCAL/MOL
REMARK 922        TOTAL FREE ENERGY PREDICTED BY IDOCK:   -6.60 KCAL/MOL
REMARK 923 INTER-LIGAND FREE ENERGY PREDICTED BY IDOCK:   -6.04 KCAL/MOL
REMARK 924 INTRA-LIGAND FREE ENERGY PREDICTED BY IDOCK:   -0.56 KCAL/MOL
REMARK 927      BINDING AFFINITY PREDICTED BY RF-SCORE:    0.00 PKD
ROOT
HETATM    1  C   UNL     1     -11.268   6.087  70.205  1.00  0.00    -0.392 C  
HETATM    2  C   UNL     1      -9.786   5.889  69.950  1.00  0.00    -0.223 A  
HETATM    3  C   UNL     1      -9.039   6.671  69.025  1.00  0.00    -0.133 A  
HETATM    4 CL   UNL     1     -10.006   3.948  71.869  1.00  0.00    -0.249 Cl 
HETATM    5  C   UNL     1      -7.664   6.381  68.844  1.00  0.00    -0.108 A  
HETATM    6  C   UNL     1      -7.056   3.524  71.266  1.00  0.00    -0.033 C  
HETATM    7 CL   UNL     1      -6.663   7.326  67.763  1.00  0.00    -0.062 Cl 
HETATM    8  N   UNL     1      -7.040   5.343  69.570  1.00  0.00    -0.062 NA 
HETATM    9  C   UNL     1      -7.770   4.599  70.495  1.00  0.00    -0.054 A  
HETATM   10  O   UNL     1      -5.798   5.086  69.395  1.00  0.00    -0.015 OA 
HETATM   11  C   UNL     1      -9.129   4.878  70.684  1.00  0.00    -0.128 A  
ENDROOT
BRANCH   3  12
HETATM   12  C   UNL     1      -9.674   7.780  68.302  1.00  0.00    -0.159 A  
HETATM   13  O   UNL     1     -10.905   8.970  66.976  1.00  0.00    -0.183 OA 
HETATM   14  N   UNL     1     -10.448   7.667  67.210  1.00  0.00    -0.301 NA 
HETATM   15  C   UNL     1     -10.379   9.739  67.970  1.00  0.00    -0.207 A  
HETATM   16  N   UNL     1      -9.575   9.069  68.765  1.00  0.00    -0.151 NA 
BRANCH  15  17
HETATM   17  C   UNL     1     -10.839  11.119  68.123  1.00  0.00    -0.266 A  
HETATM   18  C   UNL     1     -11.430  11.639  69.290  1.00  0.00    -0.364 A  
HETATM   19  C   UNL     1     -11.834  12.994  69.337  1.00  0.00    -0.322 A  
HETATM   20  N   UNL     1     -12.457  13.518  70.555  1.00  0.00    -0.325 N  
HETATM   21  C   UNL     1     -11.641  13.835  68.233  1.00  0.00    -0.338 A  
HETATM   22  O   UNL     1     -11.985  15.161  68.149  1.00  0.00    -0.505 OA 
HETATM   23  O   UNL     1     -12.819  14.706  70.548  1.00  0.00    -0.353 OA 
HETATM   24  O   UNL     1     -12.587  12.750  71.518  1.00  0.00    -0.274 OA 
HETATM   25  C   UNL     1     -11.038  13.311  67.096  1.00  0.00    -0.286 A  
HETATM   26  H   UNL     1     -11.854  15.730  67.401  1.00  0.00     0.000 HD 
HETATM   27  C   UNL     1     -10.643  11.985  67.033  1.00  0.00    -0.258 A  
HETATM   28  O   UNL     1     -10.819  14.103  66.003  1.00  0.00    -0.291 OA 
HETATM   29  H   UNL     1     -10.407  13.744  65.225  1.00  0.00     0.000 HD 
ENDBRANCH  15  17
ENDBRANCH   3  12
TORSDOF 2
ENDMDL
MODEL      133
REMARK 921   NORMALIZED FREE ENERGY PREDICTED BY IDOCK:   -5.36 KCAL/MOL
REMARK 922        TOTAL FREE ENERGY PREDICTED BY IDOCK:   -6.58 KCAL/MOL
REMARK 923 INTER-LIGAND FREE ENERGY PREDICTED BY IDOCK:   -7.44 KCAL/MOL
REMARK 924 INTRA-LIGAND FREE ENERGY PREDICTED BY IDOCK:    0.86 KCAL/MOL
REMARK 927      BINDING AFFINITY PREDICTED BY RF-SCORE:    0.00 PKD
ROOT
HETATM    1  C   UNL     1     -12.305  10.716  70.893  1.00  0.00    -0.502 C  
HETATM    2  C   UNL     1     -12.147  12.090  70.270  1.00  0.00    -0.395 A  
HETATM    3  C   UNL     1     -11.466  12.321  69.042  1.00  0.00    -0.349 A  
HETATM    4 CL   UNL     1     -13.617  12.921  72.426  1.00  0.00    -0.659 Cl 
HETATM    5  C   UNL     1     -11.354  13.649  68.564  1.00  0.00    -0.290 A  
HETATM    6  C   UNL     1     -13.206  15.669  71.190  1.00  0.00    -0.487 C  
HETATM    7 CL   UNL     1     -10.576  14.013  67.041  1.00  0.00    -0.278 Cl 
HETATM    8  N   UNL     1     -11.912  14.728  69.286  1.00  0.00    -0.305 NA 
HETATM    9  C   UNL     1     -12.603  14.494  70.473  1.00  0.00    -0.351 A  
HETATM   10  O   UNL     1     -11.801  15.926  68.849  1.00  0.00    -0.397 OA 
HETATM   11  C   UNL     1     -12.723  13.183  70.953  1.00  0.00    -0.233 A  
ENDROOT
BRANCH   3  12
HETATM   12  C   UNL     1     -10.924  11.197  68.267  1.00  0.00    -0.226 A  
HETATM   13  O   UNL     1      -9.738   9.954  66.948  1.00  0.00    -0.171 OA 
HETATM   14  N   UNL     1     -10.017  11.287  67.280  1.00  0.00    -0.182 NA 
HETATM   15  C   UNL     1     -10.489   9.190  67.789  1.00  0.00    -0.247 A  
HETATM   16  N   UNL     1     -11.272   9.903  68.568  1.00  0.00    -0.135 NA 
BRANCH  15  17
HETATM   17  C   UNL     1     -10.265   7.746  67.831  1.00  0.00    -0.259 A  
HETATM   18  C   UNL     1     -10.108   6.995  69.012  1.00  0.00    -0.182 A  
HETATM   19  C   UNL     1      -9.903   5.597  68.941  1.00  0.00    -0.147 A  
HETATM   20  N   UNL     1      -9.731   4.832  70.179  1.00  0.00    -0.197 N  
HETATM   21  C   UNL     1      -9.865   4.943  67.703  1.00  0.00    -0.161 A  
HETATM   22  O   UNL     1      -9.675   3.599  67.499  1.00  0.00    -0.184 OA 
HETATM   23  O   UNL     1      -9.529   3.611  70.074  1.00  0.00    -0.168 OA 
HETATM   24  O   UNL     1      -9.796   5.443  71.254  1.00  0.00    -0.166 OA 
HETATM   25  C   UNL     1     -10.042   5.695  66.549  1.00  0.00    -0.185 A  
HETATM   26  H   UNL     1      -9.650   3.156  66.659  1.00  0.00     0.000 HD 
HETATM   27  C   UNL     1     -10.237   7.065  66.601  1.00  0.00    -0.218 A  
HETATM   28  O   UNL     1     -10.027   5.091  65.322  1.00  0.00    -0.371 OA 
HETATM   29  H   UNL     1     -10.147   5.605  64.532  1.00  0.00     0.000 HD 
ENDBRANCH  15  17
ENDBRANCH   3  12
TORSDOF 2
ENDMDL
MODEL      134
REMARK 921   NORMALIZED FREE ENERGY PREDICTED BY IDOCK:   -5.36 KCAL/MOL
REMARK 922        TOTAL FREE ENERGY PREDICTED BY IDOCK:   -6.57 KCAL/MOL
REMARK 923 INTER-LIGAND FREE ENERGY PREDICTED BY IDOCK:   -5.98 KCAL/MOL
REMARK 924 INTRA-LIGAND FREE ENERGY PREDICTED BY IDOCK:   -0.59 KCAL/MOL
REMARK 927      BINDING AFFINITY PREDICTED BY RF-SCORE:    0.00 PKD
ROOT
HETATM    1  C   UNL     1      -7.515  17.335  66.489  1.00  0.00    -0.315 C  
HETATM    2  C   UNL     1      -6.853  17.425  67.850  1.00  0.00    -0.184 A  
HETATM    3  C   UNL     1      -6.454  16.285  68.604  1.00  0.00    -0.126 A  
HETATM    4 CL   UNL     1      -7.037  20.127  67.446  1.00  0.00    -0.290 Cl 
HETATM    5  C   UNL     1      -5.868  16.483  69.878  1.00  0.00    -0.203 A  
HETATM    6  C   UNL     1      -5.785  20.262  70.214  1.00  0.00    -0.372 C  
HETATM    7 CL   UNL     1      -5.307  15.139  70.848  1.00  0.00    -0.139 Cl 
HETATM    8  N   UNL     1      -5.673  17.784  70.393  1.00  0.00    -0.213 NA 
HETATM    9  C   UNL     1      -6.039  18.897  69.638  1.00  0.00    -0.264 A  
HETATM   10  O   UNL     1      -5.147  17.952  71.547  1.00  0.00    -0.512 OA 
HETATM   11  C   UNL     1      -6.616  18.713  68.375  1.00  0.00    -0.233 A  
ENDROOT
BRANCH   3  12
HETATM   12  C   UNL     1      -6.614  14.933  68.053  1.00  0.00    -0.148 A  
HETATM   13  O   UNL     1      -6.257  12.977  67.194  1.00  0.00    -0.286 OA 
HETATM   14  N   UNL     1      -5.667  14.230  67.408  1.00  0.00    -0.307 NA 
HETATM   15  C   UNL     1      -7.497  13.042  67.756  1.00  0.00    -0.146 A  
HETATM   16  N   UNL     1      -7.780  14.232  68.237  1.00  0.00    -0.125 NA 
BRANCH  15  17
HETATM   17  C   UNL     1      -8.287  11.818  67.878  1.00  0.00    -0.149 A  
HETATM   18  C   UNL     1      -8.384  11.044  69.050  1.00  0.00    -0.089 A  
HETATM   19  C   UNL     1      -9.186   9.878  69.066  1.00  0.00    -0.168 A  
HETATM   20  N   UNL     1      -9.268   9.077  70.290  1.00  0.00    -0.185 N  
HETATM   21  C   UNL     1      -9.899   9.487  67.925  1.00  0.00    -0.156 A  
HETATM   22  O   UNL     1     -10.708   8.385  67.809  1.00  0.00    -0.424 OA 
HETATM   23  O   UNL     1      -9.963   8.048  70.255  1.00  0.00    -0.187 OA 
HETATM   24  O   UNL     1      -8.643   9.470  71.284  1.00  0.00    -0.247 OA 
HETATM   25  C   UNL     1      -9.808  10.273  66.783  1.00  0.00    -0.197 A  
HETATM   26  H   UNL     1     -11.192   8.120  67.035  1.00  0.00     0.000 HD 
HETATM   27  C   UNL     1      -9.023  11.414  66.751  1.00  0.00    -0.177 A  
HETATM   28  O   UNL     1     -10.501   9.934  65.654  1.00  0.00    -0.144 OA 
HETATM   29  H   UNL     1     -10.439  10.471  64.873  1.00  0.00     0.000 HD 
ENDBRANCH  15  17
ENDBRANCH   3  12
TORSDOF 2
ENDMDL
MODEL      135
REMARK 921   NORMALIZED FREE ENERGY PREDICTED BY IDOCK:   -5.35 KCAL/MOL
REMARK 922        TOTAL FREE ENERGY PREDICTED BY IDOCK:   -6.57 KCAL/MOL
REMARK 923 INTER-LIGAND FREE ENERGY PREDICTED BY IDOCK:   -6.94 KCAL/MOL
REMARK 924 INTRA-LIGAND FREE ENERGY PREDICTED BY IDOCK:    0.36 KCAL/MOL
REMARK 927      BINDING AFFINITY PREDICTED BY RF-SCORE:    0.00 PKD
ROOT
HETATM    1  C   UNL     1      -7.264  17.434  68.255  1.00  0.00    -0.214 C  
HETATM    2  C   UNL     1      -8.401  17.298  67.260  1.00  0.00    -0.216 A  
HETATM    3  C   UNL     1      -8.763  16.065  66.648  1.00  0.00    -0.309 A  
HETATM    4 CL   UNL     1      -8.751  19.973  67.728  1.00  0.00    -0.376 Cl 
HETATM    5  C   UNL     1      -9.825  16.057  65.711  1.00  0.00    -0.323 A  
HETATM    6  C   UNL     1     -10.966  19.676  65.665  1.00  0.00    -0.232 C  
HETATM    7 CL   UNL     1     -10.365  14.577  64.951  1.00  0.00    -0.441 Cl 
HETATM    8  N   UNL     1     -10.520  17.245  65.391  1.00  0.00    -0.646 NA 
HETATM    9  C   UNL     1     -10.180  18.444  66.015  1.00  0.00    -0.336 A  
HETATM   10  O   UNL     1     -11.475  17.228  64.539  1.00  0.00    -0.864 OA 
HETATM   11  C   UNL     1      -9.133  18.463  66.946  1.00  0.00    -0.286 A  
ENDROOT
BRANCH   3  12
HETATM   12  C   UNL     1      -8.074  14.821  67.012  1.00  0.00    -0.144 A  
HETATM   13  O   UNL     1      -6.619  13.365  67.688  1.00  0.00    -0.151 OA 
HETATM   14  N   UNL     1      -6.763  14.699  67.282  1.00  0.00    -0.253 NA 
HETATM   15  C   UNL     1      -7.868  12.821  67.647  1.00  0.00    -0.165 A  
HETATM   16  N   UNL     1      -8.774  13.653  67.183  1.00  0.00    -0.219 NA 
BRANCH  15  17
HETATM   17  C   UNL     1      -8.084  11.491  68.213  1.00  0.00    -0.148 A  
HETATM   18  C   UNL     1      -8.841  10.474  67.599  1.00  0.00    -0.131 A  
HETATM   19  C   UNL     1      -8.982   9.216  68.230  1.00  0.00    -0.129 A  
HETATM   20  N   UNL     1      -9.781   8.172  67.583  1.00  0.00    -0.152 N  
HETATM   21  C   UNL     1      -8.363   8.961  69.461  1.00  0.00    -0.119 A  
HETATM   22  O   UNL     1      -8.420   7.790  70.173  1.00  0.00    -0.130 OA 
HETATM   23  O   UNL     1      -9.901   7.089  68.181  1.00  0.00    -0.135 OA 
HETATM   24  O   UNL     1     -10.291   8.428  66.484  1.00  0.00    -0.285 OA 
HETATM   25  C   UNL     1      -7.604   9.968  70.043  1.00  0.00    -0.172 A  
HETATM   26  H   UNL     1      -8.000   7.617  71.008  1.00  0.00     0.000 HD 
HETATM   27  C   UNL     1      -7.462  11.207  69.441  1.00  0.00    -0.029 A  
HETATM   28  O   UNL     1      -6.972   9.754  71.237  1.00  0.00    -0.330 OA 
HETATM   29  H   UNL     1      -6.452  10.442  71.636  1.00  0.00     0.000 HD 
ENDBRANCH  15  17
ENDBRANCH   3  12
TORSDOF 2
ENDMDL
MODEL      136
REMARK 921   NORMALIZED FREE ENERGY PREDICTED BY IDOCK:   -5.35 KCAL/MOL
REMARK 922        TOTAL FREE ENERGY PREDICTED BY IDOCK:   -6.57 KCAL/MOL
REMARK 923 INTER-LIGAND FREE ENERGY PREDICTED BY IDOCK:   -5.98 KCAL/MOL
REMARK 924 INTRA-LIGAND FREE ENERGY PREDICTED BY IDOCK:   -0.59 KCAL/MOL
REMARK 927      BINDING AFFINITY PREDICTED BY RF-SCORE:    0.00 PKD
ROOT
HETATM    1  C   UNL     1      -8.369  13.437  68.312  1.00  0.00    -0.160 C  
HETATM    2  C   UNL     1      -9.203  13.363  67.048  1.00  0.00    -0.242 A  
HETATM    3  C   UNL     1      -9.473  12.148  66.357  1.00  0.00    -0.238 A  
HETATM    4 CL   UNL     1      -9.478  16.063  67.413  1.00  0.00    -0.218 Cl 
HETATM    5  C   UNL     1     -10.242  12.198  65.169  1.00  0.00    -0.278 A  
HETATM    6  C   UNL     1     -11.072  15.885  64.829  1.00  0.00    -0.397 C  
HETATM    7 CL   UNL     1     -10.660  10.746  64.286  1.00  0.00    -0.350 Cl 
HETATM    8  N   UNL     1     -10.740  13.425  64.677  1.00  0.00    -0.389 NA 
HETATM    9  C   UNL     1     -10.497  14.608  65.373  1.00  0.00    -0.380 A  
HETATM   10  O   UNL     1     -11.430  13.460  63.600  1.00  0.00    -0.319 OA 
HETATM   11  C   UNL     1      -9.740  14.570  66.552  1.00  0.00    -0.285 A  
ENDROOT
BRANCH   3  12
HETATM   12  C   UNL     1      -8.996  10.866  66.889  1.00  0.00    -0.151 A  
HETATM   13  O   UNL     1      -7.769   9.181  67.479  1.00  0.00    -0.092 OA 
HETATM   14  N   UNL     1      -7.784  10.326  66.671  1.00  0.00    -0.110 NA 
HETATM   15  C   UNL     1      -8.968   9.158  68.126  1.00  0.00    -0.129 A  
HETATM   16  N   UNL     1      -9.770  10.130  67.753  1.00  0.00    -0.151 NA 
BRANCH  15  17
HETATM   17  C   UNL     1      -9.178   8.192  69.202  1.00  0.00    -0.151 A  
HETATM   18  C   UNL     1     -10.432   7.876  69.759  1.00  0.00    -0.233 A  
HETATM   19  C   UNL     1     -10.527   6.916  70.795  1.00  0.00    -0.216 A  
HETATM   20  N   UNL     1     -11.838   6.606  71.370  1.00  0.00    -0.323 N  
HETATM   21  C   UNL     1      -9.382   6.264  71.270  1.00  0.00    -0.156 A  
HETATM   22  O   UNL     1      -9.338   5.319  72.264  1.00  0.00    -0.141 OA 
HETATM   23  O   UNL     1     -11.876   5.777  72.294  1.00  0.00    -0.273 OA 
HETATM   24  O   UNL     1     -12.829   7.186  70.905  1.00  0.00    -0.294 OA 
HETATM   25  C   UNL     1      -8.155   6.573  70.697  1.00  0.00    -0.113 A  
HETATM   26  H   UNL     1      -8.561   4.876  72.586  1.00  0.00     0.000 HD 
HETATM   27  C   UNL     1      -8.046   7.514  69.686  1.00  0.00    -0.127 A  
HETATM   28  O   UNL     1      -7.016   5.947  71.123  1.00  0.00    -0.063 OA 
HETATM   29  H   UNL     1      -6.177   6.158  70.731  1.00  0.00     0.000 HD 
ENDBRANCH  15  17
ENDBRANCH   3  12
TORSDOF 2
ENDMDL
MODEL      137
REMARK 921   NORMALIZED FREE ENERGY PREDICTED BY IDOCK:   -5.35 KCAL/MOL
REMARK 922        TOTAL FREE ENERGY PREDICTED BY IDOCK:   -6.57 KCAL/MOL
REMARK 923 INTER-LIGAND FREE ENERGY PREDICTED BY IDOCK:   -5.99 KCAL/MOL
REMARK 924 INTRA-LIGAND FREE ENERGY PREDICTED BY IDOCK:   -0.58 KCAL/MOL
REMARK 927      BINDING AFFINITY PREDICTED BY RF-SCORE:    0.00 PKD
ROOT
HETATM    1  C   UNL     1      -7.571  13.115  69.254  1.00  0.00     0.367 C  
HETATM    2  C   UNL     1      -8.606  13.667  68.293  1.00  0.00    -0.170 A  
HETATM    3  C   UNL     1      -9.550  12.853  67.605  1.00  0.00    -0.196 A  
HETATM    4 CL   UNL     1      -7.525  16.090  68.969  1.00  0.00    -0.189 Cl 
HETATM    5  C   UNL     1     -10.455  13.471  66.708  1.00  0.00    -0.273 A  
HETATM    6  C   UNL     1      -9.557  17.149  66.969  1.00  0.00    -0.262 C  
HETATM    7 CL   UNL     1     -11.678  12.549  65.861  1.00  0.00    -0.455 Cl 
HETATM    8  N   UNL     1     -10.432  14.868  66.502  1.00  0.00    -0.289 NA 
HETATM    9  C   UNL     1      -9.525  15.663  67.199  1.00  0.00    -0.217 A  
HETATM   10  O   UNL     1     -11.251  15.416  65.685  1.00  0.00    -0.300 OA 
HETATM   11  C   UNL     1      -8.627  15.064  68.091  1.00  0.00    -0.156 A  
ENDROOT
BRANCH   3  12
HETATM   12  C   UNL     1      -9.607  11.407  67.852  1.00  0.00    -0.177 A  
HETATM   13  O   UNL     1      -9.169   9.287  67.931  1.00  0.00    -0.130 OA 
HETATM   14  N   UNL     1      -8.808  10.481  67.294  1.00  0.00    -0.136 NA 
HETATM   15  C   UNL     1     -10.136   9.616  68.833  1.00  0.00    -0.187 A  
HETATM   16  N   UNL     1     -10.477  10.884  68.777  1.00  0.00    -0.190 NA 
BRANCH  15  17
HETATM   17  C   UNL     1     -10.576   8.616  69.803  1.00  0.00    -0.224 A  
HETATM   18  C   UNL     1     -10.018   7.329  69.933  1.00  0.00    -0.183 A  
HETATM   19  C   UNL     1     -10.512   6.437  70.914  1.00  0.00    -0.228 A  
HETATM   20  N   UNL     1      -9.928   5.099  71.029  1.00  0.00    -0.195 N  
HETATM   21  C   UNL     1     -11.550   6.824  71.772  1.00  0.00    -0.297 A  
HETATM   22  O   UNL     1     -12.117   6.059  72.759  1.00  0.00    -0.525 OA 
HETATM   23  O   UNL     1     -10.406   4.337  71.886  1.00  0.00    -0.160 OA 
HETATM   24  O   UNL     1      -8.996   4.804  70.269  1.00  0.00    -0.098 OA 
HETATM   25  C   UNL     1     -12.076   8.103  71.644  1.00  0.00    -0.304 A  
HETATM   26  H   UNL     1     -12.820   6.321  73.341  1.00  0.00     0.000 HD 
HETATM   27  C   UNL     1     -11.606   8.986  70.685  1.00  0.00    -0.265 A  
HETATM   28  O   UNL     1     -13.079   8.524  72.472  1.00  0.00    -0.552 OA 
HETATM   29  H   UNL     1     -13.439   9.399  72.384  1.00  0.00     0.000 HD 
ENDBRANCH  15  17
ENDBRANCH   3  12
TORSDOF 2
ENDMDL
MODEL      138
REMARK 921   NORMALIZED FREE ENERGY PREDICTED BY IDOCK:   -5.35 KCAL/MOL
REMARK 922        TOTAL FREE ENERGY PREDICTED BY IDOCK:   -6.57 KCAL/MOL
REMARK 923 INTER-LIGAND FREE ENERGY PREDICTED BY IDOCK:   -6.14 KCAL/MOL
REMARK 924 INTRA-LIGAND FREE ENERGY PREDICTED BY IDOCK:   -0.43 KCAL/MOL
REMARK 927      BINDING AFFINITY PREDICTED BY RF-SCORE:    0.00 PKD
ROOT
HETATM    1  C   UNL     1      -8.751  12.157  66.861  1.00  0.00    -0.194 C  
HETATM    2  C   UNL     1      -8.244  11.495  68.127  1.00  0.00    -0.149 A  
HETATM    3  C   UNL     1      -7.121  11.968  68.864  1.00  0.00    -0.104 A  
HETATM    4 CL   UNL     1     -10.355   9.794  67.743  1.00  0.00    -0.254 Cl 
HETATM    5  C   UNL     1      -6.716  11.256  70.020  1.00  0.00    -0.008 A  
HETATM    6  C   UNL     1      -9.256   8.444  70.237  1.00  0.00    -0.154 C  
HETATM    7 CL   UNL     1      -5.378  11.799  71.008  1.00  0.00    -0.127 Cl 
HETATM    8  N   UNL     1      -7.413  10.102  70.442  1.00  0.00    -0.260 NA 
HETATM    9  C   UNL     1      -8.528   9.660  69.733  1.00  0.00    -0.190 A  
HETATM   10  O   UNL     1      -7.036   9.463  71.484  1.00  0.00    -0.307 OA 
HETATM   11  C   UNL     1      -8.940  10.358  68.591  1.00  0.00    -0.146 A  
ENDROOT
BRANCH   3  12
HETATM   12  C   UNL     1      -6.423  13.193  68.454  1.00  0.00    -0.086 A  
HETATM   13  O   UNL     1      -5.328  14.695  67.342  1.00  0.00    -0.334 OA 
HETATM   14  N   UNL     1      -5.663  13.334  67.355  1.00  0.00    -0.355 NA 
HETATM   15  C   UNL     1      -5.943  15.246  68.426  1.00  0.00    -0.107 A  
HETATM   16  N   UNL     1      -6.571  14.359  69.165  1.00  0.00    -0.105 NA 
BRANCH  15  17
HETATM   17  C   UNL     1      -5.954  16.700  68.575  1.00  0.00    -0.125 A  
HETATM   18  C   UNL     1      -5.718  17.381  69.785  1.00  0.00    -0.231 A  
HETATM   19  C   UNL     1      -5.743  18.795  69.819  1.00  0.00    -0.237 A  
HETATM   20  N   UNL     1      -5.506  19.488  71.088  1.00  0.00    -0.262 N  
HETATM   21  C   UNL     1      -5.991  19.533  68.655  1.00  0.00    -0.227 A  
HETATM   22  O   UNL     1      -6.043  20.901  68.553  1.00  0.00    -0.340 OA 
HETATM   23  O   UNL     1      -5.561  20.729  71.082  1.00  0.00    -0.532 OA 
HETATM   24  O   UNL     1      -5.266  18.801  72.090  1.00  0.00    -0.768 OA 
HETATM   25  C   UNL     1      -6.203  18.847  67.466  1.00  0.00    -0.184 A  
HETATM   26  H   UNL     1      -6.210  21.401  67.763  1.00  0.00     0.000 HD 
HETATM   27  C   UNL     1      -6.187  17.462  67.417  1.00  0.00    -0.166 A  
HETATM   28  O   UNL     1      -6.433  19.531  66.304  1.00  0.00    -0.186 OA 
HETATM   29  H   UNL     1      -6.578  19.062  65.491  1.00  0.00     0.000 HD 
ENDBRANCH  15  17
ENDBRANCH   3  12
TORSDOF 2
ENDMDL
MODEL      139
REMARK 921   NORMALIZED FREE ENERGY PREDICTED BY IDOCK:   -5.34 KCAL/MOL
REMARK 922        TOTAL FREE ENERGY PREDICTED BY IDOCK:   -6.56 KCAL/MOL
REMARK 923 INTER-LIGAND FREE ENERGY PREDICTED BY IDOCK:   -5.99 KCAL/MOL
REMARK 924 INTRA-LIGAND FREE ENERGY PREDICTED BY IDOCK:   -0.57 KCAL/MOL
REMARK 927      BINDING AFFINITY PREDICTED BY RF-SCORE:    0.00 PKD
ROOT
HETATM    1  C   UNL     1      -9.554   7.868  71.443  1.00  0.00    -0.187 C  
HETATM    2  C   UNL     1      -8.368   7.174  70.803  1.00  0.00    -0.128 A  
HETATM    3  C   UNL     1      -7.707   7.663  69.641  1.00  0.00    -0.099 A  
HETATM    4 CL   UNL     1      -8.653   5.401  72.870  1.00  0.00    -0.119 Cl 
HETATM    5  C   UNL     1      -6.625   6.920  69.110  1.00  0.00    -0.048 A  
HETATM    6  C   UNL     1      -6.328   3.992  71.506  1.00  0.00    -0.015 C  
HETATM    7 CL   UNL     1      -5.728   7.476  67.714  1.00  0.00    -0.033 Cl 
HETATM    8  N   UNL     1      -6.201   5.719  69.720  1.00  0.00    -0.025 NA 
HETATM    9  C   UNL     1      -6.833   5.259  70.874  1.00  0.00    -0.048 A  
HETATM   10  O   UNL     1      -5.225   5.051  69.229  1.00  0.00     0.000 OA 
HETATM   11  C   UNL     1      -7.902   5.988  71.410  1.00  0.00    -0.112 A  
ENDROOT
BRANCH   3  12
HETATM   12  C   UNL     1      -8.115   8.935  69.030  1.00  0.00    -0.115 A  
HETATM   13  O   UNL     1      -8.191  10.987  68.341  1.00  0.00    -0.122 OA 
HETATM   14  N   UNL     1      -7.522  10.125  69.220  1.00  0.00    -0.099 NA 
HETATM   15  C   UNL     1      -9.109  10.220  67.686  1.00  0.00    -0.137 A  
HETATM   16  N   UNL     1      -9.140   8.979  68.117  1.00  0.00    -0.133 NA 
BRANCH  15  17
HETATM   17  C   UNL     1      -9.830  10.789  66.549  1.00  0.00    -0.246 A  
HETATM   18  C   UNL     1     -10.696  11.897  66.625  1.00  0.00    -0.291 A  
HETATM   19  C   UNL     1     -11.340  12.374  65.459  1.00  0.00    -0.346 A  
HETATM   20  N   UNL     1     -12.245  13.521  65.556  1.00  0.00    -0.422 N  
HETATM   21  C   UNL     1     -11.117  11.762  64.218  1.00  0.00    -0.355 A  
HETATM   22  O   UNL     1     -11.675  12.126  63.019  1.00  0.00    -0.684 OA 
HETATM   23  O   UNL     1     -12.810  13.895  64.514  1.00  0.00    -0.644 OA 
HETATM   24  O   UNL     1     -12.397  14.051  66.665  1.00  0.00    -0.451 OA 
HETATM   25  C   UNL     1     -10.244  10.683  64.158  1.00  0.00    -0.295 A  
HETATM   26  H   UNL     1     -11.524  11.711  62.178  1.00  0.00     0.000 HD 
HETATM   27  C   UNL     1      -9.611  10.200  65.291  1.00  0.00    -0.338 A  
HETATM   28  O   UNL     1      -9.989  10.068  62.964  1.00  0.00    -0.499 OA 
HETATM   29  H   UNL     1      -9.392   9.329  62.922  1.00  0.00     0.000 HD 
ENDBRANCH  15  17
ENDBRANCH   3  12
TORSDOF 2
ENDMDL
MODEL      140
REMARK 921   NORMALIZED FREE ENERGY PREDICTED BY IDOCK:   -5.34 KCAL/MOL
REMARK 922        TOTAL FREE ENERGY PREDICTED BY IDOCK:   -6.55 KCAL/MOL
REMARK 923 INTER-LIGAND FREE ENERGY PREDICTED BY IDOCK:   -6.03 KCAL/MOL
REMARK 924 INTRA-LIGAND FREE ENERGY PREDICTED BY IDOCK:   -0.52 KCAL/MOL
REMARK 927      BINDING AFFINITY PREDICTED BY RF-SCORE:    0.00 PKD
ROOT
HETATM    1  C   UNL     1      -6.951  13.175  67.428  1.00  0.00    -0.117 C  
HETATM    2  C   UNL     1      -7.950  14.214  66.957  1.00  0.00     0.008 A  
HETATM    3  C   UNL     1      -9.204  13.885  66.368  1.00  0.00    -0.174 A  
HETATM    4 CL   UNL     1      -6.108  16.002  67.907  1.00  0.00    -0.134 Cl 
HETATM    5  C   UNL     1     -10.050  14.936  65.938  1.00  0.00    -0.325 A  
HETATM    6  C   UNL     1      -8.100  18.054  66.873  1.00  0.00    -0.255 C  
HETATM    7 CL   UNL     1     -11.627  14.619  65.249  1.00  0.00    -0.351 Cl 
HETATM    8  N   UNL     1      -9.667  16.286  66.096  1.00  0.00    -0.308 NA 
HETATM    9  C   UNL     1      -8.452  16.603  66.700  1.00  0.00    -0.259 A  
HETATM   10  O   UNL     1     -10.437  17.229  65.699  1.00  0.00    -0.561 OA 
HETATM   11  C   UNL     1      -7.608  15.572  67.131  1.00  0.00    -0.218 A  
ENDROOT
BRANCH   3  12
HETATM   12  C   UNL     1      -9.625  12.484  66.244  1.00  0.00    -0.245 A  
HETATM   13  O   UNL     1      -9.967  10.465  65.538  1.00  0.00    -0.249 OA 
HETATM   14  N   UNL     1      -9.585  11.746  65.121  1.00  0.00    -0.199 NA 
HETATM   15  C   UNL     1     -10.175  10.551  66.882  1.00  0.00    -0.229 A  
HETATM   16  N   UNL     1     -10.038  11.773  67.344  1.00  0.00    -0.194 NA 
BRANCH  15  17
HETATM   17  C   UNL     1     -10.387   9.325  67.650  1.00  0.00    -0.311 A  
HETATM   18  C   UNL     1     -10.331   8.025  67.111  1.00  0.00    -0.395 A  
HETATM   19  C   UNL     1     -10.544   6.902  67.945  1.00  0.00    -0.231 A  
HETATM   20  N   UNL     1     -10.492   5.557  67.368  1.00  0.00    -0.226 N  
HETATM   21  C   UNL     1     -10.800   7.067  69.313  1.00  0.00    -0.214 A  
HETATM   22  O   UNL     1     -11.023   6.067  70.225  1.00  0.00    -0.301 OA 
HETATM   23  O   UNL     1     -10.708   4.599  68.128  1.00  0.00     0.322 OA 
HETATM   24  O   UNL     1     -10.237   5.452  66.160  1.00  0.00    -0.181 OA 
HETATM   25  C   UNL     1     -10.833   8.355  69.832  1.00  0.00    -0.207 A  
HETATM   26  H   UNL     1     -11.196   6.179  71.153  1.00  0.00     0.000 HD 
HETATM   27  C   UNL     1     -10.633   9.465  69.027  1.00  0.00    -0.233 A  
HETATM   28  O   UNL     1     -11.066   8.557  71.164  1.00  0.00    -0.242 OA 
HETATM   29  H   UNL     1     -11.089   9.439  71.519  1.00  0.00     0.000 HD 
ENDBRANCH  15  17
ENDBRANCH   3  12
TORSDOF 2
ENDMDL
MODEL      141
REMARK 921   NORMALIZED FREE ENERGY PREDICTED BY IDOCK:   -5.33 KCAL/MOL
REMARK 922        TOTAL FREE ENERGY PREDICTED BY IDOCK:   -6.54 KCAL/MOL
REMARK 923 INTER-LIGAND FREE ENERGY PREDICTED BY IDOCK:   -5.94 KCAL/MOL
REMARK 924 INTRA-LIGAND FREE ENERGY PREDICTED BY IDOCK:   -0.61 KCAL/MOL
REMARK 927      BINDING AFFINITY PREDICTED BY RF-SCORE:    0.00 PKD
ROOT
HETATM    1  C   UNL     1     -11.241  16.841  68.443  1.00  0.00    -0.176 C  
HETATM    2  C   UNL     1      -9.730  16.941  68.361  1.00  0.00    -0.263 A  
HETATM    3  C   UNL     1      -8.885  15.827  68.094  1.00  0.00    -0.178 A  
HETATM    4 CL   UNL     1     -10.165  19.605  68.817  1.00  0.00    -0.512 Cl 
HETATM    5  C   UNL     1      -7.483  16.027  68.066  1.00  0.00    -0.126 A  
HETATM    6  C   UNL     1      -7.129  19.747  68.731  1.00  0.00    -0.365 C  
HETATM    7 CL   UNL     1      -6.377  14.723  67.697  1.00  0.00    -0.171 Cl 
HETATM    8  N   UNL     1      -6.929  17.307  68.293  1.00  0.00    -0.180 NA 
HETATM    9  C   UNL     1      -7.762  18.399  68.525  1.00  0.00    -0.303 A  
HETATM   10  O   UNL     1      -5.660  17.477  68.271  1.00  0.00    -0.143 OA 
HETATM   11  C   UNL     1      -9.150  18.213  68.551  1.00  0.00    -0.306 A  
ENDROOT
BRANCH   3  12
HETATM   12  C   UNL     1      -9.459  14.505  67.813  1.00  0.00    -0.210 A  
HETATM   13  O   UNL     1     -10.187  12.713  66.838  1.00  0.00    -0.231 OA 
HETATM   14  N   UNL     1      -9.815  14.043  66.602  1.00  0.00    -0.275 NA 
HETATM   15  C   UNL     1      -9.993  12.496  68.170  1.00  0.00    -0.224 A  
HETATM   16  N   UNL     1      -9.609  13.576  68.813  1.00  0.00    -0.063 NA 
BRANCH  15  17
HETATM   17  C   UNL     1     -10.096  11.135  68.693  1.00  0.00    -0.208 A  
HETATM   18  C   UNL     1      -9.158  10.113  68.452  1.00  0.00    -0.133 A  
HETATM   19  C   UNL     1      -9.349   8.829  69.014  1.00  0.00    -0.145 A  
HETATM   20  N   UNL     1      -8.369   7.774  68.746  1.00  0.00    -0.128 N  
HETATM   21  C   UNL     1     -10.461   8.562  69.823  1.00  0.00    -0.220 A  
HETATM   22  O   UNL     1     -10.761   7.366  70.425  1.00  0.00    -0.227 OA 
HETATM   23  O   UNL     1      -8.585   6.653  69.237  1.00  0.00    -0.130 OA 
HETATM   24  O   UNL     1      -7.386   8.057  68.048  1.00  0.00    -0.091 OA 
HETATM   25  C   UNL     1     -11.367   9.586  70.066  1.00  0.00    -0.166 A  
HETATM   26  H   UNL     1     -11.516   7.185  70.973  1.00  0.00     0.000 HD 
HETATM   27  C   UNL     1     -11.197  10.847  69.518  1.00  0.00    -0.340 A  
HETATM   28  O   UNL     1     -12.458   9.369  70.862  1.00  0.00    -0.428 OA 
HETATM   29  H   UNL     1     -13.078  10.070  71.028  1.00  0.00     0.000 HD 
ENDBRANCH  15  17
ENDBRANCH   3  12
TORSDOF 2
ENDMDL
MODEL      142
REMARK 921   NORMALIZED FREE ENERGY PREDICTED BY IDOCK:   -5.33 KCAL/MOL
REMARK 922        TOTAL FREE ENERGY PREDICTED BY IDOCK:   -6.54 KCAL/MOL
REMARK 923 INTER-LIGAND FREE ENERGY PREDICTED BY IDOCK:   -6.79 KCAL/MOL
REMARK 924 INTRA-LIGAND FREE ENERGY PREDICTED BY IDOCK:    0.24 KCAL/MOL
REMARK 927      BINDING AFFINITY PREDICTED BY RF-SCORE:    0.00 PKD
ROOT
HETATM    1  C   UNL     1     -11.073  14.190  68.139  1.00  0.00    -0.276 C  
HETATM    2  C   UNL     1     -11.636  13.294  69.225  1.00  0.00    -0.370 A  
HETATM    3  C   UNL     1     -11.420  11.888  69.271  1.00  0.00    -0.366 A  
HETATM    4 CL   UNL     1     -12.631  15.634  70.242  1.00  0.00    -0.395 Cl 
HETATM    5  C   UNL     1     -12.017  11.142  70.317  1.00  0.00    -0.373 A  
HETATM    6  C   UNL     1     -13.815  13.792  72.353  1.00  0.00    -0.681 C  
HETATM    7 CL   UNL     1     -11.761   9.418  70.474  1.00  0.00    -0.283 Cl 
HETATM    8  N   UNL     1     -12.807  11.776  71.302  1.00  0.00    -0.363 NA 
HETATM    9  C   UNL     1     -12.992  13.157  71.267  1.00  0.00    -0.254 A  
HETATM   10  O   UNL     1     -13.346  11.092  72.239  1.00  0.00    -0.394 OA 
HETATM   11  C   UNL     1     -12.403  13.906  70.240  1.00  0.00    -0.345 A  
ENDROOT
BRANCH   3  12
HETATM   12  C   UNL     1     -10.563  11.232  68.276  1.00  0.00    -0.197 A  
HETATM   13  O   UNL     1      -8.912  10.680  66.987  1.00  0.00    -0.137 OA 
HETATM   14  N   UNL     1      -9.397  11.708  67.806  1.00  0.00    -0.173 NA 
HETATM   15  C   UNL     1      -9.825   9.671  67.065  1.00  0.00    -0.195 A  
HETATM   16  N   UNL     1     -10.875   9.986  67.790  1.00  0.00    -0.282 NA 
BRANCH  15  17
HETATM   17  C   UNL     1      -9.501   8.371  66.481  1.00  0.00    -0.284 A  
HETATM   18  C   UNL     1      -8.427   8.136  65.602  1.00  0.00    -0.170 A  
HETATM   19  C   UNL     1      -8.195   6.834  65.098  1.00  0.00    -0.114 A  
HETATM   20  N   UNL     1      -7.079   6.607  64.177  1.00  0.00    -0.051 N  
HETATM   21  C   UNL     1      -9.021   5.766  65.473  1.00  0.00    -0.078 A  
HETATM   22  O   UNL     1      -8.904   4.463  65.059  1.00  0.00    -0.129 OA 
HETATM   23  O   UNL     1      -6.924   5.456  63.737  1.00  0.00    -0.045 OA 
HETATM   24  O   UNL     1      -6.357   7.572  63.889  1.00  0.00    -0.051 OA 
HETATM   25  C   UNL     1     -10.064   6.012  66.356  1.00  0.00    -0.086 A  
HETATM   26  H   UNL     1      -9.464   3.739  65.314  1.00  0.00     0.000 HD 
HETATM   27  C   UNL     1     -10.307   7.282  66.854  1.00  0.00    -0.358 A  
HETATM   28  O   UNL     1     -10.883   4.993  66.759  1.00  0.00    -0.339 OA 
HETATM   29  H   UNL     1     -11.598   5.161  67.362  1.00  0.00     0.000 HD 
ENDBRANCH  15  17
ENDBRANCH   3  12
TORSDOF 2
ENDMDL
MODEL      143
REMARK 921   NORMALIZED FREE ENERGY PREDICTED BY IDOCK:   -5.32 KCAL/MOL
REMARK 922        TOTAL FREE ENERGY PREDICTED BY IDOCK:   -6.53 KCAL/MOL
REMARK 923 INTER-LIGAND FREE ENERGY PREDICTED BY IDOCK:   -6.17 KCAL/MOL
REMARK 924 INTRA-LIGAND FREE ENERGY PREDICTED BY IDOCK:   -0.37 KCAL/MOL
REMARK 927      BINDING AFFINITY PREDICTED BY RF-SCORE:    0.00 PKD
ROOT
HETATM    1  C   UNL     1     -12.766  10.851  70.838  1.00  0.00    -0.464 C  
HETATM    2  C   UNL     1     -12.210  12.183  70.374  1.00  0.00    -0.378 A  
HETATM    3  C   UNL     1     -11.379  12.330  69.227  1.00  0.00    -0.317 A  
HETATM    4 CL   UNL     1     -13.619  13.188  72.496  1.00  0.00    -0.665 Cl 
HETATM    5  C   UNL     1     -10.892  13.618  68.899  1.00  0.00    -0.235 A  
HETATM    6  C   UNL     1     -12.415  15.827  71.584  1.00  0.00    -0.525 C  
HETATM    7 CL   UNL     1      -9.907  13.892  67.480  1.00  0.00    -0.232 Cl 
HETATM    8  N   UNL     1     -11.226  14.742  69.687  1.00  0.00    -0.266 NA 
HETATM    9  C   UNL     1     -12.063  14.598  70.792  1.00  0.00    -0.320 A  
HETATM   10  O   UNL     1     -10.776  15.902  69.386  1.00  0.00    -0.229 OA 
HETATM   11  C   UNL     1     -12.553  13.329  71.124  1.00  0.00    -0.325 A  
ENDROOT
BRANCH   3  12
HETATM   12  C   UNL     1     -11.067  11.171  68.380  1.00  0.00    -0.247 A  
HETATM   13  O   UNL     1     -10.824   9.819  66.706  1.00  0.00    -0.134 OA 
HETATM   14  N   UNL     1     -11.471  10.994  67.110  1.00  0.00    -0.442 NA 
HETATM   15  C   UNL     1     -10.071   9.416  67.768  1.00  0.00    -0.198 A  
HETATM   16  N   UNL     1     -10.235  10.175  68.829  1.00  0.00    -0.177 NA 
BRANCH  15  17
HETATM   17  C   UNL     1      -9.114   8.326  67.591  1.00  0.00    -0.139 A  
HETATM   18  C   UNL     1      -7.959   8.141  68.374  1.00  0.00    -0.123 A  
HETATM   19  C   UNL     1      -7.100   7.045  68.124  1.00  0.00    -0.085 A  
HETATM   20  N   UNL     1      -5.897   6.872  68.941  1.00  0.00    -0.018 N  
HETATM   21  C   UNL     1      -7.393   6.127  67.107  1.00  0.00    -0.076 A  
HETATM   22  O   UNL     1      -6.647   5.027  66.764  1.00  0.00    -0.047 OA 
HETATM   23  O   UNL     1      -5.156   5.911  68.675  1.00  0.00     0.000 OA 
HETATM   24  O   UNL     1      -5.687   7.690  69.847  1.00  0.00    -0.023 OA 
HETATM   25  C   UNL     1      -8.547   6.313  66.356  1.00  0.00    -0.133 A  
HETATM   26  H   UNL     1      -6.846   4.405  66.074  1.00  0.00     0.000 HD 
HETATM   27  C   UNL     1      -9.394   7.384  66.585  1.00  0.00    -0.215 A  
HETATM   28  O   UNL     1      -8.875   5.430  65.364  1.00  0.00    -0.153 OA 
HETATM   29  H   UNL     1      -9.664   5.557  64.850  1.00  0.00     0.000 HD 
ENDBRANCH  15  17
ENDBRANCH   3  12
TORSDOF 2
ENDMDL
MODEL      144
REMARK 921   NORMALIZED FREE ENERGY PREDICTED BY IDOCK:   -5.31 KCAL/MOL
REMARK 922        TOTAL FREE ENERGY PREDICTED BY IDOCK:   -6.53 KCAL/MOL
REMARK 923 INTER-LIGAND FREE ENERGY PREDICTED BY IDOCK:   -6.03 KCAL/MOL
REMARK 924 INTRA-LIGAND FREE ENERGY PREDICTED BY IDOCK:   -0.50 KCAL/MOL
REMARK 927      BINDING AFFINITY PREDICTED BY RF-SCORE:    0.00 PKD
ROOT
HETATM    1  C   UNL     1     -10.868   6.196  68.150  1.00  0.00    -0.389 C  
HETATM    2  C   UNL     1     -10.128   6.231  69.473  1.00  0.00    -0.217 A  
HETATM    3  C   UNL     1      -9.999   7.405  70.268  1.00  0.00    -0.188 A  
HETATM    4 CL   UNL     1      -9.748   3.560  69.006  1.00  0.00    -0.128 Cl 
HETATM    5  C   UNL     1      -9.262   7.332  71.475  1.00  0.00    -0.144 A  
HETATM    6  C   UNL     1      -8.199   3.692  71.620  1.00  0.00    -0.068 C  
HETATM    7 CL   UNL     1      -9.098   8.715  72.534  1.00  0.00    -0.278 Cl 
HETATM    8  N   UNL     1      -8.669   6.119  71.891  1.00  0.00    -0.136 NA 
HETATM    9  C   UNL     1      -8.822   4.966  71.123  1.00  0.00    -0.127 A  
HETATM   10  O   UNL     1      -8.000   6.065  72.981  1.00  0.00    -0.108 OA 
HETATM   11  C   UNL     1      -9.552   5.026  69.929  1.00  0.00    -0.176 A  
ENDROOT
BRANCH   3  12
HETATM   12  C   UNL     1     -10.653   8.656  69.862  1.00  0.00    -0.224 A  
HETATM   13  O   UNL     1     -11.910  10.417  69.774  1.00  0.00    -0.249 OA 
HETATM   14  N   UNL     1     -11.759   9.181  70.415  1.00  0.00    -0.159 NA 
HETATM   15  C   UNL     1     -10.860  10.526  68.911  1.00  0.00    -0.235 A  
HETATM   16  N   UNL     1     -10.103   9.452  68.888  1.00  0.00    -0.183 NA 
BRANCH  15  17
HETATM   17  C   UNL     1     -10.620  11.802  68.239  1.00  0.00    -0.236 A  
HETATM   18  C   UNL     1      -9.376  12.459  68.193  1.00  0.00    -0.209 A  
HETATM   19  C   UNL     1      -9.249  13.690  67.506  1.00  0.00    -0.218 A  
HETATM   20  N   UNL     1      -7.950  14.366  67.477  1.00  0.00    -0.178 N  
HETATM   21  C   UNL     1     -10.350  14.262  66.857  1.00  0.00    -0.268 A  
HETATM   22  O   UNL     1     -10.361  15.443  66.160  1.00  0.00    -0.283 OA 
HETATM   23  O   UNL     1      -7.885  15.457  66.884  1.00  0.00    -0.217 OA 
HETATM   24  O   UNL     1      -6.994  13.816  68.041  1.00  0.00    -0.102 OA 
HETATM   25  C   UNL     1     -11.566  13.591  66.895  1.00  0.00    -0.363 A  
HETATM   26  H   UNL     1     -11.108  15.831  65.719  1.00  0.00     0.000 HD 
HETATM   27  C   UNL     1     -11.707  12.388  67.568  1.00  0.00    -0.425 A  
HETATM   28  O   UNL     1     -12.661  14.108  66.261  1.00  0.00    -0.514 OA 
HETATM   29  H   UNL     1     -13.493  13.650  66.287  1.00  0.00     0.000 HD 
ENDBRANCH  15  17
ENDBRANCH   3  12
TORSDOF 2
ENDMDL
MODEL      145
REMARK 921   NORMALIZED FREE ENERGY PREDICTED BY IDOCK:   -5.30 KCAL/MOL
REMARK 922        TOTAL FREE ENERGY PREDICTED BY IDOCK:   -6.51 KCAL/MOL
REMARK 923 INTER-LIGAND FREE ENERGY PREDICTED BY IDOCK:   -6.37 KCAL/MOL
REMARK 924 INTRA-LIGAND FREE ENERGY PREDICTED BY IDOCK:   -0.14 KCAL/MOL
REMARK 927      BINDING AFFINITY PREDICTED BY RF-SCORE:    0.00 PKD
ROOT
HETATM    1  C   UNL     1     -10.953  14.286  68.464  1.00  0.00    -0.267 C  
HETATM    2  C   UNL     1     -11.525  13.289  69.453  1.00  0.00    -0.323 A  
HETATM    3  C   UNL     1     -11.190  11.905  69.454  1.00  0.00    -0.278 A  
HETATM    4 CL   UNL     1     -12.806  15.478  70.484  1.00  0.00    -0.458 Cl 
HETATM    5  C   UNL     1     -11.805  11.056  70.406  1.00  0.00    -0.367 A  
HETATM    6  C   UNL     1     -13.997  13.433  72.394  1.00  0.00    -0.605 C  
HETATM    7 CL   UNL     1     -11.412   9.355  70.506  1.00  0.00    -0.313 Cl 
HETATM    8  N   UNL     1     -12.729  11.568  71.345  1.00  0.00    -0.393 NA 
HETATM    9  C   UNL     1     -13.032  12.929  71.358  1.00  0.00    -0.270 A  
HETATM   10  O   UNL     1     -13.283  10.792  72.198  1.00  0.00    -0.473 OA 
HETATM   11  C   UNL     1     -12.427  13.778  70.422  1.00  0.00    -0.314 A  
ENDROOT
BRANCH   3  12
HETATM   12  C   UNL     1     -10.197  11.378  68.510  1.00  0.00    -0.208 A  
HETATM   13  O   UNL     1      -8.362  10.929  67.450  1.00  0.00    -0.116 OA 
HETATM   14  N   UNL     1      -8.933  11.815  68.373  1.00  0.00    -0.181 NA 
HETATM   15  C   UNL     1      -9.335  10.026  67.140  1.00  0.00    -0.149 A  
HETATM   16  N   UNL     1     -10.486  10.296  67.715  1.00  0.00    -0.208 NA 
BRANCH  15  17
HETATM   17  C   UNL     1      -8.986   8.845  66.353  1.00  0.00    -0.193 A  
HETATM   18  C   UNL     1      -9.271   7.519  66.733  1.00  0.00    -0.192 A  
HETATM   19  C   UNL     1      -8.897   6.445  65.891  1.00  0.00    -0.131 A  
HETATM   20  N   UNL     1      -9.190   5.071  66.306  1.00  0.00    -0.138 N  
HETATM   21  C   UNL     1      -8.252   6.685  64.671  1.00  0.00    -0.034 A  
HETATM   22  O   UNL     1      -7.839   5.737  63.769  1.00  0.00    -0.097 OA 
HETATM   23  O   UNL     1      -8.824   4.154  65.551  1.00  0.00    -0.117 OA 
HETATM   24  O   UNL     1      -9.784   4.902  67.379  1.00  0.00    -0.146 OA 
HETATM   25  C   UNL     1      -7.996   7.999  64.302  1.00  0.00    -0.137 A  
HETATM   26  H   UNL     1      -7.402   5.900  62.941  1.00  0.00     0.000 HD 
HETATM   27  C   UNL     1      -8.351   9.062  65.118  1.00  0.00    -0.165 A  
HETATM   28  O   UNL     1      -7.382   8.276  63.112  1.00  0.00    -0.097 OA 
HETATM   29  H   UNL     1      -7.207   9.175  62.860  1.00  0.00     0.000 HD 
ENDBRANCH  15  17
ENDBRANCH   3  12
TORSDOF 2
ENDMDL
MODEL      146
REMARK 921   NORMALIZED FREE ENERGY PREDICTED BY IDOCK:   -5.29 KCAL/MOL
REMARK 922        TOTAL FREE ENERGY PREDICTED BY IDOCK:   -6.50 KCAL/MOL
REMARK 923 INTER-LIGAND FREE ENERGY PREDICTED BY IDOCK:   -5.92 KCAL/MOL
REMARK 924 INTRA-LIGAND FREE ENERGY PREDICTED BY IDOCK:   -0.58 KCAL/MOL
REMARK 927      BINDING AFFINITY PREDICTED BY RF-SCORE:    0.00 PKD
ROOT
HETATM    1  C   UNL     1     -12.358  12.827  65.473  1.00  0.00    -0.495 C  
HETATM    2  C   UNL     1     -11.475  13.822  66.201  1.00  0.00    -0.350 A  
HETATM    3  C   UNL     1     -10.822  13.536  67.433  1.00  0.00    -0.279 A  
HETATM    4 CL   UNL     1     -12.031  15.443  64.065  1.00  0.00    -0.160 Cl 
HETATM    5  C   UNL     1     -10.041  14.550  68.041  1.00  0.00    -0.226 A  
HETATM    6  C   UNL     1     -10.324  17.440  65.597  1.00  0.00    -0.161 C  
HETATM    7 CL   UNL     1      -9.167  14.265  69.529  1.00  0.00     0.390 Cl 
HETATM    8  N   UNL     1      -9.904  15.820  67.437  1.00  0.00    -0.231 NA 
HETATM    9  C   UNL     1     -10.523  16.085  66.216  1.00  0.00    -0.320 A  
HETATM   10  O   UNL     1      -9.202  16.731  67.997  1.00  0.00    -0.221 OA 
HETATM   11  C   UNL     1     -11.294  15.089  65.605  1.00  0.00    -0.297 A  
ENDROOT
BRANCH   3  12
HETATM   12  C   UNL     1     -10.925  12.203  68.040  1.00  0.00    -0.229 A  
HETATM   13  O   UNL     1     -11.593  10.458  69.135  1.00  0.00    -0.232 OA 
HETATM   14  N   UNL     1     -11.816  11.832  68.976  1.00  0.00    -0.315 NA 
HETATM   15  C   UNL     1     -10.602  10.131  68.258  1.00  0.00    -0.226 A  
HETATM   16  N   UNL     1     -10.125  11.172  67.614  1.00  0.00    -0.176 NA 
BRANCH  15  17
HETATM   17  C   UNL     1     -10.283   8.722  68.038  1.00  0.00    -0.264 A  
HETATM   18  C   UNL     1     -10.473   7.701  68.989  1.00  0.00    -0.214 A  
HETATM   19  C   UNL     1     -10.138   6.364  68.671  1.00  0.00    -0.158 A  
HETATM   20  N   UNL     1     -10.333   5.315  69.675  1.00  0.00    -0.278 N  
HETATM   21  C   UNL     1      -9.626   6.037  67.408  1.00  0.00    -0.112 A  
HETATM   22  O   UNL     1      -9.263   4.787  66.976  1.00  0.00    -0.118 OA 
HETATM   23  O   UNL     1     -10.003   4.158  69.366  1.00  0.00    -0.158 OA 
HETATM   24  O   UNL     1     -10.812   5.640  70.770  1.00  0.00    -0.265 OA 
HETATM   25  C   UNL     1      -9.462   7.053  66.475  1.00  0.00    -0.150 A  
HETATM   26  H   UNL     1      -8.916   4.565  66.120  1.00  0.00     0.000 HD 
HETATM   27  C   UNL     1      -9.780   8.368  66.773  1.00  0.00    -0.309 A  
HETATM   28  O   UNL     1      -8.979   6.773  65.227  1.00  0.00    -0.368 OA 
HETATM   29  H   UNL     1      -8.867   7.467  64.588  1.00  0.00     0.000 HD 
ENDBRANCH  15  17
ENDBRANCH   3  12
TORSDOF 2
ENDMDL
MODEL      147
REMARK 921   NORMALIZED FREE ENERGY PREDICTED BY IDOCK:   -5.29 KCAL/MOL
REMARK 922        TOTAL FREE ENERGY PREDICTED BY IDOCK:   -6.50 KCAL/MOL
REMARK 923 INTER-LIGAND FREE ENERGY PREDICTED BY IDOCK:   -6.45 KCAL/MOL
REMARK 924 INTRA-LIGAND FREE ENERGY PREDICTED BY IDOCK:   -0.05 KCAL/MOL
REMARK 927      BINDING AFFINITY PREDICTED BY RF-SCORE:    0.00 PKD
ROOT
HETATM    1  C   UNL     1      -8.340   7.449  68.357  1.00  0.00    -0.125 C  
HETATM    2  C   UNL     1      -8.851   6.259  69.145  1.00  0.00    -0.128 A  
HETATM    3  C   UNL     1      -9.767   6.372  70.229  1.00  0.00    -0.186 A  
HETATM    4 CL   UNL     1      -7.321   4.807  67.399  1.00  0.00    -0.073 Cl 
HETATM    5  C   UNL     1     -10.159   5.196  70.915  1.00  0.00    -0.232 A  
HETATM    6  C   UNL     1      -8.302   2.455  69.059  1.00  0.00    -0.077 C  
HETATM    7 CL   UNL     1     -11.317   5.241  72.225  1.00  0.00    -0.195 Cl 
HETATM    8  N   UNL     1      -9.659   3.932  70.530  1.00  0.00    -0.182 NA 
HETATM    9  C   UNL     1      -8.784   3.824  69.450  1.00  0.00    -0.080 A  
HETATM   10  O   UNL     1     -10.014   2.876  71.160  1.00  0.00    -0.103 OA 
HETATM   11  C   UNL     1      -8.393   4.980  68.763  1.00  0.00    -0.084 A  
ENDROOT
BRANCH   3  12
HETATM   12  C   UNL     1     -10.324   7.678  70.602  1.00  0.00    -0.205 A  
HETATM   13  O   UNL     1     -10.841   9.501  71.653  1.00  0.00    -0.343 OA 
HETATM   14  N   UNL     1     -10.313   8.216  71.834  1.00  0.00    -0.217 NA 
HETATM   15  C   UNL     1     -11.096   9.620  70.319  1.00  0.00    -0.276 A  
HETATM   16  N   UNL     1     -10.853   8.515  69.650  1.00  0.00    -0.197 NA 
BRANCH  15  17
HETATM   17  C   UNL     1     -11.465  10.928  69.779  1.00  0.00    -0.390 A  
HETATM   18  C   UNL     1     -11.529  11.236  68.407  1.00  0.00    -0.377 A  
HETATM   19  C   UNL     1     -11.906  12.534  67.988  1.00  0.00    -0.325 A  
HETATM   20  N   UNL     1     -11.958  12.841  66.557  1.00  0.00    -0.398 N  
HETATM   21  C   UNL     1     -12.230  13.521  68.928  1.00  0.00    -0.159 A  
HETATM   22  O   UNL     1     -12.608  14.811  68.655  1.00  0.00    -0.493 OA 
HETATM   23  O   UNL     1     -12.270  13.999  66.231  1.00  0.00    -0.433 OA 
HETATM   24  O   UNL     1     -11.690  11.935  65.757  1.00  0.00    -0.390 OA 
HETATM   25  C   UNL     1     -12.180  13.195  70.277  1.00  0.00    -0.306 A  
HETATM   26  H   UNL     1     -12.828  15.480  69.293  1.00  0.00     0.000 HD 
HETATM   27  C   UNL     1     -11.807  11.930  70.703  1.00  0.00    -0.142 A  
HETATM   28  O   UNL     1     -12.503  14.126  71.225  1.00  0.00    -0.333 OA 
HETATM   29  H   UNL     1     -12.469  13.903  72.148  1.00  0.00     0.000 HD 
ENDBRANCH  15  17
ENDBRANCH   3  12
TORSDOF 2
ENDMDL
MODEL      148
REMARK 921   NORMALIZED FREE ENERGY PREDICTED BY IDOCK:   -5.27 KCAL/MOL
REMARK 922        TOTAL FREE ENERGY PREDICTED BY IDOCK:   -6.47 KCAL/MOL
REMARK 923 INTER-LIGAND FREE ENERGY PREDICTED BY IDOCK:   -5.96 KCAL/MOL
REMARK 924 INTRA-LIGAND FREE ENERGY PREDICTED BY IDOCK:   -0.51 KCAL/MOL
REMARK 927      BINDING AFFINITY PREDICTED BY RF-SCORE:    0.00 PKD
ROOT
HETATM    1  C   UNL     1      -7.362   7.935  70.118  1.00  0.00    -0.070 C  
HETATM    2  C   UNL     1      -7.931   6.820  69.261  1.00  0.00    -0.115 A  
HETATM    3  C   UNL     1      -9.120   6.953  68.490  1.00  0.00    -0.127 A  
HETATM    4 CL   UNL     1      -5.733   5.429  70.116  1.00  0.00    -0.015 Cl 
HETATM    5  C   UNL     1      -9.577   5.837  67.746  1.00  0.00    -0.115 A  
HETATM    6  C   UNL     1      -6.951   3.191  68.456  1.00  0.00    -0.049 C  
HETATM    7 CL   UNL     1     -11.001   5.932  66.734  1.00  0.00    -0.348 Cl 
HETATM    8  N   UNL     1      -8.867   4.616  67.760  1.00  0.00    -0.104 NA 
HETATM    9  C   UNL     1      -7.688   4.500  68.494  1.00  0.00    -0.075 A  
HETATM   10  O   UNL     1      -9.292   3.612  67.089  1.00  0.00    -0.176 OA 
HETATM   11  C   UNL     1      -7.225   5.598  69.231  1.00  0.00    -0.066 A  
ENDROOT
BRANCH   3  12
HETATM   12  C   UNL     1      -9.835   8.234  68.437  1.00  0.00    -0.172 A  
HETATM   13  O   UNL     1     -10.966  10.013  68.938  1.00  0.00    -0.225 OA 
HETATM   14  N   UNL     1     -10.622   8.736  69.403  1.00  0.00    -0.225 NA 
HETATM   15  C   UNL     1     -10.328  10.164  67.743  1.00  0.00    -0.210 A  
HETATM   16  N   UNL     1      -9.677   9.085  67.370  1.00  0.00    -0.159 NA 
BRANCH  15  17
HETATM   17  C   UNL     1     -10.322  11.477  67.100  1.00  0.00    -0.248 A  
HETATM   18  C   UNL     1     -11.355  11.970  66.281  1.00  0.00    -0.415 A  
HETATM   19  C   UNL     1     -11.254  13.261  65.712  1.00  0.00    -0.294 A  
HETATM   20  N   UNL     1     -12.332  13.756  64.853  1.00  0.00    -0.405 N  
HETATM   21  C   UNL     1     -10.136  14.067  65.965  1.00  0.00    -0.315 A  
HETATM   22  O   UNL     1      -9.917  15.331  65.478  1.00  0.00    -0.337 OA 
HETATM   23  O   UNL     1     -12.195  14.885  64.353  1.00  0.00    -0.481 OA 
HETATM   24  O   UNL     1     -13.315  13.023  64.674  1.00  0.00    -0.473 OA 
HETATM   25  C   UNL     1      -9.135  13.573  66.792  1.00  0.00    -0.212 A  
HETATM   26  H   UNL     1      -9.159  15.877  65.650  1.00  0.00     0.000 HD 
HETATM   27  C   UNL     1      -9.217  12.309  67.351  1.00  0.00    -0.182 A  
HETATM   28  O   UNL     1      -8.035  14.335  67.075  1.00  0.00    -0.347 OA 
HETATM   29  H   UNL     1      -7.350  13.997  67.641  1.00  0.00     0.000 HD 
ENDBRANCH  15  17
ENDBRANCH   3  12
TORSDOF 2
ENDMDL
MODEL      149
REMARK 921   NORMALIZED FREE ENERGY PREDICTED BY IDOCK:   -5.24 KCAL/MOL
REMARK 922        TOTAL FREE ENERGY PREDICTED BY IDOCK:   -6.44 KCAL/MOL
REMARK 923 INTER-LIGAND FREE ENERGY PREDICTED BY IDOCK:   -5.90 KCAL/MOL
REMARK 924 INTRA-LIGAND FREE ENERGY PREDICTED BY IDOCK:   -0.54 KCAL/MOL
REMARK 927      BINDING AFFINITY PREDICTED BY RF-SCORE:    0.00 PKD
ROOT
HETATM    1  C   UNL     1      -7.216   6.800  70.498  1.00  0.00    -0.073 C  
HETATM    2  C   UNL     1      -7.849   5.693  69.678  1.00  0.00    -0.091 A  
HETATM    3  C   UNL     1      -8.381   5.891  68.372  1.00  0.00    -0.112 A  
HETATM    4 CL   UNL     1      -7.197   4.120  71.823  1.00  0.00    -0.052 Cl 
HETATM    5  C   UNL     1      -8.975   4.792  67.706  1.00  0.00    -0.111 A  
HETATM    6  C   UNL     1      -8.553   1.947  70.182  1.00  0.00    -0.095 C  
HETATM    7 CL   UNL     1      -9.608   4.938  66.081  1.00  0.00    -0.165 Cl 
HETATM    8  N   UNL     1      -9.037   3.520  68.317  1.00  0.00    -0.135 NA 
HETATM    9  C   UNL     1      -8.490   3.325  69.584  1.00  0.00    -0.061 A  
HETATM   10  O   UNL     1      -9.582   2.534  67.709  1.00  0.00    -0.168 OA 
HETATM   11  C   UNL     1      -7.896   4.404  70.251  1.00  0.00    -0.059 A  
ENDROOT
BRANCH   3  12
HETATM   12  C   UNL     1      -8.277   7.200  67.716  1.00  0.00    -0.115 A  
HETATM   13  O   UNL     1      -7.615   8.899  66.547  1.00  0.00    -0.090 OA 
HETATM   14  N   UNL     1      -7.180   7.697  67.119  1.00  0.00    -0.087 NA 
HETATM   15  C   UNL     1      -8.944   8.997  66.836  1.00  0.00    -0.123 A  
HETATM   16  N   UNL     1      -9.376   8.016  67.596  1.00  0.00    -0.142 NA 
BRANCH  15  17
HETATM   17  C   UNL     1      -9.736  10.047  66.198  1.00  0.00    -0.286 A  
HETATM   18  C   UNL     1     -10.482  11.018  66.893  1.00  0.00    -0.293 A  
HETATM   19  C   UNL     1     -11.209  11.999  66.179  1.00  0.00    -0.343 A  
HETATM   20  N   UNL     1     -11.989  12.996  66.916  1.00  0.00    -0.377 N  
HETATM   21  C   UNL     1     -11.188  12.024  64.778  1.00  0.00    -0.318 A  
HETATM   22  O   UNL     1     -11.845  12.917  63.970  1.00  0.00    -0.379 OA 
HETATM   23  O   UNL     1     -12.633  13.825  66.253  1.00  0.00    -0.416 OA 
HETATM   24  O   UNL     1     -11.962  12.956  68.154  1.00  0.00    -0.336 OA 
HETATM   25  C   UNL     1     -10.431  11.071  64.108  1.00  0.00    -0.366 A  
HETATM   26  H   UNL     1     -11.830  12.934  63.020  1.00  0.00     0.000 HD 
HETATM   27  C   UNL     1      -9.718  10.101  64.794  1.00  0.00    -0.389 A  
HETATM   28  O   UNL     1     -10.372  11.071  62.742  1.00  0.00    -0.719 OA 
HETATM   29  H   UNL     1      -9.854  10.419  62.284  1.00  0.00     0.000 HD 
ENDBRANCH  15  17
ENDBRANCH   3  12
TORSDOF 2
ENDMDL
MODEL      150
REMARK 921   NORMALIZED FREE ENERGY PREDICTED BY IDOCK:   -5.23 KCAL/MOL
REMARK 922        TOTAL FREE ENERGY PREDICTED BY IDOCK:   -6.44 KCAL/MOL
REMARK 923 INTER-LIGAND FREE ENERGY PREDICTED BY IDOCK:   -7.16 KCAL/MOL
REMARK 924 INTRA-LIGAND FREE ENERGY PREDICTED BY IDOCK:    0.72 KCAL/MOL
REMARK 927      BINDING AFFINITY PREDICTED BY RF-SCORE:    0.00 PKD
ROOT
HETATM    1  C   UNL     1     -12.227  10.560  71.010  1.00  0.00    -0.505 C  
HETATM    2  C   UNL     1     -12.109  11.921  70.351  1.00  0.00    -0.421 A  
HETATM    3  C   UNL     1     -11.411  12.143  69.131  1.00  0.00    -0.352 A  
HETATM    4 CL   UNL     1     -13.655  12.755  72.452  1.00  0.00    -0.622 Cl 
HETATM    5  C   UNL     1     -11.340  13.462  68.618  1.00  0.00    -0.286 A  
HETATM    6  C   UNL     1     -13.323  15.481  71.146  1.00  0.00    -0.553 C  
HETATM    7 CL   UNL     1     -10.544  13.813  67.100  1.00  0.00    -0.275 Cl 
HETATM    8  N   UNL     1     -11.954  14.538  69.296  1.00  0.00    -0.322 NA 
HETATM    9  C   UNL     1     -12.661  14.310  70.475  1.00  0.00    -0.353 A  
HETATM   10  O   UNL     1     -11.879  15.726  68.827  1.00  0.00    -0.387 OA 
HETATM   11  C   UNL     1     -12.740  13.010  70.990  1.00  0.00    -0.262 A  
ENDROOT
BRANCH   3  12
HETATM   12  C   UNL     1     -10.811  11.020  68.400  1.00  0.00    -0.220 A  
HETATM   13  O   UNL     1      -9.510   9.771  67.200  1.00  0.00    -0.148 OA 
HETATM   14  N   UNL     1      -9.794  11.104  67.525  1.00  0.00    -0.176 NA 
HETATM   15  C   UNL     1     -10.371   9.011  67.934  1.00  0.00    -0.235 A  
HETATM   16  N   UNL     1     -11.221   9.730  68.633  1.00  0.00    -0.086 NA 
BRANCH  15  17
HETATM   17  C   UNL     1     -10.186   7.562  67.971  1.00  0.00    -0.239 A  
HETATM   18  C   UNL     1      -9.748   6.784  66.882  1.00  0.00    -0.215 A  
HETATM   19  C   UNL     1      -9.594   5.385  67.026  1.00  0.00    -0.139 A  
HETATM   20  N   UNL     1      -9.146   4.588  65.881  1.00  0.00    -0.127 N  
HETATM   21  C   UNL     1      -9.863   4.760  68.251  1.00  0.00    -0.118 A  
HETATM   22  O   UNL     1      -9.754   3.419  68.521  1.00  0.00    -0.117 OA 
HETATM   23  O   UNL     1      -9.047   3.360  66.041  1.00  0.00    -0.140 OA 
HETATM   24  O   UNL     1      -8.894   5.181  64.824  1.00  0.00    -0.152 OA 
HETATM   25  C   UNL     1     -10.276   5.544  69.320  1.00  0.00    -0.245 A  
HETATM   26  H   UNL     1      -9.937   2.995  69.352  1.00  0.00     0.000 HD 
HETATM   27  C   UNL     1     -10.437   6.914  69.193  1.00  0.00    -0.224 A  
HETATM   28  O   UNL     1     -10.535   4.974  70.536  1.00  0.00    -0.240 OA 
HETATM   29  H   UNL     1     -10.818   5.510  71.268  1.00  0.00     0.000 HD 
ENDBRANCH  15  17
ENDBRANCH   3  12
TORSDOF 2
ENDMDL
MODEL      151
REMARK 921   NORMALIZED FREE ENERGY PREDICTED BY IDOCK:   -5.23 KCAL/MOL
REMARK 922        TOTAL FREE ENERGY PREDICTED BY IDOCK:   -6.43 KCAL/MOL
REMARK 923 INTER-LIGAND FREE ENERGY PREDICTED BY IDOCK:   -5.95 KCAL/MOL
REMARK 924 INTRA-LIGAND FREE ENERGY PREDICTED BY IDOCK:   -0.48 KCAL/MOL
REMARK 927      BINDING AFFINITY PREDICTED BY RF-SCORE:    0.00 PKD
ROOT
HETATM    1  C   UNL     1     -10.405   5.341  69.428  1.00  0.00    -0.313 C  
HETATM    2  C   UNL     1      -9.611   5.410  68.138  1.00  0.00    -0.154 A  
HETATM    3  C   UNL     1      -9.239   6.633  67.510  1.00  0.00    -0.114 A  
HETATM    4 CL   UNL     1      -9.608   2.678  68.328  1.00  0.00    -0.204 Cl 
HETATM    5  C   UNL     1      -8.521   6.581  66.291  1.00  0.00    -0.129 A  
HETATM    6  C   UNL     1      -8.094   2.857  65.696  1.00  0.00    -0.087 C  
HETATM    7 CL   UNL     1      -7.984   8.036  65.481  1.00  0.00    -0.110 Cl 
HETATM    8  N   UNL     1      -8.171   5.343  65.707  1.00  0.00    -0.117 NA 
HETATM    9  C   UNL     1      -8.513   4.149  66.340  1.00  0.00    -0.108 A  
HETATM   10  O   UNL     1      -7.527   5.307  64.602  1.00  0.00    -0.065 OA 
HETATM   11  C   UNL     1      -9.221   4.189  67.548  1.00  0.00    -0.157 A  
ENDROOT
BRANCH   3  12
HETATM   12  C   UNL     1      -9.562   7.920  68.138  1.00  0.00    -0.152 A  
HETATM   13  O   UNL     1      -9.531   9.710  69.358  1.00  0.00    -0.170 OA 
HETATM   14  N   UNL     1      -8.972   8.432  69.232  1.00  0.00    -0.149 NA 
HETATM   15  C   UNL     1     -10.388   9.853  68.307  1.00  0.00    -0.201 A  
HETATM   16  N   UNL     1     -10.484   8.767  67.573  1.00  0.00    -0.272 NA 
BRANCH  15  17
HETATM   17  C   UNL     1     -10.977  11.164  68.042  1.00  0.00    -0.307 A  
HETATM   18  C   UNL     1     -11.231  12.139  69.025  1.00  0.00    -0.314 A  
HETATM   19  C   UNL     1     -11.798  13.384  68.660  1.00  0.00    -0.362 A  
HETATM   20  N   UNL     1     -12.066  14.384  69.696  1.00  0.00    -0.328 N  
HETATM   21  C   UNL     1     -12.102  13.664  67.321  1.00  0.00    -0.345 A  
HETATM   22  O   UNL     1     -12.650  14.825  66.838  1.00  0.00    -0.323 OA 
HETATM   23  O   UNL     1     -12.587  15.454  69.339  1.00  0.00    -0.096 OA 
HETATM   24  O   UNL     1     -11.761  14.107  70.864  1.00  0.00    -0.259 OA 
HETATM   25  C   UNL     1     -11.826  12.699  66.361  1.00  0.00    -0.402 A  
HETATM   26  H   UNL     1     -12.855  15.015  65.930  1.00  0.00     0.000 HD 
HETATM   27  C   UNL     1     -11.277  11.474  66.704  1.00  0.00    -0.336 A  
HETATM   28  O   UNL     1     -12.094  12.940  65.042  1.00  0.00    -0.380 OA 
HETATM   29  H   UNL     1     -11.906  12.280  64.385  1.00  0.00     0.000 HD 
ENDBRANCH  15  17
ENDBRANCH   3  12
TORSDOF 2
ENDMDL
MODEL      152
REMARK 921   NORMALIZED FREE ENERGY PREDICTED BY IDOCK:   -5.21 KCAL/MOL
REMARK 922        TOTAL FREE ENERGY PREDICTED BY IDOCK:   -6.41 KCAL/MOL
REMARK 923 INTER-LIGAND FREE ENERGY PREDICTED BY IDOCK:   -7.23 KCAL/MOL
REMARK 924 INTRA-LIGAND FREE ENERGY PREDICTED BY IDOCK:    0.82 KCAL/MOL
REMARK 927      BINDING AFFINITY PREDICTED BY RF-SCORE:    0.00 PKD
ROOT
HETATM    1  C   UNL     1     -10.720  12.930  67.940  1.00  0.00    -0.235 C  
HETATM    2  C   UNL     1     -11.534  12.898  69.219  1.00  0.00    -0.341 A  
HETATM    3  C   UNL     1     -11.758  11.714  69.977  1.00  0.00    -0.402 A  
HETATM    4 CL   UNL     1     -11.769  15.594  68.799  1.00  0.00    -0.385 Cl 
HETATM    5  C   UNL     1     -12.558  11.793  71.143  1.00  0.00    -0.309 A  
HETATM    6  C   UNL     1     -13.466  15.474  71.320  1.00  0.00    -0.560 C  
HETATM    7 CL   UNL     1     -12.842  10.395  72.156  1.00  0.00    -0.428 Cl 
HETATM    8  N   UNL     1     -13.119  13.022  71.556  1.00  0.00    -0.355 NA 
HETATM    9  C   UNL     1     -12.873  14.184  70.826  1.00  0.00    -0.310 A  
HETATM   10  O   UNL     1     -13.845  13.082  72.608  1.00  0.00    -0.653 OA 
HETATM   11  C   UNL     1     -12.081  14.118  69.673  1.00  0.00    -0.349 A  
ENDROOT
BRANCH   3  12
HETATM   12  C   UNL     1     -11.139  10.444  69.576  1.00  0.00    -0.264 A  
HETATM   13  O   UNL     1      -9.808   8.937  68.771  1.00  0.00    -0.165 OA 
HETATM   14  N   UNL     1     -10.100  10.307  68.734  1.00  0.00    -0.178 NA 
HETATM   15  C   UNL     1     -10.687   8.386  69.655  1.00  0.00    -0.198 A  
HETATM   16  N   UNL     1     -11.555   9.255  70.123  1.00  0.00    -0.121 NA 
BRANCH  15  17
HETATM   17  C   UNL     1     -10.504   6.996  70.069  1.00  0.00    -0.233 A  
HETATM   18  C   UNL     1      -9.947   5.988  69.259  1.00  0.00    -0.207 A  
HETATM   19  C   UNL     1      -9.806   4.673  69.761  1.00  0.00    -0.226 A  
HETATM   20  N   UNL     1      -9.234   3.633  68.903  1.00  0.00    -0.147 N  
HETATM   21  C   UNL     1     -10.205   4.361  71.068  1.00  0.00    -0.051 A  
HETATM   22  O   UNL     1     -10.122   3.132  71.672  1.00  0.00    -0.144 OA 
HETATM   23  O   UNL     1      -9.150   2.485  69.372  1.00  0.00    -0.098 OA 
HETATM   24  O   UNL     1      -8.871   3.954  67.763  1.00  0.00    -0.101 OA 
HETATM   25  C   UNL     1     -10.734   5.371  71.860  1.00  0.00    -0.211 A  
HETATM   26  H   UNL     1     -10.392   2.920  72.558  1.00  0.00     0.000 HD 
HETATM   27  C   UNL     1     -10.884   6.662  71.381  1.00  0.00    -0.282 A  
HETATM   28  O   UNL     1     -11.121   5.110  73.145  1.00  0.00    -0.279 OA 
HETATM   29  H   UNL     1     -11.483   5.802  73.687  1.00  0.00     0.000 HD 
ENDBRANCH  15  17
ENDBRANCH   3  12
TORSDOF 2
ENDMDL
MODEL      153
REMARK 921   NORMALIZED FREE ENERGY PREDICTED BY IDOCK:   -5.19 KCAL/MOL
REMARK 922        TOTAL FREE ENERGY PREDICTED BY IDOCK:   -6.39 KCAL/MOL
REMARK 923 INTER-LIGAND FREE ENERGY PREDICTED BY IDOCK:   -5.89 KCAL/MOL
REMARK 924 INTRA-LIGAND FREE ENERGY PREDICTED BY IDOCK:   -0.50 KCAL/MOL
REMARK 927      BINDING AFFINITY PREDICTED BY RF-SCORE:    0.00 PKD
ROOT
HETATM    1  C   UNL     1     -10.298  10.927  69.063  1.00  0.00    -0.230 C  
HETATM    2  C   UNL     1     -10.580  11.356  67.636  1.00  0.00    -0.240 A  
HETATM    3  C   UNL     1     -10.144  10.623  66.496  1.00  0.00    -0.275 A  
HETATM    4 CL   UNL     1     -11.922  13.426  68.825  1.00  0.00    -0.378 Cl 
HETATM    5  C   UNL     1     -10.439  11.129  65.207  1.00  0.00    -0.263 A  
HETATM    6  C   UNL     1     -12.390  14.299  65.949  1.00  0.00    -0.420 C  
HETATM    7 CL   UNL     1      -9.982  10.265  63.756  1.00  0.00    -0.242 Cl 
HETATM    8  N   UNL     1     -11.156  12.336  65.049  1.00  0.00    -0.307 NA 
HETATM    9  C   UNL     1     -11.605  13.035  66.167  1.00  0.00    -0.366 A  
HETATM   10  O   UNL     1     -11.413  12.788  63.879  1.00  0.00    -0.382 OA 
HETATM   11  C   UNL     1     -11.322  12.542  67.447  1.00  0.00    -0.313 A  
ENDROOT
BRANCH   3  12
HETATM   12  C   UNL     1      -9.438   9.345  66.658  1.00  0.00    -0.177 A  
HETATM   13  O   UNL     1      -7.919   7.817  66.877  1.00  0.00    -0.108 OA 
HETATM   14  N   UNL     1      -8.117   9.151  66.499  1.00  0.00    -0.107 NA 
HETATM   15  C   UNL     1      -9.141   7.344  67.252  1.00  0.00    -0.124 A  
HETATM   16  N   UNL     1     -10.105   8.221  67.078  1.00  0.00    -0.254 NA 
BRANCH  15  17
HETATM   17  C   UNL     1      -9.231   6.035  67.897  1.00  0.00    -0.111 A  
HETATM   18  C   UNL     1      -9.584   5.831  69.244  1.00  0.00    -0.176 A  
HETATM   19  C   UNL     1      -9.650   4.518  69.769  1.00  0.00    -0.199 A  
HETATM   20  N   UNL     1     -10.008   4.323  71.176  1.00  0.00    -0.182 N  
HETATM   21  C   UNL     1      -9.378   3.410  68.956  1.00  0.00    -0.169 A  
HETATM   22  O   UNL     1      -9.407   2.093  69.339  1.00  0.00    -0.120 OA 
HETATM   23  O   UNL     1     -10.031   3.158  71.605  1.00  0.00    -0.165 OA 
HETATM   24  O   UNL     1     -10.266   5.327  71.855  1.00  0.00    -0.193 OA 
HETATM   25  C   UNL     1      -9.051   3.628  67.624  1.00  0.00    -0.157 A  
HETATM   26  H   UNL     1      -9.223   1.342  68.788  1.00  0.00     0.000 HD 
HETATM   27  C   UNL     1      -8.976   4.907  67.097  1.00  0.00    -0.110 A  
HETATM   28  O   UNL     1      -8.793   2.572  66.794  1.00  0.00    -0.118 OA 
HETATM   29  H   UNL     1      -8.569   2.721  65.883  1.00  0.00     0.000 HD 
ENDBRANCH  15  17
ENDBRANCH   3  12
TORSDOF 2
ENDMDL
MODEL      154
REMARK 921   NORMALIZED FREE ENERGY PREDICTED BY IDOCK:   -5.17 KCAL/MOL
REMARK 922        TOTAL FREE ENERGY PREDICTED BY IDOCK:   -6.36 KCAL/MOL
REMARK 923 INTER-LIGAND FREE ENERGY PREDICTED BY IDOCK:   -5.77 KCAL/MOL
REMARK 924 INTRA-LIGAND FREE ENERGY PREDICTED BY IDOCK:   -0.59 KCAL/MOL
REMARK 927      BINDING AFFINITY PREDICTED BY RF-SCORE:    0.00 PKD
ROOT
HETATM    1  C   UNL     1     -10.185   8.659  66.787  1.00  0.00    -0.361 C  
HETATM    2  C   UNL     1      -9.550   8.528  68.158  1.00  0.00    -0.158 A  
HETATM    3  C   UNL     1      -8.617   9.466  68.683  1.00  0.00    -0.123 A  
HETATM    4 CL   UNL     1     -11.111   6.286  68.351  1.00  0.00    -0.407 Cl 
HETATM    5  C   UNL     1      -8.064   9.231  69.966  1.00  0.00    -0.135 A  
HETATM    6  C   UNL     1      -9.751   6.012  71.058  1.00  0.00    -0.208 C  
HETATM    7 CL   UNL     1      -6.949  10.360  70.704  1.00  0.00     0.076 Cl 
HETATM    8  N   UNL     1      -8.432   8.093  70.717  1.00  0.00    -0.121 NA 
HETATM    9  C   UNL     1      -9.368   7.193  70.210  1.00  0.00    -0.155 A  
HETATM   10  O   UNL     1      -7.923   7.887  71.873  1.00  0.00    -0.093 OA 
HETATM   11  C   UNL     1      -9.923   7.417  68.944  1.00  0.00    -0.169 A  
ENDROOT
BRANCH   3  12
HETATM   12  C   UNL     1      -8.266  10.673  67.924  1.00  0.00    -0.112 A  
HETATM   13  O   UNL     1      -7.427  12.064  66.491  1.00  0.00     0.042 OA 
HETATM   14  N   UNL     1      -7.283  10.772  67.014  1.00  0.00    -0.103 NA 
HETATM   15  C   UNL     1      -8.505  12.609  67.123  1.00  0.00    -0.186 A  
HETATM   16  N   UNL     1      -9.009  11.822  68.046  1.00  0.00    -0.169 NA 
BRANCH  15  17
HETATM   17  C   UNL     1      -9.040  13.884  66.647  1.00  0.00    -0.209 A  
HETATM   18  C   UNL     1      -9.942  14.021  65.576  1.00  0.00    -0.302 A  
HETATM   19  C   UNL     1     -10.407  15.304  65.199  1.00  0.00    -0.381 A  
HETATM   20  N   UNL     1     -11.338  15.430  64.076  1.00  0.00     0.080 N  
HETATM   21  C   UNL     1      -9.986  16.446  65.892  1.00  0.00    -0.332 A  
HETATM   22  O   UNL     1     -10.360  17.740  65.630  1.00  0.00    -0.612 OA 
HETATM   23  O   UNL     1     -11.703  16.575  63.761  1.00  0.00    -1.086 OA 
HETATM   24  O   UNL     1     -11.705  14.394  63.505  1.00  0.00     0.087 OA 
HETATM   25  C   UNL     1      -9.111  16.292  66.959  1.00  0.00    -0.207 A  
HETATM   26  H   UNL     1     -10.075  18.515  66.100  1.00  0.00     0.000 HD 
HETATM   27  C   UNL     1      -8.643  15.043  67.336  1.00  0.00    -0.208 A  
HETATM   28  O   UNL     1      -8.689  17.381  67.670  1.00  0.00    -0.217 OA 
HETATM   29  H   UNL     1      -8.090  17.275  68.400  1.00  0.00     0.000 HD 
ENDBRANCH  15  17
ENDBRANCH   3  12
TORSDOF 2
ENDMDL
MODEL      155
REMARK 921   NORMALIZED FREE ENERGY PREDICTED BY IDOCK:   -5.17 KCAL/MOL
REMARK 922        TOTAL FREE ENERGY PREDICTED BY IDOCK:   -6.36 KCAL/MOL
REMARK 923 INTER-LIGAND FREE ENERGY PREDICTED BY IDOCK:   -5.99 KCAL/MOL
REMARK 924 INTRA-LIGAND FREE ENERGY PREDICTED BY IDOCK:   -0.37 KCAL/MOL
REMARK 927      BINDING AFFINITY PREDICTED BY RF-SCORE:    0.00 PKD
ROOT
HETATM    1  C   UNL     1     -10.204   8.063  72.988  1.00  0.00    -0.357 C  
HETATM    2  C   UNL     1     -10.158   6.967  71.941  1.00  0.00    -0.198 A  
HETATM    3  C   UNL     1     -10.651   7.128  70.615  1.00  0.00    -0.243 A  
HETATM    4 CL   UNL     1      -8.917   5.528  73.913  1.00  0.00    -0.123 Cl 
HETATM    5  C   UNL     1     -10.583   6.028  69.725  1.00  0.00    -0.289 A  
HETATM    6  C   UNL     1      -8.923   3.328  71.813  1.00  0.00    -0.148 C  
HETATM    7 CL   UNL     1     -11.122   6.157  68.066  1.00  0.00    -0.396 Cl 
HETATM    8  N   UNL     1     -10.033   4.794  70.138  1.00  0.00    -0.240 NA 
HETATM    9  C   UNL     1      -9.526   4.650  71.428  1.00  0.00    -0.157 A  
HETATM   10  O   UNL     1      -9.982   3.804  69.328  1.00  0.00    -0.022 OA 
HETATM   11  C   UNL     1      -9.585   5.732  72.315  1.00  0.00    -0.147 A  
ENDROOT
BRANCH   3  12
HETATM   12  C   UNL     1     -11.182   8.422  70.169  1.00  0.00    -0.136 A  
HETATM   13  O   UNL     1     -12.309  10.264  69.993  1.00  0.00    -0.206 OA 
HETATM   14  N   UNL     1     -12.298   9.014  70.627  1.00  0.00    -0.019 NA 
HETATM   15  C   UNL     1     -11.179  10.311  69.232  1.00  0.00    -0.228 A  
HETATM   16  N   UNL     1     -10.494   9.190  69.261  1.00  0.00    -0.219 NA 
BRANCH  15  17
HETATM   17  C   UNL     1     -10.797  11.574  68.603  1.00  0.00    -0.253 A  
HETATM   18  C   UNL     1      -9.470  12.023  68.454  1.00  0.00    -0.181 A  
HETATM   19  C   UNL     1      -9.208  13.261  67.821  1.00  0.00    -0.209 A  
HETATM   20  N   UNL     1      -7.823  13.718  67.682  1.00  0.00    -0.164 N  
HETATM   21  C   UNL     1     -10.257  14.047  67.327  1.00  0.00    -0.260 A  
HETATM   22  O   UNL     1     -10.138  15.260  66.697  1.00  0.00    -0.249 OA 
HETATM   23  O   UNL     1      -7.635  14.821  67.143  1.00  0.00    -0.194 OA 
HETATM   24  O   UNL     1      -6.922  12.983  68.109  1.00  0.00    -0.082 OA 
HETATM   25  C   UNL     1     -11.558  13.581  67.465  1.00  0.00    -0.350 A  
HETATM   26  H   UNL     1     -10.849  15.792  66.362  1.00  0.00     0.000 HD 
HETATM   27  C   UNL     1     -11.832  12.373  68.087  1.00  0.00    -0.372 A  
HETATM   28  O   UNL     1     -12.608  14.311  66.983  1.00  0.00    -0.553 OA 
HETATM   29  H   UNL     1     -13.499  13.993  67.078  1.00  0.00     0.000 HD 
ENDBRANCH  15  17
ENDBRANCH   3  12
TORSDOF 2
ENDMDL
MODEL      156
REMARK 921   NORMALIZED FREE ENERGY PREDICTED BY IDOCK:   -5.16 KCAL/MOL
REMARK 922        TOTAL FREE ENERGY PREDICTED BY IDOCK:   -6.35 KCAL/MOL
REMARK 923 INTER-LIGAND FREE ENERGY PREDICTED BY IDOCK:   -5.76 KCAL/MOL
REMARK 924 INTRA-LIGAND FREE ENERGY PREDICTED BY IDOCK:   -0.59 KCAL/MOL
REMARK 927      BINDING AFFINITY PREDICTED BY RF-SCORE:    0.00 PKD
ROOT
HETATM    1  C   UNL     1      -7.512  17.333  66.491  1.00  0.00    -0.315 C  
HETATM    2  C   UNL     1      -6.848  17.480  67.847  1.00  0.00    -0.188 A  
HETATM    3  C   UNL     1      -6.372  16.377  68.610  1.00  0.00    -0.133 A  
HETATM    4 CL   UNL     1      -7.211  20.160  67.417  1.00  0.00    -0.296 Cl 
HETATM    5  C   UNL     1      -5.793  16.625  69.878  1.00  0.00    -0.217 A  
HETATM    6  C   UNL     1      -5.955  20.406  70.176  1.00  0.00    -0.356 C  
HETATM    7 CL   UNL     1      -5.140  15.331  70.858  1.00  0.00    -0.138 Cl 
HETATM    8  N   UNL     1      -5.681  17.942  70.379  1.00  0.00    -0.211 NA 
HETATM    9  C   UNL     1      -6.122  19.021  69.615  1.00  0.00    -0.269 A  
HETATM   10  O   UNL     1      -5.161  18.156  71.528  1.00  0.00    -0.514 OA 
HETATM   11  C   UNL     1      -6.694  18.787  68.358  1.00  0.00    -0.248 A  
ENDROOT
BRANCH   3  12
HETATM   12  C   UNL     1      -6.446  15.012  68.074  1.00  0.00    -0.147 A  
HETATM   13  O   UNL     1      -5.973  13.089  67.197  1.00  0.00    -0.326 OA 
HETATM   14  N   UNL     1      -5.485  14.390  67.369  1.00  0.00    -0.301 NA 
HETATM   15  C   UNL     1      -7.175  13.047  67.839  1.00  0.00    -0.129 A  
HETATM   16  N   UNL     1      -7.531  14.211  68.335  1.00  0.00    -0.115 NA 
BRANCH  15  17
HETATM   17  C   UNL     1      -7.843  11.759  68.015  1.00  0.00    -0.134 A  
HETATM   18  C   UNL     1      -8.589  11.103  67.018  1.00  0.00    -0.147 A  
HETATM   19  C   UNL     1      -9.191   9.852  67.290  1.00  0.00    -0.138 A  
HETATM   20  N   UNL     1      -9.973   9.186  66.245  1.00  0.00    -0.287 N  
HETATM   21  C   UNL     1      -9.044   9.247  68.546  1.00  0.00    -0.132 A  
HETATM   22  O   UNL     1      -9.573   8.043  68.936  1.00  0.00    -0.151 OA 
HETATM   23  O   UNL     1     -10.506   8.101  66.531  1.00  0.00    -0.252 OA 
HETATM   24  O   UNL     1     -10.059   9.741  65.141  1.00  0.00    -0.262 OA 
HETATM   25  C   UNL     1      -8.288   9.899  69.512  1.00  0.00    -0.168 A  
HETATM   26  H   UNL     1      -9.473   7.633  69.787  1.00  0.00     0.000 HD 
HETATM   27  C   UNL     1      -7.698  11.127  69.262  1.00  0.00    -0.027 A  
HETATM   28  O   UNL     1      -8.108   9.334  70.745  1.00  0.00    -0.158 OA 
HETATM   29  H   UNL     1      -7.592   9.780  71.406  1.00  0.00     0.000 HD 
ENDBRANCH  15  17
ENDBRANCH   3  12
TORSDOF 2
ENDMDL
MODEL      157
REMARK 921   NORMALIZED FREE ENERGY PREDICTED BY IDOCK:   -5.15 KCAL/MOL
REMARK 922        TOTAL FREE ENERGY PREDICTED BY IDOCK:   -6.34 KCAL/MOL
REMARK 923 INTER-LIGAND FREE ENERGY PREDICTED BY IDOCK:   -5.75 KCAL/MOL
REMARK 924 INTRA-LIGAND FREE ENERGY PREDICTED BY IDOCK:   -0.59 KCAL/MOL
REMARK 927      BINDING AFFINITY PREDICTED BY RF-SCORE:    0.00 PKD
ROOT
HETATM    1  C   UNL     1      -7.791  11.499  67.981  1.00  0.00    -0.126 C  
HETATM    2  C   UNL     1      -8.789  12.139  67.035  1.00  0.00    -0.203 A  
HETATM    3  C   UNL     1      -9.392  11.447  65.948  1.00  0.00    -0.247 A  
HETATM    4 CL   UNL     1      -8.458  14.340  68.629  1.00  0.00    -0.161 Cl 
HETATM    5  C   UNL     1     -10.292  12.149  65.109  1.00  0.00    -0.279 A  
HETATM    6  C   UNL     1     -10.395  15.611  66.660  1.00  0.00    -0.290 C  
HETATM    7 CL   UNL     1     -11.113  11.360  63.781  1.00  0.00    -0.459 Cl 
HETATM    8  N   UNL     1     -10.593  13.508  65.346  1.00  0.00    -0.297 NA 
HETATM    9  C   UNL     1     -10.022  14.173  66.429  1.00  0.00    -0.293 A  
HETATM   10  O   UNL     1     -11.403  14.136  64.579  1.00  0.00    -0.372 OA 
HETATM   11  C   UNL     1      -9.133  13.488  67.267  1.00  0.00    -0.225 A  
ENDROOT
BRANCH   3  12
HETATM   12  C   UNL     1      -9.116  10.022  65.725  1.00  0.00    -0.163 A  
HETATM   13  O   UNL     1      -8.219   8.139  65.139  1.00  0.00    -0.141 OA 
HETATM   14  N   UNL     1      -8.168   9.521  64.915  1.00  0.00    -0.131 NA 
HETATM   15  C   UNL     1      -9.181   7.945  66.085  1.00  0.00    -0.152 A  
HETATM   16  N   UNL     1      -9.795   9.056  66.427  1.00  0.00    -0.267 NA 
BRANCH  15  17
HETATM   17  C   UNL     1      -9.332   6.620  66.685  1.00  0.00    -0.192 A  
HETATM   18  C   UNL     1      -9.391   6.373  68.069  1.00  0.00    -0.115 A  
HETATM   19  C   UNL     1      -9.548   5.050  68.547  1.00  0.00    -0.146 A  
HETATM   20  N   UNL     1      -9.596   4.808  69.991  1.00  0.00    -0.170 N  
HETATM   21  C   UNL     1      -9.658   3.977  67.653  1.00  0.00    -0.159 A  
HETATM   22  O   UNL     1      -9.813   2.654  67.985  1.00  0.00    -0.223 OA 
HETATM   23  O   UNL     1      -9.710   3.630  70.371  1.00  0.00    -0.189 OA 
HETATM   24  O   UNL     1      -9.521   5.785  70.748  1.00  0.00    -0.160 OA 
HETATM   25  C   UNL     1      -9.618   4.241  66.290  1.00  0.00    -0.196 A  
HETATM   26  H   UNL     1      -9.888   1.927  67.379  1.00  0.00     0.000 HD 
HETATM   27  C   UNL     1      -9.459   5.529  65.807  1.00  0.00    -0.071 A  
HETATM   28  O   UNL     1      -9.738   3.222  65.386  1.00  0.00    -0.327 OA 
HETATM   29  H   UNL     1      -9.710   3.403  64.453  1.00  0.00     0.000 HD 
ENDBRANCH  15  17
ENDBRANCH   3  12
TORSDOF 2
ENDMDL
MODEL      158
REMARK 921   NORMALIZED FREE ENERGY PREDICTED BY IDOCK:   -5.12 KCAL/MOL
REMARK 922        TOTAL FREE ENERGY PREDICTED BY IDOCK:   -6.31 KCAL/MOL
REMARK 923 INTER-LIGAND FREE ENERGY PREDICTED BY IDOCK:   -5.90 KCAL/MOL
REMARK 924 INTRA-LIGAND FREE ENERGY PREDICTED BY IDOCK:   -0.41 KCAL/MOL
REMARK 927      BINDING AFFINITY PREDICTED BY RF-SCORE:    0.00 PKD
ROOT
HETATM    1  C   UNL     1      -9.769   8.000  67.427  1.00  0.00    -0.216 C  
HETATM    2  C   UNL     1     -10.440   8.124  68.781  1.00  0.00    -0.198 A  
HETATM    3  C   UNL     1     -10.822   9.370  69.356  1.00  0.00    -0.208 A  
HETATM    4 CL   UNL     1     -10.304   5.389  68.781  1.00  0.00    -0.258 Cl 
HETATM    5  C   UNL     1     -11.418   9.372  70.641  1.00  0.00    -0.284 A  
HETATM    6  C   UNL     1     -11.572   5.686  71.529  1.00  0.00     0.093 C  
HETATM    7 CL   UNL     1     -11.960  10.854  71.397  1.00  0.00    -0.231 Cl 
HETATM    8  N   UNL     1     -11.640   8.165  71.340  1.00  0.00    -0.270 NA 
HETATM    9  C   UNL     1     -11.291   6.946  70.760  1.00  0.00    -0.310 A  
HETATM   10  O   UNL     1     -12.174   8.178  72.502  1.00  0.00    -0.344 OA 
HETATM   11  C   UNL     1     -10.703   6.932  69.489  1.00  0.00    -0.246 A  
ENDROOT
BRANCH   3  12
HETATM   12  C   UNL     1     -10.634  10.622  68.613  1.00  0.00    -0.203 A  
HETATM   13  O   UNL     1     -10.868  12.298  67.261  1.00  0.00    -0.231 OA 
HETATM   14  N   UNL     1     -11.317  10.997  67.518  1.00  0.00    -0.452 NA 
HETATM   15  C   UNL     1      -9.973  12.590  68.247  1.00  0.00    -0.229 A  
HETATM   16  N   UNL     1      -9.754  11.578  69.056  1.00  0.00    -0.045 NA 
BRANCH  15  17
HETATM   17  C   UNL     1      -9.476  13.959  68.375  1.00  0.00    -0.211 A  
HETATM   18  C   UNL     1      -8.131  14.303  68.611  1.00  0.00    -0.140 A  
HETATM   19  C   UNL     1      -7.754  15.663  68.711  1.00  0.00    -0.165 A  
HETATM   20  N   UNL     1      -6.352  16.003  68.967  1.00  0.00    -0.133 N  
HETATM   21  C   UNL     1      -8.706  16.680  68.565  1.00  0.00    -0.242 A  
HETATM   22  O   UNL     1      -8.471  18.030  68.639  1.00  0.00    -0.303 OA 
HETATM   23  O   UNL     1      -6.065  17.207  69.073  1.00  0.00    -0.166 OA 
HETATM   24  O   UNL     1      -5.537  15.076  69.065  1.00  0.00    -0.095 OA 
HETATM   25  C   UNL     1     -10.025  16.325  68.313  1.00  0.00    -0.236 A  
HETATM   26  H   UNL     1      -9.117  18.720  68.540  1.00  0.00     0.000 HD 
HETATM   27  C   UNL     1     -10.411  14.998  68.219  1.00  0.00    -0.236 A  
HETATM   28  O   UNL     1     -10.981  17.289  68.150  1.00  0.00    -0.347 OA 
HETATM   29  H   UNL     1     -11.883  17.046  67.978  1.00  0.00     0.000 HD 
ENDBRANCH  15  17
ENDBRANCH   3  12
TORSDOF 2
ENDMDL
MODEL      159
REMARK 921   NORMALIZED FREE ENERGY PREDICTED BY IDOCK:   -5.12 KCAL/MOL
REMARK 922        TOTAL FREE ENERGY PREDICTED BY IDOCK:   -6.31 KCAL/MOL
REMARK 923 INTER-LIGAND FREE ENERGY PREDICTED BY IDOCK:   -5.90 KCAL/MOL
REMARK 924 INTRA-LIGAND FREE ENERGY PREDICTED BY IDOCK:   -0.41 KCAL/MOL
REMARK 927      BINDING AFFINITY PREDICTED BY RF-SCORE:    0.00 PKD
ROOT
HETATM    1  C   UNL     1      -7.095  12.779  68.789  1.00  0.00    -0.089 C  
HETATM    2  C   UNL     1      -8.192  13.409  67.953  1.00  0.00    -0.162 A  
HETATM    3  C   UNL     1      -9.413  12.748  67.634  1.00  0.00    -0.190 A  
HETATM    4 CL   UNL     1      -6.523  15.579  67.912  1.00  0.00    -0.153 Cl 
HETATM    5  C   UNL     1     -10.359  13.420  66.823  1.00  0.00    -0.263 A  
HETATM    6  C   UNL     1      -8.709  16.775  66.169  1.00  0.00    -0.299 C  
HETATM    7 CL   UNL     1     -11.902  12.698  66.425  1.00  0.00    -0.470 Cl 
HETATM    8  N   UNL     1     -10.106  14.724  66.341  1.00  0.00    -0.269 NA 
HETATM    9  C   UNL     1      -8.922  15.377  66.680  1.00  0.00    -0.286 A  
HETATM   10  O   UNL     1     -10.965  15.320  65.604  1.00  0.00    -0.334 OA 
HETATM   11  C   UNL     1      -7.981  14.723  67.485  1.00  0.00    -0.188 A  
ENDROOT
BRANCH   3  12
HETATM   12  C   UNL     1      -9.698  11.411  68.171  1.00  0.00    -0.192 A  
HETATM   13  O   UNL     1     -10.598   9.719  69.179  1.00  0.00    -0.204 OA 
HETATM   14  N   UNL     1     -10.628  11.117  69.096  1.00  0.00    -0.217 NA 
HETATM   15  C   UNL     1      -9.667   9.306  68.274  1.00  0.00    -0.150 A  
HETATM   16  N   UNL     1      -9.051  10.304  67.681  1.00  0.00    -0.137 NA 
BRANCH  15  17
HETATM   17  C   UNL     1      -9.547   7.880  67.976  1.00  0.00    -0.168 A  
HETATM   18  C   UNL     1      -8.600   7.017  68.560  1.00  0.00    -0.123 A  
HETATM   19  C   UNL     1      -8.575   5.647  68.207  1.00  0.00    -0.107 A  
HETATM   20  N   UNL     1      -7.576   4.766  68.816  1.00  0.00    -0.068 N  
HETATM   21  C   UNL     1      -9.495   5.131  67.285  1.00  0.00    -0.131 A  
HETATM   22  O   UNL     1      -9.577   3.829  66.859  1.00  0.00    -0.205 OA 
HETATM   23  O   UNL     1      -7.571   3.575  68.462  1.00  0.00    -0.053 OA 
HETATM   24  O   UNL     1      -6.797   5.255  69.645  1.00  0.00    -0.052 OA 
HETATM   25  C   UNL     1     -10.435   5.991  66.732  1.00  0.00    -0.267 A  
HETATM   26  H   UNL     1     -10.201   3.479  66.234  1.00  0.00     0.000 HD 
HETATM   27  C   UNL     1     -10.469   7.336  67.064  1.00  0.00    -0.398 A  
HETATM   28  O   UNL     1     -11.360   5.523  65.840  1.00  0.00    -0.722 OA 
HETATM   29  H   UNL     1     -12.003   6.111  65.462  1.00  0.00     0.000 HD 
ENDBRANCH  15  17
ENDBRANCH   3  12
TORSDOF 2
ENDMDL
MODEL      160
REMARK 921   NORMALIZED FREE ENERGY PREDICTED BY IDOCK:   -5.10 KCAL/MOL
REMARK 922        TOTAL FREE ENERGY PREDICTED BY IDOCK:   -6.28 KCAL/MOL
REMARK 923 INTER-LIGAND FREE ENERGY PREDICTED BY IDOCK:   -5.75 KCAL/MOL
REMARK 924 INTRA-LIGAND FREE ENERGY PREDICTED BY IDOCK:   -0.53 KCAL/MOL
REMARK 927      BINDING AFFINITY PREDICTED BY RF-SCORE:    0.00 PKD
ROOT
HETATM    1  C   UNL     1      -8.006   6.405  68.994  1.00  0.00    -0.111 C  
HETATM    2  C   UNL     1      -9.221   6.328  69.897  1.00  0.00    -0.155 A  
HETATM    3  C   UNL     1     -10.295   7.262  69.848  1.00  0.00    -0.226 A  
HETATM    4 CL   UNL     1      -8.010   4.069  70.861  1.00  0.00    -0.058 Cl 
HETATM    5  C   UNL     1     -11.370   7.111  70.757  1.00  0.00    -0.289 A  
HETATM    6  C   UNL     1     -10.422   4.000  72.712  1.00  0.00    -0.234 C  
HETATM    7 CL   UNL     1     -12.751   8.186  70.730  1.00  0.00     0.112 Cl 
HETATM    8  N   UNL     1     -11.386   6.054  71.693  1.00  0.00    -0.274 NA 
HETATM    9  C   UNL     1     -10.347   5.126  71.718  1.00  0.00    -0.209 A  
HETATM   10  O   UNL     1     -12.360   5.930  72.514  1.00  0.00    -0.158 OA 
HETATM   11  C   UNL     1      -9.280   5.262  70.821  1.00  0.00    -0.152 A  
ENDROOT
BRANCH   3  12
HETATM   12  C   UNL     1     -10.303   8.335  68.846  1.00  0.00    -0.215 A  
HETATM   13  O   UNL     1     -10.597   9.505  67.047  1.00  0.00    -0.248 OA 
HETATM   14  N   UNL     1     -10.617   8.196  67.546  1.00  0.00    -0.246 NA 
HETATM   15  C   UNL     1     -10.298  10.310  68.106  1.00  0.00    -0.177 A  
HETATM   16  N   UNL     1     -10.051   9.636  69.207  1.00  0.00    -0.183 NA 
BRANCH  15  17
HETATM   17  C   UNL     1     -10.405  11.759  67.951  1.00  0.00    -0.209 A  
HETATM   18  C   UNL     1      -9.435  12.683  68.385  1.00  0.00    -0.163 A  
HETATM   19  C   UNL     1      -9.633  14.069  68.179  1.00  0.00    -0.220 A  
HETATM   20  N   UNL     1      -8.619  15.017  68.646  1.00  0.00    -0.166 N  
HETATM   21  C   UNL     1     -10.785  14.537  67.533  1.00  0.00    -0.276 A  
HETATM   22  O   UNL     1     -11.095  15.848  67.273  1.00  0.00    -0.281 OA 
HETATM   23  O   UNL     1      -8.841  16.227  68.468  1.00  0.00    -0.200 OA 
HETATM   24  O   UNL     1      -7.603  14.563  69.189  1.00  0.00    -0.131 OA 
HETATM   25  C   UNL     1     -11.722  13.611  67.094  1.00  0.00    -0.383 A  
HETATM   26  H   UNL     1     -11.876  16.165  66.834  1.00  0.00     0.000 HD 
HETATM   27  C   UNL     1     -11.546  12.252  67.293  1.00  0.00    -0.427 A  
HETATM   28  O   UNL     1     -12.853  14.027  66.446  1.00  0.00    -0.474 OA 
HETATM   29  H   UNL     1     -13.494  13.394  66.145  1.00  0.00     0.000 HD 
ENDBRANCH  15  17
ENDBRANCH   3  12
TORSDOF 2
ENDMDL
MODEL      161
REMARK 921   NORMALIZED FREE ENERGY PREDICTED BY IDOCK:   -5.02 KCAL/MOL
REMARK 922        TOTAL FREE ENERGY PREDICTED BY IDOCK:   -6.20 KCAL/MOL
REMARK 923 INTER-LIGAND FREE ENERGY PREDICTED BY IDOCK:   -5.62 KCAL/MOL
REMARK 924 INTRA-LIGAND FREE ENERGY PREDICTED BY IDOCK:   -0.58 KCAL/MOL
REMARK 927      BINDING AFFINITY PREDICTED BY RF-SCORE:    0.00 PKD
ROOT
HETATM    1  C   UNL     1     -10.193   5.020  67.739  1.00  0.00    -0.156 C  
HETATM    2  C   UNL     1      -9.115   5.280  66.703  1.00  0.00    -0.122 A  
HETATM    3  C   UNL     1      -8.590   6.573  66.427  1.00  0.00    -0.136 A  
HETATM    4 CL   UNL     1      -9.193   2.564  66.357  1.00  0.00    -0.100 Cl 
HETATM    5  C   UNL     1      -7.604   6.706  65.419  1.00  0.00    -0.086 A  
HETATM    6  C   UNL     1      -7.096   3.138  64.230  1.00  0.00    -0.057 C  
HETATM    7 CL   UNL     1      -6.871   8.252  65.051  1.00  0.00    -0.066 Cl 
HETATM    8  N   UNL     1      -7.142   5.579  64.703  1.00  0.00    -0.052 NA 
HETATM    9  C   UNL     1      -7.639   4.311  64.997  1.00  0.00    -0.077 A  
HETATM   10  O   UNL     1      -6.255   5.711  63.790  1.00  0.00    -0.024 OA 
HETATM   11  C   UNL     1      -8.612   4.168  65.995  1.00  0.00    -0.113 A  
ENDROOT
BRANCH   3  12
HETATM   12  C   UNL     1      -9.034   7.740  67.200  1.00  0.00    -0.126 A  
HETATM   13  O   UNL     1      -9.217   9.318  68.672  1.00  0.00    -0.135 OA 
HETATM   14  N   UNL     1      -8.593   8.089  68.421  1.00  0.00    -0.127 NA 
HETATM   15  C   UNL     1      -9.956   9.601  67.563  1.00  0.00    -0.183 A  
HETATM   16  N   UNL     1      -9.923   8.640  66.667  1.00  0.00    -0.265 NA 
BRANCH  15  17
HETATM   17  C   UNL     1     -10.567  10.923  67.432  1.00  0.00    -0.285 A  
HETATM   18  C   UNL     1     -10.651  11.649  66.229  1.00  0.00    -0.301 A  
HETATM   19  C   UNL     1     -11.272  12.920  66.209  1.00  0.00    -0.301 A  
HETATM   20  N   UNL     1     -11.342  13.667  64.951  1.00  0.00    -0.331 N  
HETATM   21  C   UNL     1     -11.818  13.465  67.378  1.00  0.00    -0.375 A  
HETATM   22  O   UNL     1     -12.444  14.681  67.494  1.00  0.00    -0.551 OA 
HETATM   23  O   UNL     1     -11.873  14.790  64.980  1.00  0.00    -0.369 OA 
HETATM   24  O   UNL     1     -10.869  13.140  63.935  1.00  0.00    -0.370 OA 
HETATM   25  C   UNL     1     -11.744  12.728  68.553  1.00  0.00    -0.333 A  
HETATM   26  H   UNL     1     -12.815  15.051  68.286  1.00  0.00     0.000 HD 
HETATM   27  C   UNL     1     -11.135  11.484  68.589  1.00  0.00    -0.291 A  
HETATM   28  O   UNL     1     -12.279  13.219  69.712  1.00  0.00    -0.290 OA 
HETATM   29  H   UNL     1     -12.228  12.714  70.515  1.00  0.00     0.000 HD 
ENDBRANCH  15  17
ENDBRANCH   3  12
TORSDOF 2
ENDMDL
MODEL      162
REMARK 921   NORMALIZED FREE ENERGY PREDICTED BY IDOCK:   -5.02 KCAL/MOL
REMARK 922        TOTAL FREE ENERGY PREDICTED BY IDOCK:   -6.20 KCAL/MOL
REMARK 923 INTER-LIGAND FREE ENERGY PREDICTED BY IDOCK:   -5.70 KCAL/MOL
REMARK 924 INTRA-LIGAND FREE ENERGY PREDICTED BY IDOCK:   -0.50 KCAL/MOL
REMARK 927      BINDING AFFINITY PREDICTED BY RF-SCORE:    0.00 PKD
ROOT
HETATM    1  C   UNL     1      -7.582  16.244  66.070  1.00  0.00     0.558 C  
HETATM    2  C   UNL     1      -7.656  17.414  67.032  1.00  0.00    -0.235 A  
HETATM    3  C   UNL     1      -8.772  17.664  67.879  1.00  0.00    -0.245 A  
HETATM    4 CL   UNL     1      -5.140  17.968  66.104  1.00  0.00    -0.193 Cl 
HETATM    5  C   UNL     1      -8.748  18.803  68.720  1.00  0.00    -0.276 A  
HETATM    6  C   UNL     1      -5.362  20.350  67.981  1.00  0.00    -0.231 C  
HETATM    7 CL   UNL     1     -10.057  19.154  69.826  1.00  0.00     0.171 Cl 
HETATM    8  N   UNL     1      -7.636  19.675  68.728  1.00  0.00    -0.339 NA 
HETATM    9  C   UNL     1      -6.534  19.410  67.917  1.00  0.00    -0.227 A  
HETATM   10  O   UNL     1      -7.626  20.704  69.488  1.00  0.00     0.693 OA 
HETATM   11  C   UNL     1      -6.546  18.285  67.084  1.00  0.00    -0.186 A  
ENDROOT
BRANCH   3  12
HETATM   12  C   UNL     1      -9.909  16.735  67.907  1.00  0.00    -0.257 A  
HETATM   13  O   UNL     1     -11.630  15.530  67.377  1.00  0.00    -0.222 OA 
HETATM   14  N   UNL     1     -10.851  16.615  66.955  1.00  0.00    -0.141 NA 
HETATM   15  C   UNL     1     -11.063  15.085  68.534  1.00  0.00    -0.272 A  
HETATM   16  N   UNL     1     -10.050  15.825  68.926  1.00  0.00    -0.212 NA 
BRANCH  15  17
HETATM   17  C   UNL     1     -11.527  13.827  69.117  1.00  0.00    -0.346 A  
HETATM   18  C   UNL     1     -12.192  13.716  70.352  1.00  0.00    -0.434 A  
HETATM   19  C   UNL     1     -12.608  12.448  70.823  1.00  0.00    -0.211 A  
HETATM   20  N   UNL     1     -13.290  12.348  72.115  1.00  0.00    -0.498 N  
HETATM   21  C   UNL     1     -12.375  11.294  70.064  1.00  0.00    -0.257 A  
HETATM   22  O   UNL     1     -12.726  10.012  70.404  1.00  0.00    -0.516 OA 
HETATM   23  O   UNL     1     -13.617  11.215  72.504  1.00  0.00     0.033 OA 
HETATM   24  O   UNL     1     -13.500  13.394  72.744  1.00  0.00    -0.607 OA 
HETATM   25  C   UNL     1     -11.735  11.423  68.838  1.00  0.00    -0.343 A  
HETATM   26  H   UNL     1     -12.568   9.229  69.889  1.00  0.00     0.000 HD 
HETATM   27  C   UNL     1     -11.317  12.657  68.367  1.00  0.00    -0.329 A  
HETATM   28  O   UNL     1     -11.502  10.322  68.060  1.00  0.00    -0.577 OA 
HETATM   29  H   UNL     1     -11.064  10.411  67.222  1.00  0.00     0.000 HD 
ENDBRANCH  15  17
ENDBRANCH   3  12
TORSDOF 2
ENDMDL
MODEL      163
REMARK 921   NORMALIZED FREE ENERGY PREDICTED BY IDOCK:   -5.02 KCAL/MOL
REMARK 922        TOTAL FREE ENERGY PREDICTED BY IDOCK:   -6.19 KCAL/MOL
REMARK 923 INTER-LIGAND FREE ENERGY PREDICTED BY IDOCK:   -6.71 KCAL/MOL
REMARK 924 INTRA-LIGAND FREE ENERGY PREDICTED BY IDOCK:    0.52 KCAL/MOL
REMARK 927      BINDING AFFINITY PREDICTED BY RF-SCORE:    0.00 PKD
ROOT
HETATM    1  C   UNL     1      -8.017  14.007  68.944  1.00  0.00    -0.025 C  
HETATM    2  C   UNL     1      -8.804  14.800  67.919  1.00  0.00    -0.167 A  
HETATM    3  C   UNL     1     -10.003  14.328  67.314  1.00  0.00    -0.252 A  
HETATM    4 CL   UNL     1      -6.883  16.706  68.339  1.00  0.00    -0.146 Cl 
HETATM    5  C   UNL     1     -10.644  15.141  66.348  1.00  0.00    -0.305 A  
HETATM    6  C   UNL     1      -8.443  18.229  66.219  1.00  0.00    -0.216 C  
HETATM    7 CL   UNL     1     -12.146  14.656  65.593  1.00  0.00    -0.267 Cl 
HETATM    8  N   UNL     1     -10.113  16.400  65.992  1.00  0.00    -0.336 NA 
HETATM    9  C   UNL     1      -8.955  16.870  66.608  1.00  0.00    -0.252 A  
HETATM   10  O   UNL     1     -10.696  17.125  65.113  1.00  0.00    -0.680 OA 
HETATM   11  C   UNL     1      -8.314  16.076  67.568  1.00  0.00    -0.161 A  
ENDROOT
BRANCH   3  12
HETATM   12  C   UNL     1     -10.583  13.039  67.715  1.00  0.00    -0.226 A  
HETATM   13  O   UNL     1     -11.928  11.380  68.072  1.00  0.00    -0.613 OA 
HETATM   14  N   UNL     1     -11.893  12.743  67.751  1.00  0.00    -0.351 NA 
HETATM   15  C   UNL     1     -10.629  10.982  68.173  1.00  0.00    -0.191 A  
HETATM   16  N   UNL     1      -9.777  11.971  68.023  1.00  0.00    -0.192 NA 
BRANCH  15  17
HETATM   17  C   UNL     1     -10.329   9.556  68.297  1.00  0.00    -0.244 A  
HETATM   18  C   UNL     1     -10.079   8.896  69.515  1.00  0.00    -0.198 A  
HETATM   19  C   UNL     1      -9.806   7.507  69.526  1.00  0.00    -0.169 A  
HETATM   20  N   UNL     1      -9.539   6.837  70.801  1.00  0.00    -0.169 N  
HETATM   21  C   UNL     1      -9.792   6.773  68.333  1.00  0.00    -0.136 A  
HETATM   22  O   UNL     1      -9.543   5.430  68.207  1.00  0.00    -0.115 OA 
HETATM   23  O   UNL     1      -9.279   5.622  70.766  1.00  0.00    -0.148 OA 
HETATM   24  O   UNL     1      -9.585   7.515  71.836  1.00  0.00    -0.147 OA 
HETATM   25  C   UNL     1     -10.060   7.437  67.142  1.00  0.00    -0.244 A  
HETATM   26  H   UNL     1      -9.533   4.933  67.398  1.00  0.00     0.000 HD 
HETATM   27  C   UNL     1     -10.323   8.796  67.115  1.00  0.00    -0.364 A  
HETATM   28  O   UNL     1     -10.070   6.753  65.958  1.00  0.00    -0.398 OA 
HETATM   29  H   UNL     1     -10.253   7.206  65.143  1.00  0.00     0.000 HD 
ENDBRANCH  15  17
ENDBRANCH   3  12
TORSDOF 2
ENDMDL
MODEL      164
REMARK 921   NORMALIZED FREE ENERGY PREDICTED BY IDOCK:   -5.00 KCAL/MOL
REMARK 922        TOTAL FREE ENERGY PREDICTED BY IDOCK:   -6.18 KCAL/MOL
REMARK 923 INTER-LIGAND FREE ENERGY PREDICTED BY IDOCK:   -5.75 KCAL/MOL
REMARK 924 INTRA-LIGAND FREE ENERGY PREDICTED BY IDOCK:   -0.43 KCAL/MOL
REMARK 927      BINDING AFFINITY PREDICTED BY RF-SCORE:    0.00 PKD
ROOT
HETATM    1  C   UNL     1     -11.275  11.309  67.263  1.00  0.00    -0.364 C  
HETATM    2  C   UNL     1     -10.182  10.800  66.345  1.00  0.00    -0.294 A  
HETATM    3  C   UNL     1      -9.087  10.008  66.793  1.00  0.00    -0.159 A  
HETATM    4 CL   UNL     1     -11.639  12.044  64.388  1.00  0.00    -0.413 Cl 
HETATM    5  C   UNL     1      -8.105   9.609  65.853  1.00  0.00    -0.112 A  
HETATM    6  C   UNL     1      -9.381  11.077  62.594  1.00  0.00    -0.348 C  
HETATM    7 CL   UNL     1      -6.756   8.595  66.312  1.00  0.00    -0.068 Cl 
HETATM    8  N   UNL     1      -8.209   9.980  64.494  1.00  0.00    -0.157 NA 
HETATM    9  C   UNL     1      -9.298  10.731  64.055  1.00  0.00    -0.252 A  
HETATM   10  O   UNL     1      -7.314   9.619  63.654  1.00  0.00    -0.106 OA 
HETATM   11  C   UNL     1     -10.276  11.129  64.975  1.00  0.00    -0.296 A  
ENDROOT
BRANCH   3  12
HETATM   12  C   UNL     1      -9.000   9.583  68.196  1.00  0.00    -0.123 A  
HETATM   13  O   UNL     1      -8.895   9.542  70.359  1.00  0.00    -0.229 OA 
HETATM   14  N   UNL     1      -8.757  10.383  69.247  1.00  0.00    -0.164 NA 
HETATM   15  C   UNL     1      -9.234   8.317  69.866  1.00  0.00    -0.154 A  
HETATM   16  N   UNL     1      -9.250   8.280  68.552  1.00  0.00    -0.136 NA 
BRANCH  15  17
HETATM   17  C   UNL     1      -9.650   7.267  70.794  1.00  0.00    -0.171 A  
HETATM   18  C   UNL     1      -9.574   5.887  70.524  1.00  0.00    -0.208 A  
HETATM   19  C   UNL     1      -9.997   4.950  71.497  1.00  0.00    -0.194 A  
HETATM   20  N   UNL     1      -9.922   3.518  71.197  1.00  0.00    -0.105 N  
HETATM   21  C   UNL     1     -10.483   5.380  72.738  1.00  0.00    -0.213 A  
HETATM   22  O   UNL     1     -10.921   4.579  73.762  1.00  0.00    -0.274 OA 
HETATM   23  O   UNL     1     -10.325   2.729  72.067  1.00  0.00    -0.106 OA 
HETATM   24  O   UNL     1      -9.463   3.177  70.098  1.00  0.00    -0.162 OA 
HETATM   25  C   UNL     1     -10.532   6.745  72.996  1.00  0.00    -0.254 A  
HETATM   26  H   UNL     1     -11.251   4.871  74.604  1.00  0.00     0.000 HD 
HETATM   27  C   UNL     1     -10.128   7.674  72.051  1.00  0.00    -0.233 A  
HETATM   28  O   UNL     1     -10.986   7.204  74.201  1.00  0.00    -0.450 OA 
HETATM   29  H   UNL     1     -11.020   8.137  74.377  1.00  0.00     0.000 HD 
ENDBRANCH  15  17
ENDBRANCH   3  12
TORSDOF 2
ENDMDL
MODEL      165
REMARK 921   NORMALIZED FREE ENERGY PREDICTED BY IDOCK:   -5.00 KCAL/MOL
REMARK 922        TOTAL FREE ENERGY PREDICTED BY IDOCK:   -6.17 KCAL/MOL
REMARK 923 INTER-LIGAND FREE ENERGY PREDICTED BY IDOCK:   -5.65 KCAL/MOL
REMARK 924 INTRA-LIGAND FREE ENERGY PREDICTED BY IDOCK:   -0.52 KCAL/MOL
REMARK 927      BINDING AFFINITY PREDICTED BY RF-SCORE:    0.00 PKD
ROOT
HETATM    1  C   UNL     1     -11.913   9.705  70.916  1.00  0.00    -0.391 C  
HETATM    2  C   UNL     1     -11.194   8.623  70.133  1.00  0.00    -0.152 A  
HETATM    3  C   UNL     1     -10.645   8.828  68.836  1.00  0.00    -0.178 A  
HETATM    4 CL   UNL     1     -11.670   7.096  72.356  1.00  0.00    -0.285 Cl 
HETATM    5  C   UNL     1     -10.017   7.739  68.183  1.00  0.00    -0.178 A  
HETATM    6  C   UNL     1     -10.299   4.930  70.720  1.00  0.00    -0.228 C  
HETATM    7 CL   UNL     1      -9.274   7.919  66.609  1.00  0.00    -0.204 Cl 
HETATM    8  N   UNL     1      -9.929   6.473  68.804  1.00  0.00    -0.139 NA 
HETATM    9  C   UNL     1     -10.443   6.286  70.086  1.00  0.00    -0.222 A  
HETATM   10  O   UNL     1      -9.364   5.494  68.204  1.00  0.00    -0.108 OA 
HETATM   11  C   UNL     1     -11.063   7.357  70.743  1.00  0.00    -0.265 A  
ENDROOT
BRANCH   3  12
HETATM   12  C   UNL     1     -10.695  10.153  68.206  1.00  0.00    -0.238 A  
HETATM   13  O   UNL     1     -11.355  12.008  67.303  1.00  0.00    -0.289 OA 
HETATM   14  N   UNL     1     -11.779  10.718  67.647  1.00  0.00    -0.474 NA 
HETATM   15  C   UNL     1     -10.059  12.102  67.714  1.00  0.00    -0.199 A  
HETATM   16  N   UNL     1      -9.598  10.978  68.214  1.00  0.00    -0.165 NA 
BRANCH  15  17
HETATM   17  C   UNL     1      -9.395  13.404  67.683  1.00  0.00    -0.217 A  
HETATM   18  C   UNL     1      -8.021  13.605  67.912  1.00  0.00    -0.161 A  
HETATM   19  C   UNL     1      -7.475  14.909  67.849  1.00  0.00    -0.141 A  
HETATM   20  N   UNL     1      -6.045  15.103  68.100  1.00  0.00    -0.123 N  
HETATM   21  C   UNL     1      -8.288  16.010  67.548  1.00  0.00    -0.161 A  
HETATM   22  O   UNL     1      -7.885  17.318  67.457  1.00  0.00    -0.177 OA 
HETATM   23  O   UNL     1      -5.608  16.266  68.060  1.00  0.00    -0.097 OA 
HETATM   24  O   UNL     1      -5.355  14.103  68.337  1.00  0.00    -0.089 OA 
HETATM   25  C   UNL     1      -9.638  15.791  67.306  1.00  0.00    -0.217 A  
HETATM   26  H   UNL     1      -8.437  18.064  67.253  1.00  0.00     0.000 HD 
HETATM   27  C   UNL     1     -10.188  14.522  67.369  1.00  0.00    -0.240 A  
HETATM   28  O   UNL     1     -10.462  16.838  66.995  1.00  0.00    -0.313 OA 
HETATM   29  H   UNL     1     -11.386  16.688  66.829  1.00  0.00     0.000 HD 
ENDBRANCH  15  17
ENDBRANCH   3  12
TORSDOF 2
ENDMDL
MODEL      166
REMARK 921   NORMALIZED FREE ENERGY PREDICTED BY IDOCK:   -4.99 KCAL/MOL
REMARK 922        TOTAL FREE ENERGY PREDICTED BY IDOCK:   -6.17 KCAL/MOL
REMARK 923 INTER-LIGAND FREE ENERGY PREDICTED BY IDOCK:   -5.58 KCAL/MOL
REMARK 924 INTRA-LIGAND FREE ENERGY PREDICTED BY IDOCK:   -0.58 KCAL/MOL
REMARK 927      BINDING AFFINITY PREDICTED BY RF-SCORE:    0.00 PKD
ROOT
HETATM    1  C   UNL     1     -10.028   9.239  65.907  1.00  0.00    -0.289 C  
HETATM    2  C   UNL     1      -8.849   9.046  66.841  1.00  0.00    -0.129 A  
HETATM    3  C   UNL     1      -8.394  10.046  67.746  1.00  0.00    -0.114 A  
HETATM    4 CL   UNL     1      -8.762   6.536  65.751  1.00  0.00    -0.150 Cl 
HETATM    5  C   UNL     1      -7.264   9.770  68.554  1.00  0.00    -0.070 A  
HETATM    6  C   UNL     1      -6.349   6.219  67.575  1.00  0.00    -0.037 C  
HETATM    7 CL   UNL     1      -6.671  10.925  69.726  1.00  0.00    -0.135 Cl 
HETATM    8  N   UNL     1      -6.602   8.524  68.473  1.00  0.00    -0.058 NA 
HETATM    9  C   UNL     1      -7.068   7.539  67.606  1.00  0.00    -0.085 A  
HETATM   10  O   UNL     1      -5.578   8.286  69.204  1.00  0.00    -0.030 OA 
HETATM   11  C   UNL     1      -8.187   7.800  66.804  1.00  0.00    -0.120 A  
ENDROOT
BRANCH   3  12
HETATM   12  C   UNL     1      -9.107  11.324  67.865  1.00  0.00    -0.150 A  
HETATM   13  O   UNL     1     -10.416  12.929  68.500  1.00  0.00    -0.247 OA 
HETATM   14  N   UNL     1     -10.188  11.553  68.631  1.00  0.00    -0.209 NA 
HETATM   15  C   UNL     1      -9.430  13.400  67.685  1.00  0.00    -0.216 A  
HETATM   16  N   UNL     1      -8.647  12.449  67.227  1.00  0.00    -0.178 NA 
BRANCH  15  17
HETATM   17  C   UNL     1      -9.272  14.844  67.520  1.00  0.00    -0.194 A  
HETATM   18  C   UNL     1      -9.966  15.620  66.573  1.00  0.00    -0.287 A  
HETATM   19  C   UNL     1      -9.745  17.016  66.501  1.00  0.00    -0.282 A  
HETATM   20  N   UNL     1     -10.468  17.809  65.504  1.00  0.00    -0.165 N  
HETATM   21  C   UNL     1      -8.846  17.642  67.374  1.00  0.00    -0.235 A  
HETATM   22  O   UNL     1      -8.543  18.980  67.409  1.00  0.00    -0.274 OA 
HETATM   23  O   UNL     1     -10.228  19.027  65.456  1.00  0.00    -0.430 OA 
HETATM   24  O   UNL     1     -11.273  17.222  64.767  1.00  0.00    -0.890 OA 
HETATM   25  C   UNL     1      -8.184  16.864  68.316  1.00  0.00    -0.222 A  
HETATM   26  H   UNL     1      -7.933  19.404  68.001  1.00  0.00     0.000 HD 
HETATM   27  C   UNL     1      -8.385  15.496  68.394  1.00  0.00    -0.154 A  
HETATM   28  O   UNL     1      -7.309  17.440  69.195  1.00  0.00    -0.232 OA 
HETATM   29  H   UNL     1      -6.856  16.908  69.839  1.00  0.00     0.000 HD 
ENDBRANCH  15  17
ENDBRANCH   3  12
TORSDOF 2
ENDMDL
MODEL      167
REMARK 921   NORMALIZED FREE ENERGY PREDICTED BY IDOCK:   -4.97 KCAL/MOL
REMARK 922        TOTAL FREE ENERGY PREDICTED BY IDOCK:   -6.15 KCAL/MOL
REMARK 923 INTER-LIGAND FREE ENERGY PREDICTED BY IDOCK:   -5.55 KCAL/MOL
REMARK 924 INTRA-LIGAND FREE ENERGY PREDICTED BY IDOCK:   -0.59 KCAL/MOL
REMARK 927      BINDING AFFINITY PREDICTED BY RF-SCORE:    0.00 PKD
ROOT
HETATM    1  C   UNL     1      -9.243   9.981  68.802  1.00  0.00    -0.159 C  
HETATM    2  C   UNL     1      -9.077   9.603  67.343  1.00  0.00    -0.144 A  
HETATM    3  C   UNL     1      -9.354  10.492  66.266  1.00  0.00    -0.202 A  
HETATM    4 CL   UNL     1      -8.205   7.213  68.356  1.00  0.00    -0.124 Cl 
HETATM    5  C   UNL     1      -9.190  10.026  64.939  1.00  0.00    -0.239 A  
HETATM    6  C   UNL     1      -7.968   6.465  65.418  1.00  0.00    -0.116 C  
HETATM    7 CL   UNL     1      -9.462  11.069  63.560  1.00  0.00    -0.281 Cl 
HETATM    8  N   UNL     1      -8.754   8.707  64.682  1.00  0.00    -0.094 NA 
HETATM    9  C   UNL     1      -8.457   7.850  65.740  1.00  0.00    -0.140 A  
HETATM   10  O   UNL     1      -8.615   8.293  63.479  1.00  0.00    -0.007 OA 
HETATM   11  C   UNL     1      -8.612   8.301  67.057  1.00  0.00    -0.123 A  
ENDROOT
BRANCH   3  12
HETATM   12  C   UNL     1      -9.763  11.877  66.529  1.00  0.00    -0.210 A  
HETATM   13  O   UNL     1     -10.881  13.655  67.061  1.00  0.00    -0.282 OA 
HETATM   14  N   UNL     1     -11.022  12.300  66.737  1.00  0.00    -0.263 NA 
HETATM   15  C   UNL     1      -9.542  13.911  67.041  1.00  0.00    -0.254 A  
HETATM   16  N   UNL     1      -8.828  12.874  66.663  1.00  0.00    -0.148 NA 
BRANCH  15  17
HETATM   17  C   UNL     1      -9.055  15.196  67.539  1.00  0.00    -0.187 A  
HETATM   18  C   UNL     1      -9.740  16.418  67.400  1.00  0.00    -0.238 A  
HETATM   19  C   UNL     1      -9.183  17.607  67.928  1.00  0.00    -0.267 A  
HETATM   20  N   UNL     1      -9.903  18.873  67.765  1.00  0.00    -0.323 N  
HETATM   21  C   UNL     1      -7.956  17.582  68.603  1.00  0.00    -0.268 A  
HETATM   22  O   UNL     1      -7.311  18.658  69.159  1.00  0.00    -0.265 OA 
HETATM   23  O   UNL     1      -9.370  19.898  68.221  1.00  0.00    -0.335 OA 
HETATM   24  O   UNL     1     -10.997  18.849  67.185  1.00  0.00    -0.410 OA 
HETATM   25  C   UNL     1      -7.303  16.365  68.748  1.00  0.00    -0.203 A  
HETATM   26  H   UNL     1      -6.478  18.641  69.616  1.00  0.00     0.000 HD 
HETATM   27  C   UNL     1      -7.832  15.194  68.232  1.00  0.00    -0.124 A  
HETATM   28  O   UNL     1      -6.110  16.296  69.414  1.00  0.00    -0.146 OA 
HETATM   29  H   UNL     1      -5.663  15.464  69.513  1.00  0.00     0.000 HD 
ENDBRANCH  15  17
ENDBRANCH   3  12
TORSDOF 2
ENDMDL
MODEL      168
REMARK 921   NORMALIZED FREE ENERGY PREDICTED BY IDOCK:   -4.97 KCAL/MOL
REMARK 922        TOTAL FREE ENERGY PREDICTED BY IDOCK:   -6.14 KCAL/MOL
REMARK 923 INTER-LIGAND FREE ENERGY PREDICTED BY IDOCK:   -5.55 KCAL/MOL
REMARK 924 INTRA-LIGAND FREE ENERGY PREDICTED BY IDOCK:   -0.59 KCAL/MOL
REMARK 927      BINDING AFFINITY PREDICTED BY RF-SCORE:    0.00 PKD
ROOT
HETATM    1  C   UNL     1     -11.245  12.559  65.783  1.00  0.00    -0.356 C  
HETATM    2  C   UNL     1     -10.039  13.296  66.333  1.00  0.00    -0.290 A  
HETATM    3  C   UNL     1      -9.025  12.670  67.112  1.00  0.00    -0.205 A  
HETATM    4 CL   UNL     1     -11.120  15.450  65.033  1.00  0.00    -0.417 Cl 
HETATM    5  C   UNL     1      -7.955  13.460  67.598  1.00  0.00    -0.174 A  
HETATM    6  C   UNL     1      -8.734  16.911  66.224  1.00  0.00    -0.321 C  
HETATM    7 CL   UNL     1      -6.645  12.759  68.522  1.00  0.00    -0.079 Cl 
HETATM    8  N   UNL     1      -7.886  14.842  67.313  1.00  0.00    -0.199 NA 
HETATM    9  C   UNL     1      -8.865  15.444  66.526  1.00  0.00    -0.312 A  
HETATM   10  O   UNL     1      -6.917  15.548  67.762  1.00  0.00    -0.132 OA 
HETATM   11  C   UNL     1      -9.927  14.672  66.037  1.00  0.00    -0.316 A  
ENDROOT
BRANCH   3  12
HETATM   12  C   UNL     1      -9.071  11.226  67.372  1.00  0.00    -0.151 A  
HETATM   13  O   UNL     1      -8.780   9.081  67.280  1.00  0.00    -0.117 OA 
HETATM   14  N   UNL     1      -8.636  10.263  66.541  1.00  0.00    -0.130 NA 
HETATM   15  C   UNL     1      -9.266   9.453  68.497  1.00  0.00    -0.131 A  
HETATM   16  N   UNL     1      -9.516  10.741  68.577  1.00  0.00    -0.173 NA 
BRANCH  15  17
HETATM   17  C   UNL     1      -9.332   8.463  69.571  1.00  0.00    -0.158 A  
HETATM   18  C   UNL     1      -8.805   8.650  70.863  1.00  0.00    -0.221 A  
HETATM   19  C   UNL     1      -8.930   7.628  71.834  1.00  0.00    -0.120 A  
HETATM   20  N   UNL     1      -8.367   7.833  73.171  1.00  0.00    -0.141 N  
HETATM   21  C   UNL     1      -9.586   6.428  71.528  1.00  0.00    -0.158 A  
HETATM   22  O   UNL     1      -9.774   5.365  72.374  1.00  0.00    -0.153 OA 
HETATM   23  O   UNL     1      -8.476   6.903  73.987  1.00  0.00    -0.127 OA 
HETATM   24  O   UNL     1      -7.817   8.917  73.410  1.00  0.00    -0.378 OA 
HETATM   25  C   UNL     1     -10.117   6.268  70.254  1.00  0.00    -0.184 A  
HETATM   26  H   UNL     1     -10.219   4.552  72.166  1.00  0.00     0.000 HD 
HETATM   27  C   UNL     1      -9.998   7.257  69.291  1.00  0.00    -0.170 A  
HETATM   28  O   UNL     1     -10.778   5.118  69.921  1.00  0.00    -0.237 OA 
HETATM   29  H   UNL     1     -11.141   5.009  69.050  1.00  0.00     0.000 HD 
ENDBRANCH  15  17
ENDBRANCH   3  12
TORSDOF 2
ENDMDL
MODEL      169
REMARK 921   NORMALIZED FREE ENERGY PREDICTED BY IDOCK:   -4.96 KCAL/MOL
REMARK 922        TOTAL FREE ENERGY PREDICTED BY IDOCK:   -6.13 KCAL/MOL
REMARK 923 INTER-LIGAND FREE ENERGY PREDICTED BY IDOCK:   -6.62 KCAL/MOL
REMARK 924 INTRA-LIGAND FREE ENERGY PREDICTED BY IDOCK:    0.48 KCAL/MOL
REMARK 927      BINDING AFFINITY PREDICTED BY RF-SCORE:    0.00 PKD
ROOT
HETATM    1  C   UNL     1     -10.220   5.316  69.463  1.00  0.00    -0.338 C  
HETATM    2  C   UNL     1      -9.695   5.371  68.042  1.00  0.00    -0.169 A  
HETATM    3  C   UNL     1      -9.351   6.583  67.379  1.00  0.00    -0.125 A  
HETATM    4 CL   UNL     1      -9.890   2.642  68.168  1.00  0.00     0.115 Cl 
HETATM    5  C   UNL     1      -8.895   6.520  66.039  1.00  0.00    -0.143 A  
HETATM    6  C   UNL     1      -8.918   2.800  65.291  1.00  0.00    -0.137 C  
HETATM    7 CL   UNL     1      -8.406   7.957  65.170  1.00  0.00    -0.145 Cl 
HETATM    8  N   UNL     1      -8.777   5.282  65.371  1.00  0.00    -0.148 NA 
HETATM    9  C   UNL     1      -9.088   4.096  66.033  1.00  0.00    -0.136 A  
HETATM   10  O   UNL     1      -8.369   5.236  64.158  1.00  0.00    -0.132 OA 
HETATM   11  C   UNL     1      -9.536   4.145  67.360  1.00  0.00    -0.187 A  
ENDROOT
BRANCH   3  12
HETATM   12  C   UNL     1      -9.430   7.867  68.086  1.00  0.00    -0.147 A  
HETATM   13  O   UNL     1      -9.168   9.928  68.700  1.00  0.00    -0.132 OA 
HETATM   14  N   UNL     1      -8.619   8.922  67.894  1.00  0.00    -0.125 NA 
HETATM   15  C   UNL     1     -10.274   9.385  69.282  1.00  0.00    -0.202 A  
HETATM   16  N   UNL     1     -10.439   8.115  68.984  1.00  0.00    -0.217 NA 
BRANCH  15  17
HETATM   17  C   UNL     1     -11.186  10.252  70.025  1.00  0.00    -0.376 A  
HETATM   18  C   UNL     1     -11.322  11.637  69.813  1.00  0.00    -0.276 A  
HETATM   19  C   UNL     1     -12.243  12.386  70.584  1.00  0.00    -0.278 A  
HETATM   20  N   UNL     1     -12.365  13.828  70.358  1.00  0.00    -0.351 N  
HETATM   21  C   UNL     1     -13.035  11.760  71.555  1.00  0.00    -0.341 A  
HETATM   22  O   UNL     1     -13.961  12.368  72.365  1.00  0.00    -0.426 OA 
HETATM   23  O   UNL     1     -13.167  14.454  71.072  1.00  0.00    -0.360 OA 
HETATM   24  O   UNL     1     -11.666  14.339  69.473  1.00  0.00    -0.276 OA 
HETATM   25  C   UNL     1     -12.903  10.390  71.738  1.00  0.00    -0.456 A  
HETATM   26  H   UNL     1     -14.499  11.943  73.024  1.00  0.00     0.000 HD 
HETATM   27  C   UNL     1     -12.002   9.644  70.995  1.00  0.00    -0.427 A  
HETATM   28  O   UNL     1     -13.669   9.739  72.666  1.00  0.00    -0.681 OA 
HETATM   29  H   UNL     1     -13.578   8.802  72.792  1.00  0.00     0.000 HD 
ENDBRANCH  15  17
ENDBRANCH   3  12
TORSDOF 2
ENDMDL
MODEL      170
REMARK 921   NORMALIZED FREE ENERGY PREDICTED BY IDOCK:   -4.94 KCAL/MOL
REMARK 922        TOTAL FREE ENERGY PREDICTED BY IDOCK:   -6.11 KCAL/MOL
REMARK 923 INTER-LIGAND FREE ENERGY PREDICTED BY IDOCK:   -6.38 KCAL/MOL
REMARK 924 INTRA-LIGAND FREE ENERGY PREDICTED BY IDOCK:    0.28 KCAL/MOL
REMARK 927      BINDING AFFINITY PREDICTED BY RF-SCORE:    0.00 PKD
ROOT
HETATM    1  C   UNL     1      -7.705   9.042  67.638  1.00  0.00    -0.097 C  
HETATM    2  C   UNL     1      -8.076   8.615  69.045  1.00  0.00    -0.121 A  
HETATM    3  C   UNL     1      -9.170   9.168  69.769  1.00  0.00    -0.179 A  
HETATM    4 CL   UNL     1      -5.986   6.869  68.762  1.00  0.00    -0.025 Cl 
HETATM    5  C   UNL     1      -9.411   8.715  71.090  1.00  0.00    -0.216 A  
HETATM    6  C   UNL     1      -6.709   6.103  71.615  1.00  0.00    -0.059 C  
HETATM    7 CL   UNL     1     -10.763   9.308  72.029  1.00  0.00    -0.249 Cl 
HETATM    8  N   UNL     1      -8.589   7.729  71.680  1.00  0.00    -0.114 NA 
HETATM    9  C   UNL     1      -7.537   7.170  70.956  1.00  0.00    -0.085 A  
HETATM   10  O   UNL     1      -8.812   7.331  72.875  1.00  0.00    -0.125 OA 
HETATM   11  C   UNL     1      -7.292   7.608  69.649  1.00  0.00    -0.089 A  
ENDROOT
BRANCH   3  12
HETATM   12  C   UNL     1     -10.053  10.160  69.143  1.00  0.00    -0.213 A  
HETATM   13  O   UNL     1     -11.754  11.380  68.587  1.00  0.00    -0.295 OA 
HETATM   14  N   UNL     1     -11.392  10.198  69.248  1.00  0.00    -0.193 NA 
HETATM   15  C   UNL     1     -10.590  11.952  68.170  1.00  0.00    -0.208 A  
HETATM   16  N   UNL     1      -9.534  11.215  68.433  1.00  0.00    -0.182 NA 
BRANCH  15  17
HETATM   17  C   UNL     1     -10.618  13.307  67.623  1.00  0.00    -0.242 A  
HETATM   18  C   UNL     1     -11.145  13.650  66.363  1.00  0.00    -0.307 A  
HETATM   19  C   UNL     1     -11.132  14.998  65.932  1.00  0.00    -0.334 A  
HETATM   20  N   UNL     1     -11.674  15.336  64.614  1.00  0.00    -0.364 N  
HETATM   21  C   UNL     1     -10.607  16.005  66.752  1.00  0.00    -0.297 A  
HETATM   22  O   UNL     1     -10.535  17.342  66.454  1.00  0.00    -0.322 OA 
HETATM   23  O   UNL     1     -11.622  16.526  64.261  1.00  0.00    -0.923 OA 
HETATM   24  O   UNL     1     -12.151  14.422  63.929  1.00  0.00    -0.435 OA 
HETATM   25  C   UNL     1     -10.109  15.652  68.000  1.00  0.00    -0.224 A  
HETATM   26  H   UNL     1     -10.180  18.025  67.011  1.00  0.00     0.000 HD 
HETATM   27  C   UNL     1     -10.111  14.337  68.435  1.00  0.00    -0.243 A  
HETATM   28  O   UNL     1      -9.603  16.608  68.837  1.00  0.00    -0.240 OA 
HETATM   29  H   UNL     1      -9.262  16.367  69.691  1.00  0.00     0.000 HD 
ENDBRANCH  15  17
ENDBRANCH   3  12
TORSDOF 2
ENDMDL
MODEL      171
REMARK 921   NORMALIZED FREE ENERGY PREDICTED BY IDOCK:   -4.90 KCAL/MOL
REMARK 922        TOTAL FREE ENERGY PREDICTED BY IDOCK:   -6.06 KCAL/MOL
REMARK 923 INTER-LIGAND FREE ENERGY PREDICTED BY IDOCK:   -6.04 KCAL/MOL
REMARK 924 INTRA-LIGAND FREE ENERGY PREDICTED BY IDOCK:   -0.02 KCAL/MOL
REMARK 927      BINDING AFFINITY PREDICTED BY RF-SCORE:    0.00 PKD
ROOT
HETATM    1  C   UNL     1     -12.800  11.575  71.792  1.00  0.00    -0.441 C  
HETATM    2  C   UNL     1     -12.131  11.586  70.432  1.00  0.00    -0.471 A  
HETATM    3  C   UNL     1     -11.553  10.432  69.832  1.00  0.00    -0.358 A  
HETATM    4 CL   UNL     1     -12.854  14.227  70.415  1.00  0.00    -0.348 Cl 
HETATM    5  C   UNL     1     -10.929  10.561  68.567  1.00  0.00    -0.252 A  
HETATM    6  C   UNL     1     -11.428  14.229  67.729  1.00  0.00    -0.354 C  
HETATM    7 CL   UNL     1     -10.239   9.183  67.740  1.00  0.00    -0.260 Cl 
HETATM    8  N   UNL     1     -10.883  11.808  67.905  1.00  0.00    -0.201 NA 
HETATM    9  C   UNL     1     -11.476  12.929  68.484  1.00  0.00    -0.310 A  
HETATM   10  O   UNL     1     -10.312  11.916  66.765  1.00  0.00    -0.204 OA 
HETATM   11  C   UNL     1     -12.099  12.812  69.733  1.00  0.00    -0.237 A  
ENDROOT
BRANCH   3  12
HETATM   12  C   UNL     1     -11.639   9.125  70.497  1.00  0.00    -0.197 A  
HETATM   13  O   UNL     1     -12.348   7.285  71.393  1.00  0.00    -0.331 OA 
HETATM   14  N   UNL     1     -12.760   8.556  70.971  1.00  0.00    -0.095 NA 
HETATM   15  C   UNL     1     -11.018   7.204  71.106  1.00  0.00    -0.248 A  
HETATM   16  N   UNL     1     -10.531   8.322  70.615  1.00  0.00    -0.200 NA 
BRANCH  15  17
HETATM   17  C   UNL     1     -10.337   5.917  71.240  1.00  0.00    -0.276 A  
HETATM   18  C   UNL     1     -10.763   4.872  72.081  1.00  0.00    -0.193 A  
HETATM   19  C   UNL     1     -10.035   3.660  72.131  1.00  0.00    -0.168 A  
HETATM   20  N   UNL     1     -10.486   2.586  73.019  1.00  0.00    -0.146 N  
HETATM   21  C   UNL     1      -8.893   3.480  71.339  1.00  0.00    -0.088 A  
HETATM   22  O   UNL     1      -8.103   2.360  71.294  1.00  0.00    -0.046 OA 
HETATM   23  O   UNL     1      -9.805   1.547  73.052  1.00  0.00    -0.079 OA 
HETATM   24  O   UNL     1     -11.514   2.774  73.684  1.00  0.00    -0.227 OA 
HETATM   25  C   UNL     1      -8.498   4.514  70.500  1.00  0.00    -0.082 A  
HETATM   26  H   UNL     1      -7.328   2.238  70.756  1.00  0.00     0.000 HD 
HETATM   27  C   UNL     1      -9.197   5.709  70.445  1.00  0.00    -0.179 A  
HETATM   28  O   UNL     1      -7.397   4.372  69.700  1.00  0.00    -0.050 OA 
HETATM   29  H   UNL     1      -7.127   5.080  69.126  1.00  0.00     0.000 HD 
ENDBRANCH  15  17
ENDBRANCH   3  12
TORSDOF 2
ENDMDL
MODEL      172
REMARK 921   NORMALIZED FREE ENERGY PREDICTED BY IDOCK:   -4.89 KCAL/MOL
REMARK 922        TOTAL FREE ENERGY PREDICTED BY IDOCK:   -6.06 KCAL/MOL
REMARK 923 INTER-LIGAND FREE ENERGY PREDICTED BY IDOCK:   -5.66 KCAL/MOL
REMARK 924 INTRA-LIGAND FREE ENERGY PREDICTED BY IDOCK:   -0.40 KCAL/MOL
REMARK 927      BINDING AFFINITY PREDICTED BY RF-SCORE:    0.00 PKD
ROOT
HETATM    1  C   UNL     1     -10.024   7.258  69.806  1.00  0.00    -0.183 C  
HETATM    2  C   UNL     1      -9.606   6.961  68.378  1.00  0.00    -0.126 A  
HETATM    3  C   UNL     1      -9.227   7.969  67.447  1.00  0.00    -0.155 A  
HETATM    4 CL   UNL     1      -9.985   4.350  69.112  1.00  0.00    -0.192 Cl 
HETATM    5  C   UNL     1      -8.881   7.582  66.129  1.00  0.00    -0.159 A  
HETATM    6  C   UNL     1      -9.226   3.803  66.218  1.00  0.00    -0.172 C  
HETATM    7 CL   UNL     1      -8.358   8.752  64.938  1.00  0.00    -0.165 Cl 
HETATM    8  N   UNL     1      -8.902   6.223  65.743  1.00  0.00    -0.143 NA 
HETATM    9  C   UNL     1      -9.246   5.238  66.667  1.00  0.00    -0.130 A  
HETATM   10  O   UNL     1      -8.593   5.885  64.548  1.00  0.00    -0.070 OA 
HETATM   11  C   UNL     1      -9.587   5.609  67.974  1.00  0.00    -0.120 A  
ENDROOT
BRANCH   3  12
HETATM   12  C   UNL     1      -9.160   9.377  67.858  1.00  0.00    -0.129 A  
HETATM   13  O   UNL     1      -8.540  11.277  68.691  1.00  0.00    -0.153 OA 
HETATM   14  N   UNL     1      -8.279   9.901  68.727  1.00  0.00    -0.109 NA 
HETATM   15  C   UNL     1      -9.540  11.449  67.782  1.00  0.00    -0.172 A  
HETATM   16  N   UNL     1      -9.990  10.314  67.294  1.00  0.00    -0.182 NA 
BRANCH  15  17
HETATM   17  C   UNL     1      -9.900  12.804  67.365  1.00  0.00    -0.210 A  
HETATM   18  C   UNL     1     -10.057  13.894  68.243  1.00  0.00    -0.241 A  
HETATM   19  C   UNL     1     -10.399  15.169  67.735  1.00  0.00    -0.243 A  
HETATM   20  N   UNL     1     -10.569  16.291  68.661  1.00  0.00    -0.278 N  
HETATM   21  C   UNL     1     -10.573  15.366  66.358  1.00  0.00    -0.307 A  
HETATM   22  O   UNL     1     -10.903  16.546  65.741  1.00  0.00    -0.254 OA 
HETATM   23  O   UNL     1     -10.894  17.389  68.179  1.00  0.00    -0.373 OA 
HETATM   24  O   UNL     1     -10.383  16.082  69.868  1.00  0.00    -0.283 OA 
HETATM   25  C   UNL     1     -10.394  14.285  65.505  1.00  0.00    -0.355 A  
HETATM   26  H   UNL     1     -11.020  16.680  64.807  1.00  0.00     0.000 HD 
HETATM   27  C   UNL     1     -10.065  13.029  65.988  1.00  0.00    -0.286 A  
HETATM   28  O   UNL     1     -10.540  14.440  64.154  1.00  0.00    -0.467 OA 
HETATM   29  H   UNL     1     -10.419  13.700  63.570  1.00  0.00     0.000 HD 
ENDBRANCH  15  17
ENDBRANCH   3  12
TORSDOF 2
ENDMDL
MODEL      173
REMARK 921   NORMALIZED FREE ENERGY PREDICTED BY IDOCK:   -4.86 KCAL/MOL
REMARK 922        TOTAL FREE ENERGY PREDICTED BY IDOCK:   -6.02 KCAL/MOL
REMARK 923 INTER-LIGAND FREE ENERGY PREDICTED BY IDOCK:   -5.75 KCAL/MOL
REMARK 924 INTRA-LIGAND FREE ENERGY PREDICTED BY IDOCK:   -0.27 KCAL/MOL
REMARK 927      BINDING AFFINITY PREDICTED BY RF-SCORE:    0.00 PKD
ROOT
HETATM    1  C   UNL     1      -9.842   7.464  73.393  1.00  0.00    -0.345 C  
HETATM    2  C   UNL     1      -9.872   6.312  72.408  1.00  0.00    -0.176 A  
HETATM    3  C   UNL     1     -10.378   6.426  71.082  1.00  0.00    -0.244 A  
HETATM    4 CL   UNL     1      -8.672   4.919  74.438  1.00  0.00    -0.112 Cl 
HETATM    5  C   UNL     1     -10.384   5.277  70.254  1.00  0.00    -0.280 A  
HETATM    6  C   UNL     1      -8.829   2.611  72.463  1.00  0.00    -0.096 C  
HETATM    7 CL   UNL     1     -10.944   5.344  68.598  1.00  0.00     0.016 Cl 
HETATM    8  N   UNL     1      -9.891   4.040  70.726  1.00  0.00    -0.191 NA 
HETATM    9  C   UNL     1      -9.370   3.941  72.015  1.00  0.00    -0.128 A  
HETATM   10  O   UNL     1      -9.906   3.007  69.972  1.00  0.00    -0.039 OA 
HETATM   11  C   UNL     1      -9.356   5.071  72.841  1.00  0.00    -0.134 A  
ENDROOT
BRANCH   3  12
HETATM   12  C   UNL     1     -10.849   7.721  70.574  1.00  0.00    -0.241 A  
HETATM   13  O   UNL     1     -11.849   9.627  70.334  1.00  0.00    -0.240 OA 
HETATM   14  N   UNL     1     -11.876   8.434  71.068  1.00  0.00    -0.276 NA 
HETATM   15  C   UNL     1     -10.789   9.525  69.484  1.00  0.00    -0.222 A  
HETATM   16  N   UNL     1     -10.188   8.358  69.553  1.00  0.00    -0.202 NA 
BRANCH  15  17
HETATM   17  C   UNL     1     -10.370  10.701  68.724  1.00  0.00    -0.210 A  
HETATM   18  C   UNL     1     -11.102  11.269  67.664  1.00  0.00    -0.336 A  
HETATM   19  C   UNL     1     -10.610  12.416  66.997  1.00  0.00    -0.225 A  
HETATM   20  N   UNL     1     -11.379  12.989  65.889  1.00  0.00    -0.303 N  
HETATM   21  C   UNL     1      -9.401  13.005  67.388  1.00  0.00    -0.209 A  
HETATM   22  O   UNL     1      -8.817  14.113  66.827  1.00  0.00    -0.324 OA 
HETATM   23  O   UNL     1     -10.902  13.981  65.313  1.00  0.00    -0.313 OA 
HETATM   24  O   UNL     1     -12.455  12.454  65.590  1.00  0.00    -0.640 OA 
HETATM   25  C   UNL     1      -8.701  12.444  68.448  1.00  0.00    -0.132 A  
HETATM   26  H   UNL     1      -7.997  14.513  67.093  1.00  0.00     0.000 HD 
HETATM   27  C   UNL     1      -9.167  11.318  69.107  1.00  0.00     0.095 A  
HETATM   28  O   UNL     1      -7.524  12.999  68.870  1.00  0.00    -0.242 OA 
HETATM   29  H   UNL     1      -7.045  12.615  69.595  1.00  0.00     0.000 HD 
ENDBRANCH  15  17
ENDBRANCH   3  12
TORSDOF 2
ENDMDL
MODEL      174
REMARK 921   NORMALIZED FREE ENERGY PREDICTED BY IDOCK:   -4.83 KCAL/MOL
REMARK 922        TOTAL FREE ENERGY PREDICTED BY IDOCK:   -5.99 KCAL/MOL
REMARK 923 INTER-LIGAND FREE ENERGY PREDICTED BY IDOCK:   -6.94 KCAL/MOL
REMARK 924 INTRA-LIGAND FREE ENERGY PREDICTED BY IDOCK:    0.95 KCAL/MOL
REMARK 927      BINDING AFFINITY PREDICTED BY RF-SCORE:    0.00 PKD
ROOT
HETATM    1  C   UNL     1     -13.085  10.223  72.366  1.00  0.00    -0.135 C  
HETATM    2  C   UNL     1     -12.490  10.954  71.179  1.00  0.00    -0.511 A  
HETATM    3  C   UNL     1     -11.729  10.310  70.163  1.00  0.00    -0.364 A  
HETATM    4 CL   UNL     1     -13.705  13.146  72.282  1.00  0.00    -0.662 Cl 
HETATM    5  C   UNL     1     -11.196  11.095  69.111  1.00  0.00    -0.264 A  
HETATM    6  C   UNL     1     -12.423  14.591  69.933  1.00  0.00    -0.300 C  
HETATM    7 CL   UNL     1     -10.290  10.375  67.798  1.00  0.00    -0.227 Cl 
HETATM    8  N   UNL     1     -11.418  12.489  69.062  1.00  0.00    -0.284 NA 
HETATM    9  C   UNL     1     -12.188  13.110  70.043  1.00  0.00    -0.253 A  
HETATM   10  O   UNL     1     -10.927  13.190  68.110  1.00  0.00    -0.234 OA 
HETATM   11  C   UNL     1     -12.723  12.343  71.086  1.00  0.00    -0.240 A  
ENDROOT
BRANCH   3  12
HETATM   12  C   UNL     1     -11.534   8.855  70.186  1.00  0.00    -0.036 A  
HETATM   13  O   UNL     1     -11.727   6.732  70.573  1.00  0.00    -0.351 OA 
HETATM   14  N   UNL     1     -12.141   7.994  71.020  1.00  0.00    -0.263 NA 
HETATM   15  C   UNL     1     -10.927   6.959  69.492  1.00  0.00    -0.250 A  
HETATM   16  N   UNL     1     -10.733   8.237  69.258  1.00  0.00    -0.178 NA 
BRANCH  15  17
HETATM   17  C   UNL     1     -10.500   5.826  68.673  1.00  0.00    -0.298 A  
HETATM   18  C   UNL     1      -9.932   4.642  69.180  1.00  0.00    -0.208 A  
HETATM   19  C   UNL     1      -9.560   3.599  68.299  1.00  0.00    -0.099 A  
HETATM   20  N   UNL     1      -8.960   2.378  68.842  1.00  0.00    -0.101 N  
HETATM   21  C   UNL     1      -9.761   3.726  66.918  1.00  0.00    -0.113 A  
HETATM   22  O   UNL     1      -9.447   2.794  65.962  1.00  0.00    -0.352 OA 
HETATM   23  O   UNL     1      -8.624   1.496  68.034  1.00  0.00    -0.063 OA 
HETATM   24  O   UNL     1      -8.821   2.294  70.070  1.00  0.00    -0.061 OA 
HETATM   25  C   UNL     1     -10.341   4.892  66.436  1.00  0.00    -0.288 A  
HETATM   26  H   UNL     1      -9.584   2.880  65.025  1.00  0.00     0.000 HD 
HETATM   27  C   UNL     1     -10.705   5.924  67.286  1.00  0.00    -0.380 A  
HETATM   28  O   UNL     1     -10.569   5.048  65.097  1.00  0.00    -0.423 OA 
HETATM   29  H   UNL     1     -10.965   5.846  64.766  1.00  0.00     0.000 HD 
ENDBRANCH  15  17
ENDBRANCH   3  12
TORSDOF 2
ENDMDL
MODEL      175
REMARK 921   NORMALIZED FREE ENERGY PREDICTED BY IDOCK:   -4.81 KCAL/MOL
REMARK 922        TOTAL FREE ENERGY PREDICTED BY IDOCK:   -5.97 KCAL/MOL
REMARK 923 INTER-LIGAND FREE ENERGY PREDICTED BY IDOCK:   -5.40 KCAL/MOL
REMARK 924 INTRA-LIGAND FREE ENERGY PREDICTED BY IDOCK:   -0.57 KCAL/MOL
REMARK 927      BINDING AFFINITY PREDICTED BY RF-SCORE:    0.00 PKD
ROOT
HETATM    1  C   UNL     1      -6.909   6.959  67.906  1.00  0.00    -0.081 C  
HETATM    2  C   UNL     1      -7.555   5.830  67.126  1.00  0.00    -0.099 A  
HETATM    3  C   UNL     1      -8.871   5.902  66.587  1.00  0.00    -0.123 A  
HETATM    4 CL   UNL     1      -5.156   4.569  67.518  1.00  0.00    -0.007 Cl 
HETATM    5  C   UNL     1      -9.387   4.777  65.898  1.00  0.00    -0.159 A  
HETATM    6  C   UNL     1      -6.517   2.296  66.025  1.00  0.00    -0.024 C  
HETATM    7 CL   UNL     1     -10.975   4.800  65.165  1.00  0.00    -0.033 Cl 
HETATM    8  N   UNL     1      -8.612   3.606  65.739  1.00  0.00    -0.111 NA 
HETATM    9  C   UNL     1      -7.314   3.552  66.244  1.00  0.00    -0.076 A  
HETATM   10  O   UNL     1      -9.089   2.593  65.120  1.00  0.00    -0.136 OA 
HETATM   11  C   UNL     1      -6.793   4.660  66.924  1.00  0.00    -0.055 A  
ENDROOT
BRANCH   3  12
HETATM   12  C   UNL     1      -9.661   7.133  66.711  1.00  0.00    -0.192 A  
HETATM   13  O   UNL     1     -10.943   8.723  67.432  1.00  0.00    -0.119 OA 
HETATM   14  N   UNL     1     -10.558   7.399  67.677  1.00  0.00    -0.243 NA 
HETATM   15  C   UNL     1     -10.219   9.135  66.353  1.00  0.00    -0.230 A  
HETATM   16  N   UNL     1      -9.470   8.182  65.845  1.00  0.00    -0.083 NA 
BRANCH  15  17
HETATM   17  C   UNL     1     -10.245  10.547  65.975  1.00  0.00    -0.310 A  
HETATM   18  C   UNL     1      -9.968  11.614  66.851  1.00  0.00    -0.225 A  
HETATM   19  C   UNL     1     -10.012  12.947  66.380  1.00  0.00    -0.267 A  
HETATM   20  N   UNL     1      -9.731  14.047  67.307  1.00  0.00    -0.231 N  
HETATM   21  C   UNL     1     -10.320  13.222  65.041  1.00  0.00    -0.340 A  
HETATM   22  O   UNL     1     -10.395  14.463  64.462  1.00  0.00    -0.538 OA 
HETATM   23  O   UNL     1      -9.805  15.204  66.861  1.00  0.00    -0.229 OA 
HETATM   24  O   UNL     1      -9.439  13.762  68.476  1.00  0.00    -0.210 OA 
HETATM   25  C   UNL     1     -10.571  12.157  64.186  1.00  0.00    -0.365 A  
HETATM   26  H   UNL     1     -10.603  14.649  63.554  1.00  0.00     0.000 HD 
HETATM   27  C   UNL     1     -10.537  10.846  64.633  1.00  0.00    -0.332 A  
HETATM   28  O   UNL     1     -10.860  12.382  62.868  1.00  0.00    -0.579 OA 
HETATM   29  H   UNL     1     -11.033  11.654  62.283  1.00  0.00     0.000 HD 
ENDBRANCH  15  17
ENDBRANCH   3  12
TORSDOF 2
ENDMDL
MODEL      176
REMARK 921   NORMALIZED FREE ENERGY PREDICTED BY IDOCK:   -4.80 KCAL/MOL
REMARK 922        TOTAL FREE ENERGY PREDICTED BY IDOCK:   -5.95 KCAL/MOL
REMARK 923 INTER-LIGAND FREE ENERGY PREDICTED BY IDOCK:   -5.42 KCAL/MOL
REMARK 924 INTRA-LIGAND FREE ENERGY PREDICTED BY IDOCK:   -0.53 KCAL/MOL
REMARK 927      BINDING AFFINITY PREDICTED BY RF-SCORE:    0.00 PKD
ROOT
HETATM    1  C   UNL     1      -9.960  12.757  66.262  1.00  0.00    -0.269 C  
HETATM    2  C   UNL     1     -10.344  13.744  67.347  1.00  0.00    -0.252 A  
HETATM    3  C   UNL     1     -10.969  13.364  68.567  1.00  0.00    -0.292 A  
HETATM    4 CL   UNL     1      -9.226  15.593  65.663  1.00  0.00    -0.245 Cl 
HETATM    5  C   UNL     1     -11.310  14.372  69.501  1.00  0.00    -0.276 A  
HETATM    6  C   UNL     1     -10.090  17.551  67.824  1.00  0.00    -0.330 C  
HETATM    7 CL   UNL     1     -12.036  13.985  71.045  1.00  0.00    -0.409 Cl 
HETATM    8  N   UNL     1     -11.032  15.732  69.235  1.00  0.00    -0.259 NA 
HETATM    9  C   UNL     1     -10.393  16.096  68.051  1.00  0.00    -0.271 A  
HETATM   10  O   UNL     1     -11.349  16.636  70.083  1.00  0.00    -0.171 OA 
HETATM   11  C   UNL     1     -10.048  15.106  67.121  1.00  0.00    -0.239 A  
ENDROOT
BRANCH   3  12
HETATM   12  C   UNL     1     -11.219  11.948  68.867  1.00  0.00    -0.254 A  
HETATM   13  O   UNL     1     -12.095   9.973  69.019  1.00  0.00     0.176 OA 
HETATM   14  N   UNL     1     -12.395  11.311  68.732  1.00  0.00    -0.456 NA 
HETATM   15  C   UNL     1     -10.757   9.932  69.275  1.00  0.00    -0.224 A  
HETATM   16  N   UNL     1     -10.195  11.119  69.254  1.00  0.00    -0.143 NA 
BRANCH  15  17
HETATM   17  C   UNL     1     -10.097   8.634  69.409  1.00  0.00    -0.204 A  
HETATM   18  C   UNL     1      -9.259   8.271  70.480  1.00  0.00    -0.160 A  
HETATM   19  C   UNL     1      -8.675   6.982  70.518  1.00  0.00    -0.153 A  
HETATM   20  N   UNL     1      -7.796   6.623  71.634  1.00  0.00    -0.101 N  
HETATM   21  C   UNL     1      -8.931   6.052  69.502  1.00  0.00    -0.131 A  
HETATM   22  O   UNL     1      -8.430   4.778  69.420  1.00  0.00    -0.082 OA 
HETATM   23  O   UNL     1      -7.283   5.492  71.618  1.00  0.00    -0.079 OA 
HETATM   24  O   UNL     1      -7.615   7.464  72.525  1.00  0.00    -0.081 OA 
HETATM   25  C   UNL     1      -9.776   6.420  68.462  1.00  0.00    -0.132 A  
HETATM   26  H   UNL     1      -8.604   4.147  68.731  1.00  0.00     0.000 HD 
HETATM   27  C   UNL     1     -10.350   7.680  68.408  1.00  0.00    -0.228 A  
HETATM   28  O   UNL     1     -10.063   5.536  67.459  1.00  0.00    -0.151 OA 
HETATM   29  H   UNL     1     -10.640   5.787  66.748  1.00  0.00     0.000 HD 
ENDBRANCH  15  17
ENDBRANCH   3  12
TORSDOF 2
ENDMDL
MODEL      177
REMARK 921   NORMALIZED FREE ENERGY PREDICTED BY IDOCK:   -4.76 KCAL/MOL
REMARK 922        TOTAL FREE ENERGY PREDICTED BY IDOCK:   -5.91 KCAL/MOL
REMARK 923 INTER-LIGAND FREE ENERGY PREDICTED BY IDOCK:   -6.15 KCAL/MOL
REMARK 924 INTRA-LIGAND FREE ENERGY PREDICTED BY IDOCK:    0.24 KCAL/MOL
REMARK 927      BINDING AFFINITY PREDICTED BY RF-SCORE:    0.00 PKD
ROOT
HETATM    1  C   UNL     1     -11.615  14.351  67.894  1.00  0.00    -0.374 C  
HETATM    2  C   UNL     1     -11.997  13.480  69.075  1.00  0.00    -0.376 A  
HETATM    3  C   UNL     1     -11.898  12.060  69.066  1.00  0.00    -0.372 A  
HETATM    4 CL   UNL     1     -12.535  15.870  70.299  1.00  0.00    -0.290 Cl 
HETATM    5  C   UNL     1     -12.308  11.342  70.216  1.00  0.00    -0.307 A  
HETATM    6  C   UNL     1     -13.372  14.084  72.614  1.00  0.00    -0.643 C  
HETATM    7 CL   UNL     1     -12.172   9.600  70.305  1.00  0.00    -0.053 Cl 
HETATM    8  N   UNL     1     -12.801  12.017  71.355  1.00  0.00    -0.350 NA 
HETATM    9  C   UNL     1     -12.869  13.409  71.369  1.00  0.00    -0.333 A  
HETATM   10  O   UNL     1     -13.174  11.358  72.387  1.00  0.00    -0.251 OA 
HETATM   11  C   UNL     1     -12.463  14.129  70.239  1.00  0.00    -0.353 A  
ENDROOT
BRANCH   3  12
HETATM   12  C   UNL     1     -11.344  11.359  67.901  1.00  0.00    -0.303 A  
HETATM   13  O   UNL     1     -10.755  10.792  65.895  1.00  0.00    -0.179 OA 
HETATM   14  N   UNL     1     -11.603  11.645  66.614  1.00  0.00    -0.506 NA 
HETATM   15  C   UNL     1     -10.047  10.091  66.825  1.00  0.00    -0.226 A  
HETATM   16  N   UNL     1     -10.415  10.359  68.058  1.00  0.00    -0.182 NA 
BRANCH  15  17
HETATM   17  C   UNL     1      -8.927   9.260  66.389  1.00  0.00    -0.185 A  
HETATM   18  C   UNL     1      -8.714   8.837  65.063  1.00  0.00    -0.183 A  
HETATM   19  C   UNL     1      -7.590   8.040  64.744  1.00  0.00    -0.105 A  
HETATM   20  N   UNL     1      -7.388   7.600  63.361  1.00  0.00    -0.084 N  
HETATM   21  C   UNL     1      -6.672   7.671  65.736  1.00  0.00    -0.046 A  
HETATM   22  O   UNL     1      -5.547   6.906  65.560  1.00  0.00    -0.029 OA 
HETATM   23  O   UNL     1      -6.403   6.880  63.127  1.00  0.00    -0.042 OA 
HETATM   24  O   UNL     1      -8.208   7.967  62.509  1.00  0.00    -0.170 OA 
HETATM   25  C   UNL     1      -6.886   8.113  67.036  1.00  0.00    -0.070 A  
HETATM   26  H   UNL     1      -4.924   6.656  66.233  1.00  0.00     0.000 HD 
HETATM   27  C   UNL     1      -7.985   8.890  67.364  1.00  0.00    -0.101 A  
HETATM   28  O   UNL     1      -6.004   7.788  68.030  1.00  0.00    -0.038 OA 
HETATM   29  H   UNL     1      -6.151   8.089  68.919  1.00  0.00     0.000 HD 
ENDBRANCH  15  17
ENDBRANCH   3  12
TORSDOF 2
ENDMDL
MODEL      178
REMARK 921   NORMALIZED FREE ENERGY PREDICTED BY IDOCK:   -4.75 KCAL/MOL
REMARK 922        TOTAL FREE ENERGY PREDICTED BY IDOCK:   -5.89 KCAL/MOL
REMARK 923 INTER-LIGAND FREE ENERGY PREDICTED BY IDOCK:   -5.43 KCAL/MOL
REMARK 924 INTRA-LIGAND FREE ENERGY PREDICTED BY IDOCK:   -0.46 KCAL/MOL
REMARK 927      BINDING AFFINITY PREDICTED BY RF-SCORE:    0.00 PKD
ROOT
HETATM    1  C   UNL     1     -10.946  10.418  66.683  1.00  0.00    -0.067 C  
HETATM    2  C   UNL     1      -9.636  10.225  67.423  1.00  0.00    -0.183 A  
HETATM    3  C   UNL     1      -8.880  11.299  67.973  1.00  0.00    -0.148 A  
HETATM    4 CL   UNL     1     -10.100   7.565  66.966  1.00  0.00    -0.305 Cl 
HETATM    5  C   UNL     1      -7.656  11.007  68.622  1.00  0.00    -0.124 A  
HETATM    6  C   UNL     1      -7.429   7.226  68.380  1.00  0.00    -0.106 C  
HETATM    7 CL   UNL     1      -6.691  12.262  69.366  1.00  0.00    -0.081 Cl 
HETATM    8  N   UNL     1      -7.191   9.677  68.730  1.00  0.00    -0.071 NA 
HETATM    9  C   UNL     1      -7.949   8.627  68.215  1.00  0.00    -0.110 A  
HETATM   10  O   UNL     1      -6.080   9.424  69.313  1.00  0.00    -0.037 OA 
HETATM   11  C   UNL     1      -9.163   8.904  67.575  1.00  0.00    -0.136 A  
ENDROOT
BRANCH   3  12
HETATM   12  C   UNL     1      -9.383  12.677  67.902  1.00  0.00    -0.204 A  
HETATM   13  O   UNL     1     -10.422  14.538  68.283  1.00  0.00    -0.233 OA 
HETATM   14  N   UNL     1     -10.416  13.174  68.602  1.00  0.00    -0.249 NA 
HETATM   15  C   UNL     1      -9.371  14.733  67.437  1.00  0.00    -0.197 A  
HETATM   16  N   UNL     1      -8.747  13.618  67.130  1.00  0.00    -0.219 NA 
BRANCH  15  17
HETATM   17  C   UNL     1      -8.985  16.098  67.084  1.00  0.00    -0.218 A  
HETATM   18  C   UNL     1      -9.814  17.226  67.231  1.00  0.00    -0.267 A  
HETATM   19  C   UNL     1      -9.339  18.508  66.865  1.00  0.00    -0.294 A  
HETATM   20  N   UNL     1     -10.218  19.671  67.014  1.00  0.00    -0.406 N  
HETATM   21  C   UNL     1      -8.040  18.672  66.366  1.00  0.00    -0.281 A  
HETATM   22  O   UNL     1      -7.461  19.854  65.978  1.00  0.00    -0.299 OA 
HETATM   23  O   UNL     1      -9.773  20.775  66.660  1.00  0.00    -0.261 OA 
HETATM   24  O   UNL     1     -11.350  19.488  67.482  1.00  0.00    -0.158 OA 
HETATM   25  C   UNL     1      -7.228  17.552  66.247  1.00  0.00    -0.316 A  
HETATM   26  H   UNL     1      -6.580  19.965  65.640  1.00  0.00     0.000 HD 
HETATM   27  C   UNL     1      -7.681  16.290  66.594  1.00  0.00    -0.286 A  
HETATM   28  O   UNL     1      -5.949  17.673  65.778  1.00  0.00    -0.171 OA 
HETATM   29  H   UNL     1      -5.394  16.906  65.696  1.00  0.00     0.000 HD 
ENDBRANCH  15  17
ENDBRANCH   3  12
TORSDOF 2
ENDMDL
MODEL      179
REMARK 921   NORMALIZED FREE ENERGY PREDICTED BY IDOCK:   -4.74 KCAL/MOL
REMARK 922        TOTAL FREE ENERGY PREDICTED BY IDOCK:   -5.88 KCAL/MOL
REMARK 923 INTER-LIGAND FREE ENERGY PREDICTED BY IDOCK:   -6.14 KCAL/MOL
REMARK 924 INTRA-LIGAND FREE ENERGY PREDICTED BY IDOCK:    0.26 KCAL/MOL
REMARK 927      BINDING AFFINITY PREDICTED BY RF-SCORE:    0.00 PKD
ROOT
HETATM    1  C   UNL     1     -10.608  12.910  67.802  1.00  0.00    -0.231 C  
HETATM    2  C   UNL     1     -11.418  12.757  69.075  1.00  0.00    -0.360 A  
HETATM    3  C   UNL     1     -11.461  11.556  69.838  1.00  0.00    -0.340 A  
HETATM    4 CL   UNL     1     -12.071  15.380  68.635  1.00  0.00    -0.220 Cl 
HETATM    5  C   UNL     1     -12.274  11.515  70.997  1.00  0.00    -0.263 A  
HETATM    6  C   UNL     1     -13.751  15.007  71.142  1.00  0.00    -0.484 C  
HETATM    7 CL   UNL     1     -12.344  10.095  72.017  1.00  0.00    -0.297 Cl 
HETATM    8  N   UNL     1     -13.025  12.642  71.397  1.00  0.00    -0.325 NA 
HETATM    9  C   UNL     1     -12.958  13.824  70.662  1.00  0.00    -0.108 A  
HETATM   10  O   UNL     1     -13.761  12.593  72.443  1.00  0.00    -0.517 OA 
HETATM   11  C   UNL     1     -12.154  13.878  69.516  1.00  0.00    -0.342 A  
ENDROOT
BRANCH   3  12
HETATM   12  C   UNL     1     -10.646  10.398  69.451  1.00  0.00    -0.239 A  
HETATM   13  O   UNL     1      -9.008   9.094  68.894  1.00  0.00    -0.137 OA 
HETATM   14  N   UNL     1      -9.377  10.441  69.009  1.00  0.00    -0.185 NA 
HETATM   15  C   UNL     1     -10.087   8.370  69.304  1.00  0.00    -0.202 A  
HETATM   16  N   UNL     1     -11.127   9.120  69.595  1.00  0.00    -0.150 NA 
BRANCH  15  17
HETATM   17  C   UNL     1      -9.946   6.927  69.496  1.00  0.00    -0.171 A  
HETATM   18  C   UNL     1     -10.310   6.238  70.668  1.00  0.00    -0.254 A  
HETATM   19  C   UNL     1     -10.139   4.835  70.747  1.00  0.00    -0.216 A  
HETATM   20  N   UNL     1     -10.513   4.134  71.978  1.00  0.00    -0.068 N  
HETATM   21  C   UNL     1      -9.619   4.117  69.663  1.00  0.00    -0.207 A  
HETATM   22  O   UNL     1      -9.404   2.763  69.612  1.00  0.00    -0.140 OA 
HETATM   23  O   UNL     1     -10.324   2.906  72.017  1.00  0.00    -0.099 OA 
HETATM   24  O   UNL     1     -10.992   4.801  72.905  1.00  0.00    -0.232 OA 
HETATM   25  C   UNL     1      -9.283   4.810  68.507  1.00  0.00    -0.124 A  
HETATM   26  H   UNL     1      -9.052   2.276  68.876  1.00  0.00     0.000 HD 
HETATM   27  C   UNL     1      -9.439   6.184  68.416  1.00  0.00    -0.119 A  
HETATM   28  O   UNL     1      -8.787   4.143  67.421  1.00  0.00    -0.107 OA 
HETATM   29  H   UNL     1      -8.556   4.617  66.630  1.00  0.00     0.000 HD 
ENDBRANCH  15  17
ENDBRANCH   3  12
TORSDOF 2
ENDMDL
MODEL      180
REMARK 921   NORMALIZED FREE ENERGY PREDICTED BY IDOCK:   -4.73 KCAL/MOL
REMARK 922        TOTAL FREE ENERGY PREDICTED BY IDOCK:   -5.87 KCAL/MOL
REMARK 923 INTER-LIGAND FREE ENERGY PREDICTED BY IDOCK:   -5.72 KCAL/MOL
REMARK 924 INTRA-LIGAND FREE ENERGY PREDICTED BY IDOCK:   -0.16 KCAL/MOL
REMARK 927      BINDING AFFINITY PREDICTED BY RF-SCORE:    0.00 PKD
ROOT
HETATM    1  C   UNL     1     -12.718  12.674  70.391  1.00  0.00     0.017 C  
HETATM    2  C   UNL     1     -11.648  13.273  69.499  1.00  0.00    -0.349 A  
HETATM    3  C   UNL     1     -10.749  12.492  68.720  1.00  0.00    -0.235 A  
HETATM    4 CL   UNL     1     -12.690  15.662  70.338  1.00  0.00    -0.412 Cl 
HETATM    5  C   UNL     1      -9.768  13.155  67.942  1.00  0.00    -0.221 A  
HETATM    6  C   UNL     1     -10.476  16.824  68.606  1.00  0.00    -0.333 C  
HETATM    7 CL   UNL     1      -8.657  12.271  66.920  1.00  0.00    -0.196 Cl 
HETATM    8  N   UNL     1      -9.684  14.565  67.930  1.00  0.00    -0.215 NA 
HETATM    9  C   UNL     1     -10.585  15.326  68.673  1.00  0.00    -0.236 A  
HETATM   10  O   UNL     1      -8.791  15.155  67.229  1.00  0.00    -0.179 OA 
HETATM   11  C   UNL     1     -11.561  14.681  69.443  1.00  0.00    -0.305 A  
ENDROOT
BRANCH   3  12
HETATM   12  C   UNL     1     -10.863  11.028  68.695  1.00  0.00    -0.215 A  
HETATM   13  O   UNL     1     -10.966   8.956  68.072  1.00  0.00    -0.073 OA 
HETATM   14  N   UNL     1     -11.045  10.272  67.598  1.00  0.00    -0.299 NA 
HETATM   15  C   UNL     1     -10.717   9.049  69.409  1.00  0.00    -0.191 A  
HETATM   16  N   UNL     1     -10.706  10.290  69.842  1.00  0.00    -0.280 NA 
BRANCH  15  17
HETATM   17  C   UNL     1     -10.375   7.840  70.156  1.00  0.00    -0.218 A  
HETATM   18  C   UNL     1      -9.276   7.008  69.870  1.00  0.00    -0.144 A  
HETATM   19  C   UNL     1      -9.028   5.862  70.662  1.00  0.00    -0.145 A  
HETATM   20  N   UNL     1      -7.886   5.001  70.346  1.00  0.00    -0.072 N  
HETATM   21  C   UNL     1      -9.863   5.548  71.743  1.00  0.00    -0.171 A  
HETATM   22  O   UNL     1      -9.733   4.473  72.585  1.00  0.00    -0.137 OA 
HETATM   23  O   UNL     1      -7.717   3.992  71.050  1.00  0.00    -0.053 OA 
HETATM   24  O   UNL     1      -7.158   5.327  69.398  1.00  0.00    -0.054 OA 
HETATM   25  C   UNL     1     -10.931   6.390  72.024  1.00  0.00    -0.250 A  
HETATM   26  H   UNL     1     -10.299   4.260  73.318  1.00  0.00     0.000 HD 
HETATM   27  C   UNL     1     -11.190   7.512  71.254  1.00  0.00    -0.274 A  
HETATM   28  O   UNL     1     -11.760   6.126  73.079  1.00  0.00    -0.482 OA 
HETATM   29  H   UNL     1     -12.491   6.702  73.271  1.00  0.00     0.000 HD 
ENDBRANCH  15  17
ENDBRANCH   3  12
TORSDOF 2
ENDMDL
MODEL      181
REMARK 921   NORMALIZED FREE ENERGY PREDICTED BY IDOCK:   -4.69 KCAL/MOL
REMARK 922        TOTAL FREE ENERGY PREDICTED BY IDOCK:   -5.84 KCAL/MOL
REMARK 923 INTER-LIGAND FREE ENERGY PREDICTED BY IDOCK:   -5.24 KCAL/MOL
REMARK 924 INTRA-LIGAND FREE ENERGY PREDICTED BY IDOCK:   -0.59 KCAL/MOL
REMARK 927      BINDING AFFINITY PREDICTED BY RF-SCORE:    0.00 PKD
ROOT
HETATM    1  C   UNL     1      -6.917   6.293  68.065  1.00  0.00    -0.080 C  
HETATM    2  C   UNL     1      -7.589   5.338  67.098  1.00  0.00    -0.092 A  
HETATM    3  C   UNL     1      -8.938   5.482  66.665  1.00  0.00    -0.118 A  
HETATM    4 CL   UNL     1      -5.148   4.099  67.069  1.00  0.00    -0.007 Cl 
HETATM    5  C   UNL     1      -9.475   4.516  65.780  1.00  0.00    -0.172 A  
HETATM    6  C   UNL     1      -6.558   2.158  65.200  1.00  0.00    -0.027 C  
HETATM    7 CL   UNL     1     -11.106   4.646  65.161  1.00  0.00    -0.077 Cl 
HETATM    8  N   UNL     1      -8.691   3.432  65.327  1.00  0.00    -0.116 NA 
HETATM    9  C   UNL     1      -7.363   3.312  65.732  1.00  0.00    -0.072 A  
HETATM   10  O   UNL     1      -9.187   2.561  64.531  1.00  0.00    -0.123 OA 
HETATM   11  C   UNL     1      -6.820   4.263  66.604  1.00  0.00    -0.055 A  
ENDROOT
BRANCH   3  12
HETATM   12  C   UNL     1      -9.741   6.633  67.098  1.00  0.00    -0.142 A  
HETATM   13  O   UNL     1     -10.968   8.008  68.236  1.00  0.00     0.021 OA 
HETATM   14  N   UNL     1     -10.517   6.682  68.194  1.00  0.00    -0.193 NA 
HETATM   15  C   UNL     1     -10.397   8.635  67.169  1.00  0.00    -0.299 A  
HETATM   16  N   UNL     1      -9.691   7.823  66.415  1.00  0.00    -0.186 NA 
BRANCH  15  17
HETATM   17  C   UNL     1     -10.510  10.088  67.053  1.00  0.00    -0.302 A  
HETATM   18  C   UNL     1     -10.399  10.804  65.846  1.00  0.00    -0.302 A  
HETATM   19  C   UNL     1     -10.534  12.213  65.842  1.00  0.00    -0.254 A  
HETATM   20  N   UNL     1     -10.405  12.944  64.579  1.00  0.00    -0.363 N  
HETATM   21  C   UNL     1     -10.790  12.909  67.030  1.00  0.00    -0.260 A  
HETATM   22  O   UNL     1     -10.941  14.266  67.162  1.00  0.00    -0.291 OA 
HETATM   23  O   UNL     1     -10.505  14.182  64.621  1.00  0.00    -0.434 OA 
HETATM   24  O   UNL     1     -10.204  12.291  63.546  1.00  0.00    -0.427 OA 
HETATM   25  C   UNL     1     -10.916  12.185  68.209  1.00  0.00    -0.234 A  
HETATM   26  H   UNL     1     -11.115  14.738  67.968  1.00  0.00     0.000 HD 
HETATM   27  C   UNL     1     -10.781  10.807  68.230  1.00  0.00    -0.253 A  
HETATM   28  O   UNL     1     -11.181  12.826  69.388  1.00  0.00    -0.381 OA 
HETATM   29  H   UNL     1     -11.267  12.332  70.195  1.00  0.00     0.000 HD 
ENDBRANCH  15  17
ENDBRANCH   3  12
TORSDOF 2
ENDMDL
MODEL      182
REMARK 921   NORMALIZED FREE ENERGY PREDICTED BY IDOCK:   -4.67 KCAL/MOL
REMARK 922        TOTAL FREE ENERGY PREDICTED BY IDOCK:   -5.81 KCAL/MOL
REMARK 923 INTER-LIGAND FREE ENERGY PREDICTED BY IDOCK:   -5.24 KCAL/MOL
REMARK 924 INTRA-LIGAND FREE ENERGY PREDICTED BY IDOCK:   -0.57 KCAL/MOL
REMARK 927      BINDING AFFINITY PREDICTED BY RF-SCORE:    0.00 PKD
ROOT
HETATM    1  C   UNL     1     -10.574  12.734  68.232  1.00  0.00    -0.251 C  
HETATM    2  C   UNL     1     -10.483  12.202  66.815  1.00  0.00    -0.245 A  
HETATM    3  C   UNL     1      -9.573  11.181  66.418  1.00  0.00    -0.227 A  
HETATM    4 CL   UNL     1     -12.529  13.955  66.330  1.00  0.00    -0.480 Cl 
HETATM    5  C   UNL     1      -9.553  10.778  65.060  1.00  0.00    -0.254 A  
HETATM    6  C   UNL     1     -12.257  12.923  63.482  1.00  0.00    -0.595 C  
HETATM    7 CL   UNL     1      -8.500   9.498  64.500  1.00  0.00    -0.172 Cl 
HETATM    8  N   UNL     1     -10.422  11.368  64.116  1.00  0.00    -0.333 NA 
HETATM    9  C   UNL     1     -11.331  12.346  64.516  1.00  0.00    -0.328 A  
HETATM   10  O   UNL     1     -10.393  11.000  62.890  1.00  0.00    -0.212 OA 
HETATM   11  C   UNL     1     -11.362  12.750  65.857  1.00  0.00    -0.324 A  
ENDROOT
BRANCH   3  12
HETATM   12  C   UNL     1      -8.700  10.535  67.406  1.00  0.00    -0.125 A  
HETATM   13  O   UNL     1      -7.148  10.114  68.857  1.00  0.00    -0.064 OA 
HETATM   14  N   UNL     1      -7.528  11.016  67.855  1.00  0.00    -0.091 NA 
HETATM   15  C   UNL     1      -8.146   9.188  68.931  1.00  0.00    -0.100 A  
HETATM   16  N   UNL     1      -9.081   9.370  68.025  1.00  0.00    -0.127 NA 
BRANCH  15  17
HETATM   17  C   UNL     1      -8.142   8.223  70.029  1.00  0.00    -0.116 A  
HETATM   18  C   UNL     1      -7.804   6.863  69.896  1.00  0.00    -0.115 A  
HETATM   19  C   UNL     1      -7.824   6.013  71.028  1.00  0.00    -0.111 A  
HETATM   20  N   UNL     1      -7.479   4.598  70.871  1.00  0.00    -0.055 N  
HETATM   21  C   UNL     1      -8.169   6.514  72.290  1.00  0.00    -0.106 A  
HETATM   22  O   UNL     1      -8.227   5.800  73.460  1.00  0.00    -0.112 OA 
HETATM   23  O   UNL     1      -7.533   3.880  71.883  1.00  0.00    -0.057 OA 
HETATM   24  O   UNL     1      -7.156   4.200  69.744  1.00  0.00    -0.041 OA 
HETATM   25  C   UNL     1      -8.481   7.863  72.407  1.00  0.00    -0.141 A  
HETATM   26  H   UNL     1      -8.460   6.140  74.316  1.00  0.00     0.000 HD 
HETATM   27  C   UNL     1      -8.471   8.705  71.308  1.00  0.00    -0.226 A  
HETATM   28  O   UNL     1      -8.808   8.393  73.624  1.00  0.00    -0.228 OA 
HETATM   29  H   UNL     1      -9.022   9.315  73.705  1.00  0.00     0.000 HD 
ENDBRANCH  15  17
ENDBRANCH   3  12
TORSDOF 2
ENDMDL
MODEL      183
REMARK 921   NORMALIZED FREE ENERGY PREDICTED BY IDOCK:   -4.67 KCAL/MOL
REMARK 922        TOTAL FREE ENERGY PREDICTED BY IDOCK:   -5.81 KCAL/MOL
REMARK 923 INTER-LIGAND FREE ENERGY PREDICTED BY IDOCK:   -6.53 KCAL/MOL
REMARK 924 INTRA-LIGAND FREE ENERGY PREDICTED BY IDOCK:    0.73 KCAL/MOL
REMARK 927      BINDING AFFINITY PREDICTED BY RF-SCORE:    0.00 PKD
ROOT
HETATM    1  C   UNL     1     -10.349   9.613  71.149  1.00  0.00    -0.236 C  
HETATM    2  C   UNL     1      -9.433   9.163  70.028  1.00  0.00    -0.218 A  
HETATM    3  C   UNL     1      -9.388   9.790  68.751  1.00  0.00    -0.150 A  
HETATM    4 CL   UNL     1      -8.567   7.321  71.861  1.00  0.00    -0.119 Cl 
HETATM    5  C   UNL     1      -8.513   9.270  67.766  1.00  0.00    -0.116 A  
HETATM    6  C   UNL     1      -6.807   6.393  69.560  1.00  0.00    -0.065 C  
HETATM    7 CL   UNL     1      -8.363  10.012  66.189  1.00  0.00    -0.118 Cl 
HETATM    8  N   UNL     1      -7.693   8.153  68.042  1.00  0.00    -0.111 NA 
HETATM    9  C   UNL     1      -7.719   7.560  69.303  1.00  0.00    -0.112 A  
HETATM   10  O   UNL     1      -6.910   7.687  67.144  1.00  0.00    -0.065 OA 
HETATM   11  C   UNL     1      -8.578   8.069  70.286  1.00  0.00    -0.132 A  
ENDROOT
BRANCH   3  12
HETATM   12  C   UNL     1     -10.206  10.978  68.476  1.00  0.00    -0.192 A  
HETATM   13  O   UNL     1     -11.672  12.570  68.581  1.00  0.00    -0.290 OA 
HETATM   14  N   UNL     1     -11.344  11.314  69.108  1.00  0.00    -0.255 NA 
HETATM   15  C   UNL     1     -10.681  12.880  67.698  1.00  0.00    -0.223 A  
HETATM   16  N   UNL     1      -9.800  11.915  67.557  1.00  0.00    -0.186 NA 
BRANCH  15  17
HETATM   17  C   UNL     1     -10.628  14.226  67.131  1.00  0.00    -0.279 A  
HETATM   18  C   UNL     1     -10.085  15.348  67.786  1.00  0.00    -0.227 A  
HETATM   19  C   UNL     1     -10.075  16.609  67.144  1.00  0.00    -0.276 A  
HETATM   20  N   UNL     1      -9.516  17.768  67.843  1.00  0.00    -0.265 N  
HETATM   21  C   UNL     1     -10.592  16.754  65.849  1.00  0.00    -0.248 A  
HETATM   22  O   UNL     1     -10.641  17.915  65.119  1.00  0.00    -0.573 OA 
HETATM   23  O   UNL     1      -9.548  18.862  67.255  1.00  0.00    -0.299 OA 
HETATM   24  O   UNL     1      -9.046  17.593  68.975  1.00  0.00    -0.177 OA 
HETATM   25  C   UNL     1     -11.106  15.634  65.210  1.00  0.00    -0.303 A  
HETATM   26  H   UNL     1     -10.991  18.013  64.241  1.00  0.00     0.000 HD 
HETATM   27  C   UNL     1     -11.128  14.394  65.828  1.00  0.00    -0.316 A  
HETATM   28  O   UNL     1     -11.605  15.731  63.940  1.00  0.00    -0.981 OA 
HETATM   29  H   UNL     1     -11.957  14.965  63.503  1.00  0.00     0.000 HD 
ENDBRANCH  15  17
ENDBRANCH   3  12
TORSDOF 2
ENDMDL
MODEL      184
REMARK 921   NORMALIZED FREE ENERGY PREDICTED BY IDOCK:   -4.66 KCAL/MOL
REMARK 922        TOTAL FREE ENERGY PREDICTED BY IDOCK:   -5.80 KCAL/MOL
REMARK 923 INTER-LIGAND FREE ENERGY PREDICTED BY IDOCK:   -5.19 KCAL/MOL
REMARK 924 INTRA-LIGAND FREE ENERGY PREDICTED BY IDOCK:   -0.61 KCAL/MOL
REMARK 927      BINDING AFFINITY PREDICTED BY RF-SCORE:    0.00 PKD
ROOT
HETATM    1  C   UNL     1      -9.237   9.130  65.663  1.00  0.00    -0.296 C  
HETATM    2  C   UNL     1      -9.846   8.843  67.022  1.00  0.00    -0.277 A  
HETATM    3  C   UNL     1     -10.157   9.857  67.972  1.00  0.00    -0.202 A  
HETATM    4 CL   UNL     1      -9.812   6.241  66.171  1.00  0.00    -0.054 Cl 
HETATM    5  C   UNL     1     -10.698   9.475  69.224  1.00  0.00    -0.222 A  
HETATM    6  C   UNL     1     -10.952   5.699  68.938  1.00  0.00    -0.136 C  
HETATM    7 CL   UNL     1     -11.153  10.661  70.427  1.00  0.00    -0.322 Cl 
HETATM    8  N   UNL     1     -10.935   8.116  69.527  1.00  0.00    -0.119 NA 
HETATM    9  C   UNL     1     -10.656   7.129  68.582  1.00  0.00    -0.189 A  
HETATM   10  O   UNL     1     -11.420   7.780  70.662  1.00  0.00    -0.279 OA 
HETATM   11  C   UNL     1     -10.123   7.496  67.340  1.00  0.00    -0.216 A  
ENDROOT
BRANCH   3  12
HETATM   12  C   UNL     1      -9.955  11.274  67.643  1.00  0.00    -0.178 A  
HETATM   13  O   UNL     1     -10.243  13.340  67.061  1.00  0.00    -0.240 OA 
HETATM   14  N   UNL     1     -10.848  12.077  67.040  1.00  0.00    -0.241 NA 
HETATM   15  C   UNL     1      -9.050  13.178  67.700  1.00  0.00    -0.201 A  
HETATM   16  N   UNL     1      -8.806  11.926  68.018  1.00  0.00    -0.170 NA 
BRANCH  15  17
HETATM   17  C   UNL     1      -8.271  14.360  68.064  1.00  0.00    -0.149 A  
HETATM   18  C   UNL     1      -8.159  15.518  67.272  1.00  0.00    -0.226 A  
HETATM   19  C   UNL     1      -7.384  16.613  67.722  1.00  0.00    -0.148 A  
HETATM   20  N   UNL     1      -7.269  17.807  66.882  1.00  0.00    -0.187 N  
HETATM   21  C   UNL     1      -6.730  16.564  68.961  1.00  0.00    -0.200 A  
HETATM   22  O   UNL     1      -5.953  17.552  69.510  1.00  0.00    -0.222 OA 
HETATM   23  O   UNL     1      -6.560  18.737  67.301  1.00  0.00    -0.198 OA 
HETATM   24  O   UNL     1      -7.882  17.822  65.806  1.00  0.00    -0.541 OA 
HETATM   25  C   UNL     1      -6.867  15.421  69.739  1.00  0.00    -0.162 A  
HETATM   26  H   UNL     1      -5.510  17.518  70.350  1.00  0.00     0.000 HD 
HETATM   27  C   UNL     1      -7.618  14.339  69.309  1.00  0.00     0.012 A  
HETATM   28  O   UNL     1      -6.257  15.340  70.960  1.00  0.00     0.176 OA 
HETATM   29  H   UNL     1      -6.350  14.558  71.492  1.00  0.00     0.000 HD 
ENDBRANCH  15  17
ENDBRANCH   3  12
TORSDOF 2
ENDMDL
MODEL      185
REMARK 921   NORMALIZED FREE ENERGY PREDICTED BY IDOCK:   -4.65 KCAL/MOL
REMARK 922        TOTAL FREE ENERGY PREDICTED BY IDOCK:   -5.78 KCAL/MOL
REMARK 923 INTER-LIGAND FREE ENERGY PREDICTED BY IDOCK:   -5.65 KCAL/MOL
REMARK 924 INTRA-LIGAND FREE ENERGY PREDICTED BY IDOCK:   -0.13 KCAL/MOL
REMARK 927      BINDING AFFINITY PREDICTED BY RF-SCORE:    0.00 PKD
ROOT
HETATM    1  C   UNL     1      -8.760   8.640  71.857  1.00  0.00    -0.256 C  
HETATM    2  C   UNL     1      -8.997   7.270  71.252  1.00  0.00    -0.139 A  
HETATM    3  C   UNL     1      -9.801   7.051  70.097  1.00  0.00    -0.179 A  
HETATM    4 CL   UNL     1      -7.331   6.414  73.249  1.00  0.00    -0.086 Cl 
HETATM    5  C   UNL     1      -9.977   5.725  69.632  1.00  0.00    -0.189 A  
HETATM    6  C   UNL     1      -7.899   3.674  72.057  1.00  0.00    -0.059 C  
HETATM    7 CL   UNL     1     -10.908   5.375  68.193  1.00  0.00    -0.077 Cl 
HETATM    8  N   UNL     1      -9.364   4.637  70.292  1.00  0.00    -0.135 NA 
HETATM    9  C   UNL     1      -8.555   4.860  71.405  1.00  0.00    -0.124 A  
HETATM   10  O   UNL     1      -9.533   3.442  69.867  1.00  0.00    -0.169 OA 
HETATM   11  C   UNL     1      -8.371   6.167  71.872  1.00  0.00    -0.118 A  
ENDROOT
BRANCH   3  12
HETATM   12  C   UNL     1     -10.402   8.184  69.382  1.00  0.00    -0.218 A  
HETATM   13  O   UNL     1     -11.406  10.036  68.882  1.00  0.00    -0.175 OA 
HETATM   14  N   UNL     1     -11.198   9.122  69.923  1.00  0.00    -0.162 NA 
HETATM   15  C   UNL     1     -10.692   9.569  67.819  1.00  0.00    -0.242 A  
HETATM   16  N   UNL     1     -10.114   8.414  68.059  1.00  0.00    -0.191 NA 
BRANCH  15  17
HETATM   17  C   UNL     1     -10.540  10.415  66.637  1.00  0.00    -0.245 A  
HETATM   18  C   UNL     1      -9.668  10.141  65.566  1.00  0.00    -0.344 A  
HETATM   19  C   UNL     1      -9.603  11.023  64.461  1.00  0.00    -0.256 A  
HETATM   20  N   UNL     1      -8.682  10.729  63.359  1.00  0.00    -0.154 N  
HETATM   21  C   UNL     1     -10.409  12.167  64.413  1.00  0.00    -0.319 A  
HETATM   22  O   UNL     1     -10.442  13.097  63.405  1.00  0.00    -0.433 OA 
HETATM   23  O   UNL     1      -8.637  11.540  62.419  1.00  0.00    -0.298 OA 
HETATM   24  O   UNL     1      -8.005   9.695  63.428  1.00  0.00    -0.130 OA 
HETATM   25  C   UNL     1     -11.278  12.412  65.468  1.00  0.00    -0.325 A  
HETATM   26  H   UNL     1     -10.990  13.873  63.372  1.00  0.00     0.000 HD 
HETATM   27  C   UNL     1     -11.349  11.561  66.559  1.00  0.00    -0.263 A  
HETATM   28  O   UNL     1     -12.093  13.510  65.451  1.00  0.00    -0.368 OA 
HETATM   29  H   UNL     1     -12.687  13.678  66.173  1.00  0.00     0.000 HD 
ENDBRANCH  15  17
ENDBRANCH   3  12
TORSDOF 2
ENDMDL
MODEL      186
REMARK 921   NORMALIZED FREE ENERGY PREDICTED BY IDOCK:   -4.64 KCAL/MOL
REMARK 922        TOTAL FREE ENERGY PREDICTED BY IDOCK:   -5.78 KCAL/MOL
REMARK 923 INTER-LIGAND FREE ENERGY PREDICTED BY IDOCK:   -5.38 KCAL/MOL
REMARK 924 INTRA-LIGAND FREE ENERGY PREDICTED BY IDOCK:   -0.40 KCAL/MOL
REMARK 927      BINDING AFFINITY PREDICTED BY RF-SCORE:    0.00 PKD
ROOT
HETATM    1  C   UNL     1     -11.215  11.893  64.154  1.00  0.00    -0.446 C  
HETATM    2  C   UNL     1     -10.962  12.340  65.581  1.00  0.00    -0.338 A  
HETATM    3  C   UNL     1     -10.273  11.546  66.541  1.00  0.00    -0.253 A  
HETATM    4 CL   UNL     1     -12.223  14.636  64.783  1.00  0.00    -0.425 Cl 
HETATM    5  C   UNL     1     -10.116  12.050  67.855  1.00  0.00    -0.195 A  
HETATM    6  C   UNL     1     -11.773  15.460  67.676  1.00  0.00    -0.122 C  
HETATM    7 CL   UNL     1      -9.241  11.159  69.080  1.00  0.00    -0.105 Cl 
HETATM    8  N   UNL     1     -10.626  13.319  68.210  1.00  0.00    -0.244 NA 
HETATM    9  C   UNL     1     -11.274  14.104  67.259  1.00  0.00    -0.316 A  
HETATM   10  O   UNL     1     -10.484  13.763  69.402  1.00  0.00    -0.021 OA 
HETATM   11  C   UNL     1     -11.432  13.617  65.956  1.00  0.00    -0.324 A  
ENDROOT
BRANCH   3  12
HETATM   12  C   UNL     1      -9.703  10.247  66.162  1.00  0.00    -0.211 A  
HETATM   13  O   UNL     1      -8.432   8.676  65.383  1.00  0.00    -0.153 OA 
HETATM   14  N   UNL     1      -8.673  10.054  65.321  1.00  0.00    -0.153 NA 
HETATM   15  C   UNL     1      -9.329   8.175  66.278  1.00  0.00    -0.196 A  
HETATM   16  N   UNL     1     -10.162   9.084  66.732  1.00  0.00    -0.271 NA 
BRANCH  15  17
HETATM   17  C   UNL     1      -9.197   6.787  66.718  1.00  0.00    -0.172 A  
HETATM   18  C   UNL     1      -9.640   6.297  67.961  1.00  0.00    -0.115 A  
HETATM   19  C   UNL     1      -9.471   4.930  68.286  1.00  0.00    -0.138 A  
HETATM   20  N   UNL     1      -9.928   4.439  69.588  1.00  0.00    -0.204 N  
HETATM   21  C   UNL     1      -8.874   4.049  67.376  1.00  0.00    -0.119 A  
HETATM   22  O   UNL     1      -8.653   2.708  67.567  1.00  0.00    -0.088 OA 
HETATM   23  O   UNL     1      -9.739   3.238  69.846  1.00  0.00    -0.144 OA 
HETATM   24  O   UNL     1     -10.473   5.244  70.355  1.00  0.00    -0.271 OA 
HETATM   25  C   UNL     1      -8.460   4.544  66.146  1.00  0.00    -0.113 A  
HETATM   26  H   UNL     1      -8.248   2.110  66.949  1.00  0.00     0.000 HD 
HETATM   27  C   UNL     1      -8.614   5.880  65.815  1.00  0.00    -0.154 A  
HETATM   28  O   UNL     1      -7.887   3.712  65.223  1.00  0.00    -0.084 OA 
HETATM   29  H   UNL     1      -7.604   4.051  64.382  1.00  0.00     0.000 HD 
ENDBRANCH  15  17
ENDBRANCH   3  12
TORSDOF 2
ENDMDL
MODEL      187
REMARK 921   NORMALIZED FREE ENERGY PREDICTED BY IDOCK:   -4.63 KCAL/MOL
REMARK 922        TOTAL FREE ENERGY PREDICTED BY IDOCK:   -5.76 KCAL/MOL
REMARK 923 INTER-LIGAND FREE ENERGY PREDICTED BY IDOCK:   -5.53 KCAL/MOL
REMARK 924 INTRA-LIGAND FREE ENERGY PREDICTED BY IDOCK:   -0.23 KCAL/MOL
REMARK 927      BINDING AFFINITY PREDICTED BY RF-SCORE:    0.00 PKD
ROOT
HETATM    1  C   UNL     1     -10.601  16.247  67.927  1.00  0.00    -0.318 C  
HETATM    2  C   UNL     1      -9.311  16.944  67.540  1.00  0.00    -0.232 A  
HETATM    3  C   UNL     1      -8.042  16.299  67.538  1.00  0.00    -0.165 A  
HETATM    4 CL   UNL     1     -10.942  19.096  67.086  1.00  0.00    -0.489 Cl 
HETATM    5  C   UNL     1      -6.895  17.052  67.186  1.00  0.00    -0.179 A  
HETATM    6  C   UNL     1      -8.323  20.480  66.402  1.00  0.00    -0.041 C  
HETATM    7 CL   UNL     1      -5.307  16.324  67.112  1.00  0.00    -0.093 Cl 
HETATM    8  N   UNL     1      -7.004  18.416  66.835  1.00  0.00    -0.190 NA 
HETATM    9  C   UNL     1      -8.252  19.035  66.810  1.00  0.00    -0.279 A  
HETATM   10  O   UNL     1      -5.962  19.090  66.523  1.00  0.00    -0.164 OA 
HETATM   11  C   UNL     1      -9.393  18.299  67.154  1.00  0.00    -0.264 A  
ENDROOT
BRANCH   3  12
HETATM   12  C   UNL     1      -7.931  14.870  67.859  1.00  0.00    -0.138 A  
HETATM   13  O   UNL     1      -7.539  12.977  68.836  1.00  0.00    -0.070 OA 
HETATM   14  N   UNL     1      -7.237  14.345  68.883  1.00  0.00    -0.120 NA 
HETATM   15  C   UNL     1      -8.410  12.817  67.800  1.00  0.00    -0.177 A  
HETATM   16  N   UNL     1      -8.629  13.932  67.139  1.00  0.00    -0.214 NA 
BRANCH  15  17
HETATM   17  C   UNL     1      -9.074  11.527  67.620  1.00  0.00    -0.168 A  
HETATM   18  C   UNL     1      -9.455  10.672  68.672  1.00  0.00    -0.176 A  
HETATM   19  C   UNL     1     -10.102   9.446  68.390  1.00  0.00    -0.185 A  
HETATM   20  N   UNL     1     -10.483   8.562  69.494  1.00  0.00    -0.220 N  
HETATM   21  C   UNL     1     -10.381   9.074  67.068  1.00  0.00    -0.269 A  
HETATM   22  O   UNL     1     -11.000   7.919  66.661  1.00  0.00    -0.313 OA 
HETATM   23  O   UNL     1     -11.026   7.484  69.204  1.00  0.00    -0.138 OA 
HETATM   24  O   UNL     1     -10.241   8.938  70.649  1.00  0.00    -0.193 OA 
HETATM   25  C   UNL     1     -10.016   9.938  66.044  1.00  0.00    -0.268 A  
HETATM   26  H   UNL     1     -11.189   7.667  65.765  1.00  0.00     0.000 HD 
HETATM   27  C   UNL     1      -9.377  11.139  66.304  1.00  0.00    -0.216 A  
HETATM   28  O   UNL     1     -10.285   9.618  64.741  1.00  0.00    -0.251 OA 
HETATM   29  H   UNL     1     -10.035  10.209  64.041  1.00  0.00     0.000 HD 
ENDBRANCH  15  17
ENDBRANCH   3  12
TORSDOF 2
ENDMDL
MODEL      188
REMARK 921   NORMALIZED FREE ENERGY PREDICTED BY IDOCK:   -4.62 KCAL/MOL
REMARK 922        TOTAL FREE ENERGY PREDICTED BY IDOCK:   -5.75 KCAL/MOL
REMARK 923 INTER-LIGAND FREE ENERGY PREDICTED BY IDOCK:   -5.26 KCAL/MOL
REMARK 924 INTRA-LIGAND FREE ENERGY PREDICTED BY IDOCK:   -0.49 KCAL/MOL
REMARK 927      BINDING AFFINITY PREDICTED BY RF-SCORE:    0.00 PKD
ROOT
HETATM    1  C   UNL     1      -9.319   7.733  66.435  1.00  0.00    -0.237 C  
HETATM    2  C   UNL     1      -9.118   7.287  67.870  1.00  0.00    -0.132 A  
HETATM    3  C   UNL     1      -8.604   8.136  68.890  1.00  0.00    -0.130 A  
HETATM    4 CL   UNL     1     -10.168   4.919  66.981  1.00  0.00    -0.240 Cl 
HETATM    5  C   UNL     1      -8.431   7.607  70.193  1.00  0.00    -0.138 A  
HETATM    6  C   UNL     1      -9.669   4.036  69.848  1.00  0.00    -0.263 C  
HETATM    7 CL   UNL     1      -7.850   8.597  71.514  1.00  0.00    -0.159 Cl 
HETATM    8  N   UNL     1      -8.767   6.266  70.482  1.00  0.00    -0.142 NA 
HETATM    9  C   UNL     1      -9.298   5.447  69.487  1.00  0.00    -0.124 A  
HETATM   10  O   UNL     1      -8.602   5.796  71.661  1.00  0.00    -0.130 OA 
HETATM   11  C   UNL     1      -9.476   5.961  68.196  1.00  0.00    -0.115 A  
ENDROOT
BRANCH   3  12
HETATM   12  C   UNL     1      -8.296   9.542  68.604  1.00  0.00    -0.117 A  
HETATM   13  O   UNL     1      -7.452  11.371  67.805  1.00  0.00    -0.092 OA 
HETATM   14  N   UNL     1      -7.238   9.990  67.906  1.00  0.00    -0.086 NA 
HETATM   15  C   UNL     1      -8.637  11.616  68.433  1.00  0.00    -0.156 A  
HETATM   16  N   UNL     1      -9.155  10.543  68.987  1.00  0.00    -0.179 NA 
BRANCH  15  17
HETATM   17  C   UNL     1      -9.241  12.943  68.320  1.00  0.00    -0.187 A  
HETATM   18  C   UNL     1      -8.609  14.143  68.696  1.00  0.00    -0.126 A  
HETATM   19  C   UNL     1      -9.280  15.378  68.537  1.00  0.00    -0.198 A  
HETATM   20  N   UNL     1      -8.613  16.618  68.943  1.00  0.00    -0.251 N  
HETATM   21  C   UNL     1     -10.572  15.424  67.996  1.00  0.00    -0.263 A  
HETATM   22  O   UNL     1     -11.329  16.550  67.791  1.00  0.00    -0.172 OA 
HETATM   23  O   UNL     1      -9.245  17.679  68.810  1.00  0.00    -0.273 OA 
HETATM   24  O   UNL     1      -7.462  16.538  69.393  1.00  0.00    -0.223 OA 
HETATM   25  C   UNL     1     -11.174  14.232  67.613  1.00  0.00    -0.304 A  
HETATM   26  H   UNL     1     -12.204  16.581  67.423  1.00  0.00     0.000 HD 
HETATM   27  C   UNL     1     -10.531  13.015  67.767  1.00  0.00    -0.232 A  
HETATM   28  O   UNL     1     -12.427  14.236  67.066  1.00  0.00    -0.588 OA 
HETATM   29  H   UNL     1     -12.839  13.421  66.804  1.00  0.00     0.000 HD 
ENDBRANCH  15  17
ENDBRANCH   3  12
TORSDOF 2
ENDMDL
MODEL      189
REMARK 921   NORMALIZED FREE ENERGY PREDICTED BY IDOCK:   -4.61 KCAL/MOL
REMARK 922        TOTAL FREE ENERGY PREDICTED BY IDOCK:   -5.74 KCAL/MOL
REMARK 923 INTER-LIGAND FREE ENERGY PREDICTED BY IDOCK:   -5.27 KCAL/MOL
REMARK 924 INTRA-LIGAND FREE ENERGY PREDICTED BY IDOCK:   -0.47 KCAL/MOL
REMARK 927      BINDING AFFINITY PREDICTED BY RF-SCORE:    0.00 PKD
ROOT
HETATM    1  C   UNL     1     -10.962  16.517  66.306  1.00  0.00     0.085 C  
HETATM    2  C   UNL     1      -9.748  17.072  67.025  1.00  0.00    -0.264 A  
HETATM    3  C   UNL     1      -8.914  16.290  67.874  1.00  0.00    -0.187 A  
HETATM    4 CL   UNL     1     -10.404  19.398  65.738  1.00  0.00    -0.487 Cl 
HETATM    5  C   UNL     1      -7.820  16.918  68.519  1.00  0.00    -0.240 A  
HETATM    6  C   UNL     1      -8.014  20.495  67.265  1.00  0.00    -0.361 C  
HETATM    7 CL   UNL     1      -6.719  16.019  69.539  1.00  0.00    -0.200 Cl 
HETATM    8  N   UNL     1      -7.553  18.291  68.322  1.00  0.00    -0.269 NA 
HETATM    9  C   UNL     1      -8.355  19.045  67.467  1.00  0.00    -0.278 A  
HETATM   10  O   UNL     1      -6.565  18.850  68.913  1.00  0.00    -0.255 OA 
HETATM   11  C   UNL     1      -9.438  18.434  66.822  1.00  0.00    -0.297 A  
ENDROOT
BRANCH   3  12
HETATM   12  C   UNL     1      -9.163  14.853  68.045  1.00  0.00    -0.185 A  
HETATM   13  O   UNL     1     -10.053  12.932  68.498  1.00  0.00    -0.233 OA 
HETATM   14  N   UNL     1     -10.183  14.307  68.729  1.00  0.00    -0.234 NA 
HETATM   15  C   UNL     1      -8.978  12.786  67.673  1.00  0.00    -0.191 A  
HETATM   16  N   UNL     1      -8.369  13.923  67.420  1.00  0.00    -0.189 NA 
BRANCH  15  17
HETATM   17  C   UNL     1      -8.707  11.477  67.081  1.00  0.00    -0.160 A  
HETATM   18  C   UNL     1      -7.595  11.183  66.269  1.00  0.00    -0.075 A  
HETATM   19  C   UNL     1      -7.421   9.877  65.751  1.00  0.00    -0.110 A  
HETATM   20  N   UNL     1      -6.264   9.590  64.899  1.00  0.00    -0.076 N  
HETATM   21  C   UNL     1      -8.341   8.863  66.048  1.00  0.00    -0.124 A  
HETATM   22  O   UNL     1      -8.288   7.564  65.612  1.00  0.00    -0.130 OA 
HETATM   23  O   UNL     1      -6.160   8.438  64.445  1.00  0.00    -0.064 OA 
HETATM   24  O   UNL     1      -5.460  10.506  64.681  1.00  0.00    -0.130 OA 
HETATM   25  C   UNL     1      -9.422   9.166  66.866  1.00  0.00    -0.171 A  
HETATM   26  H   UNL     1      -8.912   6.876  65.813  1.00  0.00     0.000 HD 
HETATM   27  C   UNL     1      -9.609  10.440  67.376  1.00  0.00    -0.178 A  
HETATM   28  O   UNL     1     -10.334   8.200  67.191  1.00  0.00    -0.265 OA 
HETATM   29  H   UNL     1     -11.073   8.407  67.751  1.00  0.00     0.000 HD 
ENDBRANCH  15  17
ENDBRANCH   3  12
TORSDOF 2
ENDMDL
MODEL      190
REMARK 921   NORMALIZED FREE ENERGY PREDICTED BY IDOCK:   -4.60 KCAL/MOL
REMARK 922        TOTAL FREE ENERGY PREDICTED BY IDOCK:   -5.73 KCAL/MOL
REMARK 923 INTER-LIGAND FREE ENERGY PREDICTED BY IDOCK:   -5.16 KCAL/MOL
REMARK 924 INTRA-LIGAND FREE ENERGY PREDICTED BY IDOCK:   -0.57 KCAL/MOL
REMARK 927      BINDING AFFINITY PREDICTED BY RF-SCORE:    0.00 PKD
ROOT
HETATM    1  C   UNL     1      -7.189   6.771  70.525  1.00  0.00    -0.073 C  
HETATM    2  C   UNL     1      -7.872   5.695  69.703  1.00  0.00    -0.091 A  
HETATM    3  C   UNL     1      -8.470   5.939  68.434  1.00  0.00    -0.111 A  
HETATM    4 CL   UNL     1      -7.117   4.048  71.755  1.00  0.00    -0.050 Cl 
HETATM    5  C   UNL     1      -9.106   4.866  67.763  1.00  0.00    -0.116 A  
HETATM    6  C   UNL     1      -8.571   1.938  70.117  1.00  0.00    -0.095 C  
HETATM    7 CL   UNL     1      -9.822   5.070  66.180  1.00  0.00    -0.194 Cl 
HETATM    8  N   UNL     1      -9.143   3.575  68.334  1.00  0.00    -0.134 NA 
HETATM    9  C   UNL     1      -8.531   3.335  69.563  1.00  0.00    -0.061 A  
HETATM   10  O   UNL     1      -9.725   2.613  67.723  1.00  0.00    -0.094 OA 
HETATM   11  C   UNL     1      -7.896   4.388  70.233  1.00  0.00    -0.059 A  
ENDROOT
BRANCH   3  12
HETATM   12  C   UNL     1      -8.393   7.270  67.817  1.00  0.00    -0.118 A  
HETATM   13  O   UNL     1      -7.799   8.995  66.650  1.00  0.00    -0.098 OA 
HETATM   14  N   UNL     1      -7.346   7.761  67.133  1.00  0.00    -0.089 NA 
HETATM   15  C   UNL     1      -9.090   9.115  67.071  1.00  0.00    -0.123 A  
HETATM   16  N   UNL     1      -9.474   8.117  67.835  1.00  0.00    -0.144 NA 
BRANCH  15  17
HETATM   17  C   UNL     1      -9.910  10.209  66.553  1.00  0.00    -0.268 A  
HETATM   18  C   UNL     1      -9.964  10.594  65.200  1.00  0.00    -0.366 A  
HETATM   19  C   UNL     1     -10.799  11.664  64.800  1.00  0.00    -0.308 A  
HETATM   20  N   UNL     1     -10.837  12.060  63.390  1.00  0.00    -0.415 N  
HETATM   21  C   UNL     1     -11.587  12.343  65.739  1.00  0.00    -0.398 A  
HETATM   22  O   UNL     1     -12.435  13.392  65.483  1.00  0.00    -0.453 OA 
HETATM   23  O   UNL     1     -11.563  13.020  63.084  1.00  0.00    -0.370 OA 
HETATM   24  O   UNL     1     -10.144  11.419  62.588  1.00  0.00    -0.138 OA 
HETATM   25  C   UNL     1     -11.537  11.937  67.066  1.00  0.00    -0.291 A  
HETATM   26  H   UNL     1     -12.970  13.851  66.120  1.00  0.00     0.000 HD 
HETATM   27  C   UNL     1     -10.720  10.896  67.473  1.00  0.00    -0.299 A  
HETATM   28  O   UNL     1     -12.302  12.565  68.010  1.00  0.00    -0.207 OA 
HETATM   29  H   UNL     1     -12.268  12.288  68.918  1.00  0.00     0.000 HD 
ENDBRANCH  15  17
ENDBRANCH   3  12
TORSDOF 2
ENDMDL
MODEL      191
REMARK 921   NORMALIZED FREE ENERGY PREDICTED BY IDOCK:   -4.57 KCAL/MOL
REMARK 922        TOTAL FREE ENERGY PREDICTED BY IDOCK:   -5.70 KCAL/MOL
REMARK 923 INTER-LIGAND FREE ENERGY PREDICTED BY IDOCK:   -5.15 KCAL/MOL
REMARK 924 INTRA-LIGAND FREE ENERGY PREDICTED BY IDOCK:   -0.55 KCAL/MOL
REMARK 927      BINDING AFFINITY PREDICTED BY RF-SCORE:    0.00 PKD
ROOT
HETATM    1  C   UNL     1     -10.487   7.590  68.633  1.00  0.00    -0.207 C  
HETATM    2  C   UNL     1      -9.074   7.537  69.182  1.00  0.00    -0.138 A  
HETATM    3  C   UNL     1      -8.095   8.539  68.926  1.00  0.00    -0.119 A  
HETATM    4 CL   UNL     1      -9.930   5.227  70.377  1.00  0.00    -0.281 Cl 
HETATM    5  C   UNL     1      -6.797   8.376  69.467  1.00  0.00    -0.041 A  
HETATM    6  C   UNL     1      -7.063   5.113  71.387  1.00  0.00    -0.061 C  
HETATM    7 CL   UNL     1      -5.551   9.584  69.240  1.00  0.00    -0.035 Cl 
HETATM    8  N   UNL     1      -6.474   7.247  70.251  1.00  0.00    -0.041 NA 
HETATM    9  C   UNL     1      -7.444   6.283  70.522  1.00  0.00    -0.091 A  
HETATM   10  O   UNL     1      -5.296   7.106  70.731  1.00  0.00    -0.023 OA 
HETATM   11  C   UNL     1      -8.733   6.436  69.995  1.00  0.00    -0.142 A  
ENDROOT
BRANCH   3  12
HETATM   12  C   UNL     1      -8.440   9.737  68.149  1.00  0.00    -0.114 A  
HETATM   13  O   UNL     1      -8.993  11.105  66.563  1.00  0.00    -0.167 OA 
HETATM   14  N   UNL     1      -8.518   9.810  66.809  1.00  0.00    -0.124 NA 
HETATM   15  C   UNL     1      -9.179  11.678  67.785  1.00  0.00    -0.178 A  
HETATM   16  N   UNL     1      -8.799  10.904  68.777  1.00  0.00    -0.165 NA 
BRANCH  15  17
HETATM   17  C   UNL     1      -9.866  12.965  67.871  1.00  0.00    -0.227 A  
HETATM   18  C   UNL     1      -9.509  14.112  67.136  1.00  0.00    -0.237 A  
HETATM   19  C   UNL     1     -10.247  15.310  67.286  1.00  0.00    -0.248 A  
HETATM   20  N   UNL     1      -9.856  16.496  66.522  1.00  0.00    -0.263 N  
HETATM   21  C   UNL     1     -11.344  15.367  68.156  1.00  0.00    -0.348 A  
HETATM   22  O   UNL     1     -12.139  16.460  68.391  1.00  0.00    -0.018 OA 
HETATM   23  O   UNL     1     -10.514  17.535  66.701  1.00  0.00    -0.323 OA 
HETATM   24  O   UNL     1      -8.896  16.398  65.745  1.00  0.00    -0.446 OA 
HETATM   25  C   UNL     1     -11.695  14.222  68.859  1.00  0.00    -0.328 A  
HETATM   26  H   UNL     1     -12.883  16.499  68.981  1.00  0.00     0.000 HD 
HETATM   27  C   UNL     1     -10.979  13.043  68.726  1.00  0.00    -0.295 A  
HETATM   28  O   UNL     1     -12.769  14.233  69.706  1.00  0.00    -0.485 OA 
HETATM   29  H   UNL     1     -13.009  13.450  70.187  1.00  0.00     0.000 HD 
ENDBRANCH  15  17
ENDBRANCH   3  12
TORSDOF 2
ENDMDL
MODEL      192
REMARK 921   NORMALIZED FREE ENERGY PREDICTED BY IDOCK:   -4.56 KCAL/MOL
REMARK 922        TOTAL FREE ENERGY PREDICTED BY IDOCK:   -5.69 KCAL/MOL
REMARK 923 INTER-LIGAND FREE ENERGY PREDICTED BY IDOCK:   -5.14 KCAL/MOL
REMARK 924 INTRA-LIGAND FREE ENERGY PREDICTED BY IDOCK:   -0.55 KCAL/MOL
REMARK 927      BINDING AFFINITY PREDICTED BY RF-SCORE:    0.00 PKD
ROOT
HETATM    1  C   UNL     1      -6.212   7.553  66.881  1.00  0.00    -0.048 C  
HETATM    2  C   UNL     1      -7.288   6.784  67.623  1.00  0.00    -0.096 A  
HETATM    3  C   UNL     1      -8.318   7.411  68.381  1.00  0.00    -0.125 A  
HETATM    4 CL   UNL     1      -6.046   4.584  66.568  1.00  0.00    -0.030 Cl 
HETATM    5  C   UNL     1      -9.257   6.596  69.058  1.00  0.00    -0.131 A  
HETATM    6  C   UNL     1      -8.168   3.078  68.141  1.00  0.00    -0.089 C  
HETATM    7 CL   UNL     1     -10.581   7.286  69.970  1.00  0.00    -0.237 Cl 
HETATM    8  N   UNL     1      -9.182   5.187  68.983  1.00  0.00    -0.112 NA 
HETATM    9  C   UNL     1      -8.189   4.579  68.217  1.00  0.00    -0.090 A  
HETATM   10  O   UNL     1     -10.032   4.459  69.603  1.00  0.00    -0.222 OA 
HETATM   11  C   UNL     1      -7.257   5.376  67.539  1.00  0.00    -0.075 A  
ENDROOT
BRANCH   3  12
HETATM   12  C   UNL     1      -8.425   8.875  68.424  1.00  0.00    -0.129 A  
HETATM   13  O   UNL     1      -8.068  10.981  68.782  1.00  0.00    -0.134 OA 
HETATM   14  N   UNL     1      -7.676   9.696  69.180  1.00  0.00    -0.083 NA 
HETATM   15  C   UNL     1      -9.001  10.806  67.804  1.00  0.00    -0.137 A  
HETATM   16  N   UNL     1      -9.293   9.542  67.596  1.00  0.00    -0.124 NA 
BRANCH  15  17
HETATM   17  C   UNL     1      -9.456  11.965  67.038  1.00  0.00    -0.192 A  
HETATM   18  C   UNL     1      -9.720  13.233  67.590  1.00  0.00    -0.219 A  
HETATM   19  C   UNL     1     -10.150  14.294  66.757  1.00  0.00    -0.264 A  
HETATM   20  N   UNL     1     -10.431  15.604  67.348  1.00  0.00    -0.284 N  
HETATM   21  C   UNL     1     -10.306  14.100  65.378  1.00  0.00    -0.365 A  
HETATM   22  O   UNL     1     -10.714  15.040  64.466  1.00  0.00    -0.608 OA 
HETATM   23  O   UNL     1     -10.829  16.502  66.588  1.00  0.00    -0.206 OA 
HETATM   24  O   UNL     1     -10.256  15.742  68.567  1.00  0.00    -0.210 OA 
HETATM   25  C   UNL     1     -10.023  12.848  64.847  1.00  0.00    -0.130 A  
HETATM   26  H   UNL     1     -10.820  14.908  63.531  1.00  0.00     0.000 HD 
HETATM   27  C   UNL     1      -9.607  11.799  65.650  1.00  0.00    -0.240 A  
HETATM   28  O   UNL     1     -10.148  12.623  63.504  1.00  0.00    -0.563 OA 
HETATM   29  H   UNL     1      -9.955  11.767  63.141  1.00  0.00     0.000 HD 
ENDBRANCH  15  17
ENDBRANCH   3  12
TORSDOF 2
ENDMDL
MODEL      193
REMARK 921   NORMALIZED FREE ENERGY PREDICTED BY IDOCK:   -4.54 KCAL/MOL
REMARK 922        TOTAL FREE ENERGY PREDICTED BY IDOCK:   -5.66 KCAL/MOL
REMARK 923 INTER-LIGAND FREE ENERGY PREDICTED BY IDOCK:   -6.25 KCAL/MOL
REMARK 924 INTRA-LIGAND FREE ENERGY PREDICTED BY IDOCK:    0.60 KCAL/MOL
REMARK 927      BINDING AFFINITY PREDICTED BY RF-SCORE:    0.00 PKD
ROOT
HETATM    1  C   UNL     1      -8.404  11.175  66.559  1.00  0.00    -0.166 C  
HETATM    2  C   UNL     1      -9.550  11.989  65.990  1.00  0.00    -0.247 A  
HETATM    3  C   UNL     1      -9.892  13.291  66.454  1.00  0.00    -0.281 A  
HETATM    4 CL   UNL     1      -9.861   9.850  64.309  1.00  0.00    -0.160 Cl 
HETATM    5  C   UNL     1     -11.000  13.952  65.870  1.00  0.00    -0.284 A  
HETATM    6  C   UNL     1     -12.203  11.478  63.255  1.00  0.00    -0.073 C  
HETATM    7 CL   UNL     1     -11.457  15.572  66.348  1.00  0.00    -0.013 Cl 
HETATM    8  N   UNL     1     -11.750  13.340  64.841  1.00  0.00    -0.329 NA 
HETATM    9  C   UNL     1     -11.393  12.077  64.371  1.00  0.00    -0.345 A  
HETATM   10  O   UNL     1     -12.753  13.943  64.324  1.00  0.00    -0.664 OA 
HETATM   11  C   UNL     1     -10.297  11.415  64.939  1.00  0.00    -0.292 A  
ENDROOT
BRANCH   3  12
HETATM   12  C   UNL     1      -9.087  13.948  67.491  1.00  0.00    -0.201 A  
HETATM   13  O   UNL     1      -7.697  14.364  69.099  1.00  0.00    -0.121 OA 
HETATM   14  N   UNL     1      -8.376  13.327  68.447  1.00  0.00    -0.154 NA 
HETATM   15  C   UNL     1      -8.048  15.511  68.453  1.00  0.00    -0.136 A  
HETATM   16  N   UNL     1      -8.939  15.313  67.506  1.00  0.00    -0.181 NA 
BRANCH  15  17
HETATM   17  C   UNL     1      -7.343  16.752  68.769  1.00  0.00    -0.227 A  
HETATM   18  C   UNL     1      -7.410  17.928  67.998  1.00  0.00    -0.230 A  
HETATM   19  C   UNL     1      -6.693  19.080  68.398  1.00  0.00    -0.252 A  
HETATM   20  N   UNL     1      -6.765  20.293  67.580  1.00  0.00    -0.249 N  
HETATM   21  C   UNL     1      -5.919  19.069  69.566  1.00  0.00    -0.257 A  
HETATM   22  O   UNL     1      -5.180  20.113  70.062  1.00  0.00    -0.197 OA 
HETATM   23  O   UNL     1      -6.101  21.275  67.952  1.00  0.00    -0.344 OA 
HETATM   24  O   UNL     1      -7.480  20.270  66.569  1.00  0.00    -0.271 OA 
HETATM   25  C   UNL     1      -5.879  17.907  70.326  1.00  0.00    -0.141 A  
HETATM   26  H   UNL     1      -4.656  20.106  70.855  1.00  0.00     0.000 HD 
HETATM   27  C   UNL     1      -6.571  16.769  69.944  1.00  0.00     0.077 A  
HETATM   28  O   UNL     1      -5.148  17.861  71.480  1.00  0.00    -0.512 OA 
HETATM   29  H   UNL     1      -5.120  17.066  72.000  1.00  0.00     0.000 HD 
ENDBRANCH  15  17
ENDBRANCH   3  12
TORSDOF 2
ENDMDL
MODEL      194
REMARK 921   NORMALIZED FREE ENERGY PREDICTED BY IDOCK:   -4.52 KCAL/MOL
REMARK 922        TOTAL FREE ENERGY PREDICTED BY IDOCK:   -5.64 KCAL/MOL
REMARK 923 INTER-LIGAND FREE ENERGY PREDICTED BY IDOCK:   -6.04 KCAL/MOL
REMARK 924 INTRA-LIGAND FREE ENERGY PREDICTED BY IDOCK:    0.40 KCAL/MOL
REMARK 927      BINDING AFFINITY PREDICTED BY RF-SCORE:    0.00 PKD
ROOT
HETATM    1  C   UNL     1      -6.112  17.735  68.496  1.00  0.00    -0.181 C  
HETATM    2  C   UNL     1      -7.341  17.650  67.611  1.00  0.00    -0.202 A  
HETATM    3  C   UNL     1      -7.848  16.426  67.089  1.00  0.00    -0.223 A  
HETATM    4 CL   UNL     1      -7.447  20.361  67.984  1.00  0.00    -0.264 Cl 
HETATM    5  C   UNL     1      -8.988  16.465  66.249  1.00  0.00    -0.333 A  
HETATM    6  C   UNL     1      -9.854  20.158  66.137  1.00  0.00    -0.515 C  
HETATM    7 CL   UNL     1      -9.703  15.003  65.607  1.00  0.00    -0.376 Cl 
HETATM    8  N   UNL     1      -9.617  17.690  65.937  1.00  0.00    -0.528 NA 
HETATM    9  C   UNL     1      -9.133  18.882  66.473  1.00  0.00    -0.327 A  
HETATM   10  O   UNL     1     -10.643  17.715  65.172  1.00  0.00    -0.636 OA 
HETATM   11  C   UNL     1      -8.009  18.856  67.308  1.00  0.00    -0.246 A  
ENDROOT
BRANCH   3  12
HETATM   12  C   UNL     1      -7.224  15.147  67.449  1.00  0.00    -0.199 A  
HETATM   13  O   UNL     1      -5.832  13.611  68.078  1.00  0.00    -0.108 OA 
HETATM   14  N   UNL     1      -5.909  14.939  67.639  1.00  0.00    -0.326 NA 
HETATM   15  C   UNL     1      -7.116  13.156  68.134  1.00  0.00    -0.109 A  
HETATM   16  N   UNL     1      -7.990  14.036  67.702  1.00  0.00    -0.163 NA 
BRANCH  15  17
HETATM   17  C   UNL     1      -7.385  11.860  68.755  1.00  0.00    -0.105 A  
HETATM   18  C   UNL     1      -6.599  11.282  69.770  1.00  0.00    -0.130 A  
HETATM   19  C   UNL     1      -6.954  10.023  70.311  1.00  0.00    -0.150 A  
HETATM   20  N   UNL     1      -6.119   9.430  71.359  1.00  0.00    -0.077 N  
HETATM   21  C   UNL     1      -8.092   9.345  69.855  1.00  0.00    -0.138 A  
HETATM   22  O   UNL     1      -8.543   8.127  70.295  1.00  0.00    -0.127 OA 
HETATM   23  O   UNL     1      -6.450   8.313  71.791  1.00  0.00    -0.048 OA 
HETATM   24  O   UNL     1      -5.136  10.072  71.753  1.00  0.00    -0.073 OA 
HETATM   25  C   UNL     1      -8.867   9.939  68.868  1.00  0.00    -0.145 A  
HETATM   26  H   UNL     1      -9.315   7.667  69.986  1.00  0.00     0.000 HD 
HETATM   27  C   UNL     1      -8.530  11.168  68.324  1.00  0.00    -0.145 A  
HETATM   28  O   UNL     1      -9.994   9.316  68.407  1.00  0.00    -0.164 OA 
HETATM   29  H   UNL     1     -10.525   9.722  67.731  1.00  0.00     0.000 HD 
ENDBRANCH  15  17
ENDBRANCH   3  12
TORSDOF 2
ENDMDL
MODEL      195
REMARK 921   NORMALIZED FREE ENERGY PREDICTED BY IDOCK:   -4.51 KCAL/MOL
REMARK 922        TOTAL FREE ENERGY PREDICTED BY IDOCK:   -5.62 KCAL/MOL
REMARK 923 INTER-LIGAND FREE ENERGY PREDICTED BY IDOCK:   -5.14 KCAL/MOL
REMARK 924 INTRA-LIGAND FREE ENERGY PREDICTED BY IDOCK:   -0.48 KCAL/MOL
REMARK 927      BINDING AFFINITY PREDICTED BY RF-SCORE:    0.00 PKD
ROOT
HETATM    1  C   UNL     1     -10.850   7.238  67.034  1.00  0.00    -0.350 C  
HETATM    2  C   UNL     1      -9.342   7.333  67.155  1.00  0.00    -0.170 A  
HETATM    3  C   UNL     1      -8.667   8.471  67.680  1.00  0.00    -0.136 A  
HETATM    4 CL   UNL     1      -9.386   4.790  66.140  1.00  0.00    -0.142 Cl 
HETATM    5  C   UNL     1      -7.251   8.465  67.722  1.00  0.00    -0.088 A  
HETATM    6  C   UNL     1      -6.361   5.053  66.317  1.00  0.00    -0.036 C  
HETATM    7 CL   UNL     1      -6.348   9.802  68.397  1.00  0.00    -0.054 Cl 
HETATM    8  N   UNL     1      -6.517   7.350  67.258  1.00  0.00    -0.058 NA 
HETATM    9  C   UNL     1      -7.183   6.227  66.771  1.00  0.00    -0.074 A  
HETATM   10  O   UNL     1      -5.238   7.356  67.295  1.00  0.00    -0.022 OA 
HETATM   11  C   UNL     1      -8.583   6.221  66.729  1.00  0.00    -0.116 A  
ENDROOT
BRANCH   3  12
HETATM   12  C   UNL     1      -9.428   9.612  68.205  1.00  0.00    -0.132 A  
HETATM   13  O   UNL     1     -10.556  10.960  69.471  1.00  0.00    -0.229 OA 
HETATM   14  N   UNL     1     -10.117   9.635  69.359  1.00  0.00    -0.190 NA 
HETATM   15  C   UNL     1     -10.065  11.614  68.380  1.00  0.00    -0.206 A  
HETATM   16  N   UNL     1      -9.424  10.820  67.552  1.00  0.00    -0.154 NA 
BRANCH  15  17
HETATM   17  C   UNL     1     -10.179  13.070  68.312  1.00  0.00    -0.246 A  
HETATM   18  C   UNL     1      -9.192  13.925  67.786  1.00  0.00    -0.197 A  
HETATM   19  C   UNL     1      -9.406  15.324  67.759  1.00  0.00    -0.196 A  
HETATM   20  N   UNL     1      -8.365  16.200  67.218  1.00  0.00    -0.170 N  
HETATM   21  C   UNL     1     -10.601  15.872  68.243  1.00  0.00    -0.276 A  
HETATM   22  O   UNL     1     -10.931  17.203  68.273  1.00  0.00    -0.352 OA 
HETATM   23  O   UNL     1      -8.580  17.424  67.235  1.00  0.00    -0.207 OA 
HETATM   24  O   UNL     1      -7.333  15.675  66.778  1.00  0.00    -0.153 OA 
HETATM   25  C   UNL     1     -11.573  15.013  68.740  1.00  0.00    -0.335 A  
HETATM   26  H   UNL     1     -11.742  17.575  68.601  1.00  0.00     0.000 HD 
HETATM   27  C   UNL     1     -11.376  13.643  68.778  1.00  0.00    -0.326 A  
HETATM   28  O   UNL     1     -12.759  15.508  69.207  1.00  0.00    -0.524 OA 
HETATM   29  H   UNL     1     -13.423  14.921  69.548  1.00  0.00     0.000 HD 
ENDBRANCH  15  17
ENDBRANCH   3  12
TORSDOF 2
ENDMDL
MODEL      196
REMARK 921   NORMALIZED FREE ENERGY PREDICTED BY IDOCK:   -4.45 KCAL/MOL
REMARK 922        TOTAL FREE ENERGY PREDICTED BY IDOCK:   -5.56 KCAL/MOL
REMARK 923 INTER-LIGAND FREE ENERGY PREDICTED BY IDOCK:   -5.47 KCAL/MOL
REMARK 924 INTRA-LIGAND FREE ENERGY PREDICTED BY IDOCK:   -0.09 KCAL/MOL
REMARK 927      BINDING AFFINITY PREDICTED BY RF-SCORE:    0.00 PKD
ROOT
HETATM    1  C   UNL     1      -5.456  16.238  67.952  1.00  0.00    -0.132 C  
HETATM    2  C   UNL     1      -6.780  16.694  67.370  1.00  0.00    -0.199 A  
HETATM    3  C   UNL     1      -7.888  15.825  67.167  1.00  0.00    -0.247 A  
HETATM    4 CL   UNL     1      -5.584  19.158  67.325  1.00  0.00    -0.168 Cl 
HETATM    5  C   UNL     1      -9.070  16.352  66.590  1.00  0.00    -0.250 A  
HETATM    6  C   UNL     1      -8.223  20.016  66.081  1.00  0.00    -0.302 C  
HETATM    7 CL   UNL     1     -10.493  15.363  66.351  1.00  0.00    -0.295 Cl 
HETATM    8  N   UNL     1      -9.155  17.715  66.228  1.00  0.00    -0.442 NA 
HETATM    9  C   UNL     1      -8.076  18.568  66.455  1.00  0.00    -0.280 A  
HETATM   10  O   UNL     1     -10.225  18.180  65.702  1.00  0.00    -0.578 OA 
HETATM   11  C   UNL     1      -6.904  18.058  67.028  1.00  0.00    -0.188 A  
ENDROOT
BRANCH   3  12
HETATM   12  C   UNL     1      -7.819  14.419  67.584  1.00  0.00    -0.181 A  
HETATM   13  O   UNL     1      -7.704  12.591  68.741  1.00  0.00    -0.092 OA 
HETATM   14  N   UNL     1      -7.522  13.978  68.819  1.00  0.00    -0.127 NA 
HETATM   15  C   UNL     1      -8.119  12.335  67.469  1.00  0.00    -0.170 A  
HETATM   16  N   UNL     1      -8.146  13.409  66.712  1.00  0.00     0.134 NA 
BRANCH  15  17
HETATM   17  C   UNL     1      -8.593  10.994  67.131  1.00  0.00    -0.136 A  
HETATM   18  C   UNL     1      -7.903  10.088  66.304  1.00  0.00    -0.111 A  
HETATM   19  C   UNL     1      -8.446   8.807  66.046  1.00  0.00    -0.135 A  
HETATM   20  N   UNL     1      -7.720   7.879  65.175  1.00  0.00    -0.096 N  
HETATM   21  C   UNL     1      -9.666   8.421  66.617  1.00  0.00    -0.251 A  
HETATM   22  O   UNL     1     -10.299   7.216  66.448  1.00  0.00    -0.476 OA 
HETATM   23  O   UNL     1      -8.243   6.774  64.954  1.00  0.00    -0.134 OA 
HETATM   24  O   UNL     1      -6.633   8.248  64.710  1.00  0.00    -0.065 OA 
HETATM   25  C   UNL     1     -10.325   9.320  67.446  1.00  0.00    -0.263 A  
HETATM   26  H   UNL     1     -11.126   6.954  66.835  1.00  0.00     0.000 HD 
HETATM   27  C   UNL     1      -9.808  10.580  67.703  1.00  0.00    -0.192 A  
HETATM   28  O   UNL     1     -11.511   8.976  68.034  1.00  0.00    -0.095 OA 
HETATM   29  H   UNL     1     -11.962   9.591  68.601  1.00  0.00     0.000 HD 
ENDBRANCH  15  17
ENDBRANCH   3  12
TORSDOF 2
ENDMDL
MODEL      197
REMARK 921   NORMALIZED FREE ENERGY PREDICTED BY IDOCK:   -4.41 KCAL/MOL
REMARK 922        TOTAL FREE ENERGY PREDICTED BY IDOCK:   -5.52 KCAL/MOL
REMARK 923 INTER-LIGAND FREE ENERGY PREDICTED BY IDOCK:   -5.48 KCAL/MOL
REMARK 924 INTRA-LIGAND FREE ENERGY PREDICTED BY IDOCK:   -0.04 KCAL/MOL
REMARK 927      BINDING AFFINITY PREDICTED BY RF-SCORE:    0.00 PKD
ROOT
HETATM    1  C   UNL     1     -10.177  10.496  65.374  1.00  0.00    -0.340 C  
HETATM    2  C   UNL     1     -10.207  11.927  65.875  1.00  0.00    -0.270 A  
HETATM    3  C   UNL     1      -9.640  12.337  67.115  1.00  0.00    -0.200 A  
HETATM    4 CL   UNL     1     -11.469  12.431  63.497  1.00  0.00    -0.543 Cl 
HETATM    5  C   UNL     1      -9.749  13.696  67.498  1.00  0.00    -0.227 A  
HETATM    6  C   UNL     1     -11.585  15.272  64.574  1.00  0.00    -0.312 C  
HETATM    7 CL   UNL     1      -9.038  14.290  68.982  1.00  0.00    -0.021 Cl 
HETATM    8  N   UNL     1     -10.400  14.634  66.666  1.00  0.00    -0.269 NA 
HETATM    9  C   UNL     1     -10.928  14.234  65.439  1.00  0.00    -0.333 A  
HETATM   10  O   UNL     1     -10.498  15.859  67.023  1.00  0.00    -0.297 OA 
HETATM   11  C   UNL     1     -10.823  12.892  65.049  1.00  0.00    -0.299 A  
ENDROOT
BRANCH   3  12
HETATM   12  C   UNL     1      -8.923  11.374  67.961  1.00  0.00    -0.163 A  
HETATM   13  O   UNL     1      -7.497  10.415  69.279  1.00  0.00    -0.094 OA 
HETATM   14  N   UNL     1      -7.679  11.526  68.445  1.00  0.00    -0.122 NA 
HETATM   15  C   UNL     1      -8.665   9.713  69.234  1.00  0.00    -0.159 A  
HETATM   16  N   UNL     1      -9.539  10.227  68.398  1.00  0.00    -0.146 NA 
BRANCH  15  17
HETATM   17  C   UNL     1      -8.864   8.603  70.164  1.00  0.00    -0.144 A  
HETATM   18  C   UNL     1      -7.972   7.526  70.326  1.00  0.00    -0.103 A  
HETATM   19  C   UNL     1      -8.256   6.504  71.262  1.00  0.00    -0.121 A  
HETATM   20  N   UNL     1      -7.323   5.385  71.411  1.00  0.00    -0.078 N  
HETATM   21  C   UNL     1      -9.417   6.556  72.045  1.00  0.00    -0.150 A  
HETATM   22  O   UNL     1      -9.807   5.635  72.984  1.00  0.00    -0.164 OA 
HETATM   23  O   UNL     1      -7.620   4.496  72.226  1.00  0.00    -0.078 OA 
HETATM   24  O   UNL     1      -6.296   5.388  70.719  1.00  0.00    -0.028 OA 
HETATM   25  C   UNL     1     -10.277   7.636  71.887  1.00  0.00    -0.193 A  
HETATM   26  H   UNL     1     -10.594   5.671  73.515  1.00  0.00     0.000 HD 
HETATM   27  C   UNL     1     -10.015   8.641  70.970  1.00  0.00    -0.272 A  
HETATM   28  O   UNL     1     -11.413   7.731  72.643  1.00  0.00    -0.354 OA 
HETATM   29  H   UNL     1     -12.001   8.469  72.535  1.00  0.00     0.000 HD 
ENDBRANCH  15  17
ENDBRANCH   3  12
TORSDOF 2
ENDMDL
MODEL      198
REMARK 921   NORMALIZED FREE ENERGY PREDICTED BY IDOCK:   -4.40 KCAL/MOL
REMARK 922        TOTAL FREE ENERGY PREDICTED BY IDOCK:   -5.50 KCAL/MOL
REMARK 923 INTER-LIGAND FREE ENERGY PREDICTED BY IDOCK:   -5.09 KCAL/MOL
REMARK 924 INTRA-LIGAND FREE ENERGY PREDICTED BY IDOCK:   -0.41 KCAL/MOL
REMARK 927      BINDING AFFINITY PREDICTED BY RF-SCORE:    0.00 PKD
ROOT
HETATM    1  C   UNL     1      -9.510   6.627  67.815  1.00  0.00    -0.121 C  
HETATM    2  C   UNL     1      -8.885   6.681  66.434  1.00  0.00    -0.151 A  
HETATM    3  C   UNL     1      -8.391   7.878  65.843  1.00  0.00    -0.134 A  
HETATM    4 CL   UNL     1      -9.326   3.978  66.443  1.00  0.00    -0.170 Cl 
HETATM    5  C   UNL     1      -7.852   7.818  64.535  1.00  0.00    -0.138 A  
HETATM    6  C   UNL     1      -8.147   4.141  63.644  1.00  0.00    -0.091 C  
HETATM    7 CL   UNL     1      -7.180   9.233  63.756  1.00  0.00    -0.093 Cl 
HETATM    8  N   UNL     1      -7.796   6.596  63.828  1.00  0.00    -0.117 NA 
HETATM    9  C   UNL     1      -8.254   5.423  64.423  1.00  0.00    -0.133 A  
HETATM   10  O   UNL     1      -7.311   6.554  62.644  1.00  0.00    -0.054 OA 
HETATM   11  C   UNL     1      -8.787   5.469  65.718  1.00  0.00    -0.153 A  
ENDROOT
BRANCH   3  12
HETATM   12  C   UNL     1      -8.407   9.141  66.592  1.00  0.00    -0.122 A  
HETATM   13  O   UNL     1      -7.845  10.982  67.584  1.00  0.00    -0.110 OA 
HETATM   14  N   UNL     1      -7.327   9.791  67.060  1.00  0.00    -0.091 NA 
HETATM   15  C   UNL     1      -9.188  10.944  67.357  1.00  0.00    -0.147 A  
HETATM   16  N   UNL     1      -9.583   9.815  66.810  1.00  0.00    -0.169 NA 
BRANCH  15  17
HETATM   17  C   UNL     1      -9.988  12.142  67.606  1.00  0.00    -0.199 A  
HETATM   18  C   UNL     1     -10.718  12.384  68.785  1.00  0.00    -0.242 A  
HETATM   19  C   UNL     1     -11.454  13.584  68.929  1.00  0.00    -0.306 A  
HETATM   20  N   UNL     1     -12.217  13.816  70.158  1.00  0.00    -0.350 N  
HETATM   21  C   UNL     1     -11.457  14.546  67.911  1.00  0.00    -0.325 A  
HETATM   22  O   UNL     1     -12.126  15.744  67.926  1.00  0.00    -0.192 OA 
HETATM   23  O   UNL     1     -12.870  14.870  70.236  1.00  0.00    -0.305 OA 
HETATM   24  O   UNL     1     -12.168  12.953  71.045  1.00  0.00    -0.309 OA 
HETATM   25  C   UNL     1     -10.716  14.300  66.762  1.00  0.00    -0.287 A  
HETATM   26  H   UNL     1     -12.128  16.397  67.236  1.00  0.00     0.000 HD 
HETATM   27  C   UNL     1      -9.995  13.128  66.604  1.00  0.00    -0.270 A  
HETATM   28  O   UNL     1     -10.682  15.221  65.752  1.00  0.00    -0.317 OA 
HETATM   29  H   UNL     1     -10.175  15.053  64.966  1.00  0.00     0.000 HD 
ENDBRANCH  15  17
ENDBRANCH   3  12
TORSDOF 2
ENDMDL
MODEL      199
REMARK 921   NORMALIZED FREE ENERGY PREDICTED BY IDOCK:   -4.32 KCAL/MOL
REMARK 922        TOTAL FREE ENERGY PREDICTED BY IDOCK:   -5.42 KCAL/MOL
REMARK 923 INTER-LIGAND FREE ENERGY PREDICTED BY IDOCK:   -4.86 KCAL/MOL
REMARK 924 INTRA-LIGAND FREE ENERGY PREDICTED BY IDOCK:   -0.56 KCAL/MOL
REMARK 927      BINDING AFFINITY PREDICTED BY RF-SCORE:    0.00 PKD
ROOT
HETATM    1  C   UNL     1      -9.739  11.996  64.930  1.00  0.00    -0.128 C  
HETATM    2  C   UNL     1     -10.280  12.171  66.336  1.00  0.00    -0.245 A  
HETATM    3  C   UNL     1     -10.127  11.196  67.362  1.00  0.00    -0.213 A  
HETATM    4 CL   UNL     1     -11.103  14.613  65.408  1.00  0.00    -0.331 Cl 
HETATM    5  C   UNL     1     -10.695  11.452  68.634  1.00  0.00    -0.206 A  
HETATM    6  C   UNL     1     -12.246  14.890  68.213  1.00  0.00    -0.015 C  
HETATM    7 CL   UNL     1     -10.512  10.328  69.962  1.00  0.00    -0.314 Cl 
HETATM    8  N   UNL     1     -11.396  12.652  68.887  1.00  0.00    -0.278 NA 
HETATM    9  C   UNL     1     -11.518  13.615  67.888  1.00  0.00    -0.314 A  
HETATM   10  O   UNL     1     -11.911  12.871  70.038  1.00  0.00    -0.326 OA 
HETATM   11  C   UNL     1     -10.956  13.375  66.627  1.00  0.00    -0.287 A  
ENDROOT
BRANCH   3  12
HETATM   12  C   UNL     1      -9.361   9.968  67.115  1.00  0.00    -0.149 A  
HETATM   13  O   UNL     1      -7.856   8.410  67.138  1.00  0.00    -0.098 OA 
HETATM   14  N   UNL     1      -8.087   9.748  67.484  1.00  0.00    -0.113 NA 
HETATM   15  C   UNL     1      -9.026   7.947  66.615  1.00  0.00    -0.151 A  
HETATM   16  N   UNL     1      -9.951   8.877  66.525  1.00  0.00    -0.273 NA 
BRANCH  15  17
HETATM   17  C   UNL     1      -9.170   6.518  66.346  1.00  0.00    -0.178 A  
HETATM   18  C   UNL     1      -9.117   5.937  65.064  1.00  0.00     0.243 A  
HETATM   19  C   UNL     1      -9.259   4.537  64.914  1.00  0.00    -0.156 A  
HETATM   20  N   UNL     1      -9.212   3.949  63.573  1.00  0.00    -0.120 N  
HETATM   21  C   UNL     1      -9.443   3.714  66.033  1.00  0.00    -0.160 A  
HETATM   22  O   UNL     1      -9.593   2.350  66.024  1.00  0.00    -0.367 OA 
HETATM   23  O   UNL     1      -9.366   2.719  63.481  1.00  0.00    -0.095 OA 
HETATM   24  O   UNL     1      -9.023   4.707  62.612  1.00  0.00    -0.123 OA 
HETATM   25  C   UNL     1      -9.473   4.301  67.291  1.00  0.00    -0.181 A  
HETATM   26  H   UNL     1      -9.717   1.792  66.783  1.00  0.00     0.000 HD 
HETATM   27  C   UNL     1      -9.341   5.670  67.454  1.00  0.00    -0.113 A  
HETATM   28  O   UNL     1      -9.635   3.530  68.410  1.00  0.00    -0.164 OA 
HETATM   29  H   UNL     1      -9.656   3.932  69.270  1.00  0.00     0.000 HD 
ENDBRANCH  15  17
ENDBRANCH   3  12
TORSDOF 2
ENDMDL
MODEL      200
REMARK 921   NORMALIZED FREE ENERGY PREDICTED BY IDOCK:   -4.22 KCAL/MOL
REMARK 922        TOTAL FREE ENERGY PREDICTED BY IDOCK:   -5.31 KCAL/MOL
REMARK 923 INTER-LIGAND FREE ENERGY PREDICTED BY IDOCK:   -4.78 KCAL/MOL
REMARK 924 INTRA-LIGAND FREE ENERGY PREDICTED BY IDOCK:   -0.53 KCAL/MOL
REMARK 927      BINDING AFFINITY PREDICTED BY RF-SCORE:    0.00 PKD
ROOT
HETATM    1  C   UNL     1      -6.328   8.808  70.558  1.00  0.00    -0.038 C  
HETATM    2  C   UNL     1      -7.588   8.110  70.081  1.00  0.00    -0.077 A  
HETATM    3  C   UNL     1      -8.432   8.629  69.059  1.00  0.00    -0.124 A  
HETATM    4 CL   UNL     1      -6.869   6.189  71.895  1.00  0.00    -0.064 Cl 
HETATM    5  C   UNL     1      -9.600   7.908  68.709  1.00  0.00    -0.152 A  
HETATM    6  C   UNL     1      -9.446   4.865  70.972  1.00  0.00    -0.225 C  
HETATM    7 CL   UNL     1     -10.664   8.451  67.431  1.00  0.00    -0.300 Cl 
HETATM    8  N   UNL     1      -9.922   6.693  69.354  1.00  0.00    -0.154 NA 
HETATM    9  C   UNL     1      -9.077   6.176  70.334  1.00  0.00    -0.153 A  
HETATM   10  O   UNL     1     -10.983   6.052  69.035  1.00  0.00    -0.321 OA 
HETATM   11  C   UNL     1      -7.918   6.879  70.685  1.00  0.00    -0.109 A  
ENDROOT
BRANCH   3  12
HETATM   12  C   UNL     1      -8.076   9.868  68.355  1.00  0.00    -0.101 A  
HETATM   13  O   UNL     1      -7.513  11.324  66.853  1.00  0.00    -0.131 OA 
HETATM   14  N   UNL     1      -7.561   9.949  67.116  1.00  0.00    -0.092 NA 
HETATM   15  C   UNL     1      -8.030  11.938  67.955  1.00  0.00    -0.147 A  
HETATM   16  N   UNL     1      -8.329  11.094  68.918  1.00  0.00    -0.133 NA 
BRANCH  15  17
HETATM   17  C   UNL     1      -8.306  13.372  67.907  1.00  0.00    -0.166 A  
HETATM   18  C   UNL     1      -9.486  13.975  68.383  1.00  0.00    -0.213 A  
HETATM   19  C   UNL     1      -9.651  15.377  68.297  1.00  0.00    -0.205 A  
HETATM   20  N   UNL     1     -10.890  15.988  68.787  1.00  0.00    -0.282 N  
HETATM   21  C   UNL     1      -8.643  16.182  67.750  1.00  0.00    -0.167 A  
HETATM   22  O   UNL     1      -8.678  17.547  67.610  1.00  0.00    -0.220 OA 
HETATM   23  O   UNL     1     -11.006  17.219  68.671  1.00  0.00    -0.260 OA 
HETATM   24  O   UNL     1     -11.746  15.245  69.285  1.00  0.00    -0.301 OA 
HETATM   25  C   UNL     1      -7.477  15.574  67.304  1.00  0.00    -0.223 A  
HETATM   26  H   UNL     1      -7.994  18.092  67.240  1.00  0.00     0.000 HD 
HETATM   27  C   UNL     1      -7.303  14.202  67.376  1.00  0.00    -0.143 A  
HETATM   28  O   UNL     1      -6.463  16.327  66.778  1.00  0.00    -0.280 OA 
HETATM   29  H   UNL     1      -5.665  15.911  66.472  1.00  0.00     0.000 HD 
ENDBRANCH  15  17
ENDBRANCH   3  12
TORSDOF 2
ENDMDL
MODEL      201
REMARK 921   NORMALIZED FREE ENERGY PREDICTED BY IDOCK:   -4.21 KCAL/MOL
REMARK 922        TOTAL FREE ENERGY PREDICTED BY IDOCK:   -5.29 KCAL/MOL
REMARK 923 INTER-LIGAND FREE ENERGY PREDICTED BY IDOCK:   -4.72 KCAL/MOL
REMARK 924 INTRA-LIGAND FREE ENERGY PREDICTED BY IDOCK:   -0.57 KCAL/MOL
REMARK 927      BINDING AFFINITY PREDICTED BY RF-SCORE:    0.00 PKD
ROOT
HETATM    1  C   UNL     1      -7.856   7.235  69.879  1.00  0.00    -0.112 C  
HETATM    2  C   UNL     1      -8.054   6.679  68.482  1.00  0.00    -0.119 A  
HETATM    3  C   UNL     1      -8.091   7.491  67.313  1.00  0.00    -0.115 A  
HETATM    4 CL   UNL     1      -8.095   4.258  69.759  1.00  0.00    -0.059 Cl 
HETATM    5  C   UNL     1      -8.309   6.870  66.059  1.00  0.00    -0.134 A  
HETATM    6  C   UNL     1      -8.577   3.191  66.953  1.00  0.00    -0.120 C  
HETATM    7 CL   UNL     1      -8.320   7.788  64.570  1.00  0.00    -0.060 Cl 
HETATM    8  N   UNL     1      -8.482   5.471  65.963  1.00  0.00    -0.121 NA 
HETATM    9  C   UNL     1      -8.417   4.678  67.107  1.00  0.00    -0.105 A  
HETATM   10  O   UNL     1      -8.685   4.920  64.826  1.00  0.00    -0.148 OA 
HETATM   11  C   UNL     1      -8.198   5.281  68.352  1.00  0.00    -0.090 A  
ENDROOT
BRANCH   3  12
HETATM   12  C   UNL     1      -7.866   8.939  67.404  1.00  0.00    -0.097 A  
HETATM   13  O   UNL     1      -6.972  10.912  67.435  1.00  0.00    -0.078 OA 
HETATM   14  N   UNL     1      -6.670   9.545  67.502  1.00  0.00    -0.067 NA 
HETATM   15  C   UNL     1      -8.324  10.994  67.278  1.00  0.00    -0.125 A  
HETATM   16  N   UNL     1      -8.915   9.821  67.315  1.00  0.00    -0.135 NA 
BRANCH  15  17
HETATM   17  C   UNL     1      -8.927  12.289  66.971  1.00  0.00    -0.204 A  
HETATM   18  C   UNL     1      -9.808  12.525  65.898  1.00  0.00    -0.257 A  
HETATM   19  C   UNL     1     -10.345  13.818  65.693  1.00  0.00    -0.311 A  
HETATM   20  N   UNL     1     -11.253  14.049  64.566  1.00  0.00    -0.369 N  
HETATM   21  C   UNL     1     -10.018  14.872  66.555  1.00  0.00    -0.265 A  
HETATM   22  O   UNL     1     -10.468  16.165  66.467  1.00  0.00    -0.299 OA 
HETATM   23  O   UNL     1     -11.683  15.203  64.405  1.00  0.00    -0.382 OA 
HETATM   24  O   UNL     1     -11.537  13.086  63.841  1.00  0.00    -0.399 OA 
HETATM   25  C   UNL     1      -9.163  14.618  67.620  1.00  0.00    -0.193 A  
HETATM   26  H   UNL     1     -10.247  16.880  67.053  1.00  0.00     0.000 HD 
HETATM   27  C   UNL     1      -8.625  13.359  67.831  1.00  0.00    -0.184 A  
HETATM   28  O   UNL     1      -8.832  15.616  68.494  1.00  0.00    -0.174 OA 
HETATM   29  H   UNL     1      -8.247  15.443  69.222  1.00  0.00     0.000 HD 
ENDBRANCH  15  17
ENDBRANCH   3  12
TORSDOF 2
ENDMDL
MODEL      202
REMARK 921   NORMALIZED FREE ENERGY PREDICTED BY IDOCK:   -4.16 KCAL/MOL
REMARK 922        TOTAL FREE ENERGY PREDICTED BY IDOCK:   -5.23 KCAL/MOL
REMARK 923 INTER-LIGAND FREE ENERGY PREDICTED BY IDOCK:   -4.67 KCAL/MOL
REMARK 924 INTRA-LIGAND FREE ENERGY PREDICTED BY IDOCK:   -0.57 KCAL/MOL
REMARK 927      BINDING AFFINITY PREDICTED BY RF-SCORE:    0.00 PKD
ROOT
HETATM    1  C   UNL     1      -6.844   5.340  67.779  1.00  0.00    -0.060 C  
HETATM    2  C   UNL     1      -7.704   4.609  66.767  1.00  0.00    -0.095 A  
HETATM    3  C   UNL     1      -9.072   4.923  66.528  1.00  0.00    -0.124 A  
HETATM    4 CL   UNL     1      -5.408   3.208  66.254  1.00  0.00    -0.012 Cl 
HETATM    5  C   UNL     1      -9.791   4.156  65.578  1.00  0.00    -0.207 A  
HETATM    6  C   UNL     1      -7.189   1.708  64.297  1.00  0.00    -0.051 C  
HETATM    7 CL   UNL     1     -11.460   4.509  65.190  1.00  0.00     0.343 Cl 
HETATM    8  N   UNL     1      -9.166   3.103  64.874  1.00  0.00    -0.143 NA 
HETATM    9  C   UNL     1      -7.819   2.818  65.091  1.00  0.00    -0.081 A  
HETATM   10  O   UNL     1      -9.825   2.413  64.022  1.00  0.00    -0.140 OA 
HETATM   11  C   UNL     1      -7.098   3.572  66.026  1.00  0.00    -0.063 A  
ENDROOT
BRANCH   3  12
HETATM   12  C   UNL     1      -9.712   6.046  67.225  1.00  0.00    -0.125 A  
HETATM   13  O   UNL     1     -10.578   7.347  68.724  1.00  0.00    -0.206 OA 
HETATM   14  N   UNL     1     -10.185   6.024  68.482  1.00  0.00    -0.167 NA 
HETATM   15  C   UNL     1     -10.278   8.044  67.592  1.00  0.00    -0.228 A  
HETATM   16  N   UNL     1      -9.805   7.281  66.631  1.00  0.00    -0.205 NA 
BRANCH  15  17
HETATM   17  C   UNL     1     -10.380   9.502  67.604  1.00  0.00    -0.299 A  
HETATM   18  C   UNL     1     -10.952  10.254  68.648  1.00  0.00    -0.289 A  
HETATM   19  C   UNL     1     -10.994  11.666  68.565  1.00  0.00    -0.220 A  
HETATM   20  N   UNL     1     -11.602  12.433  69.655  1.00  0.00    -0.281 N  
HETATM   21  C   UNL     1     -10.460  12.331  67.454  1.00  0.00    -0.210 A  
HETATM   22  O   UNL     1     -10.437  13.688  67.253  1.00  0.00    -0.257 OA 
HETATM   23  O   UNL     1     -11.642  13.668  69.534  1.00  0.00    -0.279 OA 
HETATM   24  O   UNL     1     -12.040  11.809  70.631  1.00  0.00    -0.368 OA 
HETATM   25  C   UNL     1      -9.882  11.576  66.442  1.00  0.00    -0.205 A  
HETATM   26  H   UNL     1     -10.075  14.140  66.499  1.00  0.00     0.000 HD 
HETATM   27  C   UNL     1      -9.838  10.193  66.506  1.00  0.00    -0.268 A  
HETATM   28  O   UNL     1      -9.336  12.189  65.348  1.00  0.00    -0.427 OA 
HETATM   29  H   UNL     1      -8.941  11.673  64.656  1.00  0.00     0.000 HD 
ENDBRANCH  15  17
ENDBRANCH   3  12
TORSDOF 2
ENDMDL
MODEL      203
REMARK 921   NORMALIZED FREE ENERGY PREDICTED BY IDOCK:   -4.12 KCAL/MOL
REMARK 922        TOTAL FREE ENERGY PREDICTED BY IDOCK:   -5.19 KCAL/MOL
REMARK 923 INTER-LIGAND FREE ENERGY PREDICTED BY IDOCK:   -4.96 KCAL/MOL
REMARK 924 INTRA-LIGAND FREE ENERGY PREDICTED BY IDOCK:   -0.23 KCAL/MOL
REMARK 927      BINDING AFFINITY PREDICTED BY RF-SCORE:    0.00 PKD
ROOT
HETATM    1  C   UNL     1     -12.238  11.328  70.132  1.00  0.00    -0.410 C  
HETATM    2  C   UNL     1     -11.421  10.842  68.951  1.00  0.00    -0.362 A  
HETATM    3  C   UNL     1     -10.776   9.573  68.912  1.00  0.00    -0.220 A  
HETATM    4 CL   UNL     1     -12.146  13.233  67.831  1.00  0.00    -0.335 Cl 
HETATM    5  C   UNL     1     -10.014   9.232  67.768  1.00  0.00    -0.190 A  
HETATM    6  C   UNL     1     -10.428  12.260  65.518  1.00  0.00    -0.296 C  
HETATM    7 CL   UNL     1      -9.231   7.674  67.620  1.00  0.00    -0.139 Cl 
HETATM    8  N   UNL     1      -9.898  10.125  66.680  1.00  0.00    -0.191 NA 
HETATM    9  C   UNL     1     -10.555  11.354  66.711  1.00  0.00    -0.255 A  
HETATM   10  O   UNL     1      -9.203   9.809  65.653  1.00  0.00    -0.168 OA 
HETATM   11  C   UNL     1     -11.314  11.701  67.836  1.00  0.00    -0.299 A  
ENDROOT
BRANCH   3  12
HETATM   12  C   UNL     1     -10.931   8.624  70.021  1.00  0.00    -0.203 A  
HETATM   13  O   UNL     1     -11.709   7.176  71.432  1.00  0.00    -0.267 OA 
HETATM   14  N   UNL     1     -12.092   8.104  70.455  1.00  0.00     0.037 NA 
HETATM   15  C   UNL     1     -10.347   7.210  71.472  1.00  0.00    -0.202 A  
HETATM   16  N   UNL     1      -9.834   8.119  70.675  1.00  0.00    -0.181 NA 
BRANCH  15  17
HETATM   17  C   UNL     1      -9.632   6.201  72.253  1.00  0.00    -0.162 A  
HETATM   18  C   UNL     1     -10.172   4.959  72.638  1.00  0.00    -0.238 A  
HETATM   19  C   UNL     1      -9.390   4.048  73.387  1.00  0.00    -0.107 A  
HETATM   20  N   UNL     1      -9.970   2.764  73.789  1.00  0.00    -0.100 N  
HETATM   21  C   UNL     1      -8.073   4.364  73.744  1.00  0.00    -0.097 A  
HETATM   22  O   UNL     1      -7.213   3.573  74.465  1.00  0.00    -0.050 OA 
HETATM   23  O   UNL     1      -9.260   2.003  74.467  1.00  0.00    -0.070 OA 
HETATM   24  O   UNL     1     -11.129   2.512  73.433  1.00  0.00    -0.183 OA 
HETATM   25  C   UNL     1      -7.549   5.585  73.339  1.00  0.00    -0.096 A  
HETATM   26  H   UNL     1      -6.320   3.787  74.706  1.00  0.00     0.000 HD 
HETATM   27  C   UNL     1      -8.304   6.490  72.610  1.00  0.00    -0.117 A  
HETATM   28  O   UNL     1      -6.262   5.924  73.655  1.00  0.00    -0.060 OA 
HETATM   29  H   UNL     1      -5.904   6.759  73.378  1.00  0.00     0.000 HD 
ENDBRANCH  15  17
ENDBRANCH   3  12
TORSDOF 2
ENDMDL
MODEL      204
REMARK 921   NORMALIZED FREE ENERGY PREDICTED BY IDOCK:   -4.04 KCAL/MOL
REMARK 922        TOTAL FREE ENERGY PREDICTED BY IDOCK:   -5.10 KCAL/MOL
REMARK 923 INTER-LIGAND FREE ENERGY PREDICTED BY IDOCK:   -4.54 KCAL/MOL
REMARK 924 INTRA-LIGAND FREE ENERGY PREDICTED BY IDOCK:   -0.56 KCAL/MOL
REMARK 927      BINDING AFFINITY PREDICTED BY RF-SCORE:    0.00 PKD
ROOT
HETATM    1  C   UNL     1      -9.527   6.857  67.908  1.00  0.00    -0.120 C  
HETATM    2  C   UNL     1      -8.883   6.904  66.536  1.00  0.00    -0.148 A  
HETATM    3  C   UNL     1      -8.375   8.097  65.949  1.00  0.00    -0.134 A  
HETATM    4 CL   UNL     1      -9.337   4.204  66.544  1.00  0.00    -0.166 Cl 
HETATM    5  C   UNL     1      -7.818   8.033  64.648  1.00  0.00    -0.140 A  
HETATM    6  C   UNL     1      -8.119   4.355  63.761  1.00  0.00    -0.095 C  
HETATM    7 CL   UNL     1      -7.128   9.442  63.875  1.00  0.00    -0.096 Cl 
HETATM    8  N   UNL     1      -7.758   6.809  63.945  1.00  0.00    -0.108 NA 
HETATM    9  C   UNL     1      -8.231   5.638  64.536  1.00  0.00    -0.125 A  
HETATM   10  O   UNL     1      -7.258   6.762  62.768  1.00  0.00    -0.054 OA 
HETATM   11  C   UNL     1      -8.781   5.690  65.823  1.00  0.00    -0.150 A  
ENDROOT
BRANCH   3  12
HETATM   12  C   UNL     1      -8.394   9.362  66.695  1.00  0.00    -0.119 A  
HETATM   13  O   UNL     1      -7.882  11.043  67.961  1.00  0.00    -0.105 OA 
HETATM   14  N   UNL     1      -7.521   9.725  67.650  1.00  0.00    -0.090 NA 
HETATM   15  C   UNL     1      -8.926  11.353  67.142  1.00  0.00    -0.162 A  
HETATM   16  N   UNL     1      -9.310  10.340  66.397  1.00  0.00    -0.161 NA 
BRANCH  15  17
HETATM   17  C   UNL     1      -9.397  12.735  67.082  1.00  0.00    -0.216 A  
HETATM   18  C   UNL     1      -8.585  13.866  67.290  1.00  0.00    -0.221 A  
HETATM   19  C   UNL     1      -9.141  15.164  67.200  1.00  0.00    -0.211 A  
HETATM   20  N   UNL     1      -8.285  16.331  67.430  1.00  0.00    -0.154 N  
HETATM   21  C   UNL     1     -10.496  15.341  66.894  1.00  0.00    -0.289 A  
HETATM   22  O   UNL     1     -11.155  16.539  66.778  1.00  0.00    -0.037 OA 
HETATM   23  O   UNL     1      -8.815  17.452  67.366  1.00  0.00    -0.223 OA 
HETATM   24  O   UNL     1      -7.086  16.134  67.673  1.00  0.00    -0.124 OA 
HETATM   25  C   UNL     1     -11.279  14.215  66.672  1.00  0.00    -0.325 A  
HETATM   26  H   UNL     1     -12.074  16.659  66.569  1.00  0.00     0.000 HD 
HETATM   27  C   UNL     1     -10.751  12.938  66.762  1.00  0.00    -0.276 A  
HETATM   28  O   UNL     1     -12.603  14.346  66.356  1.00  0.00    -0.496 OA 
HETATM   29  H   UNL     1     -13.139  13.576  66.204  1.00  0.00     0.000 HD 
ENDBRANCH  15  17
ENDBRANCH   3  12
TORSDOF 2
ENDMDL
MODEL      205
REMARK 921   NORMALIZED FREE ENERGY PREDICTED BY IDOCK:   -3.96 KCAL/MOL
REMARK 922        TOTAL FREE ENERGY PREDICTED BY IDOCK:   -5.01 KCAL/MOL
REMARK 923 INTER-LIGAND FREE ENERGY PREDICTED BY IDOCK:   -4.47 KCAL/MOL
REMARK 924 INTRA-LIGAND FREE ENERGY PREDICTED BY IDOCK:   -0.54 KCAL/MOL
REMARK 927      BINDING AFFINITY PREDICTED BY RF-SCORE:    0.00 PKD
ROOT
HETATM    1  C   UNL     1      -7.358   7.937  70.145  1.00  0.00    -0.070 C  
HETATM    2  C   UNL     1      -8.146   7.060  69.191  1.00  0.00    -0.121 A  
HETATM    3  C   UNL     1      -9.374   7.460  68.592  1.00  0.00    -0.139 A  
HETATM    4 CL   UNL     1      -6.082   5.299  69.556  1.00  0.00    -0.020 Cl 
HETATM    5  C   UNL     1     -10.042   6.550  67.737  1.00  0.00    -0.148 A  
HETATM    6  C   UNL     1      -7.735   3.537  67.709  1.00  0.00    -0.069 C  
HETATM    7 CL   UNL     1     -11.530   6.981  66.923  1.00  0.00     0.246 Cl 
HETATM    8  N   UNL     1      -9.502   5.272  67.474  1.00  0.00    -0.120 NA 
HETATM    9  C   UNL     1      -8.286   4.896  68.041  1.00  0.00    -0.096 A  
HETATM   10  O   UNL     1     -10.116   4.454  66.704  1.00  0.00    -0.230 OA 
HETATM   11  C   UNL     1      -7.614   5.789  68.886  1.00  0.00    -0.089 A  
ENDROOT
BRANCH   3  12
HETATM   12  C   UNL     1      -9.915   8.805  68.827  1.00  0.00    -0.185 A  
HETATM   13  O   UNL     1     -10.770  10.580  69.728  1.00  0.00    -0.258 OA 
HETATM   14  N   UNL     1     -10.572   9.207  69.928  1.00  0.00    -0.223 NA 
HETATM   15  C   UNL     1     -10.187  10.875  68.532  1.00  0.00    -0.185 A  
HETATM   16  N   UNL     1      -9.708   9.815  67.920  1.00  0.00    -0.143 NA 
BRANCH  15  17
HETATM   17  C   UNL     1     -10.044  12.275  68.136  1.00  0.00    -0.211 A  
HETATM   18  C   UNL     1      -8.814  12.949  68.012  1.00  0.00    -0.195 A  
HETATM   19  C   UNL     1      -8.786  14.306  67.612  1.00  0.00    -0.196 A  
HETATM   20  N   UNL     1      -7.499  14.996  67.499  1.00  0.00    -0.186 N  
HETATM   21  C   UNL     1      -9.975  14.990  67.325  1.00  0.00    -0.233 A  
HETATM   22  O   UNL     1     -10.084  16.299  66.930  1.00  0.00    -0.263 OA 
HETATM   23  O   UNL     1      -7.518  16.193  67.169  1.00  0.00    -0.169 OA 
HETATM   24  O   UNL     1      -6.470  14.349  67.737  1.00  0.00    -0.154 OA 
HETATM   25  C   UNL     1     -11.178  14.305  67.433  1.00  0.00    -0.316 A  
HETATM   26  H   UNL     1     -10.890  16.763  66.734  1.00  0.00     0.000 HD 
HETATM   27  C   UNL     1     -11.222  12.978  67.828  1.00  0.00    -0.313 A  
HETATM   28  O   UNL     1     -12.359  14.933  67.146  1.00  0.00    -0.383 OA 
HETATM   29  H   UNL     1     -13.182  14.464  67.220  1.00  0.00     0.000 HD 
ENDBRANCH  15  17
ENDBRANCH   3  12
TORSDOF 2
ENDMDL
MODEL      206
REMARK 921   NORMALIZED FREE ENERGY PREDICTED BY IDOCK:   -3.96 KCAL/MOL
REMARK 922        TOTAL FREE ENERGY PREDICTED BY IDOCK:   -5.01 KCAL/MOL
REMARK 923 INTER-LIGAND FREE ENERGY PREDICTED BY IDOCK:   -5.57 KCAL/MOL
REMARK 924 INTRA-LIGAND FREE ENERGY PREDICTED BY IDOCK:    0.56 KCAL/MOL
REMARK 927      BINDING AFFINITY PREDICTED BY RF-SCORE:    0.00 PKD
ROOT
HETATM    1  C   UNL     1      -8.570   6.350  68.784  1.00  0.00    -0.123 C  
HETATM    2  C   UNL     1      -8.724   5.324  67.678  1.00  0.00    -0.106 A  
HETATM    3  C   UNL     1      -8.885   5.668  66.306  1.00  0.00    -0.137 A  
HETATM    4 CL   UNL     1      -8.435   3.511  69.709  1.00  0.00    -0.081 Cl 
HETATM    5  C   UNL     1      -9.049   4.628  65.358  1.00  0.00    -0.149 A  
HETATM    6  C   UNL     1      -8.834   1.486  67.476  1.00  0.00    -0.138 C  
HETATM    7 CL   UNL     1      -9.204   4.963  63.648  1.00  0.00     0.025 Cl 
HETATM    8  N   UNL     1      -9.046   3.274  65.759  1.00  0.00    -0.149 NA 
HETATM    9  C   UNL     1      -8.860   2.941  67.100  1.00  0.00    -0.144 A  
HETATM   10  O   UNL     1      -9.200   2.342  64.896  1.00  0.00    -0.135 OA 
HETATM   11  C   UNL     1      -8.694   3.961  68.045  1.00  0.00    -0.102 A  
ENDROOT
BRANCH   3  12
HETATM   12  C   UNL     1      -8.843   7.072  65.880  1.00  0.00    -0.103 A  
HETATM   13  O   UNL     1      -8.680   8.895  64.720  1.00  0.00    -0.179 OA 
HETATM   14  N   UNL     1      -8.408   7.521  64.690  1.00  0.00    -0.044 NA 
HETATM   15  C   UNL     1      -9.278   9.135  65.922  1.00  0.00    -0.227 A  
HETATM   16  N   UNL     1      -9.343   8.067  66.684  1.00  0.00    -0.184 NA 
BRANCH  15  17
HETATM   17  C   UNL     1      -9.871  10.448  66.172  1.00  0.00    -0.278 A  
HETATM   18  C   UNL     1     -10.710  11.130  65.271  1.00  0.00    -0.271 A  
HETATM   19  C   UNL     1     -11.240  12.396  65.615  1.00  0.00    -0.322 A  
HETATM   20  N   UNL     1     -12.104  13.098  64.662  1.00  0.00    -0.386 N  
HETATM   21  C   UNL     1     -10.947  12.980  66.855  1.00  0.00    -0.265 A  
HETATM   22  O   UNL     1     -11.394  14.195  67.308  1.00  0.00    -0.303 OA 
HETATM   23  O   UNL     1     -12.529  14.218  64.992  1.00  0.00    -0.458 OA 
HETATM   24  O   UNL     1     -12.360  12.538  63.588  1.00  0.00    -0.525 OA 
HETATM   25  C   UNL     1     -10.132  12.284  67.740  1.00  0.00    -0.201 A  
HETATM   26  H   UNL     1     -11.195  14.590  68.149  1.00  0.00     0.000 HD 
HETATM   27  C   UNL     1      -9.602  11.047  67.415  1.00  0.00    -0.180 A  
HETATM   28  O   UNL     1      -9.835  12.813  68.965  1.00  0.00    -0.406 OA 
HETATM   29  H   UNL     1      -9.278  12.338  69.571  1.00  0.00     0.000 HD 
ENDBRANCH  15  17
ENDBRANCH   3  12
TORSDOF 2
ENDMDL
MODEL      207
REMARK 921   NORMALIZED FREE ENERGY PREDICTED BY IDOCK:   -3.89 KCAL/MOL
REMARK 922        TOTAL FREE ENERGY PREDICTED BY IDOCK:   -4.93 KCAL/MOL
REMARK 923 INTER-LIGAND FREE ENERGY PREDICTED BY IDOCK:   -4.36 KCAL/MOL
REMARK 924 INTRA-LIGAND FREE ENERGY PREDICTED BY IDOCK:   -0.58 KCAL/MOL
REMARK 927      BINDING AFFINITY PREDICTED BY RF-SCORE:    0.00 PKD
ROOT
HETATM    1  C   UNL     1     -10.256   7.556  69.294  1.00  0.00    -0.201 C  
HETATM    2  C   UNL     1      -9.137   7.517  70.316  1.00  0.00    -0.154 A  
HETATM    3  C   UNL     1      -7.941   8.281  70.198  1.00  0.00    -0.106 A  
HETATM    4 CL   UNL     1     -10.792   5.785  71.642  1.00  0.00    -0.313 Cl 
HETATM    5  C   UNL     1      -6.947   8.148  71.198  1.00  0.00    -0.053 A  
HETATM    6  C   UNL     1      -8.488   5.669  73.624  1.00  0.00    -0.114 C  
HETATM    7 CL   UNL     1      -5.471   9.086  71.154  1.00  0.00    -0.036 Cl 
HETATM    8  N   UNL     1      -7.135   7.280  72.297  1.00  0.00    -0.066 NA 
HETATM    9  C   UNL     1      -8.320   6.556  72.422  1.00  0.00    -0.108 A  
HETATM   10  O   UNL     1      -6.229   7.163  73.193  1.00  0.00    -0.056 OA 
HETATM   11  C   UNL     1      -9.311   6.683  71.441  1.00  0.00    -0.151 A  
ENDROOT
BRANCH   3  12
HETATM   12  C   UNL     1      -7.762   9.217  69.082  1.00  0.00    -0.078 A  
HETATM   13  O   UNL     1      -7.385  10.095  67.137  1.00  0.00    -0.089 OA 
HETATM   14  N   UNL     1      -7.222   8.922  67.886  1.00  0.00    -0.083 NA 
HETATM   15  C   UNL     1      -8.032  10.977  67.951  1.00  0.00    -0.112 A  
HETATM   16  N   UNL     1      -8.228  10.507  69.163  1.00  0.00    -0.148 NA 
BRANCH  15  17
HETATM   17  C   UNL     1      -8.532  12.230  67.388  1.00  0.00    -0.176 A  
HETATM   18  C   UNL     1      -8.063  13.509  67.744  1.00  0.00    -0.177 A  
HETATM   19  C   UNL     1      -8.610  14.661  67.132  1.00  0.00    -0.223 A  
HETATM   20  N   UNL     1      -8.118  15.985  67.520  1.00  0.00    -0.141 N  
HETATM   21  C   UNL     1      -9.612  14.544  66.160  1.00  0.00    -0.297 A  
HETATM   22  O   UNL     1     -10.223  15.576  65.493  1.00  0.00    -0.339 OA 
HETATM   23  O   UNL     1      -8.641  16.972  66.978  1.00  0.00    -0.196 OA 
HETATM   24  O   UNL     1      -7.214  16.044  68.364  1.00  0.00    -0.120 OA 
HETATM   25  C   UNL     1     -10.050  13.274  65.806  1.00  0.00    -0.286 A  
HETATM   26  H   UNL     1     -10.903  15.497  64.834  1.00  0.00     0.000 HD 
HETATM   27  C   UNL     1      -9.528  12.138  66.401  1.00  0.00    -0.238 A  
HETATM   28  O   UNL     1     -11.016  13.118  64.851  1.00  0.00    -0.295 OA 
HETATM   29  H   UNL     1     -11.316  12.250  64.609  1.00  0.00     0.000 HD 
ENDBRANCH  15  17
ENDBRANCH   3  12
TORSDOF 2
ENDMDL
MODEL      208
REMARK 921   NORMALIZED FREE ENERGY PREDICTED BY IDOCK:   -3.88 KCAL/MOL
REMARK 922        TOTAL FREE ENERGY PREDICTED BY IDOCK:   -4.93 KCAL/MOL
REMARK 923 INTER-LIGAND FREE ENERGY PREDICTED BY IDOCK:   -5.06 KCAL/MOL
REMARK 924 INTRA-LIGAND FREE ENERGY PREDICTED BY IDOCK:    0.13 KCAL/MOL
REMARK 927      BINDING AFFINITY PREDICTED BY RF-SCORE:    0.00 PKD
ROOT
HETATM    1  C   UNL     1     -10.265  13.111  65.899  1.00  0.00    -0.294 C  
HETATM    2  C   UNL     1     -10.799  13.171  67.317  1.00  0.00    -0.270 A  
HETATM    3  C   UNL     1     -11.051  12.015  68.109  1.00  0.00    -0.294 A  
HETATM    4 CL   UNL     1     -10.681  15.881  66.944  1.00  0.00    -0.315 Cl 
HETATM    5  C   UNL     1     -11.577  12.185  69.414  1.00  0.00    -0.317 A  
HETATM    6  C   UNL     1     -11.832  15.956  69.757  1.00  0.00    -0.303 C  
HETATM    7 CL   UNL     1     -11.870  10.821  70.469  1.00  0.00    -0.424 Cl 
HETATM    8  N   UNL     1     -11.840  13.475  69.927  1.00  0.00    -0.317 NA 
HETATM    9  C   UNL     1     -11.564  14.604  69.158  1.00  0.00    -0.301 A  
HETATM   10  O   UNL     1     -12.319  13.618  71.105  1.00  0.00    -0.355 OA 
HETATM   11  C   UNL     1     -11.041  14.447  67.868  1.00  0.00    -0.274 A  
ENDROOT
BRANCH   3  12
HETATM   12  C   UNL     1     -10.736  10.676  67.596  1.00  0.00    -0.267 A  
HETATM   13  O   UNL     1     -10.425   8.953  66.321  1.00  0.00    -0.170 OA 
HETATM   14  N   UNL     1     -11.031  10.215  66.368  1.00  0.00     0.088 NA 
HETATM   15  C   UNL     1      -9.801   8.787  67.522  1.00  0.00    -0.179 A  
HETATM   16  N   UNL     1     -10.014   9.785  68.351  1.00  0.00    -0.152 NA 
BRANCH  15  17
HETATM   17  C   UNL     1      -8.903   7.649  67.707  1.00  0.00    -0.125 A  
HETATM   18  C   UNL     1      -8.429   7.200  68.955  1.00  0.00    -0.126 A  
HETATM   19  C   UNL     1      -7.568   6.080  69.025  1.00  0.00    -0.091 A  
HETATM   20  N   UNL     1      -7.076   5.631  70.329  1.00  0.00    -0.061 N  
HETATM   21  C   UNL     1      -7.185   5.400  67.861  1.00  0.00    -0.072 A  
HETATM   22  O   UNL     1      -6.360   4.306  67.792  1.00  0.00    -0.035 OA 
HETATM   23  O   UNL     1      -6.302   4.660  70.346  1.00  0.00    -0.024 OA 
HETATM   24  O   UNL     1      -7.456   6.243  71.336  1.00  0.00    -0.086 OA 
HETATM   25  C   UNL     1      -7.677   5.844  66.640  1.00  0.00    -0.100 A  
HETATM   26  H   UNL     1      -6.101   3.844  67.003  1.00  0.00     0.000 HD 
HETATM   27  C   UNL     1      -8.517   6.942  66.555  1.00  0.00    -0.125 A  
HETATM   28  O   UNL     1      -7.340   5.198  65.483  1.00  0.00    -0.070 OA 
HETATM   29  H   UNL     1      -7.676   5.502  64.648  1.00  0.00     0.000 HD 
ENDBRANCH  15  17
ENDBRANCH   3  12
TORSDOF 2
ENDMDL
MODEL      209
REMARK 921   NORMALIZED FREE ENERGY PREDICTED BY IDOCK:   -3.87 KCAL/MOL
REMARK 922        TOTAL FREE ENERGY PREDICTED BY IDOCK:   -4.91 KCAL/MOL
REMARK 923 INTER-LIGAND FREE ENERGY PREDICTED BY IDOCK:   -4.74 KCAL/MOL
REMARK 924 INTRA-LIGAND FREE ENERGY PREDICTED BY IDOCK:   -0.17 KCAL/MOL
REMARK 927      BINDING AFFINITY PREDICTED BY RF-SCORE:    0.00 PKD
ROOT
HETATM    1  C   UNL     1      -9.580   8.384  72.089  1.00  0.00    -0.367 C  
HETATM    2  C   UNL     1      -9.599   7.014  71.439  1.00  0.00    -0.162 A  
HETATM    3  C   UNL     1      -9.723   6.814  70.035  1.00  0.00    -0.170 A  
HETATM    4 CL   UNL     1      -9.259   6.108  74.001  1.00  0.00    -0.132 Cl 
HETATM    5  C   UNL     1      -9.758   5.489  69.537  1.00  0.00    -0.161 A  
HETATM    6  C   UNL     1      -9.389   3.377  72.669  1.00  0.00    -0.150 C  
HETATM    7 CL   UNL     1      -9.859   5.157  67.822  1.00  0.00    -0.182 Cl 
HETATM    8  N   UNL     1      -9.664   4.383  70.410  1.00  0.00    -0.200 NA 
HETATM    9  C   UNL     1      -9.514   4.584  71.781  1.00  0.00    -0.149 A  
HETATM   10  O   UNL     1      -9.702   3.189  69.950  1.00  0.00    -0.124 OA 
HETATM   11  C   UNL     1      -9.476   5.891  72.285  1.00  0.00    -0.147 A  
ENDROOT
BRANCH   3  12
HETATM   12  C   UNL     1      -9.775   7.962  69.121  1.00  0.00    -0.162 A  
HETATM   13  O   UNL     1     -10.418   9.482  67.718  1.00  0.00    -0.224 OA 
HETATM   14  N   UNL     1     -10.774   8.243  68.267  1.00  0.00    -0.088 NA 
HETATM   15  C   UNL     1      -9.247   9.838  68.317  1.00  0.00    -0.129 A  
HETATM   16  N   UNL     1      -8.787   8.916  69.133  1.00  0.00    -0.135 NA 
BRANCH  15  17
HETATM   17  C   UNL     1      -8.720  11.185  68.106  1.00  0.00    -0.144 A  
HETATM   18  C   UNL     1      -9.435  12.372  68.360  1.00  0.00    -0.169 A  
HETATM   19  C   UNL     1      -8.828  13.629  68.129  1.00  0.00    -0.189 A  
HETATM   20  N   UNL     1      -9.588  14.853  68.388  1.00  0.00    -0.203 N  
HETATM   21  C   UNL     1      -7.511  13.709  67.657  1.00  0.00    -0.183 A  
HETATM   22  O   UNL     1      -6.810  14.859  67.394  1.00  0.00    -0.190 OA 
HETATM   23  O   UNL     1      -9.029  15.937  68.150  1.00  0.00    -0.178 OA 
HETATM   24  O   UNL     1     -10.741  14.740  68.828  1.00  0.00    -0.237 OA 
HETATM   25  C   UNL     1      -6.813  12.530  67.431  1.00  0.00    -0.145 A  
HETATM   26  H   UNL     1      -5.917  14.914  67.075  1.00  0.00     0.000 HD 
HETATM   27  C   UNL     1      -7.396  11.292  67.647  1.00  0.00    -0.100 A  
HETATM   28  O   UNL     1      -5.521  12.567  66.985  1.00  0.00    -0.326 OA 
HETATM   29  H   UNL     1      -5.043  11.760  66.829  1.00  0.00     0.000 HD 
ENDBRANCH  15  17
ENDBRANCH   3  12
TORSDOF 2
ENDMDL
MODEL      210
REMARK 921   NORMALIZED FREE ENERGY PREDICTED BY IDOCK:   -3.85 KCAL/MOL
REMARK 922        TOTAL FREE ENERGY PREDICTED BY IDOCK:   -4.90 KCAL/MOL
REMARK 923 INTER-LIGAND FREE ENERGY PREDICTED BY IDOCK:   -5.35 KCAL/MOL
REMARK 924 INTRA-LIGAND FREE ENERGY PREDICTED BY IDOCK:    0.46 KCAL/MOL
REMARK 927      BINDING AFFINITY PREDICTED BY RF-SCORE:    0.00 PKD
ROOT
HETATM    1  C   UNL     1     -11.775  10.943  70.532  1.00  0.00    -0.441 C  
HETATM    2  C   UNL     1     -11.535  11.934  69.410  1.00  0.00    -0.366 A  
HETATM    3  C   UNL     1     -10.941  11.581  68.165  1.00  0.00    -0.279 A  
HETATM    4 CL   UNL     1     -12.725  13.716  71.114  1.00  0.00    -0.430 Cl 
HETATM    5  C   UNL     1     -10.739  12.594  67.196  1.00  0.00    -0.241 A  
HETATM    6  C   UNL     1     -12.148  15.692  68.875  1.00  0.00    -0.183 C  
HETATM    7 CL   UNL     1     -10.061  12.235  65.623  1.00  0.00    -0.269 Cl 
HETATM    8  N   UNL     1     -11.123  13.929  67.451  1.00  0.00    -0.291 NA 
HETATM    9  C   UNL     1     -11.730  14.264  68.660  1.00  0.00    -0.345 A  
HETATM   10  O   UNL     1     -10.930  14.838  66.571  1.00  0.00    -0.314 OA 
HETATM   11  C   UNL     1     -11.938  13.270  69.624  1.00  0.00    -0.314 A  
ENDROOT
BRANCH   3  12
HETATM   12  C   UNL     1     -10.583  10.186  67.879  1.00  0.00    -0.249 A  
HETATM   13  O   UNL     1     -10.596   8.029  67.682  1.00  0.00    -0.235 OA 
HETATM   14  N   UNL     1     -11.244   9.099  68.313  1.00  0.00     0.192 NA 
HETATM   15  C   UNL     1      -9.620   8.581  66.907  1.00  0.00    -0.197 A  
HETATM   16  N   UNL     1      -9.536   9.886  67.043  1.00  0.00    -0.156 NA 
BRANCH  15  17
HETATM   17  C   UNL     1      -8.897   7.734  65.961  1.00  0.00    -0.189 A  
HETATM   18  C   UNL     1      -8.904   6.326  65.983  1.00  0.00    -0.159 A  
HETATM   19  C   UNL     1      -8.175   5.598  65.013  1.00  0.00    -0.137 A  
HETATM   20  N   UNL     1      -8.183   4.134  65.055  1.00  0.00    -0.101 N  
HETATM   21  C   UNL     1      -7.451   6.265  64.016  1.00  0.00    -0.083 A  
HETATM   22  O   UNL     1      -6.707   5.680  63.022  1.00  0.00    -0.031 OA 
HETATM   23  O   UNL     1      -7.511   3.532  64.201  1.00  0.00    -0.071 OA 
HETATM   24  O   UNL     1      -8.856   3.582  65.937  1.00  0.00    -0.117 OA 
HETATM   25  C   UNL     1      -7.471   7.654  63.996  1.00  0.00    -0.107 A  
HETATM   26  H   UNL     1      -6.216   6.133  62.346  1.00  0.00     0.000 HD 
HETATM   27  C   UNL     1      -8.175   8.380  64.943  1.00  0.00    -0.155 A  
HETATM   28  O   UNL     1      -6.789   8.341  63.031  1.00  0.00    -0.085 OA 
HETATM   29  H   UNL     1      -6.803   9.291  63.017  1.00  0.00     0.000 HD 
ENDBRANCH  15  17
ENDBRANCH   3  12
TORSDOF 2
ENDMDL
MODEL      211
REMARK 921   NORMALIZED FREE ENERGY PREDICTED BY IDOCK:   -3.80 KCAL/MOL
REMARK 922        TOTAL FREE ENERGY PREDICTED BY IDOCK:   -4.83 KCAL/MOL
REMARK 923 INTER-LIGAND FREE ENERGY PREDICTED BY IDOCK:   -4.26 KCAL/MOL
REMARK 924 INTRA-LIGAND FREE ENERGY PREDICTED BY IDOCK:   -0.57 KCAL/MOL
REMARK 927      BINDING AFFINITY PREDICTED BY RF-SCORE:    0.00 PKD
ROOT
HETATM    1  C   UNL     1      -7.054   6.613  70.625  1.00  0.00    -0.069 C  
HETATM    2  C   UNL     1      -7.643   5.791  69.495  1.00  0.00    -0.087 A  
HETATM    3  C   UNL     1      -8.244   6.365  68.339  1.00  0.00    -0.113 A  
HETATM    4 CL   UNL     1      -6.789   3.657  70.982  1.00  0.00    -0.032 Cl 
HETATM    5  C   UNL     1      -8.788   5.504  67.355  1.00  0.00    -0.105 A  
HETATM    6  C   UNL     1      -8.058   2.045  68.737  1.00  0.00    -0.066 C  
HETATM    7 CL   UNL     1      -9.499   6.127  65.883  1.00  0.00    -0.045 Cl 
HETATM    8  N   UNL     1      -8.733   4.101  67.510  1.00  0.00    -0.104 NA 
HETATM    9  C   UNL     1      -8.119   3.543  68.630  1.00  0.00    -0.065 A  
HETATM   10  O   UNL     1      -9.233   3.330  66.618  1.00  0.00    -0.158 OA 
HETATM   11  C   UNL     1      -7.574   4.386  69.607  1.00  0.00    -0.054 A  
ENDROOT
BRANCH   3  12
HETATM   12  C   UNL     1      -8.262   7.822  68.154  1.00  0.00    -0.124 A  
HETATM   13  O   UNL     1      -7.910   9.837  67.441  1.00  0.00    -0.098 OA 
HETATM   14  N   UNL     1      -7.413   8.528  67.387  1.00  0.00    -0.092 NA 
HETATM   15  C   UNL     1      -9.028   9.785  68.219  1.00  0.00    -0.119 A  
HETATM   16  N   UNL     1      -9.246   8.591  68.723  1.00  0.00    -0.143 NA 
BRANCH  15  17
HETATM   17  C   UNL     1      -9.894  10.960  68.300  1.00  0.00    -0.179 A  
HETATM   18  C   UNL     1     -10.810  11.207  69.340  1.00  0.00    -0.264 A  
HETATM   19  C   UNL     1     -11.597  12.383  69.328  1.00  0.00    -0.319 A  
HETATM   20  N   UNL     1     -12.552  12.621  70.413  1.00  0.00    -0.112 N  
HETATM   21  C   UNL     1     -11.468  13.317  68.292  1.00  0.00    -0.316 A  
HETATM   22  O   UNL     1     -12.168  14.491  68.163  1.00  0.00    -0.570 OA 
HETATM   23  O   UNL     1     -13.242  13.652  70.353  1.00  0.00     0.052 OA 
HETATM   24  O   UNL     1     -12.619  11.784  71.323  1.00  0.00    -0.365 OA 
HETATM   25  C   UNL     1     -10.546  13.068  67.283  1.00  0.00    -0.242 A  
HETATM   26  H   UNL     1     -12.080  15.124  67.460  1.00  0.00     0.000 HD 
HETATM   27  C   UNL     1      -9.773  11.919  67.279  1.00  0.00    -0.191 A  
HETATM   28  O   UNL     1     -10.380  13.962  66.263  1.00  0.00    -0.281 OA 
HETATM   29  H   UNL     1      -9.750  13.792  65.572  1.00  0.00     0.000 HD 
ENDBRANCH  15  17
ENDBRANCH   3  12
TORSDOF 2
ENDMDL
MODEL      212
REMARK 921   NORMALIZED FREE ENERGY PREDICTED BY IDOCK:   -3.80 KCAL/MOL
REMARK 922        TOTAL FREE ENERGY PREDICTED BY IDOCK:   -4.83 KCAL/MOL
REMARK 923 INTER-LIGAND FREE ENERGY PREDICTED BY IDOCK:   -5.44 KCAL/MOL
REMARK 924 INTRA-LIGAND FREE ENERGY PREDICTED BY IDOCK:    0.61 KCAL/MOL
REMARK 927      BINDING AFFINITY PREDICTED BY RF-SCORE:    0.00 PKD
ROOT
HETATM    1  C   UNL     1      -8.744   8.224  64.797  1.00  0.00     0.034 C  
HETATM    2  C   UNL     1      -9.151   7.820  66.201  1.00  0.00    -0.199 A  
HETATM    3  C   UNL     1      -9.616   8.745  67.179  1.00  0.00    -0.228 A  
HETATM    4 CL   UNL     1      -8.563   5.289  65.337  1.00  0.00    -0.144 Cl 
HETATM    5  C   UNL     1      -9.943   8.263  68.470  1.00  0.00    -0.190 A  
HETATM    6  C   UNL     1      -9.306   4.532  68.188  1.00  0.00    -0.186 C  
HETATM    7 CL   UNL     1     -10.567   9.324  69.713  1.00  0.00    -0.234 Cl 
HETATM    8  N   UNL     1      -9.821   6.891  68.785  1.00  0.00    -0.147 NA 
HETATM    9  C   UNL     1      -9.393   5.986  67.815  1.00  0.00    -0.106 A  
HETATM   10  O   UNL     1     -10.114   6.466  69.956  1.00  0.00    -0.167 OA 
HETATM   11  C   UNL     1      -9.069   6.451  66.534  1.00  0.00    -0.151 A  
ENDROOT
BRANCH   3  12
HETATM   12  C   UNL     1      -9.788  10.163  66.842  1.00  0.00    -0.195 A  
HETATM   13  O   UNL     1     -10.240  12.026  65.832  1.00  0.00    -0.220 OA 
HETATM   14  N   UNL     1     -10.043  10.655  65.617  1.00  0.00    -0.262 NA 
HETATM   15  C   UNL     1     -10.108  12.221  67.174  1.00  0.00    -0.208 A  
HETATM   16  N   UNL     1      -9.773  11.126  67.820  1.00  0.00    -0.169 NA 
BRANCH  15  17
HETATM   17  C   UNL     1     -10.462  13.520  67.743  1.00  0.00    -0.242 A  
HETATM   18  C   UNL     1     -10.862  13.726  69.077  1.00  0.00    -0.247 A  
HETATM   19  C   UNL     1     -11.175  15.029  69.531  1.00  0.00    -0.276 A  
HETATM   20  N   UNL     1     -11.600  15.225  70.919  1.00  0.00    -0.312 N  
HETATM   21  C   UNL     1     -11.080  16.128  68.666  1.00  0.00    -0.356 A  
HETATM   22  O   UNL     1     -11.354  17.435  68.979  1.00  0.00    -0.005 OA 
HETATM   23  O   UNL     1     -11.889  16.381  71.271  1.00  0.00    -0.372 OA 
HETATM   24  O   UNL     1     -11.647  14.233  71.658  1.00  0.00    -0.004 OA 
HETATM   25  C   UNL     1     -10.665  15.910  67.359  1.00  0.00    -0.313 A  
HETATM   26  H   UNL     1     -11.289  18.180  68.393  1.00  0.00     0.000 HD 
HETATM   27  C   UNL     1     -10.361  14.639  66.898  1.00  0.00    -0.264 A  
HETATM   28  O   UNL     1     -10.545  16.958  66.488  1.00  0.00    -0.280 OA 
HETATM   29  H   UNL     1     -10.262  16.809  65.594  1.00  0.00     0.000 HD 
ENDBRANCH  15  17
ENDBRANCH   3  12
TORSDOF 2
ENDMDL
MODEL      213
REMARK 921   NORMALIZED FREE ENERGY PREDICTED BY IDOCK:   -3.77 KCAL/MOL
REMARK 922        TOTAL FREE ENERGY PREDICTED BY IDOCK:   -4.81 KCAL/MOL
REMARK 923 INTER-LIGAND FREE ENERGY PREDICTED BY IDOCK:   -4.20 KCAL/MOL
REMARK 924 INTRA-LIGAND FREE ENERGY PREDICTED BY IDOCK:   -0.61 KCAL/MOL
REMARK 927      BINDING AFFINITY PREDICTED BY RF-SCORE:    0.00 PKD
ROOT
HETATM    1  C   UNL     1      -5.860   8.336  68.930  1.00  0.00    -0.043 C  
HETATM    2  C   UNL     1      -6.549   7.850  67.670  1.00  0.00    -0.060 A  
HETATM    3  C   UNL     1      -7.290   8.702  66.803  1.00  0.00    -0.079 A  
HETATM    4 CL   UNL     1      -5.474   5.427  68.359  1.00  0.00    -0.007 Cl 
HETATM    5  C   UNL     1      -7.917   8.137  65.666  1.00  0.00    -0.108 A  
HETATM    6  C   UNL     1      -6.941   4.475  65.871  1.00  0.00    -0.063 C  
HETATM    7 CL   UNL     1      -8.805   9.121  64.524  1.00  0.00    -0.200 Cl 
HETATM    8  N   UNL     1      -7.806   6.756  65.387  1.00  0.00    -0.107 NA 
HETATM    9  C   UNL     1      -7.055   5.932  66.224  1.00  0.00    -0.068 A  
HETATM   10  O   UNL     1      -8.380   6.254  64.360  1.00  0.00    -0.086 OA 
HETATM   11  C   UNL     1      -6.428   6.481  67.350  1.00  0.00    -0.038 A  
ENDROOT
BRANCH   3  12
HETATM   12  C   UNL     1      -7.369  10.144  67.065  1.00  0.00    -0.091 A  
HETATM   13  O   UNL     1      -7.064  12.289  67.031  1.00  0.00    -0.127 OA 
HETATM   14  N   UNL     1      -6.495  11.071  66.635  1.00  0.00    -0.118 NA 
HETATM   15  C   UNL     1      -8.242  11.975  67.641  1.00  0.00    -0.155 A  
HETATM   16  N   UNL     1      -8.440  10.680  67.738  1.00  0.00    -0.115 NA 
BRANCH  15  17
HETATM   17  C   UNL     1      -9.173  13.049  67.985  1.00  0.00    -0.212 A  
HETATM   18  C   UNL     1     -10.211  12.933  68.929  1.00  0.00    -0.007 A  
HETATM   19  C   UNL     1     -11.053  14.039  69.195  1.00  0.00    -0.259 A  
HETATM   20  N   UNL     1     -12.136  13.899  70.173  1.00  0.00    -0.329 N  
HETATM   21  C   UNL     1     -10.859  15.259  68.536  1.00  0.00    -0.253 A  
HETATM   22  O   UNL     1     -11.601  16.401  68.702  1.00  0.00    -0.311 OA 
HETATM   23  O   UNL     1     -12.868  14.885  70.360  1.00  0.00    -0.338 OA 
HETATM   24  O   UNL     1     -12.259  12.812  70.753  1.00  0.00    -0.367 OA 
HETATM   25  C   UNL     1      -9.818  15.362  67.622  1.00  0.00    -0.220 A  
HETATM   26  H   UNL     1     -11.469  17.229  68.255  1.00  0.00     0.000 HD 
HETATM   27  C   UNL     1      -8.989  14.287  67.346  1.00  0.00    -0.205 A  
HETATM   28  O   UNL     1      -9.586  16.541  66.968  1.00  0.00    -0.233 OA 
HETATM   29  H   UNL     1      -8.875  16.611  66.343  1.00  0.00     0.000 HD 
ENDBRANCH  15  17
ENDBRANCH   3  12
TORSDOF 2
ENDMDL
MODEL      214
REMARK 921   NORMALIZED FREE ENERGY PREDICTED BY IDOCK:   -3.66 KCAL/MOL
REMARK 922        TOTAL FREE ENERGY PREDICTED BY IDOCK:   -4.68 KCAL/MOL
REMARK 923 INTER-LIGAND FREE ENERGY PREDICTED BY IDOCK:   -4.13 KCAL/MOL
REMARK 924 INTRA-LIGAND FREE ENERGY PREDICTED BY IDOCK:   -0.56 KCAL/MOL
REMARK 927      BINDING AFFINITY PREDICTED BY RF-SCORE:    0.00 PKD
ROOT
HETATM    1  C   UNL     1     -11.193  11.197  70.274  1.00  0.00    -0.126 C  
HETATM    2  C   UNL     1     -10.970  11.495  68.804  1.00  0.00    -0.271 A  
HETATM    3  C   UNL     1     -10.054  10.772  67.988  1.00  0.00    -0.198 A  
HETATM    4 CL   UNL     1     -12.901  13.397  69.189  1.00  0.00     0.731 Cl 
HETATM    5  C   UNL     1      -9.905  11.153  66.632  1.00  0.00    -0.199 A  
HETATM    6  C   UNL     1     -12.363  14.020  66.262  1.00  0.00    -0.482 C  
HETATM    7 CL   UNL     1      -8.837  10.287  65.549  1.00  0.00    -0.178 Cl 
HETATM    8  N   UNL     1     -10.652  12.223  66.092  1.00  0.00    -0.243 NA 
HETATM    9  C   UNL     1     -11.568  12.908  66.888  1.00  0.00    -0.368 A  
HETATM   10  O   UNL     1     -10.506  12.562  64.867  1.00  0.00    -0.285 OA 
HETATM   11  C   UNL     1     -11.727  12.538  68.229  1.00  0.00    -0.340 A  
ENDROOT
BRANCH   3  12
HETATM   12  C   UNL     1      -9.309   9.631  68.534  1.00  0.00    -0.137 A  
HETATM   13  O   UNL     1      -7.841   8.378  69.516  1.00  0.00    -0.097 OA 
HETATM   14  N   UNL     1      -8.051   9.665  69.004  1.00  0.00    -0.099 NA 
HETATM   15  C   UNL     1      -9.008   7.700  69.326  1.00  0.00    -0.135 A  
HETATM   16  N   UNL     1      -9.909   8.404  68.678  1.00  0.00    -0.165 NA 
BRANCH  15  17
HETATM   17  C   UNL     1      -9.176   6.386  69.943  1.00  0.00    -0.154 A  
HETATM   18  C   UNL     1      -9.108   5.163  69.249  1.00  0.00    -0.140 A  
HETATM   19  C   UNL     1      -9.278   3.942  69.944  1.00  0.00    -0.144 A  
HETATM   20  N   UNL     1      -9.215   2.679  69.205  1.00  0.00    -0.135 N  
HETATM   21  C   UNL     1      -9.502   3.933  71.327  1.00  0.00    -0.159 A  
HETATM   22  O   UNL     1      -9.681   2.825  72.115  1.00  0.00    -0.130 OA 
HETATM   23  O   UNL     1      -9.393   1.630  69.847  1.00  0.00    -0.102 OA 
HETATM   24  O   UNL     1      -8.990   2.727  67.988  1.00  0.00    -0.119 OA 
HETATM   25  C   UNL     1      -9.546   5.148  72.000  1.00  0.00    -0.151 A  
HETATM   26  H   UNL     1      -9.833   2.819  73.053  1.00  0.00     0.000 HD 
HETATM   27  C   UNL     1      -9.388   6.351  71.332  1.00  0.00    -0.157 A  
HETATM   28  O   UNL     1      -9.748   5.181  73.352  1.00  0.00    -0.142 OA 
HETATM   29  H   UNL     1      -9.778   6.011  73.813  1.00  0.00     0.000 HD 
ENDBRANCH  15  17
ENDBRANCH   3  12
TORSDOF 2
ENDMDL
MODEL      215
REMARK 921   NORMALIZED FREE ENERGY PREDICTED BY IDOCK:   -3.62 KCAL/MOL
REMARK 922        TOTAL FREE ENERGY PREDICTED BY IDOCK:   -4.64 KCAL/MOL
REMARK 923 INTER-LIGAND FREE ENERGY PREDICTED BY IDOCK:   -4.60 KCAL/MOL
REMARK 924 INTRA-LIGAND FREE ENERGY PREDICTED BY IDOCK:   -0.03 KCAL/MOL
REMARK 927      BINDING AFFINITY PREDICTED BY RF-SCORE:    0.00 PKD
ROOT
HETATM    1  C   UNL     1     -11.769  11.333  70.555  1.00  0.00    -0.345 C  
HETATM    2  C   UNL     1     -11.071  11.870  69.320  1.00  0.00    -0.264 A  
HETATM    3  C   UNL     1     -10.003  11.193  68.667  1.00  0.00    -0.210 A  
HETATM    4 CL   UNL     1     -12.873  13.920  69.542  1.00  0.00     0.259 Cl 
HETATM    5  C   UNL     1      -9.404  11.799  67.536  1.00  0.00    -0.174 A  
HETATM    6  C   UNL     1     -11.391  15.005  67.118  1.00  0.00    -0.323 C  
HETATM    7 CL   UNL     1      -8.119  11.011  66.647  1.00  0.00    -0.150 Cl 
HETATM    8  N   UNL     1      -9.858  13.047  67.056  1.00  0.00    -0.233 NA 
HETATM    9  C   UNL     1     -10.923  13.692  67.682  1.00  0.00    -0.267 A  
HETATM   10  O   UNL     1      -9.306  13.589  66.036  1.00  0.00    -0.147 OA 
HETATM   11  C   UNL     1     -11.525  13.101  68.800  1.00  0.00    -0.307 A  
ENDROOT
BRANCH   3  12
HETATM   12  C   UNL     1      -9.559   9.874  69.135  1.00  0.00    -0.199 A  
HETATM   13  O   UNL     1      -8.997   8.177  70.359  1.00  0.00    -0.142 OA 
HETATM   14  N   UNL     1      -9.228   9.558  70.399  1.00  0.00    -0.257 NA 
HETATM   15  C   UNL     1      -9.237   7.791  69.074  1.00  0.00    -0.143 A  
HETATM   16  N   UNL     1      -9.523   8.799  68.281  1.00  0.00    -0.140 NA 
BRANCH  15  17
HETATM   17  C   UNL     1      -9.281   6.365  68.755  1.00  0.00    -0.127 A  
HETATM   18  C   UNL     1      -8.986   5.819  67.491  1.00  0.00    -0.107 A  
HETATM   19  C   UNL     1      -9.050   4.420  67.290  1.00  0.00    -0.132 A  
HETATM   20  N   UNL     1      -8.751   3.869  65.966  1.00  0.00    -0.112 N  
HETATM   21  C   UNL     1      -9.395   3.563  68.343  1.00  0.00    -0.168 A  
HETATM   22  O   UNL     1      -9.492   2.196  68.281  1.00  0.00    -0.204 OA 
HETATM   23  O   UNL     1      -8.842   2.638  65.824  1.00  0.00    -0.126 OA 
HETATM   24  O   UNL     1      -8.426   4.657  65.068  1.00  0.00    -0.122 OA 
HETATM   25  C   UNL     1      -9.663   4.116  69.589  1.00  0.00    -0.199 A  
HETATM   26  H   UNL     1      -9.726   1.614  68.995  1.00  0.00     0.000 HD 
HETATM   27  C   UNL     1      -9.610   5.484  69.800  1.00  0.00    -0.215 A  
HETATM   28  O   UNL     1      -9.989   3.311  70.646  1.00  0.00    -0.051 OA 
HETATM   29  H   UNL     1     -10.173   3.689  71.498  1.00  0.00     0.000 HD 
ENDBRANCH  15  17
ENDBRANCH   3  12
TORSDOF 2
ENDMDL
MODEL      216
REMARK 921   NORMALIZED FREE ENERGY PREDICTED BY IDOCK:   -3.62 KCAL/MOL
REMARK 922        TOTAL FREE ENERGY PREDICTED BY IDOCK:   -4.63 KCAL/MOL
REMARK 923 INTER-LIGAND FREE ENERGY PREDICTED BY IDOCK:   -4.16 KCAL/MOL
REMARK 924 INTRA-LIGAND FREE ENERGY PREDICTED BY IDOCK:   -0.48 KCAL/MOL
REMARK 927      BINDING AFFINITY PREDICTED BY RF-SCORE:    0.00 PKD
ROOT
HETATM    1  C   UNL     1     -12.496  12.071  69.718  1.00  0.00     0.023 C  
HETATM    2  C   UNL     1     -11.519  13.121  69.228  1.00  0.00    -0.348 A  
HETATM    3  C   UNL     1     -10.519  12.866  68.247  1.00  0.00    -0.250 A  
HETATM    4 CL   UNL     1     -12.882  14.774  70.934  1.00  0.00    -0.400 Cl 
HETATM    5  C   UNL     1      -9.639  13.915  67.883  1.00  0.00    -0.227 A  
HETATM    6  C   UNL     1     -10.849  16.830  69.991  1.00  0.00    -0.047 C  
HETATM    7 CL   UNL     1      -8.416  13.698  66.651  1.00  0.00     0.022 Cl 
HETATM    8  N   UNL     1      -9.751  15.193  68.473  1.00  0.00    -0.208 NA 
HETATM    9  C   UNL     1     -10.750  15.446  69.412  1.00  0.00    -0.258 A  
HETATM   10  O   UNL     1      -8.948  16.133  68.141  1.00  0.00    -0.181 OA 
HETATM   11  C   UNL     1     -11.627  14.417  69.777  1.00  0.00    -0.298 A  
ENDROOT
BRANCH   3  12
HETATM   12  C   UNL     1     -10.430  11.552  67.599  1.00  0.00    -0.189 A  
HETATM   13  O   UNL     1     -10.410   9.936  66.156  1.00  0.00    -0.230 OA 
HETATM   14  N   UNL     1     -10.802  11.269  66.339  1.00  0.00    -0.270 NA 
HETATM   15  C   UNL     1      -9.815   9.554  67.321  1.00  0.00    -0.177 A  
HETATM   16  N   UNL     1      -9.858  10.485  68.248  1.00  0.00    -0.146 NA 
BRANCH  15  17
HETATM   17  C   UNL     1      -9.113   8.273  67.375  1.00  0.00    -0.155 A  
HETATM   18  C   UNL     1      -7.988   7.944  66.594  1.00  0.00    -0.103 A  
HETATM   19  C   UNL     1      -7.377   6.676  66.730  1.00  0.00    -0.078 A  
HETATM   20  N   UNL     1      -6.214   6.346  65.903  1.00  0.00    -0.036 N  
HETATM   21  C   UNL     1      -7.872   5.739  67.646  1.00  0.00    -0.098 A  
HETATM   22  O   UNL     1      -7.373   4.481  67.873  1.00  0.00    -0.064 OA 
HETATM   23  O   UNL     1      -5.720   5.213  66.034  1.00  0.00    -0.017 OA 
HETATM   24  O   UNL     1      -5.791   7.210  65.123  1.00  0.00    -0.035 OA 
HETATM   25  C   UNL     1      -8.970   6.086  68.423  1.00  0.00    -0.114 A  
HETATM   26  H   UNL     1      -7.709   3.846  68.495  1.00  0.00     0.000 HD 
HETATM   27  C   UNL     1      -9.583   7.322  68.297  1.00  0.00    -0.150 A  
HETATM   28  O   UNL     1      -9.474   5.205  69.339  1.00  0.00    -0.121 OA 
HETATM   29  H   UNL     1     -10.226   5.442  69.870  1.00  0.00     0.000 HD 
ENDBRANCH  15  17
ENDBRANCH   3  12
TORSDOF 2
ENDMDL
MODEL      217
REMARK 921   NORMALIZED FREE ENERGY PREDICTED BY IDOCK:   -3.46 KCAL/MOL
REMARK 922        TOTAL FREE ENERGY PREDICTED BY IDOCK:   -4.46 KCAL/MOL
REMARK 923 INTER-LIGAND FREE ENERGY PREDICTED BY IDOCK:   -4.56 KCAL/MOL
REMARK 924 INTRA-LIGAND FREE ENERGY PREDICTED BY IDOCK:    0.10 KCAL/MOL
REMARK 927      BINDING AFFINITY PREDICTED BY RF-SCORE:    0.00 PKD
ROOT
HETATM    1  C   UNL     1     -12.435  11.393  71.502  1.00  0.00    -0.305 C  
HETATM    2  C   UNL     1     -11.861  11.896  70.192  1.00  0.00    -0.390 A  
HETATM    3  C   UNL     1     -11.092  11.085  69.310  1.00  0.00    -0.312 A  
HETATM    4 CL   UNL     1     -13.111  14.235  70.872  1.00  0.00    -0.396 Cl 
HETATM    5  C   UNL     1     -10.580  11.665  68.124  1.00  0.00    -0.201 A  
HETATM    6  C   UNL     1     -11.869  15.231  68.280  1.00  0.00    -0.251 C  
HETATM    7 CL   UNL     1      -9.668  10.726  66.964  1.00  0.00    -0.199 Cl 
HETATM    8  N   UNL     1     -10.829  13.021  67.814  1.00  0.00    -0.235 NA 
HETATM    9  C   UNL     1     -11.606  13.803  68.667  1.00  0.00    -0.334 A  
HETATM   10  O   UNL     1     -10.357  13.537  66.742  1.00  0.00    -0.259 OA 
HETATM   11  C   UNL     1     -12.120  13.238  69.841  1.00  0.00    -0.308 A  
ENDROOT
BRANCH   3  12
HETATM   12  C   UNL     1     -10.870   9.664  69.607  1.00  0.00    -0.244 A  
HETATM   13  O   UNL     1     -11.136   7.555  70.021  1.00  0.00    -0.257 OA 
HETATM   14  N   UNL     1     -11.813   8.780  69.976  1.00  0.00     0.246 NA 
HETATM   15  C   UNL     1      -9.852   7.818  69.648  1.00  0.00    -0.182 A  
HETATM   16  N   UNL     1      -9.629   9.098  69.446  1.00  0.00    -0.161 NA 
BRANCH  15  17
HETATM   17  C   UNL     1      -8.940   6.703  69.397  1.00  0.00    -0.133 A  
HETATM   18  C   UNL     1      -8.105   6.119  70.369  1.00  0.00    -0.112 A  
HETATM   19  C   UNL     1      -7.264   5.035  70.023  1.00  0.00    -0.058 A  
HETATM   20  N   UNL     1      -6.394   4.446  71.043  1.00  0.00    -0.018 N  
HETATM   21  C   UNL     1      -7.259   4.524  68.718  1.00  0.00    -0.053 A  
HETATM   22  O   UNL     1      -6.496   3.482  68.256  1.00  0.00    -0.035 OA 
HETATM   23  O   UNL     1      -5.652   3.512  70.693  1.00  0.00    -0.012 OA 
HETATM   24  O   UNL     1      -6.445   4.910  72.190  1.00  0.00    -0.032 OA 
HETATM   25  C   UNL     1      -8.103   5.099  67.777  1.00  0.00    -0.099 A  
HETATM   26  H   UNL     1      -6.493   3.136  67.371  1.00  0.00     0.000 HD 
HETATM   27  C   UNL     1      -8.928   6.164  68.099  1.00  0.00    -0.114 A  
HETATM   28  O   UNL     1      -8.139   4.618  66.497  1.00  0.00    -0.102 OA 
HETATM   29  H   UNL     1      -8.716   5.012  65.852  1.00  0.00     0.000 HD 
ENDBRANCH  15  17
ENDBRANCH   3  12
TORSDOF 2
ENDMDL
MODEL      218
REMARK 921   NORMALIZED FREE ENERGY PREDICTED BY IDOCK:   -3.36 KCAL/MOL
REMARK 922        TOTAL FREE ENERGY PREDICTED BY IDOCK:   -4.35 KCAL/MOL
REMARK 923 INTER-LIGAND FREE ENERGY PREDICTED BY IDOCK:   -4.22 KCAL/MOL
REMARK 924 INTRA-LIGAND FREE ENERGY PREDICTED BY IDOCK:   -0.13 KCAL/MOL
REMARK 927      BINDING AFFINITY PREDICTED BY RF-SCORE:    0.00 PKD
ROOT
HETATM    1  C   UNL     1     -10.416  15.362  67.735  1.00  0.00    -0.266 C  
HETATM    2  C   UNL     1      -9.214  16.218  67.385  1.00  0.00    -0.217 A  
HETATM    3  C   UNL     1      -7.868  15.784  67.546  1.00  0.00    -0.182 A  
HETATM    4 CL   UNL     1     -11.101  18.040  66.596  1.00  0.00     0.229 Cl 
HETATM    5  C   UNL     1      -6.820  16.676  67.212  1.00  0.00    -0.178 A  
HETATM    6  C   UNL     1      -8.666  19.757  65.986  1.00  0.00    -0.296 C  
HETATM    7 CL   UNL     1      -5.140  16.203  67.334  1.00  0.00    -0.124 Cl 
HETATM    8  N   UNL     1      -7.099  17.971  66.721  1.00  0.00    -0.194 NA 
HETATM    9  C   UNL     1      -8.418  18.381  66.539  1.00  0.00    -0.270 A  
HETATM   10  O   UNL     1      -6.145  18.772  66.428  1.00  0.00    -0.156 OA 
HETATM   11  C   UNL     1      -9.463  17.506  66.862  1.00  0.00    -0.274 A  
ENDROOT
BRANCH   3  12
HETATM   12  C   UNL     1      -7.575  14.422  68.012  1.00  0.00    -0.137 A  
HETATM   13  O   UNL     1      -6.956  12.708  69.182  1.00  0.00    -0.092 OA 
HETATM   14  N   UNL     1      -6.840  14.101  69.090  1.00  0.00    -0.110 NA 
HETATM   15  C   UNL     1      -7.774  12.328  68.160  1.00  0.00    -0.138 A  
HETATM   16  N   UNL     1      -8.126  13.331  67.386  1.00  0.00    -0.178 NA 
BRANCH  15  17
HETATM   17  C   UNL     1      -8.256  10.949  68.109  1.00  0.00    -0.121 A  
HETATM   18  C   UNL     1      -7.488   9.850  67.679  1.00  0.00    -0.090 A  
HETATM   19  C   UNL     1      -8.048   8.551  67.676  1.00  0.00    -0.107 A  
HETATM   20  N   UNL     1      -7.240   7.419  67.217  1.00  0.00    -0.091 N  
HETATM   21  C   UNL     1      -9.364   8.341  68.109  1.00  0.00    -0.133 A  
HETATM   22  O   UNL     1     -10.023   7.138  68.155  1.00  0.00    -0.143 OA 
HETATM   23  O   UNL     1      -7.776   6.299  67.206  1.00  0.00    -0.097 OA 
HETATM   24  O   UNL     1      -6.073   7.643  66.867  1.00  0.00    -0.045 OA 
HETATM   25  C   UNL     1     -10.102   9.433  68.547  1.00  0.00    -0.187 A  
HETATM   26  H   UNL     1     -10.915   6.996  68.449  1.00  0.00     0.000 HD 
HETATM   27  C   UNL     1      -9.569  10.711  68.551  1.00  0.00    -0.175 A  
HETATM   28  O   UNL     1     -11.385   9.267  68.991  1.00  0.00    -0.445 OA 
HETATM   29  H   UNL     1     -11.889  10.014  69.291  1.00  0.00     0.000 HD 
ENDBRANCH  15  17
ENDBRANCH   3  12
TORSDOF 2
ENDMDL
MODEL      219
REMARK 921   NORMALIZED FREE ENERGY PREDICTED BY IDOCK:   -3.35 KCAL/MOL
REMARK 922        TOTAL FREE ENERGY PREDICTED BY IDOCK:   -4.33 KCAL/MOL
REMARK 923 INTER-LIGAND FREE ENERGY PREDICTED BY IDOCK:   -4.05 KCAL/MOL
REMARK 924 INTRA-LIGAND FREE ENERGY PREDICTED BY IDOCK:   -0.28 KCAL/MOL
REMARK 927      BINDING AFFINITY PREDICTED BY RF-SCORE:    0.00 PKD
ROOT
HETATM    1  C   UNL     1      -5.701   8.516  68.997  1.00  0.00    -0.039 C  
HETATM    2  C   UNL     1      -6.335   8.179  67.661  1.00  0.00    -0.053 A  
HETATM    3  C   UNL     1      -7.086   9.112  66.892  1.00  0.00    -0.082 A  
HETATM    4 CL   UNL     1      -5.181   5.727  68.054  1.00  0.00    -0.004 Cl 
HETATM    5  C   UNL     1      -7.658   8.683  65.669  1.00  0.00    -0.086 A  
HETATM    6  C   UNL     1      -6.538   5.066  65.415  1.00  0.00    -0.037 C  
HETATM    7 CL   UNL     1      -8.554   9.780  64.642  1.00  0.00    -0.177 Cl 
HETATM    8  N   UNL     1      -7.483   7.358  65.213  1.00  0.00    -0.080 NA 
HETATM    9  C   UNL     1      -6.722   6.457  65.955  1.00  0.00    -0.049 A  
HETATM   10  O   UNL     1      -8.008   6.979  64.109  1.00  0.00    -0.123 OA 
HETATM   11  C   UNL     1      -6.149   6.871  67.164  1.00  0.00    -0.029 A  
ENDROOT
BRANCH   3  12
HETATM   12  C   UNL     1      -7.232  10.503  67.342  1.00  0.00    -0.092 A  
HETATM   13  O   UNL     1      -6.883  12.587  67.817  1.00  0.00    -0.092 OA 
HETATM   14  N   UNL     1      -6.232  11.388  67.497  1.00  0.00    -0.062 NA 
HETATM   15  C   UNL     1      -8.217  12.310  67.798  1.00  0.00    -0.161 A  
HETATM   16  N   UNL     1      -8.474  11.041  67.573  1.00  0.00    -0.126 NA 
BRANCH  15  17
HETATM   17  C   UNL     1      -9.174  13.411  67.891  1.00  0.00    -0.216 A  
HETATM   18  C   UNL     1      -9.139  14.570  67.093  1.00  0.00    -0.237 A  
HETATM   19  C   UNL     1     -10.121  15.576  67.258  1.00  0.00    -0.250 A  
HETATM   20  N   UNL     1     -10.064  16.780  66.427  1.00  0.00    -0.304 N  
HETATM   21  C   UNL     1     -11.142  15.427  68.206  1.00  0.00    -0.309 A  
HETATM   22  O   UNL     1     -12.149  16.322  68.464  1.00  0.00    -0.190 OA 
HETATM   23  O   UNL     1     -10.930  17.651  66.619  1.00  0.00    -0.051 OA 
HETATM   24  O   UNL     1      -9.161  16.863  65.584  1.00  0.00    -0.499 OA 
HETATM   25  C   UNL     1     -11.174  14.269  68.972  1.00  0.00    -0.266 A  
HETATM   26  H   UNL     1     -12.842  16.221  69.106  1.00  0.00     0.000 HD 
HETATM   27  C   UNL     1     -10.216  13.278  68.825  1.00  0.00    -0.119 A  
HETATM   28  O   UNL     1     -12.163  14.079  69.897  1.00  0.00    -0.317 OA 
HETATM   29  H   UNL     1     -12.185  13.287  70.421  1.00  0.00     0.000 HD 
ENDBRANCH  15  17
ENDBRANCH   3  12
TORSDOF 2
ENDMDL
MODEL      220
REMARK 921   NORMALIZED FREE ENERGY PREDICTED BY IDOCK:   -3.32 KCAL/MOL
REMARK 922        TOTAL FREE ENERGY PREDICTED BY IDOCK:   -4.30 KCAL/MOL
REMARK 923 INTER-LIGAND FREE ENERGY PREDICTED BY IDOCK:   -3.68 KCAL/MOL
REMARK 924 INTRA-LIGAND FREE ENERGY PREDICTED BY IDOCK:   -0.61 KCAL/MOL
REMARK 927      BINDING AFFINITY PREDICTED BY RF-SCORE:    0.00 PKD
ROOT
HETATM    1  C   UNL     1      -6.144   6.630  63.952  1.00  0.00    -0.034 C  
HETATM    2  C   UNL     1      -7.236   5.943  64.749  1.00  0.00    -0.063 A  
HETATM    3  C   UNL     1      -8.228   6.648  65.489  1.00  0.00    -0.138 A  
HETATM    4 CL   UNL     1      -6.098   3.646  63.787  1.00  0.00    -0.014 Cl 
HETATM    5  C   UNL     1      -9.186   5.905  66.221  1.00  0.00    -0.158 A  
HETATM    6  C   UNL     1      -8.250   2.305  65.466  1.00  0.00    -0.087 C  
HETATM    7 CL   UNL     1     -10.467   6.692  67.116  1.00  0.00    -0.315 Cl 
HETATM    8  N   UNL     1      -9.168   4.492  66.215  1.00  0.00    -0.129 NA 
HETATM    9  C   UNL     1      -8.212   3.808  65.466  1.00  0.00    -0.101 A  
HETATM   10  O   UNL     1     -10.035   3.830  66.884  1.00  0.00    -0.109 OA 
HETATM   11  C   UNL     1      -7.261   4.532  64.736  1.00  0.00    -0.063 A  
ENDROOT
BRANCH   3  12
HETATM   12  C   UNL     1      -8.277   8.115  65.460  1.00  0.00    -0.144 A  
HETATM   13  O   UNL     1      -8.781  10.175  65.021  1.00  0.00    -0.153 OA 
HETATM   14  N   UNL     1      -8.933   8.862  64.555  1.00  0.00    -0.046 NA 
HETATM   15  C   UNL     1      -8.068  10.086  66.179  1.00  0.00    -0.122 A  
HETATM   16  N   UNL     1      -7.688   8.858  66.453  1.00  0.00    -0.094 NA 
BRANCH  15  17
HETATM   17  C   UNL     1      -7.920  11.274  67.017  1.00  0.00    -0.150 A  
HETATM   18  C   UNL     1      -8.324  12.570  66.644  1.00  0.00     0.040 A  
HETATM   19  C   UNL     1      -8.143  13.654  67.536  1.00  0.00    -0.184 A  
HETATM   20  N   UNL     1      -8.560  14.998  67.129  1.00  0.00    -0.208 N  
HETATM   21  C   UNL     1      -7.574  13.450  68.800  1.00  0.00    -0.047 A  
HETATM   22  O   UNL     1      -7.345  14.410  69.754  1.00  0.00    -0.363 OA 
HETATM   23  O   UNL     1      -8.361  15.926  67.931  1.00  0.00    -0.151 OA 
HETATM   24  O   UNL     1      -9.082  15.133  66.015  1.00  0.00    -0.289 OA 
HETATM   25  C   UNL     1      -7.199  12.162  69.160  1.00  0.00     0.022 A  
HETATM   26  H   UNL     1      -6.959  14.272  70.611  1.00  0.00     0.000 HD 
HETATM   27  C   UNL     1      -7.364  11.093  68.295  1.00  0.00    -0.090 A  
HETATM   28  O   UNL     1      -6.653  11.920  70.390  1.00  0.00    -0.496 OA 
HETATM   29  H   UNL     1      -6.396  11.039  70.637  1.00  0.00     0.000 HD 
ENDBRANCH  15  17
ENDBRANCH   3  12
TORSDOF 2
ENDMDL
MODEL      221
REMARK 921   NORMALIZED FREE ENERGY PREDICTED BY IDOCK:   -3.29 KCAL/MOL
REMARK 922        TOTAL FREE ENERGY PREDICTED BY IDOCK:   -4.26 KCAL/MOL
REMARK 923 INTER-LIGAND FREE ENERGY PREDICTED BY IDOCK:   -3.66 KCAL/MOL
REMARK 924 INTRA-LIGAND FREE ENERGY PREDICTED BY IDOCK:   -0.60 KCAL/MOL
REMARK 927      BINDING AFFINITY PREDICTED BY RF-SCORE:    0.00 PKD
ROOT
HETATM    1  C   UNL     1     -10.542  15.202  68.144  1.00  0.00    -0.246 C  
HETATM    2  C   UNL     1      -9.301  16.050  67.948  1.00  0.00    -0.208 A  
HETATM    3  C   UNL     1      -7.984  15.511  67.889  1.00  0.00    -0.146 A  
HETATM    4 CL   UNL     1     -11.085  18.123  67.812  1.00  0.00    -0.096 Cl 
HETATM    5  C   UNL     1      -6.892  16.398  67.730  1.00  0.00    -0.134 A  
HETATM    6  C   UNL     1      -8.565  19.797  67.508  1.00  0.00    -0.377 C  
HETATM    7 CL   UNL     1      -5.248  15.814  67.600  1.00  0.00    -0.132 Cl 
HETATM    8  N   UNL     1      -7.099  17.792  67.624  1.00  0.00    -0.184 NA 
HETATM    9  C   UNL     1      -8.391  18.311  67.654  1.00  0.00    -0.247 A  
HETATM   10  O   UNL     1      -6.104  18.585  67.487  1.00  0.00    -0.172 OA 
HETATM   11  C   UNL     1      -9.479  17.443  67.807  1.00  0.00    -0.261 A  
ENDROOT
BRANCH   3  12
HETATM   12  C   UNL     1      -7.769  14.060  67.953  1.00  0.00    -0.159 A  
HETATM   13  O   UNL     1      -7.596  12.006  68.619  1.00  0.00    -0.122 OA 
HETATM   14  N   UNL     1      -7.670  13.328  69.076  1.00  0.00     0.079 NA 
HETATM   15  C   UNL     1      -7.684  12.070  67.260  1.00  0.00    -0.168 A  
HETATM   16  N   UNL     1      -7.730  13.303  66.808  1.00  0.00     0.324 NA 
BRANCH  15  17
HETATM   17  C   UNL     1      -7.843  10.833  66.498  1.00  0.00    -0.145 A  
HETATM   18  C   UNL     1      -8.223  10.773  65.143  1.00  0.00    -0.034 A  
HETATM   19  C   UNL     1      -8.340   9.521  64.495  1.00  0.00    -0.164 A  
HETATM   20  N   UNL     1      -8.747   9.474  63.088  1.00  0.00    -0.219 N  
HETATM   21  C   UNL     1      -8.070   8.331  65.184  1.00  0.00    -0.142 A  
HETATM   22  O   UNL     1      -8.146   7.060  64.675  1.00  0.00    -0.164 OA 
HETATM   23  O   UNL     1      -8.862   8.355  62.562  1.00  0.00    -0.060 OA 
HETATM   24  O   UNL     1      -8.953  10.548  62.507  1.00  0.00    -0.216 OA 
HETATM   25  C   UNL     1      -7.677   8.410  66.514  1.00  0.00    -0.089 A  
HETATM   26  H   UNL     1      -7.962   6.254  65.142  1.00  0.00     0.000 HD 
HETATM   27  C   UNL     1      -7.563   9.628  67.165  1.00  0.00    -0.091 A  
HETATM   28  O   UNL     1      -7.389   7.273  67.218  1.00  0.00    -0.092 OA 
HETATM   29  H   UNL     1      -7.121   7.326  68.128  1.00  0.00     0.000 HD 
ENDBRANCH  15  17
ENDBRANCH   3  12
TORSDOF 2
ENDMDL
MODEL      222
REMARK 921   NORMALIZED FREE ENERGY PREDICTED BY IDOCK:   -3.19 KCAL/MOL
REMARK 922        TOTAL FREE ENERGY PREDICTED BY IDOCK:   -4.16 KCAL/MOL
REMARK 923 INTER-LIGAND FREE ENERGY PREDICTED BY IDOCK:   -3.58 KCAL/MOL
REMARK 924 INTRA-LIGAND FREE ENERGY PREDICTED BY IDOCK:   -0.57 KCAL/MOL
REMARK 927      BINDING AFFINITY PREDICTED BY RF-SCORE:    0.00 PKD
ROOT
HETATM    1  C   UNL     1      -8.103  17.387  65.762  1.00  0.00     0.177 C  
HETATM    2  C   UNL     1      -7.861  18.340  66.916  1.00  0.00    -0.247 A  
HETATM    3  C   UNL     1      -8.698  18.409  68.065  1.00  0.00    -0.302 A  
HETATM    4 CL   UNL     1      -5.658  19.081  65.468  1.00  0.00    -0.195 Cl 
HETATM    5  C   UNL     1      -8.394  19.357  69.073  1.00  0.00    -0.223 A  
HETATM    6  C   UNL     1      -5.255  21.038  67.760  1.00  0.00    -0.310 C  
HETATM    7 CL   UNL     1      -9.343  19.472  70.538  1.00  0.00     1.244 Cl 
HETATM    8  N   UNL     1      -7.280  20.215  68.949  1.00  0.00    -0.176 NA 
HETATM    9  C   UNL     1      -6.447  20.124  67.835  1.00  0.00    -0.250 A  
HETATM   10  O   UNL     1      -7.017  21.072  69.862  1.00  0.00     0.896 OA 
HETATM   11  C   UNL     1      -6.736  19.188  66.834  1.00  0.00    -0.196 A  
ENDROOT
BRANCH   3  12
HETATM   12  C   UNL     1      -9.831  17.487  68.219  1.00  0.00    -0.319 A  
HETATM   13  O   UNL     1     -11.772  16.533  68.104  1.00  0.00    -0.062 OA 
HETATM   14  N   UNL     1     -11.107  17.747  67.888  1.00  0.00    -0.079 NA 
HETATM   15  C   UNL     1     -10.821  15.650  68.521  1.00  0.00    -0.282 A  
HETATM   16  N   UNL     1      -9.637  16.202  68.664  1.00  0.00    -0.217 NA 
BRANCH  15  17
HETATM   17  C   UNL     1     -11.165  14.234  68.633  1.00  0.00    -0.287 A  
HETATM   18  C   UNL     1     -10.916  13.270  67.638  1.00  0.00    -0.281 A  
HETATM   19  C   UNL     1     -11.282  11.920  67.850  1.00  0.00    -0.263 A  
HETATM   20  N   UNL     1     -11.026  10.931  66.800  1.00  0.00    -0.228 N  
HETATM   21  C   UNL     1     -11.882  11.524  69.053  1.00  0.00    -0.343 A  
HETATM   22  O   UNL     1     -12.282  10.254  69.383  1.00  0.00    -0.521 OA 
HETATM   23  O   UNL     1     -11.384   9.761  67.015  1.00  0.00     0.110 OA 
HETATM   24  O   UNL     1     -10.471  11.316  65.762  1.00  0.00    -0.246 OA 
HETATM   25  C   UNL     1     -12.103  12.484  70.033  1.00  0.00    -0.266 A  
HETATM   26  H   UNL     1     -12.689   9.985  70.198  1.00  0.00     0.000 HD 
HETATM   27  C   UNL     1     -11.756  13.810  69.837  1.00  0.00    -0.353 A  
HETATM   28  O   UNL     1     -12.672  12.134  71.226  1.00  0.00    -0.366 OA 
HETATM   29  H   UNL     1     -12.824  12.791  71.896  1.00  0.00     0.000 HD 
ENDBRANCH  15  17
ENDBRANCH   3  12
TORSDOF 2
ENDMDL
MODEL      223
REMARK 921   NORMALIZED FREE ENERGY PREDICTED BY IDOCK:   -3.13 KCAL/MOL
REMARK 922        TOTAL FREE ENERGY PREDICTED BY IDOCK:   -4.09 KCAL/MOL
REMARK 923 INTER-LIGAND FREE ENERGY PREDICTED BY IDOCK:   -4.74 KCAL/MOL
REMARK 924 INTRA-LIGAND FREE ENERGY PREDICTED BY IDOCK:    0.65 KCAL/MOL
REMARK 927      BINDING AFFINITY PREDICTED BY RF-SCORE:    0.00 PKD
ROOT
HETATM    1  C   UNL     1     -11.101  16.815  65.526  1.00  0.00     0.099 C  
HETATM    2  C   UNL     1     -10.125  17.352  66.555  1.00  0.00    -0.320 A  
HETATM    3  C   UNL     1      -9.493  16.536  67.536  1.00  0.00    -0.224 A  
HETATM    4 CL   UNL     1     -10.543  19.742  65.287  1.00  0.00    -0.205 Cl 
HETATM    5  C   UNL     1      -8.618  17.146  68.467  1.00  0.00    -0.258 A  
HETATM    6  C   UNL     1      -8.648  20.794  67.421  1.00  0.00    -0.218 C  
HETATM    7 CL   UNL     1      -7.764  16.208  69.672  1.00  0.00    -0.013 Cl 
HETATM    8  N   UNL     1      -8.368  18.536  68.425  1.00  0.00    -0.324 NA 
HETATM    9  C   UNL     1      -8.967  19.325  67.445  1.00  0.00    -0.296 A  
HETATM   10  O   UNL     1      -7.580  19.079  69.275  1.00  0.00    -0.247 OA 
HETATM   11  C   UNL     1      -9.832  18.732  66.517  1.00  0.00    -0.368 A  
ENDROOT
BRANCH   3  12
HETATM   12  C   UNL     1      -9.715  15.085  67.554  1.00  0.00    -0.215 A  
HETATM   13  O   UNL     1     -10.489  13.090  67.214  1.00  0.00    -0.237 OA 
HETATM   14  N   UNL     1     -10.802  14.449  67.085  1.00  0.00    -0.288 NA 
HETATM   15  C   UNL     1      -9.227  13.040  67.728  1.00  0.00    -0.200 A  
HETATM   16  N   UNL     1      -8.741  14.229  68.006  1.00  0.00    -0.168 NA 
BRANCH  15  17
HETATM   17  C   UNL     1      -8.533  11.755  67.789  1.00  0.00    -0.147 A  
HETATM   18  C   UNL     1      -7.914  11.236  68.942  1.00  0.00    -0.104 A  
HETATM   19  C   UNL     1      -7.275   9.974  68.896  1.00  0.00    -0.077 A  
HETATM   20  N   UNL     1      -6.627   9.452  70.101  1.00  0.00    -0.054 N  
HETATM   21  C   UNL     1      -7.259   9.225  67.712  1.00  0.00    -0.083 A  
HETATM   22  O   UNL     1      -6.677   7.995  67.536  1.00  0.00    -0.065 OA 
HETATM   23  O   UNL     1      -6.055   8.352  70.013  1.00  0.00    -0.031 OA 
HETATM   24  O   UNL     1      -6.684  10.133  71.134  1.00  0.00    -0.335 OA 
HETATM   25  C   UNL     1      -7.892   9.743  66.589  1.00  0.00    -0.109 A  
HETATM   26  H   UNL     1      -6.667   7.486  66.733  1.00  0.00     0.000 HD 
HETATM   27  C   UNL     1      -8.517  10.979  66.617  1.00  0.00    -0.153 A  
HETATM   28  O   UNL     1      -7.911   9.035  65.419  1.00  0.00    -0.104 OA 
HETATM   29  H   UNL     1      -8.344   9.390  64.651  1.00  0.00     0.000 HD 
ENDBRANCH  15  17
ENDBRANCH   3  12
TORSDOF 2
ENDMDL
MODEL      224
REMARK 921   NORMALIZED FREE ENERGY PREDICTED BY IDOCK:   -3.06 KCAL/MOL
REMARK 922        TOTAL FREE ENERGY PREDICTED BY IDOCK:   -4.01 KCAL/MOL
REMARK 923 INTER-LIGAND FREE ENERGY PREDICTED BY IDOCK:   -4.65 KCAL/MOL
REMARK 924 INTRA-LIGAND FREE ENERGY PREDICTED BY IDOCK:    0.64 KCAL/MOL
REMARK 927      BINDING AFFINITY PREDICTED BY RF-SCORE:    0.00 PKD
ROOT
HETATM    1  C   UNL     1      -8.997  11.534  67.500  1.00  0.00    -0.159 C  
HETATM    2  C   UNL     1     -10.205  11.914  68.334  1.00  0.00    -0.205 A  
HETATM    3  C   UNL     1     -11.004  10.967  69.034  1.00  0.00    -0.285 A  
HETATM    4 CL   UNL     1      -9.535  14.472  67.621  1.00  0.00    -0.206 Cl 
HETATM    5  C   UNL     1     -12.128  11.429  69.761  1.00  0.00    -0.320 A  
HETATM    6  C   UNL     1     -12.015  15.185  69.231  1.00  0.00    -0.322 C  
HETATM    7 CL   UNL     1     -13.133  10.337  70.688  1.00  0.00    -0.377 Cl 
HETATM    8  N   UNL     1     -12.451  12.804  69.800  1.00  0.00     0.006 NA 
HETATM    9  C   UNL     1     -11.649  13.730  69.136  1.00  0.00    -0.317 A  
HETATM   10  O   UNL     1     -13.472  13.211  70.455  1.00  0.00     0.460 OA 
HETATM   11  C   UNL     1     -10.533  13.284  68.417  1.00  0.00    -0.253 A  
ENDROOT
BRANCH   3  12
HETATM   12  C   UNL     1     -10.645   9.543  69.033  1.00  0.00    -0.219 A  
HETATM   13  O   UNL     1     -10.507   7.428  69.479  1.00  0.00    -0.221 OA 
HETATM   14  N   UNL     1     -10.954   8.653  69.991  1.00  0.00    -0.234 NA 
HETATM   15  C   UNL     1      -9.992   7.699  68.246  1.00  0.00    -0.176 A  
HETATM   16  N   UNL     1     -10.000   8.981  67.958  1.00  0.00    -0.168 NA 
BRANCH  15  17
HETATM   17  C   UNL     1      -9.627   6.589  67.367  1.00  0.00    -0.142 A  
HETATM   18  C   UNL     1      -9.072   6.737  66.082  1.00  0.00    -0.138 A  
HETATM   19  C   UNL     1      -8.747   5.594  65.314  1.00  0.00    -0.118 A  
HETATM   20  N   UNL     1      -8.180   5.765  63.974  1.00  0.00    -0.113 N  
HETATM   21  C   UNL     1      -8.960   4.307  65.824  1.00  0.00    -0.129 A  
HETATM   22  O   UNL     1      -8.689   3.123  65.186  1.00  0.00    -0.107 OA 
HETATM   23  O   UNL     1      -7.930   4.737  63.322  1.00  0.00    -0.076 OA 
HETATM   24  O   UNL     1      -7.983   6.919  63.569  1.00  0.00    -0.122 OA 
HETATM   25  C   UNL     1      -9.490   4.178  67.102  1.00  0.00    -0.189 A  
HETATM   26  H   UNL     1      -8.833   2.250  65.532  1.00  0.00     0.000 HD 
HETATM   27  C   UNL     1      -9.819   5.288  67.863  1.00  0.00    -0.189 A  
HETATM   28  O   UNL     1      -9.699   2.939  67.642  1.00  0.00    -0.333 OA 
HETATM   29  H   UNL     1     -10.062   2.851  68.515  1.00  0.00     0.000 HD 
ENDBRANCH  15  17
ENDBRANCH   3  12
TORSDOF 2
ENDMDL
MODEL      225
REMARK 921   NORMALIZED FREE ENERGY PREDICTED BY IDOCK:   -3.05 KCAL/MOL
REMARK 922        TOTAL FREE ENERGY PREDICTED BY IDOCK:   -4.00 KCAL/MOL
REMARK 923 INTER-LIGAND FREE ENERGY PREDICTED BY IDOCK:   -4.40 KCAL/MOL
REMARK 924 INTRA-LIGAND FREE ENERGY PREDICTED BY IDOCK:    0.40 KCAL/MOL
REMARK 927      BINDING AFFINITY PREDICTED BY RF-SCORE:    0.00 PKD
ROOT
HETATM    1  C   UNL     1     -11.197  12.012  68.109  1.00  0.00    -0.316 C  
HETATM    2  C   UNL     1     -10.865  11.709  66.661  1.00  0.00    -0.327 A  
HETATM    3  C   UNL     1      -9.888  10.752  66.264  1.00  0.00    -0.262 A  
HETATM    4 CL   UNL     1     -12.825  13.544  66.124  1.00  0.00    -0.220 Cl 
HETATM    5  C   UNL     1      -9.638  10.568  64.882  1.00  0.00    -0.277 A  
HETATM    6  C   UNL     1     -12.069  12.971  63.235  1.00  0.00    -0.499 C  
HETATM    7 CL   UNL     1      -8.489   9.378  64.310  1.00  0.00    -0.180 Cl 
HETATM    8  N   UNL     1     -10.346  11.311  63.911  1.00  0.00    -0.348 NA 
HETATM    9  C   UNL     1     -11.321  12.225  64.304  1.00  0.00    -0.352 A  
HETATM   10  O   UNL     1     -10.108  11.140  62.665  1.00  0.00    -0.146 OA 
HETATM   11  C   UNL     1     -11.579  12.413  65.668  1.00  0.00    -0.392 A  
ENDROOT
BRANCH   3  12
HETATM   12  C   UNL     1      -9.183   9.946  67.269  1.00  0.00    -0.138 A  
HETATM   13  O   UNL     1      -8.279   9.221  69.099  1.00  0.00    -0.105 OA 
HETATM   14  N   UNL     1      -8.781  10.372  68.479  1.00  0.00    -0.128 NA 
HETATM   15  C   UNL     1      -8.451   8.205  68.206  1.00  0.00    -0.130 A  
HETATM   16  N   UNL     1      -8.942   8.611  67.057  1.00  0.00    -0.130 NA 
BRANCH  15  17
HETATM   17  C   UNL     1      -8.211   6.829  68.638  1.00  0.00    -0.120 A  
HETATM   18  C   UNL     1      -9.134   6.045  69.356  1.00  0.00    -0.135 A  
HETATM   19  C   UNL     1      -8.806   4.718  69.720  1.00  0.00    -0.093 A  
HETATM   20  N   UNL     1      -9.773   3.919  70.476  1.00  0.00    -0.192 N  
HETATM   21  C   UNL     1      -7.569   4.165  69.363  1.00  0.00    -0.054 A  
HETATM   22  O   UNL     1      -7.130   2.898  69.652  1.00  0.00    -0.040 OA 
HETATM   23  O   UNL     1      -9.437   2.767  70.797  1.00  0.00    -0.141 OA 
HETATM   24  O   UNL     1     -10.865   4.434  70.751  1.00  0.00     0.471 OA 
HETATM   25  C   UNL     1      -6.677   4.946  68.638  1.00  0.00    -0.050 A  
HETATM   26  H   UNL     1      -6.291   2.524  69.409  1.00  0.00     0.000 HD 
HETATM   27  C   UNL     1      -6.982   6.249  68.279  1.00  0.00    -0.080 A  
HETATM   28  O   UNL     1      -5.466   4.438  68.257  1.00  0.00    -0.014 OA 
HETATM   29  H   UNL     1      -4.856   4.972  67.761  1.00  0.00     0.000 HD 
ENDBRANCH  15  17
ENDBRANCH   3  12
TORSDOF 2
ENDMDL
MODEL      226
REMARK 921   NORMALIZED FREE ENERGY PREDICTED BY IDOCK:   -2.62 KCAL/MOL
REMARK 922        TOTAL FREE ENERGY PREDICTED BY IDOCK:   -3.52 KCAL/MOL
REMARK 923 INTER-LIGAND FREE ENERGY PREDICTED BY IDOCK:   -3.58 KCAL/MOL
REMARK 924 INTRA-LIGAND FREE ENERGY PREDICTED BY IDOCK:    0.06 KCAL/MOL
REMARK 927      BINDING AFFINITY PREDICTED BY RF-SCORE:    0.00 PKD
ROOT
HETATM    1  C   UNL     1      -7.188  15.853  69.353  1.00  0.00    -0.214 C  
HETATM    2  C   UNL     1      -8.370  16.703  68.926  1.00  0.00    -0.230 A  
HETATM    3  C   UNL     1      -9.685  16.186  68.753  1.00  0.00    -0.233 A  
HETATM    4 CL   UNL     1      -6.551  18.749  68.971  1.00  0.00    -0.294 Cl 
HETATM    5  C   UNL     1     -10.710  17.064  68.325  1.00  0.00    -0.372 A  
HETATM    6  C   UNL     1      -8.926  20.401  68.034  1.00  0.00    -0.122 C  
HETATM    7 CL   UNL     1     -12.362  16.520  68.134  1.00  0.00     1.163 Cl 
HETATM    8  N   UNL     1     -10.441  18.429  68.080  1.00  0.00    -0.383 NA 
HETATM    9  C   UNL     1      -9.158  18.936  68.279  1.00  0.00    -0.323 A  
HETATM   10  O   UNL     1     -11.373  19.213  67.688  1.00  0.00    -0.115 OA 
HETATM   11  C   UNL     1      -8.137  18.077  68.705  1.00  0.00    -0.236 A  
ENDROOT
BRANCH   3  12
HETATM   12  C   UNL     1      -9.977  14.778  69.050  1.00  0.00    -0.218 A  
HETATM   13  O   UNL     1     -10.920  12.934  69.686  1.00  0.00     0.007 OA 
HETATM   14  N   UNL     1     -10.994  14.328  69.805  1.00  0.00    -0.136 NA 
HETATM   15  C   UNL     1      -9.876  12.682  68.847  1.00  0.00     0.155 A  
HETATM   16  N   UNL     1      -9.236  13.770  68.483  1.00  0.00    -0.176 NA 
BRANCH  15  17
HETATM   17  C   UNL     1      -9.669  11.319  68.359  1.00  0.00    -0.194 A  
HETATM   18  C   UNL     1     -10.109  10.158  69.022  1.00  0.00    -0.216 A  
HETATM   19  C   UNL     1      -9.864   8.883  68.458  1.00  0.00    -0.167 A  
HETATM   20  N   UNL     1     -10.320   7.684  69.164  1.00  0.00    -0.211 N  
HETATM   21  C   UNL     1      -9.192   8.762  67.234  1.00  0.00    -0.139 A  
HETATM   22  O   UNL     1      -8.893   7.592  66.583  1.00  0.00    -0.132 OA 
HETATM   23  O   UNL     1     -10.063   6.583  68.649  1.00  0.00    -0.148 OA 
HETATM   24  O   UNL     1     -10.931   7.834  70.231  1.00  0.00    -0.249 OA 
HETATM   25  C   UNL     1      -8.782   9.919  66.584  1.00  0.00    -0.128 A  
HETATM   26  H   UNL     1      -8.438   7.509  65.753  1.00  0.00     0.000 HD 
HETATM   27  C   UNL     1      -9.010  11.173  67.126  1.00  0.00    -0.145 A  
HETATM   28  O   UNL     1      -8.137   9.843  65.381  1.00  0.00    -0.125 OA 
HETATM   29  H   UNL     1      -7.855  10.634  64.936  1.00  0.00     0.000 HD 
ENDBRANCH  15  17
ENDBRANCH   3  12
TORSDOF 2
ENDMDL
MODEL      227
REMARK 921   NORMALIZED FREE ENERGY PREDICTED BY IDOCK:   -2.58 KCAL/MOL
REMARK 922        TOTAL FREE ENERGY PREDICTED BY IDOCK:   -3.47 KCAL/MOL
REMARK 923 INTER-LIGAND FREE ENERGY PREDICTED BY IDOCK:   -2.94 KCAL/MOL
REMARK 924 INTRA-LIGAND FREE ENERGY PREDICTED BY IDOCK:   -0.53 KCAL/MOL
REMARK 927      BINDING AFFINITY PREDICTED BY RF-SCORE:    0.00 PKD
ROOT
HETATM    1  C   UNL     1      -6.715  10.384  69.483  1.00  0.00    -0.081 C  
HETATM    2  C   UNL     1      -7.600  10.742  68.305  1.00  0.00    -0.098 A  
HETATM    3  C   UNL     1      -8.107   9.780  67.385  1.00  0.00    -0.114 A  
HETATM    4 CL   UNL     1      -7.381  13.291  69.279  1.00  0.00     0.119 Cl 
HETATM    5  C   UNL     1      -8.903  10.228  66.303  1.00  0.00    -0.146 A  
HETATM    6  C   UNL     1      -9.086  13.978  66.856  1.00  0.00    -0.262 C  
HETATM    7 CL   UNL     1      -9.605   9.107  65.157  1.00  0.00    -0.129 Cl 
HETATM    8  N   UNL     1      -9.198  11.600  66.137  1.00  0.00    -0.219 NA 
HETATM    9  C   UNL     1      -8.722  12.533  67.056  1.00  0.00    -0.205 A  
HETATM   10  O   UNL     1      -9.913  11.994  65.152  1.00  0.00    -0.252 OA 
HETATM   11  C   UNL     1      -7.937  12.102  68.132  1.00  0.00    -0.151 A  
ENDROOT
BRANCH   3  12
HETATM   12  C   UNL     1      -7.841   8.350  67.580  1.00  0.00    -0.107 A  
HETATM   13  O   UNL     1      -6.967   6.368  67.542  1.00  0.00    -0.073 OA 
HETATM   14  N   UNL     1      -6.919   7.624  66.924  1.00  0.00    -0.077 NA 
HETATM   15  C   UNL     1      -7.899   6.468  68.531  1.00  0.00    -0.106 A  
HETATM   16  N   UNL     1      -8.500   7.637  68.552  1.00  0.00    -0.129 NA 
BRANCH  15  17
HETATM   17  C   UNL     1      -8.035   5.378  69.495  1.00  0.00    -0.089 A  
HETATM   18  C   UNL     1      -7.740   5.484  70.867  1.00  0.00    -0.092 A  
HETATM   19  C   UNL     1      -7.914   4.367  71.718  1.00  0.00    -0.089 A  
HETATM   20  N   UNL     1      -7.593   4.490  73.142  1.00  0.00    -0.085 N  
HETATM   21  C   UNL     1      -8.391   3.151  71.212  1.00  0.00    -0.063 A  
HETATM   22  O   UNL     1      -8.604   1.999  71.926  1.00  0.00    -0.058 OA 
HETATM   23  O   UNL     1      -7.736   3.480  73.851  1.00  0.00    -0.064 OA 
HETATM   24  O   UNL     1      -7.198   5.588  73.556  1.00  0.00    -0.084 OA 
HETATM   25  C   UNL     1      -8.696   3.069  69.859  1.00  0.00    -0.076 A  
HETATM   26  H   UNL     1      -8.928   1.175  71.582  1.00  0.00     0.000 HD 
HETATM   27  C   UNL     1      -8.526   4.152  69.012  1.00  0.00    -0.101 A  
HETATM   28  O   UNL     1      -9.179   1.905  69.329  1.00  0.00    -0.106 OA 
HETATM   29  H   UNL     1      -9.387   1.848  68.403  1.00  0.00     0.000 HD 
ENDBRANCH  15  17
ENDBRANCH   3  12
TORSDOF 2
ENDMDL
MODEL      228
REMARK 921   NORMALIZED FREE ENERGY PREDICTED BY IDOCK:   -2.39 KCAL/MOL
REMARK 922        TOTAL FREE ENERGY PREDICTED BY IDOCK:   -3.26 KCAL/MOL
REMARK 923 INTER-LIGAND FREE ENERGY PREDICTED BY IDOCK:   -4.12 KCAL/MOL
REMARK 924 INTRA-LIGAND FREE ENERGY PREDICTED BY IDOCK:    0.85 KCAL/MOL
REMARK 927      BINDING AFFINITY PREDICTED BY RF-SCORE:    0.00 PKD
ROOT
HETATM    1  C   UNL     1      -6.968   4.844  67.331  1.00  0.00    -0.061 C  
HETATM    2  C   UNL     1      -7.660   4.258  66.116  1.00  0.00    -0.089 A  
HETATM    3  C   UNL     1      -9.039   4.462  65.824  1.00  0.00    -0.135 A  
HETATM    4 CL   UNL     1      -5.175   3.266  65.534  1.00  0.00    -0.008 Cl 
HETATM    5  C   UNL     1      -9.590   3.845  64.675  1.00  0.00    -0.175 A  
HETATM    6  C   UNL     1      -6.619   2.037  63.155  1.00  0.00    -0.021 C  
HETATM    7 CL   UNL     1     -11.262   4.085  64.218  1.00  0.00     0.037 Cl 
HETATM    8  N   UNL     1      -8.791   3.045  63.827  1.00  0.00    -0.092 NA 
HETATM    9  C   UNL     1      -7.436   2.871  64.102  1.00  0.00    -0.067 A  
HETATM   10  O   UNL     1      -9.300   2.487  62.794  1.00  0.00    -0.091 OA 
HETATM   11  C   UNL     1      -6.879   3.480  65.234  1.00  0.00    -0.049 A  
ENDROOT
BRANCH   3  12
HETATM   12  C   UNL     1      -9.861   5.329  66.677  1.00  0.00    -0.179 A  
HETATM   13  O   UNL     1     -11.485   6.486  67.524  1.00  0.00    -0.168 OA 
HETATM   14  N   UNL     1     -11.060   5.844  66.353  1.00  0.00    -0.009 NA 
HETATM   15  C   UNL     1     -10.507   6.273  68.449  1.00  0.00    -0.227 A  
HETATM   16  N   UNL     1      -9.472   5.626  67.961  1.00  0.00    -0.108 NA 
BRANCH  15  17
HETATM   17  C   UNL     1     -10.750   6.646  69.841  1.00  0.00    -0.297 A  
HETATM   18  C   UNL     1     -11.844   7.415  70.283  1.00  0.00    -0.037 A  
HETATM   19  C   UNL     1     -11.991   7.714  71.658  1.00  0.00    -0.299 A  
HETATM   20  N   UNL     1     -13.129   8.524  72.100  1.00  0.00    -0.357 N  
HETATM   21  C   UNL     1     -11.063   7.242  72.594  1.00  0.00    -0.313 A  
HETATM   22  O   UNL     1     -11.091   7.460  73.949  1.00  0.00    -0.488 OA 
HETATM   23  O   UNL     1     -13.210   8.786  73.312  1.00  0.00    -0.056 OA 
HETATM   24  O   UNL     1     -13.941   8.902  71.244  1.00  0.00    -0.315 OA 
HETATM   25  C   UNL     1     -10.000   6.468  72.145  1.00  0.00    -0.161 A  
HETATM   26  H   UNL     1     -10.461   7.139  74.584  1.00  0.00     0.000 HD 
HETATM   27  C   UNL     1      -9.839   6.172  70.801  1.00  0.00    -0.220 A  
HETATM   28  O   UNL     1      -9.081   5.976  73.029  1.00  0.00    -0.132 OA 
HETATM   29  H   UNL     1      -8.354   5.447  72.722  1.00  0.00     0.000 HD 
ENDBRANCH  15  17
ENDBRANCH   3  12
TORSDOF 2
ENDMDL
MODEL      229
REMARK 921   NORMALIZED FREE ENERGY PREDICTED BY IDOCK:   -1.62 KCAL/MOL
REMARK 922        TOTAL FREE ENERGY PREDICTED BY IDOCK:   -2.40 KCAL/MOL
REMARK 923 INTER-LIGAND FREE ENERGY PREDICTED BY IDOCK:   -3.30 KCAL/MOL
REMARK 924 INTRA-LIGAND FREE ENERGY PREDICTED BY IDOCK:    0.90 KCAL/MOL
REMARK 927      BINDING AFFINITY PREDICTED BY RF-SCORE:    0.00 PKD
ROOT
HETATM    1  C   UNL     1      -6.471   8.517  69.681  1.00  0.00    -0.039 C  
HETATM    2  C   UNL     1      -7.515   7.941  68.744  1.00  0.00    -0.095 A  
HETATM    3  C   UNL     1      -8.202   8.715  67.766  1.00  0.00    -0.118 A  
HETATM    4 CL   UNL     1      -6.930   5.580  70.001  1.00  0.00    -0.059 Cl 
HETATM    5  C   UNL     1      -9.179   8.081  66.960  1.00  0.00    -0.147 A  
HETATM    6  C   UNL     1      -9.091   4.483  68.165  1.00  0.00    -0.155 C  
HETATM    7 CL   UNL     1     -10.033   8.947  65.703  1.00  0.00    -0.031 Cl 
HETATM    8  N   UNL     1      -9.467   6.706  67.116  1.00  0.00    -0.132 NA 
HETATM    9  C   UNL     1      -8.772   5.948  68.055  1.00  0.00    -0.111 A  
HETATM   10  O   UNL     1     -10.356   6.144  66.387  1.00  0.00    -0.137 OA 
HETATM   11  C   UNL     1      -7.801   6.564  68.855  1.00  0.00    -0.110 A  
ENDROOT
BRANCH   3  12
HETATM   12  C   UNL     1      -7.873  10.132  67.571  1.00  0.00    -0.102 A  
HETATM   13  O   UNL     1      -7.808  12.179  66.864  1.00  0.00    -0.146 OA 
HETATM   14  N   UNL     1      -8.262  10.895  66.534  1.00  0.00    -0.151 NA 
HETATM   15  C   UNL     1      -7.209  12.067  68.083  1.00  0.00    -0.090 A  
HETATM   16  N   UNL     1      -7.172  10.829  68.524  1.00  0.00    -0.083 NA 
BRANCH  15  17
HETATM   17  C   UNL     1      -6.812  13.280  68.795  1.00  0.00    -0.102 A  
HETATM   18  C   UNL     1      -6.309  13.307  70.110  1.00  0.00     0.027 A  
HETATM   19  C   UNL     1      -5.945  14.538  70.705  1.00  0.00    -0.173 A  
HETATM   20  N   UNL     1      -5.432  14.549  72.077  1.00  0.00    -0.120 N  
HETATM   21  C   UNL     1      -6.069  15.739  69.995  1.00  0.00    -0.143 A  
HETATM   22  O   UNL     1      -5.753  16.992  70.454  1.00  0.00    -0.212 OA 
HETATM   23  O   UNL     1      -5.147  15.652  72.573  1.00  0.00    -0.107 OA 
HETATM   24  O   UNL     1      -5.314  13.464  72.663  1.00  0.00    -0.387 OA 
HETATM   25  C   UNL     1      -6.549  15.693  68.692  1.00  0.00    -0.110 A  
HETATM   26  H   UNL     1      -5.837  17.806  69.972  1.00  0.00     0.000 HD 
HETATM   27  C   UNL     1      -6.915  14.496  68.097  1.00  0.00    -0.125 A  
HETATM   28  O   UNL     1      -6.671  16.842  67.960  1.00  0.00    -0.137 OA 
HETATM   29  H   UNL     1      -6.999  16.811  67.069  1.00  0.00     0.000 HD 
ENDBRANCH  15  17
ENDBRANCH   3  12
TORSDOF 2
ENDMDL
MODEL      230
REMARK 921   NORMALIZED FREE ENERGY PREDICTED BY IDOCK:   -0.48 KCAL/MOL
REMARK 922        TOTAL FREE ENERGY PREDICTED BY IDOCK:   -1.12 KCAL/MOL
REMARK 923 INTER-LIGAND FREE ENERGY PREDICTED BY IDOCK:   -1.29 KCAL/MOL
REMARK 924 INTRA-LIGAND FREE ENERGY PREDICTED BY IDOCK:    0.16 KCAL/MOL
REMARK 927      BINDING AFFINITY PREDICTED BY RF-SCORE:    0.00 PKD
ROOT
HETATM    1  C   UNL     1      -6.808  16.966  66.197  1.00  0.00     0.062 C  
HETATM    2  C   UNL     1      -6.484  17.215  67.658  1.00  0.00    -0.164 A  
HETATM    3  C   UNL     1      -6.192  16.175  68.585  1.00  0.00    -0.117 A  
HETATM    4 CL   UNL     1      -6.756  19.852  66.972  1.00  0.00    -0.224 Cl 
HETATM    5  C   UNL     1      -5.929  16.519  69.933  1.00  0.00    -0.201 A  
HETATM    6  C   UNL     1      -6.186  20.306  69.925  1.00  0.00    -0.354 C  
HETATM    7 CL   UNL     1      -5.514  15.307  71.124  1.00  0.00    -0.069 Cl 
HETATM    8  N   UNL     1      -5.948  17.867  70.355  1.00  0.00    -0.070 NA 
HETATM    9  C   UNL     1      -6.206  18.884  69.437  1.00  0.00    -0.270 A  
HETATM   10  O   UNL     1      -5.714  18.168  71.577  1.00  0.00     0.167 OA 
HETATM   11  C   UNL     1      -6.464  18.556  68.100  1.00  0.00    -0.208 A  
ENDROOT
BRANCH   3  12
HETATM   12  C   UNL     1      -6.127  14.777  68.140  1.00  0.00    -0.141 A  
HETATM   13  O   UNL     1      -5.614  12.686  67.908  1.00  0.00    -0.081 OA 
HETATM   14  N   UNL     1      -5.171  13.891  68.469  1.00  0.00    -0.086 NA 
HETATM   15  C   UNL     1      -6.810  12.961  67.316  1.00  0.00    -0.057 A  
HETATM   16  N   UNL     1      -7.133  14.233  67.380  1.00  0.00    -0.166 NA 
BRANCH  15  17
HETATM   17  C   UNL     1      -7.628  11.857  66.817  1.00  0.00    -0.034 A  
HETATM   18  C   UNL     1      -9.034  11.814  66.876  1.00  0.00    -0.195 A  
HETATM   19  C   UNL     1      -9.732  10.699  66.355  1.00  0.00    -0.196 A  
HETATM   20  N   UNL     1     -11.195  10.665  66.433  1.00  0.00     0.116 N  
HETATM   21  C   UNL     1      -9.038   9.633  65.767  1.00  0.00    -0.185 A  
HETATM   22  O   UNL     1      -9.592   8.500  65.227  1.00  0.00    -0.374 OA 
HETATM   23  O   UNL     1     -11.769   9.658  65.987  1.00  0.00     2.425 OA 
HETATM   24  O   UNL     1     -11.773  11.637  66.938  1.00  0.00    -0.552 OA 
HETATM   25  C   UNL     1      -7.652   9.700  65.699  1.00  0.00    -0.107 A  
HETATM   26  H   UNL     1      -9.122   7.778  64.827  1.00  0.00     0.000 HD 
HETATM   27  C   UNL     1      -6.955  10.783  66.210  1.00  0.00    -0.134 A  
HETATM   28  O   UNL     1      -6.939   8.688  65.119  1.00  0.00    -0.071 OA 
HETATM   29  H   UNL     1      -5.991   8.733  65.073  1.00  0.00     0.000 HD 
ENDBRANCH  15  17
ENDBRANCH   3  12
TORSDOF 2
ENDMDL
MODEL      231
REMARK 921   NORMALIZED FREE ENERGY PREDICTED BY IDOCK:   -0.17 KCAL/MOL
REMARK 922        TOTAL FREE ENERGY PREDICTED BY IDOCK:   -0.78 KCAL/MOL
REMARK 923 INTER-LIGAND FREE ENERGY PREDICTED BY IDOCK:   -0.24 KCAL/MOL
REMARK 924 INTRA-LIGAND FREE ENERGY PREDICTED BY IDOCK:   -0.54 KCAL/MOL
REMARK 927      BINDING AFFINITY PREDICTED BY RF-SCORE:    0.00 PKD
ROOT
HETATM    1  C   UNL     1      -6.122   9.493  70.341  1.00  0.00    -0.059 C  
HETATM    2  C   UNL     1      -6.460  10.417  69.188  1.00  0.00    -0.048 A  
HETATM    3  C   UNL     1      -6.746   9.957  67.872  1.00  0.00    -0.068 A  
HETATM    4 CL   UNL     1      -6.217  12.390  71.071  1.00  0.00     0.653 Cl 
HETATM    5  C   UNL     1      -7.023  10.910  66.862  1.00  0.00    -0.119 A  
HETATM    6  C   UNL     1      -6.813  14.216  68.714  1.00  0.00    -0.101 C  
HETATM    7 CL   UNL     1      -7.431  10.426  65.231  1.00  0.00    -0.138 Cl 
HETATM    8  N   UNL     1      -7.024  12.293  67.150  1.00  0.00    -0.135 NA 
HETATM    9  C   UNL     1      -6.772  12.737  68.447  1.00  0.00    -0.087 A  
HETATM   10  O   UNL     1      -7.270  13.147  66.230  1.00  0.00     1.290 OA 
HETATM   11  C   UNL     1      -6.500  11.803  69.455  1.00  0.00    -0.120 A  
ENDROOT
BRANCH   3  12
HETATM   12  C   UNL     1      -6.790   8.519  67.579  1.00  0.00    -0.071 A  
HETATM   13  O   UNL     1      -6.276   6.483  67.045  1.00  0.00    -0.036 OA 
HETATM   14  N   UNL     1      -5.815   7.805  66.990  1.00  0.00    -0.042 NA 
HETATM   15  C   UNL     1      -7.477   6.528  67.688  1.00  0.00    -0.097 A  
HETATM   16  N   UNL     1      -7.858   7.752  67.977  1.00  0.00    -0.122 NA 
BRANCH  15  17
HETATM   17  C   UNL     1      -8.118   5.276  68.086  1.00  0.00    -0.095 A  
HETATM   18  C   UNL     1      -8.187   4.799  69.409  1.00  0.00    -0.076 A  
HETATM   19  C   UNL     1      -8.841   3.575  69.689  1.00  0.00    -0.091 A  
HETATM   20  N   UNL     1      -8.895   3.088  71.069  1.00  0.00    -0.078 N  
HETATM   21  C   UNL     1      -9.435   2.832  68.660  1.00  0.00    -0.123 A  
HETATM   22  O   UNL     1     -10.095   1.637  68.797  1.00  0.00     0.119 OA 
HETATM   23  O   UNL     1      -9.456   1.998  71.270  1.00  0.00    -0.116 OA 
HETATM   24  O   UNL     1      -8.380   3.786  71.953  1.00  0.00    -0.082 OA 
HETATM   25  C   UNL     1      -9.375   3.327  67.363  1.00  0.00    -0.201 A  
HETATM   26  H   UNL     1     -10.498   1.134  68.099  1.00  0.00     0.000 HD 
HETATM   27  C   UNL     1      -8.734   4.520  67.073  1.00  0.00    -0.104 A  
HETATM   28  O   UNL     1      -9.955   2.638  66.334  1.00  0.00    -0.098 OA 
HETATM   29  H   UNL     1      -9.914   2.976  65.447  1.00  0.00     0.000 HD 
ENDBRANCH  15  17
ENDBRANCH   3  12
TORSDOF 2
ENDMDL
MODEL      232
REMARK 921   NORMALIZED FREE ENERGY PREDICTED BY IDOCK:   -0.05 KCAL/MOL
REMARK 922        TOTAL FREE ENERGY PREDICTED BY IDOCK:   -0.65 KCAL/MOL
REMARK 923 INTER-LIGAND FREE ENERGY PREDICTED BY IDOCK:   -0.83 KCAL/MOL
REMARK 924 INTRA-LIGAND FREE ENERGY PREDICTED BY IDOCK:    0.19 KCAL/MOL
REMARK 927      BINDING AFFINITY PREDICTED BY RF-SCORE:    0.00 PKD
ROOT
HETATM    1  C   UNL     1      -7.986  12.741  67.543  1.00  0.00    -0.177 C  
HETATM    2  C   UNL     1      -8.719  13.793  68.353  1.00  0.00    -0.162 A  
HETATM    3  C   UNL     1      -9.729  13.485  69.307  1.00  0.00     0.526 A  
HETATM    4 CL   UNL     1      -7.080  15.543  67.030  1.00  0.00    -0.165 Cl 
HETATM    5  C   UNL     1     -10.369  14.549  69.989  1.00  0.00     0.334 A  
HETATM    6  C   UNL     1      -8.632  17.628  68.610  1.00  0.00    -0.264 C  
HETATM    7 CL   UNL     1     -11.586  14.254  71.210  1.00  0.00    -0.099 Cl 
HETATM    8  N   UNL     1     -10.010  15.892  69.737  1.00  0.00    -0.254 NA 
HETATM    9  C   UNL     1      -9.000  16.186  68.823  1.00  0.00    -0.236 A  
HETATM   10  O   UNL     1     -10.598  16.846  70.354  1.00  0.00     0.067 OA 
HETATM   11  C   UNL     1      -8.358  15.142  68.145  1.00  0.00    -0.147 A  
ENDROOT
BRANCH   3  12
HETATM   12  C   UNL     1     -10.073  12.088  69.604  1.00  0.00     1.021 A  
HETATM   13  O   UNL     1     -11.122  10.214  69.882  1.00  0.00    -0.254 OA 
HETATM   14  N   UNL     1     -11.316  11.592  69.721  1.00  0.00    -0.237 NA 
HETATM   15  C   UNL     1      -9.776  10.012  69.820  1.00  0.00    -0.226 A  
HETATM   16  N   UNL     1      -9.094  11.131  69.712  1.00  0.00     0.729 NA 
BRANCH  15  17
HETATM   17  C   UNL     1      -9.263   8.645  69.750  1.00  0.00    -0.154 A  
HETATM   18  C   UNL     1      -8.741   8.046  68.588  1.00  0.00    -0.131 A  
HETATM   19  C   UNL     1      -8.261   6.716  68.629  1.00  0.00    -0.119 A  
HETATM   20  N   UNL     1      -7.731   6.104  67.409  1.00  0.00    -0.093 N  
HETATM   21  C   UNL     1      -8.289   5.984  69.824  1.00  0.00    -0.126 A  
HETATM   22  O   UNL     1      -7.857   4.694  69.998  1.00  0.00    -0.059 OA 
HETATM   23  O   UNL     1      -7.342   4.926  67.481  1.00  0.00    -0.076 OA 
HETATM   24  O   UNL     1      -7.700   6.791  66.379  1.00  0.00    -0.094 OA 
HETATM   25  C   UNL     1      -8.789   6.596  70.966  1.00  0.00    -0.142 A  
HETATM   26  H   UNL     1      -7.875   4.198  70.808  1.00  0.00     0.000 HD 
HETATM   27  C   UNL     1      -9.267   7.896  70.940  1.00  0.00    -0.160 A  
HETATM   28  O   UNL     1      -8.819   5.921  72.155  1.00  0.00    -0.136 OA 
HETATM   29  H   UNL     1      -9.161   6.340  72.936  1.00  0.00     0.000 HD 
ENDBRANCH  15  17
ENDBRANCH   3  12
TORSDOF 2
ENDMDL
MODEL      233
REMARK 921   NORMALIZED FREE ENERGY PREDICTED BY IDOCK:    4.11 KCAL/MOL
REMARK 922        TOTAL FREE ENERGY PREDICTED BY IDOCK:    4.00 KCAL/MOL
REMARK 923 INTER-LIGAND FREE ENERGY PREDICTED BY IDOCK:    3.29 KCAL/MOL
REMARK 924 INTRA-LIGAND FREE ENERGY PREDICTED BY IDOCK:    0.71 KCAL/MOL
REMARK 927      BINDING AFFINITY PREDICTED BY RF-SCORE:    0.00 PKD
ROOT
HETATM    1  C   UNL     1      -9.613  16.831  68.008  1.00  0.00    -0.234 C  
HETATM    2  C   UNL     1      -8.482  16.615  68.995  1.00  0.00    -0.176 A  
HETATM    3  C   UNL     1      -8.071  15.329  69.445  1.00  0.00    -0.230 A  
HETATM    4 CL   UNL     1      -8.249  19.341  68.890  1.00  0.00    -0.380 Cl 
HETATM    5  C   UNL     1      -7.020  15.243  70.390  1.00  0.00     0.271 A  
HETATM    6  C   UNL     1      -6.046  18.870  70.933  1.00  0.00     0.279 C  
HETATM    7 CL   UNL     1      -6.421  13.700  70.958  1.00  0.00     0.396 Cl 
HETATM    8  N   UNL     1      -6.384  16.407  70.876  1.00  0.00     0.931 NA 
HETATM    9  C   UNL     1      -6.772  17.662  70.410  1.00  0.00     1.238 A  
HETATM   10  O   UNL     1      -5.439  16.319  71.734  1.00  0.00     0.213 OA 
HETATM   11  C   UNL     1      -7.808  17.759  69.472  1.00  0.00     0.515 A  
ENDROOT
BRANCH   3  12
HETATM   12  C   UNL     1      -8.699  14.115  68.908  1.00  0.00     0.020 A  
HETATM   13  O   UNL     1      -9.643  12.651  67.620  1.00  0.00    -0.179 OA 
HETATM   14  N   UNL     1      -9.336  14.014  67.729  1.00  0.00    -0.198 NA 
HETATM   15  C   UNL     1      -9.135  12.059  68.738  1.00  0.00     0.083 A  
HETATM   16  N   UNL     1      -8.605  12.919  69.578  1.00  0.00     1.282 NA 
BRANCH  15  17
HETATM   17  C   UNL     1      -9.113  10.599  68.822  1.00  0.00    -0.170 A  
HETATM   18  C   UNL     1      -9.670   9.735  67.861  1.00  0.00    -0.168 A  
HETATM   19  C   UNL     1      -9.587   8.333  68.035  1.00  0.00    -0.153 A  
HETATM   20  N   UNL     1     -10.181   7.447  67.031  1.00  0.00    -0.259 N  
HETATM   21  C   UNL     1      -8.942   7.790  69.153  1.00  0.00    -0.145 A  
HETATM   22  O   UNL     1      -8.793   6.456  69.438  1.00  0.00    -0.131 OA 
HETATM   23  O   UNL     1     -10.109   6.223  67.232  1.00  0.00    -0.134 OA 
HETATM   24  O   UNL     1     -10.721   7.966  66.044  1.00  0.00     0.992 OA 
HETATM   25  C   UNL     1      -8.380   8.656  70.082  1.00  0.00    -0.126 A  
HETATM   26  H   UNL     1      -8.355   6.088  70.197  1.00  0.00     0.000 HD 
HETATM   27  C   UNL     1      -8.459  10.031  69.929  1.00  0.00    -0.171 A  
HETATM   28  O   UNL     1      -7.729   8.165  71.180  1.00  0.00    -0.080 OA 
HETATM   29  H   UNL     1      -7.345   8.758  71.815  1.00  0.00     0.000 HD 
ENDBRANCH  15  17
ENDBRANCH   3  12
TORSDOF 2
ENDMDL
MODEL      234
REMARK 921   NORMALIZED FREE ENERGY PREDICTED BY IDOCK:    9.13 KCAL/MOL
REMARK 922        TOTAL FREE ENERGY PREDICTED BY IDOCK:    9.61 KCAL/MOL
REMARK 923 INTER-LIGAND FREE ENERGY PREDICTED BY IDOCK:    9.65 KCAL/MOL
REMARK 924 INTRA-LIGAND FREE ENERGY PREDICTED BY IDOCK:   -0.04 KCAL/MOL
REMARK 927      BINDING AFFINITY PREDICTED BY RF-SCORE:    0.00 PKD
ROOT
HETATM    1  C   UNL     1      -6.579  15.747  65.218  1.00  0.00     8.165 C  
HETATM    2  C   UNL     1      -6.968  16.000  66.662  1.00  0.00     0.139 A  
HETATM    3  C   UNL     1      -7.804  15.125  67.413  1.00  0.00    -0.224 A  
HETATM    4 CL   UNL     1      -5.381  18.216  66.405  1.00  0.00    -0.177 Cl 
HETATM    5  C   UNL     1      -8.127  15.472  68.747  1.00  0.00    -0.170 A  
HETATM    6  C   UNL     1      -6.255  18.731  69.272  1.00  0.00    -0.283 C  
HETATM    7 CL   UNL     1      -9.108  14.429  69.753  1.00  0.00     0.580 Cl 
HETATM    8  N   UNL     1      -7.627  16.657  69.330  1.00  0.00    -0.133 NA 
HETATM    9  C   UNL     1      -6.787  17.495  68.600  1.00  0.00    -0.227 A  
HETATM   10  O   UNL     1      -7.930  16.965  70.535  1.00  0.00     2.588 OA 
HETATM   11  C   UNL     1      -6.457  17.161  67.280  1.00  0.00    -0.158 A  
ENDROOT
BRANCH   3  12
HETATM   12  C   UNL     1      -8.288  13.870  66.825  1.00  0.00     0.109 A  
HETATM   13  O   UNL     1      -9.069  12.364  65.478  1.00  0.00     0.111 OA 
HETATM   14  N   UNL     1      -8.931  13.747  65.651  1.00  0.00     0.675 NA 
HETATM   15  C   UNL     1      -8.471  11.786  66.558  1.00  0.00    -0.125 A  
HETATM   16  N   UNL     1      -8.035  12.665  67.433  1.00  0.00    -0.170 NA 
BRANCH  15  17
HETATM   17  C   UNL     1      -8.267  10.338  66.569  1.00  0.00    -0.127 A  
HETATM   18  C   UNL     1      -7.262   9.667  65.847  1.00  0.00    -0.099 A  
HETATM   19  C   UNL     1      -7.146   8.260  65.934  1.00  0.00    -0.071 A  
HETATM   20  N   UNL     1      -6.101   7.575  65.168  1.00  0.00    -0.038 N  
HETATM   21  C   UNL     1      -8.016   7.521  66.745  1.00  0.00    -0.115 A  
HETATM   22  O   UNL     1      -8.010   6.159  66.917  1.00  0.00    -0.103 OA 
HETATM   23  O   UNL     1      -6.047   6.337  65.253  1.00  0.00    -0.028 OA 
HETATM   24  O   UNL     1      -5.336   8.266  64.483  1.00  0.00    -0.036 OA 
HETATM   25  C   UNL     1      -8.990   8.200  67.467  1.00  0.00    -0.137 A  
HETATM   26  H   UNL     1      -8.600   5.658  67.468  1.00  0.00     0.000 HD 
HETATM   27  C   UNL     1      -9.120   9.577  67.387  1.00  0.00    -0.144 A  
HETATM   28  O   UNL     1      -9.849   7.516  68.282  1.00  0.00    -0.155 OA 
HETATM   29  H   UNL     1     -10.515   7.981  68.775  1.00  0.00     0.000 HD 
ENDBRANCH  15  17
ENDBRANCH   3  12
TORSDOF 2
ENDMDL
MODEL      235
REMARK 921   NORMALIZED FREE ENERGY PREDICTED BY IDOCK:   13.95 KCAL/MOL
REMARK 922        TOTAL FREE ENERGY PREDICTED BY IDOCK:   14.98 KCAL/MOL
REMARK 923 INTER-LIGAND FREE ENERGY PREDICTED BY IDOCK:   15.42 KCAL/MOL
REMARK 924 INTRA-LIGAND FREE ENERGY PREDICTED BY IDOCK:   -0.43 KCAL/MOL
REMARK 927      BINDING AFFINITY PREDICTED BY RF-SCORE:    0.00 PKD
ROOT
HETATM    1  C   UNL     1      -6.302   9.056  68.883  1.00  0.00    -0.044 C  
HETATM    2  C   UNL     1      -7.293   8.706  67.790  1.00  0.00    -0.092 A  
HETATM    3  C   UNL     1      -8.374   9.551  67.412  1.00  0.00    -0.125 A  
HETATM    4 CL   UNL     1      -5.760   6.453  67.517  1.00  0.00    -0.012 Cl 
HETATM    5  C   UNL     1      -9.258   9.112  66.395  1.00  0.00    -0.183 A  
HETATM    6  C   UNL     1      -7.817   5.747  65.392  1.00  0.00    -0.107 C  
HETATM    7 CL   UNL     1     -10.581  10.111  65.838  1.00  0.00    -0.123 Cl 
HETATM    8  N   UNL     1      -9.070   7.864  65.761  1.00  0.00    -0.091 NA 
HETATM    9  C   UNL     1      -7.994   7.053  66.115  1.00  0.00    -0.110 A  
HETATM   10  O   UNL     1      -9.877   7.474  64.847  1.00  0.00     1.928 OA 
HETATM   11  C   UNL     1      -7.112   7.479  67.117  1.00  0.00    -0.085 A  
ENDROOT
BRANCH   3  12
HETATM   12  C   UNL     1      -8.545  10.868  68.038  1.00  0.00    -0.131 A  
HETATM   13  O   UNL     1      -8.389  12.965  68.556  1.00  0.00    -0.137 OA 
HETATM   14  N   UNL     1      -7.749  11.936  67.853  1.00  0.00    -0.121 NA 
HETATM   15  C   UNL     1      -9.525  12.420  69.075  1.00  0.00     0.394 A  
HETATM   16  N   UNL     1      -9.630  11.132  68.836  1.00  0.00    -0.179 NA 
BRANCH  15  17
HETATM   17  C   UNL     1     -10.517  13.297  69.694  1.00  0.00     0.617 A  
HETATM   18  C   UNL     1     -11.440  14.087  68.982  1.00  0.00    -0.337 A  
HETATM   19  C   UNL     1     -12.367  14.897  69.679  1.00  0.00    -0.208 A  
HETATM   20  N   UNL     1     -13.315  15.720  68.924  1.00  0.00     2.336 N  
HETATM   21  C   UNL     1     -12.386  14.916  71.080  1.00  0.00    -0.324 A  
HETATM   22  O   UNL     1     -13.230  15.653  71.873  1.00  0.00    -0.434 OA 
HETATM   23  O   UNL     1     -14.096  16.436  69.572  1.00  0.00     3.321 OA 
HETATM   24  O   UNL     1     -13.283  15.657  67.687  1.00  0.00     2.916 OA 
HETATM   25  C   UNL     1     -11.482  14.116  71.767  1.00  0.00     1.050 A  
HETATM   26  H   UNL     1     -13.242  15.665  72.823  1.00  0.00     0.000 HD 
HETATM   27  C   UNL     1     -10.565  13.322  71.099  1.00  0.00     4.808 A  
HETATM   28  O   UNL     1     -11.479  14.095  73.135  1.00  0.00     0.890 OA 
HETATM   29  H   UNL     1     -10.860  13.549  73.605  1.00  0.00     0.000 HD 
ENDBRANCH  15  17
ENDBRANCH   3  12
TORSDOF 2
ENDMDL
MODEL      236
REMARK 921   NORMALIZED FREE ENERGY PREDICTED BY IDOCK:   45.87 KCAL/MOL
REMARK 922        TOTAL FREE ENERGY PREDICTED BY IDOCK:   50.64 KCAL/MOL
REMARK 923 INTER-LIGAND FREE ENERGY PREDICTED BY IDOCK:   50.39 KCAL/MOL
REMARK 924 INTRA-LIGAND FREE ENERGY PREDICTED BY IDOCK:    0.25 KCAL/MOL
REMARK 927      BINDING AFFINITY PREDICTED BY RF-SCORE:    0.00 PKD
ROOT
HETATM    1  C   UNL     1      -7.104  16.199  70.253  1.00  0.00     0.861 C  
HETATM    2  C   UNL     1      -8.575  16.491  70.032  1.00  0.00     1.403 A  
HETATM    3  C   UNL     1      -9.609  15.547  70.290  1.00  0.00     0.377 A  
HETATM    4 CL   UNL     1      -7.679  18.970  69.293  1.00  0.00    -0.194 Cl 
HETATM    5  C   UNL     1     -10.950  15.916  70.022  1.00  0.00    -0.358 A  
HETATM    6  C   UNL     1     -10.632  19.488  68.781  1.00  0.00     0.060 C  
HETATM    7 CL   UNL     1     -12.283  14.833  70.356  1.00  0.00    -0.369 Cl 
HETATM    8  N   UNL     1     -11.263  17.197  69.515  1.00  0.00     0.367 NA 
HETATM    9  C   UNL     1     -10.249  18.127  69.292  1.00  0.00     0.003 A  
HETATM   10  O   UNL     1     -12.477  17.519  69.271  1.00  0.00     3.591 OA 
HETATM   11  C   UNL     1      -8.920  17.774  69.557  1.00  0.00     0.671 A  
ENDROOT
BRANCH   3  12
HETATM   12  C   UNL     1      -9.292  14.231  70.859  1.00  0.00     3.809 A  
HETATM   13  O   UNL     1      -9.369  12.351  71.932  1.00  0.00    15.504 OA 
HETATM   14  N   UNL     1      -9.982  13.606  71.828  1.00  0.00     7.550 NA 
HETATM   15  C   UNL     1      -8.381  12.334  70.993  1.00  0.00     9.736 A  
HETATM   16  N   UNL     1      -8.259  13.478  70.358  1.00  0.00     3.071 NA 
BRANCH  15  17
HETATM   17  C   UNL     1      -7.687  11.078  70.712  1.00  0.00     2.920 A  
HETATM   18  C   UNL     1      -7.049  10.283  71.682  1.00  0.00     1.980 A  
HETATM   19  C   UNL     1      -6.412   9.078  71.305  1.00  0.00    -0.085 A  
HETATM   20  N   UNL     1      -5.743   8.267  72.325  1.00  0.00    -0.040 N  
HETATM   21  C   UNL     1      -6.418   8.656  69.969  1.00  0.00    -0.038 A  
HETATM   22  O   UNL     1      -5.840   7.514  69.474  1.00  0.00    -0.023 OA 
HETATM   23  O   UNL     1      -5.175   7.228  71.950  1.00  0.00    -0.034 OA 
HETATM   24  O   UNL     1      -5.782   8.661  73.499  1.00  0.00    -0.096 OA 
HETATM   25  C   UNL     1      -7.069   9.442  69.027  1.00  0.00    -0.066 A  
HETATM   26  H   UNL     1      -5.845   7.227  68.568  1.00  0.00     0.000 HD 
HETATM   27  C   UNL     1      -7.692  10.627  69.380  1.00  0.00    -0.132 A  
HETATM   28  O   UNL     1      -7.110   9.057  67.715  1.00  0.00    -0.077 OA 
HETATM   29  H   UNL     1      -7.555   9.595  67.070  1.00  0.00     0.000 HD 
ENDBRANCH  15  17
ENDBRANCH   3  12
TORSDOF 2
ENDMDL
MODEL      237
REMARK 921   NORMALIZED FREE ENERGY PREDICTED BY IDOCK:   64.03 KCAL/MOL
REMARK 922        TOTAL FREE ENERGY PREDICTED BY IDOCK:   70.92 KCAL/MOL
REMARK 923 INTER-LIGAND FREE ENERGY PREDICTED BY IDOCK:   71.46 KCAL/MOL
REMARK 924 INTRA-LIGAND FREE ENERGY PREDICTED BY IDOCK:   -0.54 KCAL/MOL
REMARK 927      BINDING AFFINITY PREDICTED BY RF-SCORE:    0.00 PKD
ROOT
HETATM    1  C   UNL     1     -12.442  17.149  67.800  1.00  0.00     3.252 C  
HETATM    2  C   UNL     1     -10.933  17.228  67.933  1.00  0.00    -0.179 A  
HETATM    3  C   UNL     1     -10.034  16.471  67.130  1.00  0.00    -0.266 A  
HETATM    4 CL   UNL     1     -11.487  19.098  69.855  1.00  0.00     4.367 Cl 
HETATM    5  C   UNL     1      -8.643  16.602  67.357  1.00  0.00    -0.189 A  
HETATM    6  C   UNL     1      -8.461  19.165  70.150  1.00  0.00     1.443 C  
HETATM    7 CL   UNL     1      -7.470  15.744  66.382  1.00  0.00     0.187 Cl 
HETATM    8  N   UNL     1      -8.150  17.471  68.356  1.00  0.00    -0.258 NA 
HETATM    9  C   UNL     1      -9.033  18.231  69.120  1.00  0.00     0.107 A  
HETATM   10  O   UNL     1      -6.890  17.578  68.557  1.00  0.00    -0.195 OA 
HETATM   11  C   UNL     1     -10.411  18.112  68.901  1.00  0.00    -0.062 A  
ENDROOT
BRANCH   3  12
HETATM   12  C   UNL     1     -10.542  15.601  66.061  1.00  0.00    -0.328 A  
HETATM   13  O   UNL     1     -11.222  14.814  64.162  1.00  0.00    -0.089 OA 
HETATM   14  N   UNL     1     -10.957  16.005  64.848  1.00  0.00    -0.548 NA 
HETATM   15  C   UNL     1     -10.916  13.804  65.024  1.00  0.00    -0.357 A  
HETATM   16  N   UNL     1     -10.555  14.236  66.212  1.00  0.00    -0.286 NA 
BRANCH  15  17
HETATM   17  C   UNL     1     -10.892  12.428  64.530  1.00  0.00    -0.358 A  
HETATM   18  C   UNL     1     -11.869  11.457  64.821  1.00  0.00     0.221 A  
HETATM   19  C   UNL     1     -11.756  10.153  64.283  1.00  0.00     5.004 A  
HETATM   20  N   UNL     1     -12.776   9.152  64.604  1.00  0.00    16.118 N  
HETATM   21  C   UNL     1     -10.681   9.816  63.450  1.00  0.00     3.542 A  
HETATM   22  O   UNL     1     -10.456   8.594  62.868  1.00  0.00     4.177 OA 
HETATM   23  O   UNL     1     -12.627   8.012  64.133  1.00  0.00    20.048 OA 
HETATM   24  O   UNL     1     -13.723   9.496  65.323  1.00  0.00    16.967 OA 
HETATM   25  C   UNL     1      -9.736  10.791  63.157  1.00  0.00    -0.357 A  
HETATM   26  H   UNL     1      -9.727   8.366  62.302  1.00  0.00     0.000 HD 
HETATM   27  C   UNL     1      -9.830  12.070  63.681  1.00  0.00    -0.308 A  
HETATM   28  O   UNL     1      -8.680  10.505  62.336  1.00  0.00    -0.192 OA 
HETATM   29  H   UNL     1      -8.034  11.172  62.136  1.00  0.00     0.000 HD 
ENDBRANCH  15  17
ENDBRANCH   3  12
TORSDOF 2
ENDMDL
