MODEL        1
REMARK 921   NORMALIZED FREE ENERGY PREDICTED BY IDOCK:   -6.00 KCAL/MOL
REMARK 922        TOTAL FREE ENERGY PREDICTED BY IDOCK:   -7.68 KCAL/MOL
REMARK 923 INTER-LIGAND FREE ENERGY PREDICTED BY IDOCK:   -7.40 KCAL/MOL
REMARK 924 INTRA-LIGAND FREE ENERGY PREDICTED BY IDOCK:   -0.28 KCAL/MOL
REMARK 927      BINDING AFFINITY PREDICTED BY RF-SCORE:    0.00 PKD
ROOT
HETATM    1  C   UNL     1     -11.908  16.006  71.650  1.00  0.00    -0.582 C  
HETATM    2  C   UNL     1     -12.854  14.825  71.432  1.00  0.00    -0.336 C  
HETATM    3  C   UNL     1     -14.254  15.192  71.935  1.00  0.00    -0.676 C  
ENDROOT
BRANCH   2   4
HETATM    4  N   UNL     1     -12.860  14.474  70.006  1.00  0.00    -0.527 NA 
HETATM    5  H   UNL     1     -13.796  14.558  69.608  1.00  0.00     0.000 HD 
BRANCH   4   6
HETATM    6  C   UNL     1     -11.880  15.261  69.236  1.00  0.00    -0.329 C  
BRANCH   6   7
HETATM    7  C   UNL     1     -10.983  14.392  68.324  1.00  0.00    -0.247 C  
HETATM    8  H   UNL     1     -10.400  12.517  68.265  1.00  0.00     0.000 HD 
HETATM    9  O   UNL     1     -10.951  13.050  68.825  1.00  0.00    -0.248 OA 
BRANCH   7  10
HETATM   10  C   UNL     1     -11.443  14.374  66.873  1.00  0.00    -0.379 A  
HETATM   11  C   UNL     1     -12.115  13.246  66.370  1.00  0.00    -0.454 A  
HETATM   12  C   UNL     1     -12.517  13.211  65.032  1.00  0.00    -0.460 A  
HETATM   13  C   UNL     1     -12.274  14.279  64.178  1.00  0.00    -0.410 A  
HETATM   14  O   UNL     1     -13.159  12.126  64.510  1.00  0.00    -0.720 OA 
HETATM   15  H   UNL     1     -13.432  12.102  63.601  1.00  0.00     0.000 HD 
HETATM   16  C   UNL     1     -11.633  15.402  64.678  1.00  0.00    -0.311 A  
HETATM   17  O   UNL     1     -11.366  16.484  63.893  1.00  0.00    -1.557 OA 
HETATM   18  C   UNL     1     -11.230  15.462  66.009  1.00  0.00    -0.168 A  
HETATM   19  H   UNL     1     -10.926  17.254  64.235  1.00  0.00     0.000 HD 
ENDBRANCH   7  10
ENDBRANCH   6   7
ENDBRANCH   4   6
ENDBRANCH   2   4
TORSDOF 4
ENDMDL
MODEL        2
REMARK 921   NORMALIZED FREE ENERGY PREDICTED BY IDOCK:   -5.96 KCAL/MOL
REMARK 922        TOTAL FREE ENERGY PREDICTED BY IDOCK:   -7.63 KCAL/MOL
REMARK 923 INTER-LIGAND FREE ENERGY PREDICTED BY IDOCK:   -7.40 KCAL/MOL
REMARK 924 INTRA-LIGAND FREE ENERGY PREDICTED BY IDOCK:   -0.23 KCAL/MOL
REMARK 927      BINDING AFFINITY PREDICTED BY RF-SCORE:    0.00 PKD
ROOT
HETATM    1  C   UNL     1     -13.345  15.247  70.984  1.00  0.00    -0.537 C  
HETATM    2  C   UNL     1     -12.450  14.086  71.415  1.00  0.00    -0.356 C  
HETATM    3  C   UNL     1     -13.291  13.033  72.144  1.00  0.00    -0.622 C  
ENDROOT
BRANCH   2   4
HETATM    4  N   UNL     1     -11.784  13.529  70.229  1.00  0.00    -0.517 NA 
HETATM    5  H   UNL     1     -12.291  12.722  69.865  1.00  0.00     0.000 HD 
BRANCH   4   6
HETATM    6  C   UNL     1     -11.576  14.545  69.182  1.00  0.00    -0.298 C  
BRANCH   6   7
HETATM    7  C   UNL     1     -10.594  14.088  68.078  1.00  0.00    -0.247 C  
HETATM    8  H   UNL     1      -9.561  12.468  67.668  1.00  0.00     0.000 HD 
HETATM    9  O   UNL     1     -10.164  12.748  68.346  1.00  0.00    -0.234 OA 
BRANCH   7  10
HETATM   10  C   UNL     1     -11.193  14.152  66.679  1.00  0.00    -0.330 A  
HETATM   11  C   UNL     1     -11.021  15.310  65.901  1.00  0.00    -0.325 A  
HETATM   12  C   UNL     1     -11.590  15.386  64.627  1.00  0.00    -0.311 A  
HETATM   13  C   UNL     1     -12.322  14.330  64.100  1.00  0.00    -0.361 A  
HETATM   14  O   UNL     1     -11.455  16.502  63.853  1.00  0.00    -1.608 OA 
HETATM   15  H   UNL     1     -11.841  16.553  62.987  1.00  0.00     0.000 HD 
HETATM   16  C   UNL     1     -12.472  13.177  64.856  1.00  0.00    -0.433 A  
HETATM   17  O   UNL     1     -13.177  12.105  64.396  1.00  0.00    -0.758 OA 
HETATM   18  C   UNL     1     -11.908  13.076  66.124  1.00  0.00    -0.466 A  
HETATM   19  H   UNL     1     -13.280  11.315  64.914  1.00  0.00     0.000 HD 
ENDBRANCH   7  10
ENDBRANCH   6   7
ENDBRANCH   4   6
ENDBRANCH   2   4
TORSDOF 4
ENDMDL
MODEL        3
REMARK 921   NORMALIZED FREE ENERGY PREDICTED BY IDOCK:   -5.95 KCAL/MOL
REMARK 922        TOTAL FREE ENERGY PREDICTED BY IDOCK:   -7.62 KCAL/MOL
REMARK 923 INTER-LIGAND FREE ENERGY PREDICTED BY IDOCK:   -7.40 KCAL/MOL
REMARK 924 INTRA-LIGAND FREE ENERGY PREDICTED BY IDOCK:   -0.22 KCAL/MOL
REMARK 927      BINDING AFFINITY PREDICTED BY RF-SCORE:    0.00 PKD
ROOT
HETATM    1  C   UNL     1     -12.868  10.461  71.255  1.00  0.00    -0.533 C  
HETATM    2  C   UNL     1     -11.731  10.742  70.273  1.00  0.00    -0.352 C  
HETATM    3  C   UNL     1     -10.654   9.661  70.413  1.00  0.00    -0.354 C  
ENDROOT
BRANCH   2   4
HETATM    4  N   UNL     1     -12.278  10.796  68.911  1.00  0.00    -0.795 NA 
HETATM    5  H   UNL     1     -13.220  11.189  68.905  1.00  0.00     0.000 HD 
BRANCH   4   6
HETATM    6  C   UNL     1     -11.392  11.524  67.985  1.00  0.00    -0.298 C  
BRANCH   6   7
HETATM    7  C   UNL     1     -11.912  12.937  67.628  1.00  0.00    -0.289 C  
HETATM    8  H   UNL     1     -11.394  14.790  68.024  1.00  0.00     0.000 HD 
HETATM    9  O   UNL     1     -11.075  13.922  68.243  1.00  0.00    -0.241 OA 
BRANCH   7  10
HETATM   10  C   UNL     1     -11.969  13.193  66.129  1.00  0.00    -0.478 A  
HETATM   11  C   UNL     1     -11.983  14.515  65.648  1.00  0.00    -0.311 A  
HETATM   12  C   UNL     1     -12.061  14.758  64.275  1.00  0.00    -0.394 A  
HETATM   13  C   UNL     1     -12.119  13.715  63.360  1.00  0.00    -0.246 A  
HETATM   14  O   UNL     1     -12.091  16.029  63.778  1.00  0.00    -1.318 OA 
HETATM   15  H   UNL     1     -12.145  16.194  62.845  1.00  0.00     0.000 HD 
HETATM   16  C   UNL     1     -12.082  12.411  63.829  1.00  0.00    -0.529 A  
HETATM   17  O   UNL     1     -12.134  11.343  62.984  1.00  0.00    -0.934 OA 
HETATM   18  C   UNL     1     -11.996  12.145  65.193  1.00  0.00    -0.324 A  
HETATM   19  H   UNL     1     -12.108  10.449  63.305  1.00  0.00     0.000 HD 
ENDBRANCH   7  10
ENDBRANCH   6   7
ENDBRANCH   4   6
ENDBRANCH   2   4
TORSDOF 4
ENDMDL
MODEL        4
REMARK 921   NORMALIZED FREE ENERGY PREDICTED BY IDOCK:   -5.84 KCAL/MOL
REMARK 922        TOTAL FREE ENERGY PREDICTED BY IDOCK:   -7.49 KCAL/MOL
REMARK 923 INTER-LIGAND FREE ENERGY PREDICTED BY IDOCK:   -7.24 KCAL/MOL
REMARK 924 INTRA-LIGAND FREE ENERGY PREDICTED BY IDOCK:   -0.25 KCAL/MOL
REMARK 927      BINDING AFFINITY PREDICTED BY RF-SCORE:    0.00 PKD
ROOT
HETATM    1  C   UNL     1     -12.715  11.388  71.108  1.00  0.00    -0.479 C  
HETATM    2  C   UNL     1     -11.631  10.869  70.163  1.00  0.00    -0.338 C  
HETATM    3  C   UNL     1     -11.143   9.499  70.647  1.00  0.00    -0.364 C  
ENDROOT
BRANCH   2   4
HETATM    4  N   UNL     1     -12.175  10.805  68.800  1.00  0.00    -0.814 NA 
HETATM    5  H   UNL     1     -13.062  11.306  68.732  1.00  0.00     0.000 HD 
BRANCH   4   6
HETATM    6  C   UNL     1     -11.212  11.288  67.794  1.00  0.00    -0.291 C  
BRANCH   6   7
HETATM    7  C   UNL     1     -11.324  12.807  67.525  1.00  0.00    -0.312 C  
HETATM    8  H   UNL     1     -10.184  14.388  67.774  1.00  0.00     0.000 HD 
HETATM    9  O   UNL     1     -10.115  13.455  67.939  1.00  0.00    -0.226 OA 
BRANCH   7  10
HETATM   10  C   UNL     1     -11.593  13.138  66.063  1.00  0.00    -0.393 A  
HETATM   11  C   UNL     1     -11.843  12.099  65.149  1.00  0.00    -0.356 A  
HETATM   12  C   UNL     1     -12.065  12.392  63.802  1.00  0.00    -0.529 A  
HETATM   13  C   UNL     1     -12.055  13.701  63.337  1.00  0.00    -0.246 A  
HETATM   14  O   UNL     1     -12.296  11.406  62.887  1.00  0.00    -0.954 OA 
HETATM   15  H   UNL     1     -12.447  11.605  61.971  1.00  0.00     0.000 HD 
HETATM   16  C   UNL     1     -11.833  14.729  64.241  1.00  0.00    -0.319 A  
HETATM   17  O   UNL     1     -11.811  16.035  63.850  1.00  0.00    -1.275 OA 
HETATM   18  C   UNL     1     -11.617  14.461  65.589  1.00  0.00    -0.347 A  
HETATM   19  H   UNL     1     -11.660  16.740  64.468  1.00  0.00     0.000 HD 
ENDBRANCH   7  10
ENDBRANCH   6   7
ENDBRANCH   4   6
ENDBRANCH   2   4
TORSDOF 4
ENDMDL
MODEL        5
REMARK 921   NORMALIZED FREE ENERGY PREDICTED BY IDOCK:   -5.80 KCAL/MOL
REMARK 922        TOTAL FREE ENERGY PREDICTED BY IDOCK:   -7.43 KCAL/MOL
REMARK 923 INTER-LIGAND FREE ENERGY PREDICTED BY IDOCK:   -7.18 KCAL/MOL
REMARK 924 INTRA-LIGAND FREE ENERGY PREDICTED BY IDOCK:   -0.25 KCAL/MOL
REMARK 927      BINDING AFFINITY PREDICTED BY RF-SCORE:    0.00 PKD
ROOT
HETATM    1  C   UNL     1     -11.273  15.365  70.927  1.00  0.00    -0.397 C  
HETATM    2  C   UNL     1     -12.236  14.187  70.770  1.00  0.00    -0.365 C  
HETATM    3  C   UNL     1     -13.431  14.373  71.711  1.00  0.00    -0.456 C  
ENDROOT
BRANCH   2   4
HETATM    4  N   UNL     1     -12.655  14.097  69.365  1.00  0.00    -0.453 NA 
HETATM    5  H   UNL     1     -13.381  14.783  69.151  1.00  0.00     0.000 HD 
BRANCH   4   6
HETATM    6  C   UNL     1     -11.517  14.219  68.437  1.00  0.00    -0.301 C  
BRANCH   6   7
HETATM    7  C   UNL     1     -11.307  12.959  67.564  1.00  0.00    -0.308 C  
HETATM    8  H   UNL     1     -12.029  11.133  67.496  1.00  0.00     0.000 HD 
HETATM    9  O   UNL     1     -12.158  11.907  68.032  1.00  0.00    -0.541 OA 
BRANCH   7  10
HETATM   10  C   UNL     1     -11.578  13.202  66.086  1.00  0.00    -0.396 A  
HETATM   11  C   UNL     1     -11.753  14.517  65.617  1.00  0.00    -0.335 A  
HETATM   12  C   UNL     1     -12.029  14.747  64.267  1.00  0.00    -0.368 A  
HETATM   13  C   UNL     1     -12.127  13.698  63.362  1.00  0.00    -0.246 A  
HETATM   14  O   UNL     1     -12.218  16.009  63.785  1.00  0.00    -1.269 OA 
HETATM   15  H   UNL     1     -12.406  16.165  62.867  1.00  0.00     0.000 HD 
HETATM   16  C   UNL     1     -11.931  12.402  63.817  1.00  0.00    -0.514 A  
HETATM   17  O   UNL     1     -12.012  11.329  62.980  1.00  0.00    -0.863 OA 
HETATM   18  C   UNL     1     -11.648  12.150  65.156  1.00  0.00    -0.372 A  
HETATM   19  H   UNL     1     -11.878  10.441  63.291  1.00  0.00     0.000 HD 
ENDBRANCH   7  10
ENDBRANCH   6   7
ENDBRANCH   4   6
ENDBRANCH   2   4
TORSDOF 4
ENDMDL
MODEL        6
REMARK 921   NORMALIZED FREE ENERGY PREDICTED BY IDOCK:   -5.74 KCAL/MOL
REMARK 922        TOTAL FREE ENERGY PREDICTED BY IDOCK:   -7.36 KCAL/MOL
REMARK 923 INTER-LIGAND FREE ENERGY PREDICTED BY IDOCK:   -7.07 KCAL/MOL
REMARK 924 INTRA-LIGAND FREE ENERGY PREDICTED BY IDOCK:   -0.30 KCAL/MOL
REMARK 927      BINDING AFFINITY PREDICTED BY RF-SCORE:    0.00 PKD
ROOT
HETATM    1  C   UNL     1     -13.972  13.705  72.279  1.00  0.00    -0.661 C  
HETATM    2  C   UNL     1     -14.056  15.229  72.178  1.00  0.00    -0.560 C  
HETATM    3  C   UNL     1     -13.157  15.864  73.244  1.00  0.00    -0.694 C  
ENDROOT
BRANCH   2   4
HETATM    4  N   UNL     1     -13.669  15.640  70.821  1.00  0.00    -0.799 NA 
HETATM    5  H   UNL     1     -13.965  16.596  70.625  1.00  0.00     0.000 HD 
BRANCH   4   6
HETATM    6  C   UNL     1     -12.225  15.469  70.580  1.00  0.00    -0.404 C  
BRANCH   6   7
HETATM    7  C   UNL     1     -11.806  15.811  69.130  1.00  0.00    -0.354 C  
HETATM    8  H   UNL     1     -10.366  16.829  68.264  1.00  0.00     0.000 HD 
HETATM    9  O   UNL     1     -10.623  16.619  69.154  1.00  0.00    -0.302 OA 
BRANCH   7  10
HETATM   10  C   UNL     1     -11.552  14.578  68.273  1.00  0.00    -0.358 A  
HETATM   11  C   UNL     1     -10.877  14.710  67.047  1.00  0.00    -0.304 A  
HETATM   12  C   UNL     1     -10.664  13.587  66.243  1.00  0.00    -0.288 A  
HETATM   13  C   UNL     1     -11.100  12.328  66.632  1.00  0.00    -0.344 A  
HETATM   14  O   UNL     1     -10.025  13.684  65.041  1.00  0.00    -0.549 OA 
HETATM   15  H   UNL     1      -9.880  12.921  64.494  1.00  0.00     0.000 HD 
HETATM   16  C   UNL     1     -11.745  12.191  67.852  1.00  0.00    -0.336 A  
HETATM   17  O   UNL     1     -12.197  10.983  68.293  1.00  0.00    -0.769 OA 
HETATM   18  C   UNL     1     -11.961  13.294  68.673  1.00  0.00    -0.345 A  
HETATM   19  H   UNL     1     -12.638  10.889  69.129  1.00  0.00     0.000 HD 
ENDBRANCH   7  10
ENDBRANCH   6   7
ENDBRANCH   4   6
ENDBRANCH   2   4
TORSDOF 4
ENDMDL
MODEL        7
REMARK 921   NORMALIZED FREE ENERGY PREDICTED BY IDOCK:   -5.72 KCAL/MOL
REMARK 922        TOTAL FREE ENERGY PREDICTED BY IDOCK:   -7.34 KCAL/MOL
REMARK 923 INTER-LIGAND FREE ENERGY PREDICTED BY IDOCK:   -7.07 KCAL/MOL
REMARK 924 INTRA-LIGAND FREE ENERGY PREDICTED BY IDOCK:   -0.27 KCAL/MOL
REMARK 927      BINDING AFFINITY PREDICTED BY RF-SCORE:    0.00 PKD
ROOT
HETATM    1  C   UNL     1     -13.796  13.708  72.381  1.00  0.00    -0.691 C  
HETATM    2  C   UNL     1     -13.833  15.225  72.195  1.00  0.00    -0.522 C  
HETATM    3  C   UNL     1     -12.788  15.878  73.105  1.00  0.00    -0.643 C  
ENDROOT
BRANCH   2   4
HETATM    4  N   UNL     1     -13.599  15.539  70.779  1.00  0.00    -0.847 NA 
HETATM    5  H   UNL     1     -14.006  16.440  70.528  1.00  0.00     0.000 HD 
BRANCH   4   6
HETATM    6  C   UNL     1     -12.169  15.483  70.428  1.00  0.00    -0.406 C  
BRANCH   6   7
HETATM    7  C   UNL     1     -11.895  15.801  68.938  1.00  0.00    -0.341 C  
HETATM    8  H   UNL     1     -10.632  16.913  67.925  1.00  0.00     0.000 HD 
HETATM    9  O   UNL     1     -10.800  16.718  68.839  1.00  0.00    -0.320 OA 
BRANCH   7  10
HETATM   10  C   UNL     1     -11.588  14.561  68.109  1.00  0.00    -0.359 A  
HETATM   11  C   UNL     1     -11.987  13.296  68.574  1.00  0.00    -0.340 A  
HETATM   12  C   UNL     1     -11.685  12.152  67.831  1.00  0.00    -0.336 A  
HETATM   13  C   UNL     1     -11.001  12.234  66.626  1.00  0.00    -0.321 A  
HETATM   14  O   UNL     1     -12.046  10.908  68.262  1.00  0.00    -0.783 OA 
HETATM   15  H   UNL     1     -11.840  10.130  67.758  1.00  0.00     0.000 HD 
HETATM   16  C   UNL     1     -10.627  13.483  66.153  1.00  0.00    -0.290 A  
HETATM   17  O   UNL     1      -9.954  13.632  64.977  1.00  0.00    -0.549 OA 
HETATM   18  C   UNL     1     -10.924  14.637  66.872  1.00  0.00    -0.324 A  
HETATM   19  H   UNL     1      -9.698  14.488  64.652  1.00  0.00     0.000 HD 
ENDBRANCH   7  10
ENDBRANCH   6   7
ENDBRANCH   4   6
ENDBRANCH   2   4
TORSDOF 4
ENDMDL
MODEL        8
REMARK 921   NORMALIZED FREE ENERGY PREDICTED BY IDOCK:   -5.62 KCAL/MOL
REMARK 922        TOTAL FREE ENERGY PREDICTED BY IDOCK:   -7.22 KCAL/MOL
REMARK 923 INTER-LIGAND FREE ENERGY PREDICTED BY IDOCK:   -6.96 KCAL/MOL
REMARK 924 INTRA-LIGAND FREE ENERGY PREDICTED BY IDOCK:   -0.26 KCAL/MOL
REMARK 927      BINDING AFFINITY PREDICTED BY RF-SCORE:    0.00 PKD
ROOT
HETATM    1  C   UNL     1     -10.656  19.435  67.408  1.00  0.00    -0.603 C  
HETATM    2  C   UNL     1      -9.681  18.337  66.980  1.00  0.00    -0.303 C  
HETATM    3  C   UNL     1      -9.609  17.263  68.070  1.00  0.00    -0.274 C  
ENDROOT
BRANCH   2   4
HETATM    4  N   UNL     1     -10.123  17.782  65.693  1.00  0.00    -0.566 NA 
HETATM    5  H   UNL     1      -9.554  18.136  64.923  1.00  0.00     0.000 HD 
BRANCH   4   6
HETATM    6  C   UNL     1     -10.148  16.309  65.703  1.00  0.00    -0.312 C  
BRANCH   6   7
HETATM    7  C   UNL     1     -11.407  15.717  65.026  1.00  0.00    -0.253 C  
HETATM    8  H   UNL     1     -12.484  16.105  63.430  1.00  0.00     0.000 HD 
HETATM    9  O   UNL     1     -11.711  16.468  63.846  1.00  0.00    -1.148 OA 
BRANCH   7  10
HETATM   10  C   UNL     1     -11.254  14.247  64.659  1.00  0.00    -0.370 A  
HETATM   11  C   UNL     1     -10.089  13.554  65.033  1.00  0.00    -0.280 A  
HETATM   12  C   UNL     1      -9.930  12.212  64.677  1.00  0.00    -0.202 A  
HETATM   13  C   UNL     1     -10.909  11.535  63.962  1.00  0.00    -0.453 A  
HETATM   14  O   UNL     1      -8.805  11.515  65.012  1.00  0.00    -0.399 OA 
HETATM   15  H   UNL     1      -8.697  10.604  64.770  1.00  0.00     0.000 HD 
HETATM   16  C   UNL     1     -12.069  12.209  63.613  1.00  0.00    -0.551 A  
HETATM   17  O   UNL     1     -13.068  11.602  62.912  1.00  0.00    -0.790 OA 
HETATM   18  C   UNL     1     -12.252  13.544  63.963  1.00  0.00    -0.458 A  
HETATM   19  H   UNL     1     -13.863  12.064  62.673  1.00  0.00     0.000 HD 
ENDBRANCH   7  10
ENDBRANCH   6   7
ENDBRANCH   4   6
ENDBRANCH   2   4
TORSDOF 4
ENDMDL
MODEL        9
REMARK 921   NORMALIZED FREE ENERGY PREDICTED BY IDOCK:   -5.60 KCAL/MOL
REMARK 922        TOTAL FREE ENERGY PREDICTED BY IDOCK:   -7.19 KCAL/MOL
REMARK 923 INTER-LIGAND FREE ENERGY PREDICTED BY IDOCK:   -6.78 KCAL/MOL
REMARK 924 INTRA-LIGAND FREE ENERGY PREDICTED BY IDOCK:   -0.41 KCAL/MOL
REMARK 927      BINDING AFFINITY PREDICTED BY RF-SCORE:    0.00 PKD
ROOT
HETATM    1  C   UNL     1     -10.503  12.117  63.539  1.00  0.00    -0.490 C  
HETATM    2  C   UNL     1     -11.929  12.579  63.840  1.00  0.00    -0.480 C  
HETATM    3  C   UNL     1     -12.240  12.350  65.322  1.00  0.00    -0.418 C  
ENDROOT
BRANCH   2   4
HETATM    4  N   UNL     1     -12.063  13.993  63.464  1.00  0.00    -0.991 NA 
HETATM    5  H   UNL     1     -12.825  14.129  62.800  1.00  0.00     0.000 HD 
BRANCH   4   6
HETATM    6  C   UNL     1     -12.219  14.867  64.641  1.00  0.00    -0.341 C  
BRANCH   6   7
HETATM    7  C   UNL     1     -11.024  15.828  64.848  1.00  0.00    -0.427 C  
HETATM    8  H   UNL     1     -10.581  17.679  64.360  1.00  0.00     0.000 HD 
HETATM    9  O   UNL     1     -11.315  17.089  64.234  1.00  0.00    -1.191 OA 
BRANCH   7  10
HETATM   10  C   UNL     1     -10.682  16.052  66.314  1.00  0.00    -0.234 A  
HETATM   11  C   UNL     1     -10.382  14.950  67.135  1.00  0.00    -0.260 A  
HETATM   12  C   UNL     1     -10.093  15.145  68.488  1.00  0.00    -0.228 A  
HETATM   13  C   UNL     1     -10.085  16.415  69.048  1.00  0.00    -0.262 A  
HETATM   14  O   UNL     1      -9.813  14.095  69.314  1.00  0.00    -0.421 OA 
HETATM   15  H   UNL     1      -9.617  14.228  70.233  1.00  0.00     0.000 HD 
HETATM   16  C   UNL     1     -10.357  17.506  68.235  1.00  0.00    -0.379 A  
HETATM   17  O   UNL     1     -10.364  18.779  68.723  1.00  0.00    -0.447 OA 
HETATM   18  C   UNL     1     -10.640  17.336  66.883  1.00  0.00    -0.213 A  
HETATM   19  H   UNL     1     -10.550  19.527  68.166  1.00  0.00     0.000 HD 
ENDBRANCH   7  10
ENDBRANCH   6   7
ENDBRANCH   4   6
ENDBRANCH   2   4
TORSDOF 4
ENDMDL
MODEL       10
REMARK 921   NORMALIZED FREE ENERGY PREDICTED BY IDOCK:   -5.57 KCAL/MOL
REMARK 922        TOTAL FREE ENERGY PREDICTED BY IDOCK:   -7.15 KCAL/MOL
REMARK 923 INTER-LIGAND FREE ENERGY PREDICTED BY IDOCK:   -6.96 KCAL/MOL
REMARK 924 INTRA-LIGAND FREE ENERGY PREDICTED BY IDOCK:   -0.19 KCAL/MOL
REMARK 927      BINDING AFFINITY PREDICTED BY RF-SCORE:    0.00 PKD
ROOT
HETATM    1  C   UNL     1      -9.184  19.908  66.576  1.00  0.00    -0.483 C  
HETATM    2  C   UNL     1      -9.661  18.498  66.926  1.00  0.00    -0.307 C  
HETATM    3  C   UNL     1     -10.628  18.564  68.112  1.00  0.00    -0.291 C  
ENDROOT
BRANCH   2   4
HETATM    4  N   UNL     1     -10.289  17.898  65.741  1.00  0.00    -0.615 NA 
HETATM    5  H   UNL     1      -9.863  18.245  64.881  1.00  0.00     0.000 HD 
BRANCH   4   6
HETATM    6  C   UNL     1     -10.268  16.425  65.788  1.00  0.00    -0.348 C  
BRANCH   6   7
HETATM    7  C   UNL     1     -11.410  15.774  64.971  1.00  0.00    -0.220 C  
HETATM    8  H   UNL     1     -12.254  16.060  63.220  1.00  0.00     0.000 HD 
HETATM    9  O   UNL     1     -11.553  16.459  63.722  1.00  0.00    -1.055 OA 
BRANCH   7  10
HETATM   10  C   UNL     1     -11.188  14.291  64.707  1.00  0.00    -0.387 A  
HETATM   11  C   UNL     1     -12.084  13.590  63.881  1.00  0.00    -0.493 A  
HETATM   12  C   UNL     1     -11.902  12.223  63.655  1.00  0.00    -0.522 A  
HETATM   13  C   UNL     1     -10.840  11.533  64.225  1.00  0.00    -0.421 A  
HETATM   14  O   UNL     1     -12.762  11.511  62.870  1.00  0.00    -0.947 OA 
HETATM   15  H   UNL     1     -12.638  10.582  62.717  1.00  0.00     0.000 HD 
HETATM   16  C   UNL     1      -9.942  12.228  65.021  1.00  0.00    -0.205 A  
HETATM   17  O   UNL     1      -8.879  11.610  65.609  1.00  0.00    -0.388 OA 
HETATM   18  C   UNL     1     -10.099  13.591  65.254  1.00  0.00    -0.277 A  
HETATM   19  H   UNL     1      -8.262  12.085  66.154  1.00  0.00     0.000 HD 
ENDBRANCH   7  10
ENDBRANCH   6   7
ENDBRANCH   4   6
ENDBRANCH   2   4
TORSDOF 4
ENDMDL
MODEL       11
REMARK 921   NORMALIZED FREE ENERGY PREDICTED BY IDOCK:   -5.56 KCAL/MOL
REMARK 922        TOTAL FREE ENERGY PREDICTED BY IDOCK:   -7.15 KCAL/MOL
REMARK 923 INTER-LIGAND FREE ENERGY PREDICTED BY IDOCK:   -6.93 KCAL/MOL
REMARK 924 INTRA-LIGAND FREE ENERGY PREDICTED BY IDOCK:   -0.21 KCAL/MOL
REMARK 927      BINDING AFFINITY PREDICTED BY RF-SCORE:    0.00 PKD
ROOT
HETATM    1  C   UNL     1     -13.017  11.711  71.556  1.00  0.00    -0.463 C  
HETATM    2  C   UNL     1     -12.013  10.897  70.739  1.00  0.00    -0.346 C  
HETATM    3  C   UNL     1     -11.749   9.559  71.437  1.00  0.00    -0.465 C  
ENDROOT
BRANCH   2   4
HETATM    4  N   UNL     1     -12.543  10.711  69.381  1.00  0.00    -0.678 NA 
HETATM    5  H   UNL     1     -13.355  11.307  69.215  1.00  0.00     0.000 HD 
BRANCH   4   6
HETATM    6  C   UNL     1     -11.511  10.916  68.349  1.00  0.00    -0.304 C  
BRANCH   6   7
HETATM    7  C   UNL     1     -11.609  12.297  67.658  1.00  0.00    -0.354 C  
HETATM    8  H   UNL     1     -10.658  14.014  67.758  1.00  0.00     0.000 HD 
HETATM    9  O   UNL     1     -10.598  13.165  68.182  1.00  0.00    -0.231 OA 
BRANCH   7  10
HETATM   10  C   UNL     1     -11.467  12.220  66.144  1.00  0.00    -0.429 A  
HETATM   11  C   UNL     1     -12.041  13.220  65.339  1.00  0.00    -0.464 A  
HETATM   12  C   UNL     1     -11.938  13.142  63.948  1.00  0.00    -0.488 A  
HETATM   13  C   UNL     1     -11.266  12.094  63.332  1.00  0.00    -0.494 A  
HETATM   14  O   UNL     1     -12.497  14.089  63.139  1.00  0.00    -1.137 OA 
HETATM   15  H   UNL     1     -12.427  14.036  62.194  1.00  0.00     0.000 HD 
HETATM   16  C   UNL     1     -10.678  11.120  64.124  1.00  0.00    -0.345 A  
HETATM   17  O   UNL     1     -10.004  10.066  63.582  1.00  0.00    -0.484 OA 
HETATM   18  C   UNL     1     -10.762  11.181  65.512  1.00  0.00    -0.251 A  
HETATM   19  H   UNL     1      -9.601   9.398  64.125  1.00  0.00     0.000 HD 
ENDBRANCH   7  10
ENDBRANCH   6   7
ENDBRANCH   4   6
ENDBRANCH   2   4
TORSDOF 4
ENDMDL
MODEL       12
REMARK 921   NORMALIZED FREE ENERGY PREDICTED BY IDOCK:   -5.54 KCAL/MOL
REMARK 922        TOTAL FREE ENERGY PREDICTED BY IDOCK:   -7.12 KCAL/MOL
REMARK 923 INTER-LIGAND FREE ENERGY PREDICTED BY IDOCK:   -6.80 KCAL/MOL
REMARK 924 INTRA-LIGAND FREE ENERGY PREDICTED BY IDOCK:   -0.32 KCAL/MOL
REMARK 927      BINDING AFFINITY PREDICTED BY RF-SCORE:    0.00 PKD
ROOT
HETATM    1  C   UNL     1     -10.381  19.723  66.982  1.00  0.00    -0.593 C  
HETATM    2  C   UNL     1      -8.956  19.179  67.098  1.00  0.00    -0.288 C  
HETATM    3  C   UNL     1      -8.608  18.965  68.574  1.00  0.00    -0.383 C  
ENDROOT
BRANCH   2   4
HETATM    4  N   UNL     1      -8.858  17.932  66.326  1.00  0.00    -0.444 NA 
HETATM    5  H   UNL     1      -8.189  17.288  66.749  1.00  0.00     0.000 HD 
BRANCH   4   6
HETATM    6  C   UNL     1     -10.171  17.290  66.138  1.00  0.00    -0.331 C  
BRANCH   6   7
HETATM    7  C   UNL     1     -10.414  16.108  67.107  1.00  0.00    -0.305 C  
HETATM    8  H   UNL     1     -11.419  15.809  68.768  1.00  0.00     0.000 HD 
HETATM    9  O   UNL     1     -11.270  16.535  68.173  1.00  0.00    -0.341 OA 
BRANCH   7  10
HETATM   10  C   UNL     1     -11.030  14.893  66.426  1.00  0.00    -0.336 A  
HETATM   11  C   UNL     1     -11.359  14.953  65.060  1.00  0.00    -0.398 A  
HETATM   12  C   UNL     1     -11.948  13.852  64.435  1.00  0.00    -0.450 A  
HETATM   13  C   UNL     1     -12.212  12.681  65.134  1.00  0.00    -0.539 A  
HETATM   14  O   UNL     1     -12.293  13.883  63.115  1.00  0.00    -1.122 OA 
HETATM   15  H   UNL     1     -12.694  13.134  62.690  1.00  0.00     0.000 HD 
HETATM   16  C   UNL     1     -11.865  12.610  66.475  1.00  0.00    -0.396 A  
HETATM   17  O   UNL     1     -12.096  11.491  67.217  1.00  0.00    -0.548 OA 
HETATM   18  C   UNL     1     -11.271  13.693  67.117  1.00  0.00    -0.327 A  
HETATM   19  H   UNL     1     -11.858  11.442  68.136  1.00  0.00     0.000 HD 
ENDBRANCH   7  10
ENDBRANCH   6   7
ENDBRANCH   4   6
ENDBRANCH   2   4
TORSDOF 4
ENDMDL
MODEL       13
REMARK 921   NORMALIZED FREE ENERGY PREDICTED BY IDOCK:   -5.52 KCAL/MOL
REMARK 922        TOTAL FREE ENERGY PREDICTED BY IDOCK:   -7.09 KCAL/MOL
REMARK 923 INTER-LIGAND FREE ENERGY PREDICTED BY IDOCK:   -6.80 KCAL/MOL
REMARK 924 INTRA-LIGAND FREE ENERGY PREDICTED BY IDOCK:   -0.29 KCAL/MOL
REMARK 927      BINDING AFFINITY PREDICTED BY RF-SCORE:    0.00 PKD
ROOT
HETATM    1  C   UNL     1     -10.094  19.793  68.461  1.00  0.00    -0.555 C  
HETATM    2  C   UNL     1     -10.772  19.094  67.283  1.00  0.00    -0.488 C  
HETATM    3  C   UNL     1     -10.276  19.705  65.969  1.00  0.00    -0.587 C  
ENDROOT
BRANCH   2   4
HETATM    4  N   UNL     1     -10.492  17.653  67.356  1.00  0.00    -0.362 NA 
HETATM    5  H   UNL     1     -11.352  17.106  67.309  1.00  0.00     0.000 HD 
BRANCH   4   6
HETATM    6  C   UNL     1      -9.529  17.222  66.327  1.00  0.00    -0.234 C  
BRANCH   6   7
HETATM    7  C   UNL     1      -9.141  15.729  66.444  1.00  0.00    -0.322 C  
HETATM    8  H   UNL     1      -8.502  14.527  67.861  1.00  0.00     0.000 HD 
HETATM    9  O   UNL     1      -8.740  15.444  67.789  1.00  0.00    -0.160 OA 
BRANCH   7  10
HETATM   10  C   UNL     1     -10.268  14.785  66.047  1.00  0.00    -0.320 A  
HETATM   11  C   UNL     1     -10.668  13.767  66.931  1.00  0.00    -0.280 A  
HETATM   12  C   UNL     1     -11.683  12.881  66.563  1.00  0.00    -0.393 A  
HETATM   13  C   UNL     1     -12.322  12.986  65.335  1.00  0.00    -0.538 A  
HETATM   14  O   UNL     1     -12.085  11.875  67.393  1.00  0.00    -0.577 OA 
HETATM   15  H   UNL     1     -12.774  11.272  67.142  1.00  0.00     0.000 HD 
HETATM   16  C   UNL     1     -11.946  14.004  64.470  1.00  0.00    -0.448 A  
HETATM   17  O   UNL     1     -12.533  14.162  63.251  1.00  0.00    -1.146 OA 
HETATM   18  C   UNL     1     -10.942  14.903  64.819  1.00  0.00    -0.390 A  
HETATM   19  H   UNL     1     -12.276  14.859  62.658  1.00  0.00     0.000 HD 
ENDBRANCH   7  10
ENDBRANCH   6   7
ENDBRANCH   4   6
ENDBRANCH   2   4
TORSDOF 4
ENDMDL
MODEL       14
REMARK 921   NORMALIZED FREE ENERGY PREDICTED BY IDOCK:   -5.52 KCAL/MOL
REMARK 922        TOTAL FREE ENERGY PREDICTED BY IDOCK:   -7.09 KCAL/MOL
REMARK 923 INTER-LIGAND FREE ENERGY PREDICTED BY IDOCK:   -6.74 KCAL/MOL
REMARK 924 INTRA-LIGAND FREE ENERGY PREDICTED BY IDOCK:   -0.35 KCAL/MOL
REMARK 927      BINDING AFFINITY PREDICTED BY RF-SCORE:    0.00 PKD
ROOT
HETATM    1  C   UNL     1     -10.512  12.164  63.338  1.00  0.00    -0.450 C  
HETATM    2  C   UNL     1     -11.917  12.531  63.817  1.00  0.00    -0.517 C  
HETATM    3  C   UNL     1     -12.025  12.282  65.325  1.00  0.00    -0.391 C  
ENDROOT
BRANCH   2   4
HETATM    4  N   UNL     1     -12.188  13.934  63.473  1.00  0.00    -1.050 NA 
HETATM    5  H   UNL     1     -13.016  14.016  62.883  1.00  0.00     0.000 HD 
BRANCH   4   6
HETATM    6  C   UNL     1     -12.300  14.786  64.670  1.00  0.00    -0.333 C  
BRANCH   6   7
HETATM    7  C   UNL     1     -11.104  15.753  64.842  1.00  0.00    -0.399 C  
HETATM    8  H   UNL     1     -10.651  17.578  64.271  1.00  0.00     0.000 HD 
HETATM    9  O   UNL     1     -11.386  16.984  64.165  1.00  0.00    -1.164 OA 
BRANCH   7  10
HETATM   10  C   UNL     1     -10.775  16.046  66.299  1.00  0.00    -0.234 A  
HETATM   11  C   UNL     1     -10.445  17.357  66.688  1.00  0.00    -0.253 A  
HETATM   12  C   UNL     1     -10.117  17.629  68.018  1.00  0.00    -0.343 A  
HETATM   13  C   UNL     1     -10.116  16.627  68.980  1.00  0.00    -0.293 A  
HETATM   14  O   UNL     1      -9.778  18.887  68.425  1.00  0.00    -0.335 OA 
HETATM   15  H   UNL     1      -9.554  19.071  69.329  1.00  0.00     0.000 HD 
HETATM   16  C   UNL     1     -10.464  15.338  68.604  1.00  0.00    -0.235 A  
HETATM   17  O   UNL     1     -10.484  14.311  69.499  1.00  0.00    -0.427 OA 
HETATM   18  C   UNL     1     -10.802  15.046  67.286  1.00  0.00    -0.310 A  
HETATM   19  H   UNL     1     -10.723  13.428  69.242  1.00  0.00     0.000 HD 
ENDBRANCH   7  10
ENDBRANCH   6   7
ENDBRANCH   4   6
ENDBRANCH   2   4
TORSDOF 4
ENDMDL
MODEL       15
REMARK 921   NORMALIZED FREE ENERGY PREDICTED BY IDOCK:   -5.51 KCAL/MOL
REMARK 922        TOTAL FREE ENERGY PREDICTED BY IDOCK:   -7.08 KCAL/MOL
REMARK 923 INTER-LIGAND FREE ENERGY PREDICTED BY IDOCK:   -6.81 KCAL/MOL
REMARK 924 INTRA-LIGAND FREE ENERGY PREDICTED BY IDOCK:   -0.27 KCAL/MOL
REMARK 927      BINDING AFFINITY PREDICTED BY RF-SCORE:    0.00 PKD
ROOT
HETATM    1  C   UNL     1     -12.509  12.838  64.981  1.00  0.00    -0.572 C  
HETATM    2  C   UNL     1     -11.667  13.799  65.821  1.00  0.00    -0.349 C  
HETATM    3  C   UNL     1     -11.279  15.015  64.973  1.00  0.00    -0.413 C  
ENDROOT
BRANCH   2   4
HETATM    4  N   UNL     1     -12.432  14.186  67.015  1.00  0.00    -0.548 NA 
HETATM    5  H   UNL     1     -13.391  13.844  66.966  1.00  0.00     0.000 HD 
BRANCH   4   6
HETATM    6  C   UNL     1     -11.773  13.754  68.260  1.00  0.00    -0.359 C  
BRANCH   6   7
HETATM    7  C   UNL     1     -11.313  14.935  69.147  1.00  0.00    -0.292 C  
HETATM    8  H   UNL     1     -11.367  16.897  69.052  1.00  0.00     0.000 HD 
HETATM    9  O   UNL     1     -11.649  16.171  68.507  1.00  0.00    -0.377 OA 
BRANCH   7  10
HETATM   10  C   UNL     1     -11.926  14.910  70.541  1.00  0.00    -0.365 A  
HETATM   11  C   UNL     1     -12.738  13.829  70.926  1.00  0.00    -0.394 A  
HETATM   12  C   UNL     1     -13.324  13.812  72.193  1.00  0.00    -0.476 A  
HETATM   13  C   UNL     1     -13.116  14.844  73.098  1.00  0.00    -0.615 A  
HETATM   14  O   UNL     1     -14.129  12.784  72.591  1.00  0.00    -0.679 OA 
HETATM   15  H   UNL     1     -14.528  12.773  73.453  1.00  0.00     0.000 HD 
HETATM   16  C   UNL     1     -12.296  15.901  72.731  1.00  0.00    -0.480 A  
HETATM   17  O   UNL     1     -12.051  16.944  73.572  1.00  0.00    -0.346 OA 
HETATM   18  C   UNL     1     -11.695  15.935  71.476  1.00  0.00    -0.545 A  
HETATM   19  H   UNL     1     -11.489  17.668  73.321  1.00  0.00     0.000 HD 
ENDBRANCH   7  10
ENDBRANCH   6   7
ENDBRANCH   4   6
ENDBRANCH   2   4
TORSDOF 4
ENDMDL
MODEL       16
REMARK 921   NORMALIZED FREE ENERGY PREDICTED BY IDOCK:   -5.51 KCAL/MOL
REMARK 922        TOTAL FREE ENERGY PREDICTED BY IDOCK:   -7.08 KCAL/MOL
REMARK 923 INTER-LIGAND FREE ENERGY PREDICTED BY IDOCK:   -6.83 KCAL/MOL
REMARK 924 INTRA-LIGAND FREE ENERGY PREDICTED BY IDOCK:   -0.25 KCAL/MOL
REMARK 927      BINDING AFFINITY PREDICTED BY RF-SCORE:    0.00 PKD
ROOT
HETATM    1  C   UNL     1     -11.346   9.806  70.979  1.00  0.00    -0.460 C  
HETATM    2  C   UNL     1     -12.629  10.483  70.498  1.00  0.00    -0.339 C  
HETATM    3  C   UNL     1     -12.849  11.781  71.282  1.00  0.00    -0.409 C  
ENDROOT
BRANCH   2   4
HETATM    4  N   UNL     1     -12.526  10.728  69.052  1.00  0.00    -0.728 NA 
HETATM    5  H   UNL     1     -13.377  11.160  68.689  1.00  0.00     0.000 HD 
BRANCH   4   6
HETATM    6  C   UNL     1     -11.335  11.525  68.708  1.00  0.00    -0.265 C  
BRANCH   6   7
HETATM    7  C   UNL     1     -11.677  12.849  67.985  1.00  0.00    -0.356 C  
HETATM    8  H   UNL     1     -10.997  14.693  67.986  1.00  0.00     0.000 HD 
HETATM    9  O   UNL     1     -10.787  13.879  68.430  1.00  0.00    -0.240 OA 
BRANCH   7  10
HETATM   10  C   UNL     1     -11.600  12.741  66.468  1.00  0.00    -0.435 A  
HETATM   11  C   UNL     1     -10.936  11.648  65.882  1.00  0.00    -0.334 A  
HETATM   12  C   UNL     1     -10.838  11.555  64.491  1.00  0.00    -0.327 A  
HETATM   13  C   UNL     1     -11.393  12.521  63.663  1.00  0.00    -0.555 A  
HETATM   14  O   UNL     1     -10.188  10.516  63.892  1.00  0.00    -0.423 OA 
HETATM   15  H   UNL     1     -10.121  10.452  62.947  1.00  0.00     0.000 HD 
HETATM   16  C   UNL     1     -12.069  13.587  64.238  1.00  0.00    -0.431 A  
HETATM   17  O   UNL     1     -12.638  14.568  63.481  1.00  0.00    -1.034 OA 
HETATM   18  C   UNL     1     -12.186  13.696  65.620  1.00  0.00    -0.490 A  
HETATM   19  H   UNL     1     -13.101  15.298  63.874  1.00  0.00     0.000 HD 
ENDBRANCH   7  10
ENDBRANCH   6   7
ENDBRANCH   4   6
ENDBRANCH   2   4
TORSDOF 4
ENDMDL
MODEL       17
REMARK 921   NORMALIZED FREE ENERGY PREDICTED BY IDOCK:   -5.48 KCAL/MOL
REMARK 922        TOTAL FREE ENERGY PREDICTED BY IDOCK:   -7.04 KCAL/MOL
REMARK 923 INTER-LIGAND FREE ENERGY PREDICTED BY IDOCK:   -6.72 KCAL/MOL
REMARK 924 INTRA-LIGAND FREE ENERGY PREDICTED BY IDOCK:   -0.32 KCAL/MOL
REMARK 927      BINDING AFFINITY PREDICTED BY RF-SCORE:    0.00 PKD
ROOT
HETATM    1  C   UNL     1     -14.288  14.336  72.001  1.00  0.00    -0.629 C  
HETATM    2  C   UNL     1     -13.418  15.285  71.176  1.00  0.00    -0.489 C  
HETATM    3  C   UNL     1     -12.444  16.021  72.102  1.00  0.00    -0.524 C  
ENDROOT
BRANCH   2   4
HETATM    4  N   UNL     1     -12.714  14.513  70.143  1.00  0.00    -0.526 NA 
HETATM    5  H   UNL     1     -12.059  15.099  69.625  1.00  0.00     0.000 HD 
BRANCH   4   6
HETATM    6  C   UNL     1     -12.042  13.326  70.700  1.00  0.00    -0.280 C  
BRANCH   6   7
HETATM    7  C   UNL     1     -12.115  12.092  69.769  1.00  0.00    -0.237 C  
HETATM    8  H   UNL     1     -11.086  11.388  68.250  1.00  0.00     0.000 HD 
HETATM    9  O   UNL     1     -11.041  12.146  68.822  1.00  0.00    -0.223 OA 
BRANCH   7  10
HETATM   10  C   UNL     1     -12.054  10.770  70.520  1.00  0.00    -0.459 A  
HETATM   11  C   UNL     1     -12.989  10.504  71.537  1.00  0.00    -0.565 A  
HETATM   12  C   UNL     1     -12.924   9.304  72.249  1.00  0.00    -0.412 A  
HETATM   13  C   UNL     1     -11.954   8.350  71.969  1.00  0.00    -0.419 A  
HETATM   14  O   UNL     1     -13.806   9.022  73.251  1.00  0.00    -1.159 OA 
HETATM   15  H   UNL     1     -13.762   8.206  73.735  1.00  0.00     0.000 HD 
HETATM   16  C   UNL     1     -11.046   8.600  70.950  1.00  0.00    -0.264 A  
HETATM   17  O   UNL     1     -10.070   7.705  70.625  1.00  0.00    -0.187 OA 
HETATM   18  C   UNL     1     -11.096   9.785  70.223  1.00  0.00    -0.349 A  
HETATM   19  H   UNL     1      -9.448   7.875  69.927  1.00  0.00     0.000 HD 
ENDBRANCH   7  10
ENDBRANCH   6   7
ENDBRANCH   4   6
ENDBRANCH   2   4
TORSDOF 4
ENDMDL
MODEL       18
REMARK 921   NORMALIZED FREE ENERGY PREDICTED BY IDOCK:   -5.48 KCAL/MOL
REMARK 922        TOTAL FREE ENERGY PREDICTED BY IDOCK:   -7.04 KCAL/MOL
REMARK 923 INTER-LIGAND FREE ENERGY PREDICTED BY IDOCK:   -6.78 KCAL/MOL
REMARK 924 INTRA-LIGAND FREE ENERGY PREDICTED BY IDOCK:   -0.26 KCAL/MOL
REMARK 927      BINDING AFFINITY PREDICTED BY RF-SCORE:    0.00 PKD
ROOT
HETATM    1  C   UNL     1     -11.339  15.563  71.559  1.00  0.00    -0.466 C  
HETATM    2  C   UNL     1     -11.623  15.322  70.075  1.00  0.00    -0.305 C  
HETATM    3  C   UNL     1     -10.804  16.304  69.231  1.00  0.00    -0.318 C  
ENDROOT
BRANCH   2   4
HETATM    4  N   UNL     1     -11.306  13.924  69.749  1.00  0.00    -0.428 NA 
HETATM    5  H   UNL     1     -11.356  13.331  70.578  1.00  0.00     0.000 HD 
BRANCH   4   6
HETATM    6  C   UNL     1     -12.157  13.400  68.666  1.00  0.00    -0.246 C  
BRANCH   6   7
HETATM    7  C   UNL     1     -11.445  12.341  67.792  1.00  0.00    -0.329 C  
HETATM    8  H   UNL     1     -11.543  10.394  67.546  1.00  0.00     0.000 HD 
HETATM    9  O   UNL     1     -11.981  11.045  68.083  1.00  0.00    -0.610 OA 
BRANCH   7  10
HETATM   10  C   UNL     1     -11.574  12.612  66.299  1.00  0.00    -0.440 A  
HETATM   11  C   UNL     1     -11.174  11.629  65.376  1.00  0.00    -0.262 A  
HETATM   12  C   UNL     1     -11.264  11.880  64.005  1.00  0.00    -0.396 A  
HETATM   13  C   UNL     1     -11.753  13.088  63.523  1.00  0.00    -0.532 A  
HETATM   14  O   UNL     1     -10.871  10.953  63.084  1.00  0.00    -0.733 OA 
HETATM   15  H   UNL     1     -10.932  11.124  62.152  1.00  0.00     0.000 HD 
HETATM   16  C   UNL     1     -12.171  14.049  64.431  1.00  0.00    -0.426 A  
HETATM   17  O   UNL     1     -12.661  15.254  64.024  1.00  0.00    -0.829 OA 
HETATM   18  C   UNL     1     -12.097  13.818  65.802  1.00  0.00    -0.458 A  
HETATM   19  H   UNL     1     -12.947  15.914  64.646  1.00  0.00     0.000 HD 
ENDBRANCH   7  10
ENDBRANCH   6   7
ENDBRANCH   4   6
ENDBRANCH   2   4
TORSDOF 4
ENDMDL
MODEL       19
REMARK 921   NORMALIZED FREE ENERGY PREDICTED BY IDOCK:   -5.47 KCAL/MOL
REMARK 922        TOTAL FREE ENERGY PREDICTED BY IDOCK:   -7.03 KCAL/MOL
REMARK 923 INTER-LIGAND FREE ENERGY PREDICTED BY IDOCK:   -6.78 KCAL/MOL
REMARK 924 INTRA-LIGAND FREE ENERGY PREDICTED BY IDOCK:   -0.25 KCAL/MOL
REMARK 927      BINDING AFFINITY PREDICTED BY RF-SCORE:    0.00 PKD
ROOT
HETATM    1  C   UNL     1     -12.289  12.102  63.426  1.00  0.00    -0.648 C  
HETATM    2  C   UNL     1     -12.549  12.674  64.820  1.00  0.00    -0.454 C  
HETATM    3  C   UNL     1     -11.569  12.051  65.821  1.00  0.00    -0.353 C  
ENDROOT
BRANCH   2   4
HETATM    4  N   UNL     1     -12.420  14.137  64.768  1.00  0.00    -0.612 NA 
HETATM    5  H   UNL     1     -13.261  14.595  65.121  1.00  0.00     0.000 HD 
BRANCH   4   6
HETATM    6  C   UNL     1     -11.217  14.614  65.473  1.00  0.00    -0.343 C  
BRANCH   6   7
HETATM    7  C   UNL     1     -10.719  15.989  64.965  1.00  0.00    -0.378 C  
HETATM    8  H   UNL     1     -11.304  17.318  63.642  1.00  0.00     0.000 HD 
HETATM    9  O   UNL     1     -11.610  16.474  63.954  1.00  0.00    -1.175 OA 
BRANCH   7  10
HETATM   10  C   UNL     1     -10.601  17.029  66.071  1.00  0.00    -0.208 A  
HETATM   11  C   UNL     1     -10.443  18.385  65.736  1.00  0.00    -0.250 A  
HETATM   12  C   UNL     1     -10.308  19.342  66.744  1.00  0.00    -0.443 A  
HETATM   13  C   UNL     1     -10.335  18.985  68.086  1.00  0.00    -0.446 A  
HETATM   14  O   UNL     1     -10.138  20.665  66.452  1.00  0.00    -0.516 OA 
HETATM   15  H   UNL     1     -10.046  21.315  67.138  1.00  0.00     0.000 HD 
HETATM   16  C   UNL     1     -10.514  17.651  68.419  1.00  0.00    -0.359 A  
HETATM   17  O   UNL     1     -10.551  17.235  69.717  1.00  0.00    -0.304 OA 
HETATM   18  C   UNL     1     -10.659  16.681  67.432  1.00  0.00    -0.295 A  
HETATM   19  H   UNL     1     -10.675  16.321  69.946  1.00  0.00     0.000 HD 
ENDBRANCH   7  10
ENDBRANCH   6   7
ENDBRANCH   4   6
ENDBRANCH   2   4
TORSDOF 4
ENDMDL
MODEL       20
REMARK 921   NORMALIZED FREE ENERGY PREDICTED BY IDOCK:   -5.46 KCAL/MOL
REMARK 922        TOTAL FREE ENERGY PREDICTED BY IDOCK:   -7.02 KCAL/MOL
REMARK 923 INTER-LIGAND FREE ENERGY PREDICTED BY IDOCK:   -6.79 KCAL/MOL
REMARK 924 INTRA-LIGAND FREE ENERGY PREDICTED BY IDOCK:   -0.23 KCAL/MOL
REMARK 927      BINDING AFFINITY PREDICTED BY RF-SCORE:    0.00 PKD
ROOT
HETATM    1  C   UNL     1     -12.461  10.770  71.296  1.00  0.00    -0.504 C  
HETATM    2  C   UNL     1     -11.502  10.609  70.116  1.00  0.00    -0.329 C  
HETATM    3  C   UNL     1     -10.961   9.175  70.087  1.00  0.00    -0.267 C  
ENDROOT
BRANCH   2   4
HETATM    4  N   UNL     1     -12.210  10.951  68.874  1.00  0.00    -0.764 NA 
HETATM    5  H   UNL     1     -13.146  11.309  69.069  1.00  0.00     0.000 HD 
BRANCH   4   6
HETATM    6  C   UNL     1     -11.442  11.892  68.039  1.00  0.00    -0.323 C  
BRANCH   6   7
HETATM    7  C   UNL     1     -11.948  13.351  68.145  1.00  0.00    -0.321 C  
HETATM    8  H   UNL     1     -11.637  14.886  69.331  1.00  0.00     0.000 HD 
HETATM    9  O   UNL     1     -11.326  13.991  69.266  1.00  0.00    -0.251 OA 
BRANCH   7  10
HETATM   10  C   UNL     1     -11.681  14.169  66.889  1.00  0.00    -0.437 A  
HETATM   11  C   UNL     1     -12.247  13.771  65.665  1.00  0.00    -0.484 A  
HETATM   12  C   UNL     1     -11.986  14.502  64.504  1.00  0.00    -0.468 A  
HETATM   13  C   UNL     1     -11.177  15.631  64.529  1.00  0.00    -0.337 A  
HETATM   14  O   UNL     1     -12.509  14.134  63.298  1.00  0.00    -1.146 OA 
HETATM   15  H   UNL     1     -12.330  14.630  62.509  1.00  0.00     0.000 HD 
HETATM   16  C   UNL     1     -10.637  16.040  65.739  1.00  0.00    -0.353 A  
HETATM   17  O   UNL     1      -9.837  17.139  65.832  1.00  0.00    -0.486 OA 
HETATM   18  C   UNL     1     -10.890  15.332  66.910  1.00  0.00    -0.317 A  
HETATM   19  H   UNL     1      -9.466  17.420  66.661  1.00  0.00     0.000 HD 
ENDBRANCH   7  10
ENDBRANCH   6   7
ENDBRANCH   4   6
ENDBRANCH   2   4
TORSDOF 4
ENDMDL
MODEL       21
REMARK 921   NORMALIZED FREE ENERGY PREDICTED BY IDOCK:   -5.45 KCAL/MOL
REMARK 922        TOTAL FREE ENERGY PREDICTED BY IDOCK:   -7.01 KCAL/MOL
REMARK 923 INTER-LIGAND FREE ENERGY PREDICTED BY IDOCK:   -6.72 KCAL/MOL
REMARK 924 INTRA-LIGAND FREE ENERGY PREDICTED BY IDOCK:   -0.29 KCAL/MOL
REMARK 927      BINDING AFFINITY PREDICTED BY RF-SCORE:    0.00 PKD
ROOT
HETATM    1  C   UNL     1     -12.405  13.958  64.907  1.00  0.00    -0.445 C  
HETATM    2  C   UNL     1     -11.436  13.870  66.087  1.00  0.00    -0.345 C  
HETATM    3  C   UNL     1     -10.182  14.696  65.783  1.00  0.00    -0.360 C  
ENDROOT
BRANCH   2   4
HETATM    4  N   UNL     1     -12.119  14.337  67.301  1.00  0.00    -0.557 NA 
HETATM    5  H   UNL     1     -13.103  14.065  67.300  1.00  0.00     0.000 HD 
BRANCH   4   6
HETATM    6  C   UNL     1     -11.441  13.884  68.528  1.00  0.00    -0.311 C  
BRANCH   6   7
HETATM    7  C   UNL     1     -11.096  15.041  69.496  1.00  0.00    -0.277 C  
HETATM    8  H   UNL     1     -11.191  17.003  69.464  1.00  0.00     0.000 HD 
HETATM    9  O   UNL     1     -11.403  16.292  68.870  1.00  0.00    -0.342 OA 
BRANCH   7  10
HETATM   10  C   UNL     1     -11.833  14.951  70.825  1.00  0.00    -0.368 A  
HETATM   11  C   UNL     1     -11.666  15.966  71.784  1.00  0.00    -0.575 A  
HETATM   12  C   UNL     1     -12.318  15.877  73.016  1.00  0.00    -0.498 A  
HETATM   13  C   UNL     1     -13.145  14.803  73.318  1.00  0.00    -0.550 A  
HETATM   14  O   UNL     1     -12.166  16.838  73.973  1.00  0.00    -0.440 OA 
HETATM   15  H   UNL     1     -12.609  16.777  74.810  1.00  0.00     0.000 HD 
HETATM   16  C   UNL     1     -13.331  13.813  72.365  1.00  0.00    -0.535 A  
HETATM   17  O   UNL     1     -14.129  12.733  72.599  1.00  0.00    -0.679 OA 
HETATM   18  C   UNL     1     -12.697  13.884  71.128  1.00  0.00    -0.441 A  
HETATM   19  H   UNL     1     -14.257  12.054  71.946  1.00  0.00     0.000 HD 
ENDBRANCH   7  10
ENDBRANCH   6   7
ENDBRANCH   4   6
ENDBRANCH   2   4
TORSDOF 4
ENDMDL
MODEL       22
REMARK 921   NORMALIZED FREE ENERGY PREDICTED BY IDOCK:   -5.45 KCAL/MOL
REMARK 922        TOTAL FREE ENERGY PREDICTED BY IDOCK:   -7.01 KCAL/MOL
REMARK 923 INTER-LIGAND FREE ENERGY PREDICTED BY IDOCK:   -6.70 KCAL/MOL
REMARK 924 INTRA-LIGAND FREE ENERGY PREDICTED BY IDOCK:   -0.30 KCAL/MOL
REMARK 927      BINDING AFFINITY PREDICTED BY RF-SCORE:    0.00 PKD
ROOT
HETATM    1  C   UNL     1     -13.774  13.492  72.210  1.00  0.00    -0.700 C  
HETATM    2  C   UNL     1     -14.091  14.972  71.987  1.00  0.00    -0.535 C  
HETATM    3  C   UNL     1     -13.391  15.813  73.059  1.00  0.00    -0.679 C  
ENDROOT
BRANCH   2   4
HETATM    4  N   UNL     1     -13.670  15.352  70.632  1.00  0.00    -0.841 NA 
HETATM    5  H   UNL     1     -14.232  16.124  70.272  1.00  0.00     0.000 HD 
BRANCH   4   6
HETATM    6  C   UNL     1     -12.231  15.663  70.565  1.00  0.00    -0.399 C  
BRANCH   6   7
HETATM    7  C   UNL     1     -11.500  14.923  69.419  1.00  0.00    -0.299 C  
HETATM    8  H   UNL     1     -11.934  13.502  68.134  1.00  0.00     0.000 HD 
HETATM    9  O   UNL     1     -12.382  13.957  68.838  1.00  0.00    -0.301 OA 
BRANCH   7  10
HETATM   10  C   UNL     1     -10.993  15.859  68.330  1.00  0.00    -0.331 A  
HETATM   11  C   UNL     1     -11.019  15.441  66.987  1.00  0.00    -0.306 A  
HETATM   12  C   UNL     1     -10.532  16.283  65.985  1.00  0.00    -0.331 A  
HETATM   13  C   UNL     1     -10.024  17.541  66.283  1.00  0.00    -0.316 A  
HETATM   14  O   UNL     1     -10.529  15.902  64.674  1.00  0.00    -0.671 OA 
HETATM   15  H   UNL     1     -10.197  16.474  63.993  1.00  0.00     0.000 HD 
HETATM   16  C   UNL     1     -10.020  17.965  67.604  1.00  0.00    -0.324 A  
HETATM   17  O   UNL     1      -9.536  19.187  67.963  1.00  0.00    -0.305 OA 
HETATM   18  C   UNL     1     -10.507  17.146  68.618  1.00  0.00    -0.366 A  
HETATM   19  H   UNL     1      -9.534  19.478  68.868  1.00  0.00     0.000 HD 
ENDBRANCH   7  10
ENDBRANCH   6   7
ENDBRANCH   4   6
ENDBRANCH   2   4
TORSDOF 4
ENDMDL
MODEL       23
REMARK 921   NORMALIZED FREE ENERGY PREDICTED BY IDOCK:   -5.45 KCAL/MOL
REMARK 922        TOTAL FREE ENERGY PREDICTED BY IDOCK:   -7.00 KCAL/MOL
REMARK 923 INTER-LIGAND FREE ENERGY PREDICTED BY IDOCK:   -6.66 KCAL/MOL
REMARK 924 INTRA-LIGAND FREE ENERGY PREDICTED BY IDOCK:   -0.34 KCAL/MOL
REMARK 927      BINDING AFFINITY PREDICTED BY RF-SCORE:    0.00 PKD
ROOT
HETATM    1  C   UNL     1     -11.512  10.353  69.156  1.00  0.00    -0.261 C  
HETATM    2  C   UNL     1     -12.172  11.533  69.870  1.00  0.00    -0.258 C  
HETATM    3  C   UNL     1     -12.575  11.113  71.287  1.00  0.00    -0.503 C  
ENDROOT
BRANCH   2   4
HETATM    4  N   UNL     1     -11.239  12.668  69.879  1.00  0.00    -0.477 NA 
HETATM    5  H   UNL     1     -10.599  12.614  70.672  1.00  0.00     0.000 HD 
BRANCH   4   6
HETATM    6  C   UNL     1     -10.504  12.793  68.608  1.00  0.00    -0.211 C  
BRANCH   6   7
HETATM    7  C   UNL     1     -10.560  14.219  68.010  1.00  0.00    -0.238 C  
HETATM    8  H   UNL     1      -9.268  15.626  67.551  1.00  0.00     0.000 HD 
HETATM    9  O   UNL     1      -9.233  14.750  67.918  1.00  0.00    -0.185 OA 
BRANCH   7  10
HETATM   10  C   UNL     1     -11.216  14.267  66.637  1.00  0.00    -0.337 A  
HETATM   11  C   UNL     1     -11.938  13.154  66.171  1.00  0.00    -0.478 A  
HETATM   12  C   UNL     1     -12.520  13.181  64.902  1.00  0.00    -0.433 A  
HETATM   13  C   UNL     1     -12.410  14.296  64.081  1.00  0.00    -0.361 A  
HETATM   14  O   UNL     1     -13.215  12.112  64.415  1.00  0.00    -0.758 OA 
HETATM   15  H   UNL     1     -13.610  12.130  63.551  1.00  0.00     0.000 HD 
HETATM   16  C   UNL     1     -11.719  15.404  64.547  1.00  0.00    -0.277 A  
HETATM   17  O   UNL     1     -11.575  16.529  63.792  1.00  0.00    -1.617 OA 
HETATM   18  C   UNL     1     -11.137  15.403  65.812  1.00  0.00    -0.260 A  
HETATM   19  H   UNL     1     -11.101  17.289  64.111  1.00  0.00     0.000 HD 
ENDBRANCH   7  10
ENDBRANCH   6   7
ENDBRANCH   4   6
ENDBRANCH   2   4
TORSDOF 4
ENDMDL
MODEL       24
REMARK 921   NORMALIZED FREE ENERGY PREDICTED BY IDOCK:   -5.38 KCAL/MOL
REMARK 922        TOTAL FREE ENERGY PREDICTED BY IDOCK:   -6.92 KCAL/MOL
REMARK 923 INTER-LIGAND FREE ENERGY PREDICTED BY IDOCK:   -6.58 KCAL/MOL
REMARK 924 INTRA-LIGAND FREE ENERGY PREDICTED BY IDOCK:   -0.34 KCAL/MOL
REMARK 927      BINDING AFFINITY PREDICTED BY RF-SCORE:    0.00 PKD
ROOT
HETATM    1  C   UNL     1     -10.717  19.721  66.364  1.00  0.00    -0.499 C  
HETATM    2  C   UNL     1      -9.293  19.391  66.814  1.00  0.00    -0.333 C  
HETATM    3  C   UNL     1      -9.208  19.467  68.341  1.00  0.00    -0.412 C  
ENDROOT
BRANCH   2   4
HETATM    4  N   UNL     1      -8.930  18.059  66.311  1.00  0.00    -0.456 NA 
HETATM    5  H   UNL     1      -8.336  17.562  66.975  1.00  0.00     0.000 HD 
BRANCH   4   6
HETATM    6  C   UNL     1     -10.115  17.259  65.953  1.00  0.00    -0.211 C  
BRANCH   6   7
HETATM    7  C   UNL     1     -10.416  16.130  66.969  1.00  0.00    -0.306 C  
HETATM    8  H   UNL     1     -11.468  15.937  68.616  1.00  0.00     0.000 HD 
HETATM    9  O   UNL     1     -11.283  16.630  67.993  1.00  0.00    -0.306 OA 
BRANCH   7  10
HETATM   10  C   UNL     1     -11.050  14.903  66.329  1.00  0.00    -0.340 A  
HETATM   11  C   UNL     1     -11.221  13.732  67.089  1.00  0.00    -0.327 A  
HETATM   12  C   UNL     1     -11.778  12.593  66.502  1.00  0.00    -0.400 A  
HETATM   13  C   UNL     1     -12.181  12.591  65.173  1.00  0.00    -0.509 A  
HETATM   14  O   UNL     1     -11.943  11.437  67.208  1.00  0.00    -0.580 OA 
HETATM   15  H   UNL     1     -12.322  10.663  66.809  1.00  0.00     0.000 HD 
HETATM   16  C   UNL     1     -12.037  13.752  64.428  1.00  0.00    -0.436 A  
HETATM   17  O   UNL     1     -12.413  13.816  63.120  1.00  0.00    -1.089 OA 
HETATM   18  C   UNL     1     -11.491  14.900  64.994  1.00  0.00    -0.379 A  
HETATM   19  H   UNL     1     -12.315  14.611  62.609  1.00  0.00     0.000 HD 
ENDBRANCH   7  10
ENDBRANCH   6   7
ENDBRANCH   4   6
ENDBRANCH   2   4
TORSDOF 4
ENDMDL
MODEL       25
REMARK 921   NORMALIZED FREE ENERGY PREDICTED BY IDOCK:   -5.36 KCAL/MOL
REMARK 922        TOTAL FREE ENERGY PREDICTED BY IDOCK:   -6.90 KCAL/MOL
REMARK 923 INTER-LIGAND FREE ENERGY PREDICTED BY IDOCK:   -6.33 KCAL/MOL
REMARK 924 INTRA-LIGAND FREE ENERGY PREDICTED BY IDOCK:   -0.56 KCAL/MOL
REMARK 927      BINDING AFFINITY PREDICTED BY RF-SCORE:    0.00 PKD
ROOT
HETATM    1  C   UNL     1     -10.313  17.230  67.173  1.00  0.00    -0.321 C  
HETATM    2  C   UNL     1      -9.632  16.565  65.976  1.00  0.00    -0.290 C  
HETATM    3  C   UNL     1      -8.787  15.382  66.460  1.00  0.00    -0.347 C  
ENDROOT
BRANCH   2   4
HETATM    4  N   UNL     1     -10.659  16.146  65.013  1.00  0.00    -0.634 NA 
HETATM    5  H   UNL     1     -10.462  16.510  64.080  1.00  0.00     0.000 HD 
BRANCH   4   6
HETATM    6  C   UNL     1     -10.833  14.683  64.988  1.00  0.00    -0.417 C  
BRANCH   6   7
HETATM    7  C   UNL     1     -12.140  14.214  65.672  1.00  0.00    -0.415 C  
HETATM    8  H   UNL     1     -13.722  13.168  65.160  1.00  0.00     0.000 HD 
HETATM    9  O   UNL     1     -12.919  13.456  64.741  1.00  0.00    -0.696 OA 
BRANCH   7  10
HETATM   10  C   UNL     1     -11.895  13.376  66.920  1.00  0.00    -0.453 A  
HETATM   11  C   UNL     1     -11.654  11.996  66.795  1.00  0.00    -0.391 A  
HETATM   12  C   UNL     1     -11.455  11.216  67.937  1.00  0.00    -0.284 A  
HETATM   13  C   UNL     1     -11.480  11.777  69.207  1.00  0.00    -0.369 A  
HETATM   14  O   UNL     1     -11.233   9.872  67.851  1.00  0.00    -0.497 OA 
HETATM   15  H   UNL     1     -11.098   9.342  68.627  1.00  0.00     0.000 HD 
HETATM   16  C   UNL     1     -11.694  13.141  69.331  1.00  0.00    -0.327 A  
HETATM   17  O   UNL     1     -11.730  13.753  70.549  1.00  0.00    -0.483 OA 
HETATM   18  C   UNL     1     -11.887  13.939  68.208  1.00  0.00    -0.412 A  
HETATM   19  H   UNL     1     -11.876  14.689  70.634  1.00  0.00     0.000 HD 
ENDBRANCH   7  10
ENDBRANCH   6   7
ENDBRANCH   4   6
ENDBRANCH   2   4
TORSDOF 4
ENDMDL
MODEL       26
REMARK 921   NORMALIZED FREE ENERGY PREDICTED BY IDOCK:   -5.33 KCAL/MOL
REMARK 922        TOTAL FREE ENERGY PREDICTED BY IDOCK:   -6.86 KCAL/MOL
REMARK 923 INTER-LIGAND FREE ENERGY PREDICTED BY IDOCK:   -6.46 KCAL/MOL
REMARK 924 INTRA-LIGAND FREE ENERGY PREDICTED BY IDOCK:   -0.40 KCAL/MOL
REMARK 927      BINDING AFFINITY PREDICTED BY RF-SCORE:    0.00 PKD
ROOT
HETATM    1  C   UNL     1      -8.933  16.177  66.113  1.00  0.00    -0.372 C  
HETATM    2  C   UNL     1     -10.393  16.599  65.952  1.00  0.00    -0.340 C  
HETATM    3  C   UNL     1     -10.490  18.128  65.965  1.00  0.00    -0.346 C  
ENDROOT
BRANCH   2   4
HETATM    4  N   UNL     1     -10.921  16.028  64.704  1.00  0.00    -0.842 NA 
HETATM    5  H   UNL     1     -10.363  16.317  63.901  1.00  0.00     0.000 HD 
BRANCH   4   6
HETATM    6  C   UNL     1     -11.038  14.560  64.772  1.00  0.00    -0.391 C  
BRANCH   6   7
HETATM    7  C   UNL     1     -12.279  14.085  65.566  1.00  0.00    -0.439 C  
HETATM    8  H   UNL     1     -13.847  12.954  65.219  1.00  0.00     0.000 HD 
HETATM    9  O   UNL     1     -13.085  13.245  64.732  1.00  0.00    -0.709 OA 
BRANCH   7  10
HETATM   10  C   UNL     1     -11.922  13.332  66.840  1.00  0.00    -0.430 A  
HETATM   11  C   UNL     1     -11.728  11.940  66.794  1.00  0.00    -0.281 A  
HETATM   12  C   UNL     1     -11.426  11.238  67.964  1.00  0.00    -0.298 A  
HETATM   13  C   UNL     1     -11.304  11.889  69.184  1.00  0.00    -0.338 A  
HETATM   14  O   UNL     1     -11.246   9.885  67.956  1.00  0.00    -0.494 OA 
HETATM   15  H   UNL     1     -11.041   9.408  68.751  1.00  0.00     0.000 HD 
HETATM   16  C   UNL     1     -11.471  13.265  69.228  1.00  0.00    -0.288 A  
HETATM   17  O   UNL     1     -11.363  13.964  70.394  1.00  0.00    -0.500 OA 
HETATM   18  C   UNL     1     -11.765  13.986  68.074  1.00  0.00    -0.394 A  
HETATM   19  H   UNL     1     -11.478  14.907  70.424  1.00  0.00     0.000 HD 
ENDBRANCH   7  10
ENDBRANCH   6   7
ENDBRANCH   4   6
ENDBRANCH   2   4
TORSDOF 4
ENDMDL
MODEL       27
REMARK 921   NORMALIZED FREE ENERGY PREDICTED BY IDOCK:   -5.33 KCAL/MOL
REMARK 922        TOTAL FREE ENERGY PREDICTED BY IDOCK:   -6.86 KCAL/MOL
REMARK 923 INTER-LIGAND FREE ENERGY PREDICTED BY IDOCK:   -6.48 KCAL/MOL
REMARK 924 INTRA-LIGAND FREE ENERGY PREDICTED BY IDOCK:   -0.38 KCAL/MOL
REMARK 927      BINDING AFFINITY PREDICTED BY RF-SCORE:    0.00 PKD
ROOT
HETATM    1  C   UNL     1      -8.086  20.442  67.167  1.00  0.00    -0.378 C  
HETATM    2  C   UNL     1      -9.312  19.935  67.927  1.00  0.00    -0.344 C  
HETATM    3  C   UNL     1     -10.520  19.900  66.985  1.00  0.00    -0.570 C  
ENDROOT
BRANCH   2   4
HETATM    4  N   UNL     1      -9.014  18.608  68.483  1.00  0.00    -0.331 NA 
HETATM    5  H   UNL     1      -9.753  18.297  69.115  1.00  0.00     0.000 HD 
BRANCH   4   6
HETATM    6  C   UNL     1      -8.759  17.609  67.430  1.00  0.00    -0.234 C  
BRANCH   6   7
HETATM    7  C   UNL     1      -9.214  16.183  67.820  1.00  0.00    -0.202 C  
HETATM    8  H   UNL     1     -10.121  15.342  69.347  1.00  0.00     0.000 HD 
HETATM    9  O   UNL     1      -9.842  16.218  69.107  1.00  0.00    -0.238 OA 
BRANCH   7  10
HETATM   10  C   UNL     1     -10.171  15.562  66.813  1.00  0.00    -0.282 A  
HETATM   11  C   UNL     1     -10.499  16.265  65.639  1.00  0.00    -0.386 A  
HETATM   12  C   UNL     1     -11.397  15.714  64.722  1.00  0.00    -0.343 A  
HETATM   13  C   UNL     1     -11.976  14.470  64.938  1.00  0.00    -0.425 A  
HETATM   14  O   UNL     1     -11.746  16.377  63.582  1.00  0.00    -1.520 OA 
HETATM   15  H   UNL     1     -12.357  16.003  62.959  1.00  0.00     0.000 HD 
HETATM   16  C   UNL     1     -11.636  13.764  66.082  1.00  0.00    -0.352 A  
HETATM   17  O   UNL     1     -12.168  12.539  66.353  1.00  0.00    -0.584 OA 
HETATM   18  C   UNL     1     -10.738  14.290  67.006  1.00  0.00    -0.290 A  
HETATM   19  H   UNL     1     -11.935  12.054  67.136  1.00  0.00     0.000 HD 
ENDBRANCH   7  10
ENDBRANCH   6   7
ENDBRANCH   4   6
ENDBRANCH   2   4
TORSDOF 4
ENDMDL
MODEL       28
REMARK 921   NORMALIZED FREE ENERGY PREDICTED BY IDOCK:   -5.31 KCAL/MOL
REMARK 922        TOTAL FREE ENERGY PREDICTED BY IDOCK:   -6.83 KCAL/MOL
REMARK 923 INTER-LIGAND FREE ENERGY PREDICTED BY IDOCK:   -6.61 KCAL/MOL
REMARK 924 INTRA-LIGAND FREE ENERGY PREDICTED BY IDOCK:   -0.22 KCAL/MOL
REMARK 927      BINDING AFFINITY PREDICTED BY RF-SCORE:    0.00 PKD
ROOT
HETATM    1  C   UNL     1     -13.076  10.649  71.426  1.00  0.00    -0.499 C  
HETATM    2  C   UNL     1     -11.819  10.734  70.560  1.00  0.00    -0.356 C  
HETATM    3  C   UNL     1     -10.922   9.524  70.840  1.00  0.00    -0.407 C  
ENDROOT
BRANCH   2   4
HETATM    4  N   UNL     1     -12.216  10.806  69.147  1.00  0.00    -0.716 NA 
HETATM    5  H   UNL     1     -13.213  10.618  69.033  1.00  0.00     0.000 HD 
BRANCH   4   6
HETATM    6  C   UNL     1     -11.842  12.091  68.531  1.00  0.00    -0.311 C  
BRANCH   6   7
HETATM    7  C   UNL     1     -10.653  11.971  67.548  1.00  0.00    -0.221 C  
HETATM    8  H   UNL     1      -9.382  10.573  67.009  1.00  0.00     0.000 HD 
HETATM    9  O   UNL     1     -10.113  10.646  67.613  1.00  0.00    -0.169 OA 
BRANCH   7  10
HETATM   10  C   UNL     1     -11.033  12.287  66.107  1.00  0.00    -0.328 A  
HETATM   11  C   UNL     1     -10.596  11.442  65.071  1.00  0.00    -0.359 A  
HETATM   12  C   UNL     1     -10.918  11.740  63.745  1.00  0.00    -0.429 A  
HETATM   13  C   UNL     1     -11.675  12.858  63.420  1.00  0.00    -0.526 A  
HETATM   14  O   UNL     1     -10.498  10.948  62.716  1.00  0.00    -0.772 OA 
HETATM   15  H   UNL     1     -10.716  11.151  61.814  1.00  0.00     0.000 HD 
HETATM   16  C   UNL     1     -12.127  13.679  64.442  1.00  0.00    -0.427 A  
HETATM   17  O   UNL     1     -12.875  14.791  64.190  1.00  0.00    -0.678 OA 
HETATM   18  C   UNL     1     -11.825  13.398  65.771  1.00  0.00    -0.412 A  
HETATM   19  H   UNL     1     -13.185  15.354  64.890  1.00  0.00     0.000 HD 
ENDBRANCH   7  10
ENDBRANCH   6   7
ENDBRANCH   4   6
ENDBRANCH   2   4
TORSDOF 4
ENDMDL
MODEL       29
REMARK 921   NORMALIZED FREE ENERGY PREDICTED BY IDOCK:   -5.29 KCAL/MOL
REMARK 922        TOTAL FREE ENERGY PREDICTED BY IDOCK:   -6.81 KCAL/MOL
REMARK 923 INTER-LIGAND FREE ENERGY PREDICTED BY IDOCK:   -6.56 KCAL/MOL
REMARK 924 INTRA-LIGAND FREE ENERGY PREDICTED BY IDOCK:   -0.25 KCAL/MOL
REMARK 927      BINDING AFFINITY PREDICTED BY RF-SCORE:    0.00 PKD
ROOT
HETATM    1  C   UNL     1     -10.204  11.128  63.653  1.00  0.00    -0.444 C  
HETATM    2  C   UNL     1     -10.845  12.512  63.538  1.00  0.00    -0.397 C  
HETATM    3  C   UNL     1     -12.334  12.417  63.888  1.00  0.00    -0.602 C  
ENDROOT
BRANCH   2   4
HETATM    4  N   UNL     1     -10.133  13.444  64.422  1.00  0.00    -0.655 NA 
HETATM    5  H   UNL     1      -9.363  13.902  63.934  1.00  0.00     0.000 HD 
BRANCH   4   6
HETATM    6  C   UNL     1     -11.039  14.432  65.033  1.00  0.00    -0.380 C  
BRANCH   6   7
HETATM    7  C   UNL     1     -10.561  15.892  64.851  1.00  0.00    -0.254 C  
HETATM    8  H   UNL     1     -11.161  17.476  63.857  1.00  0.00     0.000 HD 
HETATM    9  O   UNL     1     -11.455  16.580  63.969  1.00  0.00    -1.137 OA 
BRANCH   7  10
HETATM   10  C   UNL     1     -10.462  16.658  66.163  1.00  0.00    -0.291 A  
HETATM   11  C   UNL     1     -10.440  15.954  67.380  1.00  0.00    -0.306 A  
HETATM   12  C   UNL     1     -10.377  16.651  68.589  1.00  0.00    -0.304 A  
HETATM   13  C   UNL     1     -10.325  18.039  68.620  1.00  0.00    -0.328 A  
HETATM   14  O   UNL     1     -10.368  15.999  69.787  1.00  0.00    -0.266 OA 
HETATM   15  H   UNL     1     -10.326  16.472  70.609  1.00  0.00     0.000 HD 
HETATM   16  C   UNL     1     -10.322  18.735  67.420  1.00  0.00    -0.418 A  
HETATM   17  O   UNL     1     -10.271  20.096  67.381  1.00  0.00    -0.411 OA 
HETATM   18  C   UNL     1     -10.377  18.061  66.203  1.00  0.00    -0.368 A  
HETATM   19  H   UNL     1     -10.269  20.573  66.559  1.00  0.00     0.000 HD 
ENDBRANCH   7  10
ENDBRANCH   6   7
ENDBRANCH   4   6
ENDBRANCH   2   4
TORSDOF 4
ENDMDL
MODEL       30
REMARK 921   NORMALIZED FREE ENERGY PREDICTED BY IDOCK:   -5.24 KCAL/MOL
REMARK 922        TOTAL FREE ENERGY PREDICTED BY IDOCK:   -6.75 KCAL/MOL
REMARK 923 INTER-LIGAND FREE ENERGY PREDICTED BY IDOCK:   -6.46 KCAL/MOL
REMARK 924 INTRA-LIGAND FREE ENERGY PREDICTED BY IDOCK:   -0.28 KCAL/MOL
REMARK 927      BINDING AFFINITY PREDICTED BY RF-SCORE:    0.00 PKD
ROOT
HETATM    1  C   UNL     1     -12.570  12.113  63.754  1.00  0.00    -0.585 C  
HETATM    2  C   UNL     1     -11.831  12.939  64.808  1.00  0.00    -0.363 C  
HETATM    3  C   UNL     1     -11.945  14.428  64.464  1.00  0.00    -0.487 C  
ENDROOT
BRANCH   2   4
HETATM    4  N   UNL     1     -12.392  12.638  66.132  1.00  0.00    -0.535 NA 
HETATM    5  H   UNL     1     -13.085  11.890  66.078  1.00  0.00     0.000 HD 
BRANCH   4   6
HETATM    6  C   UNL     1     -11.345  12.325  67.120  1.00  0.00    -0.335 C  
BRANCH   6   7
HETATM    7  C   UNL     1     -11.391  13.242  68.366  1.00  0.00    -0.291 C  
HETATM    8  H   UNL     1     -12.170  14.986  68.825  1.00  0.00     0.000 HD 
HETATM    9  O   UNL     1     -12.142  14.423  68.061  1.00  0.00    -0.320 OA 
BRANCH   7  10
HETATM   10  C   UNL     1     -11.997  12.564  69.587  1.00  0.00    -0.339 A  
HETATM   11  C   UNL     1     -12.022  11.160  69.663  1.00  0.00    -0.429 A  
HETATM   12  C   UNL     1     -12.600  10.530  70.768  1.00  0.00    -0.382 A  
HETATM   13  C   UNL     1     -13.149  11.265  71.811  1.00  0.00    -0.527 A  
HETATM   14  O   UNL     1     -12.654   9.170  70.864  1.00  0.00    -0.480 OA 
HETATM   15  H   UNL     1     -13.047   8.742  71.615  1.00  0.00     0.000 HD 
HETATM   16  C   UNL     1     -13.103  12.650  71.750  1.00  0.00    -0.360 A  
HETATM   17  O   UNL     1     -13.623  13.428  72.741  1.00  0.00    -0.656 OA 
HETATM   18  C   UNL     1     -12.526  13.298  70.663  1.00  0.00    -0.373 A  
HETATM   19  H   UNL     1     -13.591  14.377  72.700  1.00  0.00     0.000 HD 
ENDBRANCH   7  10
ENDBRANCH   6   7
ENDBRANCH   4   6
ENDBRANCH   2   4
TORSDOF 4
ENDMDL
MODEL       31
REMARK 921   NORMALIZED FREE ENERGY PREDICTED BY IDOCK:   -5.22 KCAL/MOL
REMARK 922        TOTAL FREE ENERGY PREDICTED BY IDOCK:   -6.72 KCAL/MOL
REMARK 923 INTER-LIGAND FREE ENERGY PREDICTED BY IDOCK:   -6.24 KCAL/MOL
REMARK 924 INTRA-LIGAND FREE ENERGY PREDICTED BY IDOCK:   -0.48 KCAL/MOL
REMARK 927      BINDING AFFINITY PREDICTED BY RF-SCORE:    0.00 PKD
ROOT
HETATM    1  C   UNL     1      -9.961  10.850  64.389  1.00  0.00    -0.381 C  
HETATM    2  C   UNL     1     -10.563  11.924  63.483  1.00  0.00    -0.453 C  
HETATM    3  C   UNL     1     -12.091  11.870  63.570  1.00  0.00    -0.575 C  
ENDROOT
BRANCH   2   4
HETATM    4  N   UNL     1     -10.038  13.237  63.883  1.00  0.00    -0.731 NA 
HETATM    5  H   UNL     1      -9.684  13.755  63.079  1.00  0.00     0.000 HD 
BRANCH   4   6
HETATM    6  C   UNL     1     -11.031  14.027  64.632  1.00  0.00    -0.392 C  
BRANCH   6   7
HETATM    7  C   UNL     1     -10.446  14.701  65.895  1.00  0.00    -0.314 C  
HETATM    8  H   UNL     1     -10.466  16.496  66.694  1.00  0.00     0.000 HD 
HETATM    9  O   UNL     1     -10.826  16.081  65.918  1.00  0.00    -0.294 OA 
BRANCH   7  10
HETATM   10  C   UNL     1     -10.893  14.036  67.190  1.00  0.00    -0.288 A  
HETATM   11  C   UNL     1     -11.359  12.710  67.167  1.00  0.00    -0.373 A  
HETATM   12  C   UNL     1     -11.795  12.102  68.347  1.00  0.00    -0.303 A  
HETATM   13  C   UNL     1     -11.773  12.780  69.559  1.00  0.00    -0.383 A  
HETATM   14  O   UNL     1     -12.266  10.821  68.355  1.00  0.00    -0.832 OA 
HETATM   15  H   UNL     1     -12.563  10.408  69.157  1.00  0.00     0.000 HD 
HETATM   16  C   UNL     1     -11.291  14.080  69.588  1.00  0.00    -0.214 A  
HETATM   17  O   UNL     1     -11.242  14.800  70.745  1.00  0.00    -0.461 OA 
HETATM   18  C   UNL     1     -10.844  14.703  68.427  1.00  0.00    -0.250 A  
HETATM   19  H   UNL     1     -10.912  15.691  70.766  1.00  0.00     0.000 HD 
ENDBRANCH   7  10
ENDBRANCH   6   7
ENDBRANCH   4   6
ENDBRANCH   2   4
TORSDOF 4
ENDMDL
MODEL       32
REMARK 921   NORMALIZED FREE ENERGY PREDICTED BY IDOCK:   -5.21 KCAL/MOL
REMARK 922        TOTAL FREE ENERGY PREDICTED BY IDOCK:   -6.71 KCAL/MOL
REMARK 923 INTER-LIGAND FREE ENERGY PREDICTED BY IDOCK:   -6.54 KCAL/MOL
REMARK 924 INTRA-LIGAND FREE ENERGY PREDICTED BY IDOCK:   -0.17 KCAL/MOL
REMARK 927      BINDING AFFINITY PREDICTED BY RF-SCORE:    0.00 PKD
ROOT
HETATM    1  C   UNL     1     -11.894  10.313  71.140  1.00  0.00    -0.455 C  
HETATM    2  C   UNL     1     -11.091  10.434  69.844  1.00  0.00    -0.305 C  
HETATM    3  C   UNL     1     -10.318   9.135  69.597  1.00  0.00    -0.226 C  
ENDROOT
BRANCH   2   4
HETATM    4  N   UNL     1     -12.011  10.742  68.739  1.00  0.00    -0.718 NA 
HETATM    5  H   UNL     1     -12.895  11.115  69.087  1.00  0.00     0.000 HD 
BRANCH   4   6
HETATM    6  C   UNL     1     -11.404  11.648  67.748  1.00  0.00    -0.288 C  
BRANCH   6   7
HETATM    7  C   UNL     1     -11.769  13.134  67.978  1.00  0.00    -0.355 C  
HETATM    8  H   UNL     1     -11.180  14.580  69.171  1.00  0.00     0.000 HD 
HETATM    9  O   UNL     1     -10.956  13.667  69.029  1.00  0.00    -0.252 OA 
BRANCH   7  10
HETATM   10  C   UNL     1     -11.601  13.992  66.731  1.00  0.00    -0.406 A  
HETATM   11  C   UNL     1     -10.837  15.170  66.795  1.00  0.00    -0.322 A  
HETATM   12  C   UNL     1     -10.700  15.976  65.662  1.00  0.00    -0.329 A  
HETATM   13  C   UNL     1     -11.299  15.634  64.457  1.00  0.00    -0.327 A  
HETATM   14  O   UNL     1      -9.977  17.133  65.695  1.00  0.00    -0.558 OA 
HETATM   15  H   UNL     1      -9.885  17.681  64.925  1.00  0.00     0.000 HD 
HETATM   16  C   UNL     1     -12.034  14.460  64.385  1.00  0.00    -0.452 A  
HETATM   17  O   UNL     1     -12.646  14.067  63.232  1.00  0.00    -1.073 OA 
HETATM   18  C   UNL     1     -12.177  13.638  65.499  1.00  0.00    -0.476 A  
HETATM   19  H   UNL     1     -13.149  13.262  63.182  1.00  0.00     0.000 HD 
ENDBRANCH   7  10
ENDBRANCH   6   7
ENDBRANCH   4   6
ENDBRANCH   2   4
TORSDOF 4
ENDMDL
MODEL       33
REMARK 921   NORMALIZED FREE ENERGY PREDICTED BY IDOCK:   -5.20 KCAL/MOL
REMARK 922        TOTAL FREE ENERGY PREDICTED BY IDOCK:   -6.70 KCAL/MOL
REMARK 923 INTER-LIGAND FREE ENERGY PREDICTED BY IDOCK:   -6.50 KCAL/MOL
REMARK 924 INTRA-LIGAND FREE ENERGY PREDICTED BY IDOCK:   -0.20 KCAL/MOL
REMARK 927      BINDING AFFINITY PREDICTED BY RF-SCORE:    0.00 PKD
ROOT
HETATM    1  C   UNL     1     -10.178  19.631  68.645  1.00  0.00    -0.498 C  
HETATM    2  C   UNL     1     -10.612  18.420  67.817  1.00  0.00    -0.391 C  
HETATM    3  C   UNL     1     -10.333  18.687  66.334  1.00  0.00    -0.472 C  
ENDROOT
BRANCH   2   4
HETATM    4  N   UNL     1      -9.900  17.230  68.303  1.00  0.00    -0.289 NA 
HETATM    5  H   UNL     1      -8.905  17.417  68.423  1.00  0.00     0.000 HD 
BRANCH   4   6
HETATM    6  C   UNL     1     -10.495  16.694  69.540  1.00  0.00    -0.281 C  
BRANCH   6   7
HETATM    7  C   UNL     1     -11.445  15.499  69.290  1.00  0.00    -0.340 C  
HETATM    8  H   UNL     1     -11.290  13.679  68.564  1.00  0.00     0.000 HD 
HETATM    9  O   UNL     1     -10.706  14.414  68.718  1.00  0.00    -0.239 OA 
BRANCH   7  10
HETATM   10  C   UNL     1     -12.146  15.016  70.553  1.00  0.00    -0.379 A  
HETATM   11  C   UNL     1     -12.459  15.936  71.569  1.00  0.00    -0.483 A  
HETATM   12  C   UNL     1     -13.078  15.497  72.742  1.00  0.00    -0.480 A  
HETATM   13  C   UNL     1     -13.405  14.161  72.928  1.00  0.00    -0.532 A  
HETATM   14  O   UNL     1     -13.382  16.362  73.753  1.00  0.00    -0.861 OA 
HETATM   15  H   UNL     1     -13.802  16.064  74.551  1.00  0.00     0.000 HD 
HETATM   16  C   UNL     1     -13.120  13.255  71.917  1.00  0.00    -0.388 A  
HETATM   17  O   UNL     1     -13.416  11.930  72.037  1.00  0.00    -0.431 OA 
HETATM   18  C   UNL     1     -12.510  13.671  70.737  1.00  0.00    -0.432 A  
HETATM   19  H   UNL     1     -13.221  11.310  71.344  1.00  0.00     0.000 HD 
ENDBRANCH   7  10
ENDBRANCH   6   7
ENDBRANCH   4   6
ENDBRANCH   2   4
TORSDOF 4
ENDMDL
MODEL       34
REMARK 921   NORMALIZED FREE ENERGY PREDICTED BY IDOCK:   -5.20 KCAL/MOL
REMARK 922        TOTAL FREE ENERGY PREDICTED BY IDOCK:   -6.69 KCAL/MOL
REMARK 923 INTER-LIGAND FREE ENERGY PREDICTED BY IDOCK:   -6.07 KCAL/MOL
REMARK 924 INTRA-LIGAND FREE ENERGY PREDICTED BY IDOCK:   -0.62 KCAL/MOL
REMARK 927      BINDING AFFINITY PREDICTED BY RF-SCORE:    0.00 PKD
ROOT
HETATM    1  C   UNL     1     -10.141   9.195  66.715  1.00  0.00    -0.341 C  
HETATM    2  C   UNL     1      -9.178  10.272  67.213  1.00  0.00    -0.141 C  
HETATM    3  C   UNL     1      -8.622  11.055  66.019  1.00  0.00    -0.173 C  
ENDROOT
BRANCH   2   4
HETATM    4  N   UNL     1      -9.886  11.146  68.159  1.00  0.00    -0.174 NA 
HETATM    5  H   UNL     1      -9.423  12.051  68.244  1.00  0.00     0.000 HD 
BRANCH   4   6
HETATM    6  C   UNL     1     -11.309  11.306  67.807  1.00  0.00    -0.285 C  
BRANCH   6   7
HETATM    7  C   UNL     1     -11.713  12.780  67.564  1.00  0.00    -0.364 C  
HETATM    8  H   UNL     1     -10.960  14.550  67.960  1.00  0.00     0.000 HD 
HETATM    9  O   UNL     1     -10.711  13.645  68.109  1.00  0.00    -0.236 OA 
BRANCH   7  10
HETATM   10  C   UNL     1     -11.914  13.110  66.091  1.00  0.00    -0.478 A  
HETATM   11  C   UNL     1     -12.020  12.069  65.152  1.00  0.00    -0.230 A  
HETATM   12  C   UNL     1     -12.177  12.364  63.796  1.00  0.00    -0.533 A  
HETATM   13  C   UNL     1     -12.242  13.677  63.347  1.00  0.00    -0.236 A  
HETATM   14  O   UNL     1     -12.269  11.377  62.859  1.00  0.00    -0.940 OA 
HETATM   15  H   UNL     1     -12.375  11.578  61.937  1.00  0.00     0.000 HD 
HETATM   16  C   UNL     1     -12.162  14.706  64.273  1.00  0.00    -0.408 A  
HETATM   17  O   UNL     1     -12.220  16.015  63.898  1.00  0.00    -1.176 OA 
HETATM   18  C   UNL     1     -12.012  14.435  65.630  1.00  0.00    -0.356 A  
HETATM   19  H   UNL     1     -12.165  16.720  64.533  1.00  0.00     0.000 HD 
ENDBRANCH   7  10
ENDBRANCH   6   7
ENDBRANCH   4   6
ENDBRANCH   2   4
TORSDOF 4
ENDMDL
MODEL       35
REMARK 921   NORMALIZED FREE ENERGY PREDICTED BY IDOCK:   -5.19 KCAL/MOL
REMARK 922        TOTAL FREE ENERGY PREDICTED BY IDOCK:   -6.68 KCAL/MOL
REMARK 923 INTER-LIGAND FREE ENERGY PREDICTED BY IDOCK:   -6.47 KCAL/MOL
REMARK 924 INTRA-LIGAND FREE ENERGY PREDICTED BY IDOCK:   -0.21 KCAL/MOL
REMARK 927      BINDING AFFINITY PREDICTED BY RF-SCORE:    0.00 PKD
ROOT
HETATM    1  C   UNL     1     -13.156  10.822  71.627  1.00  0.00    -0.551 C  
HETATM    2  C   UNL     1     -11.944  10.727  70.700  1.00  0.00    -0.367 C  
HETATM    3  C   UNL     1     -11.159   9.449  71.012  1.00  0.00    -0.414 C  
ENDROOT
BRANCH   2   4
HETATM    4  N   UNL     1     -12.406  10.759  69.305  1.00  0.00    -0.691 NA 
HETATM    5  H   UNL     1     -13.424  10.710  69.251  1.00  0.00     0.000 HD 
BRANCH   4   6
HETATM    6  C   UNL     1     -11.888  11.930  68.576  1.00  0.00    -0.297 C  
BRANCH   6   7
HETATM    7  C   UNL     1     -10.751  11.577  67.587  1.00  0.00    -0.211 C  
HETATM    8  H   UNL     1      -9.743   9.966  67.088  1.00  0.00     0.000 HD 
HETATM    9  O   UNL     1     -10.442  10.183  67.695  1.00  0.00    -0.209 OA 
BRANCH   7  10
HETATM   10  C   UNL     1     -11.093  11.904  66.140  1.00  0.00    -0.374 A  
HETATM   11  C   UNL     1     -11.882  13.031  65.849  1.00  0.00    -0.468 A  
HETATM   12  C   UNL     1     -12.222  13.323  64.526  1.00  0.00    -0.400 A  
HETATM   13  C   UNL     1     -11.787  12.524  63.476  1.00  0.00    -0.616 A  
HETATM   14  O   UNL     1     -12.998  14.401  64.211  1.00  0.00    -0.438 OA 
HETATM   15  H   UNL     1     -13.229  14.599  63.312  1.00  0.00     0.000 HD 
HETATM   16  C   UNL     1     -10.989  11.426  63.758  1.00  0.00    -0.370 A  
HETATM   17  O   UNL     1     -10.528  10.603  62.774  1.00  0.00    -0.724 OA 
HETATM   18  C   UNL     1     -10.632  11.120  65.068  1.00  0.00    -0.340 A  
HETATM   19  H   UNL     1      -9.981   9.850  62.967  1.00  0.00     0.000 HD 
ENDBRANCH   7  10
ENDBRANCH   6   7
ENDBRANCH   4   6
ENDBRANCH   2   4
TORSDOF 4
ENDMDL
MODEL       36
REMARK 921   NORMALIZED FREE ENERGY PREDICTED BY IDOCK:   -5.19 KCAL/MOL
REMARK 922        TOTAL FREE ENERGY PREDICTED BY IDOCK:   -6.68 KCAL/MOL
REMARK 923 INTER-LIGAND FREE ENERGY PREDICTED BY IDOCK:   -6.22 KCAL/MOL
REMARK 924 INTRA-LIGAND FREE ENERGY PREDICTED BY IDOCK:   -0.46 KCAL/MOL
REMARK 927      BINDING AFFINITY PREDICTED BY RF-SCORE:    0.00 PKD
ROOT
HETATM    1  C   UNL     1     -12.096  13.800  69.254  1.00  0.00    -0.374 C  
HETATM    2  C   UNL     1     -11.176  14.983  69.557  1.00  0.00    -0.276 C  
HETATM    3  C   UNL     1     -11.500  15.542  70.946  1.00  0.00    -0.410 C  
ENDROOT
BRANCH   2   4
HETATM    4  N   UNL     1      -9.779  14.539  69.458  1.00  0.00    -0.414 NA 
HETATM    5  H   UNL     1      -9.720  13.527  69.343  1.00  0.00     0.000 HD 
BRANCH   4   6
HETATM    6  C   UNL     1      -9.048  15.241  68.387  1.00  0.00    -0.189 C  
BRANCH   6   7
HETATM    7  C   UNL     1      -8.808  14.361  67.137  1.00  0.00    -0.229 C  
HETATM    8  H   UNL     1      -8.420  12.469  66.777  1.00  0.00     0.000 HD 
HETATM    9  O   UNL     1      -8.568  13.010  67.545  1.00  0.00    -0.169 OA 
BRANCH   7  10
HETATM   10  C   UNL     1      -9.970  14.389  66.153  1.00  0.00    -0.328 A  
HETATM   11  C   UNL     1     -10.797  13.259  66.021  1.00  0.00    -0.284 A  
HETATM   12  C   UNL     1     -11.848  13.267  65.102  1.00  0.00    -0.348 A  
HETATM   13  C   UNL     1     -12.107  14.380  64.311  1.00  0.00    -0.461 A  
HETATM   14  O   UNL     1     -12.660  12.182  64.939  1.00  0.00    -0.500 OA 
HETATM   15  H   UNL     1     -13.375  12.188  64.314  1.00  0.00     0.000 HD 
HETATM   16  C   UNL     1     -11.307  15.504  64.456  1.00  0.00    -0.314 A  
HETATM   17  O   UNL     1     -11.509  16.627  63.712  1.00  0.00    -1.518 OA 
HETATM   18  C   UNL     1     -10.259  15.521  65.371  1.00  0.00    -0.409 A  
HETATM   19  H   UNL     1     -10.961  17.398  63.811  1.00  0.00     0.000 HD 
ENDBRANCH   7  10
ENDBRANCH   6   7
ENDBRANCH   4   6
ENDBRANCH   2   4
TORSDOF 4
ENDMDL
MODEL       37
REMARK 921   NORMALIZED FREE ENERGY PREDICTED BY IDOCK:   -5.19 KCAL/MOL
REMARK 922        TOTAL FREE ENERGY PREDICTED BY IDOCK:   -6.68 KCAL/MOL
REMARK 923 INTER-LIGAND FREE ENERGY PREDICTED BY IDOCK:   -6.32 KCAL/MOL
REMARK 924 INTRA-LIGAND FREE ENERGY PREDICTED BY IDOCK:   -0.37 KCAL/MOL
REMARK 927      BINDING AFFINITY PREDICTED BY RF-SCORE:    0.00 PKD
ROOT
HETATM    1  C   UNL     1      -8.788  16.285  66.222  1.00  0.00    -0.367 C  
HETATM    2  C   UNL     1     -10.272  16.563  65.978  1.00  0.00    -0.356 C  
HETATM    3  C   UNL     1     -10.506  18.076  65.915  1.00  0.00    -0.268 C  
ENDROOT
BRANCH   2   4
HETATM    4  N   UNL     1     -10.685  15.894  64.736  1.00  0.00    -0.742 NA 
HETATM    5  H   UNL     1     -10.020  16.069  63.982  1.00  0.00     0.000 HD 
BRANCH   4   6
HETATM    6  C   UNL     1     -10.902  14.449  64.931  1.00  0.00    -0.416 C  
BRANCH   6   7
HETATM    7  C   UNL     1     -12.163  14.131  65.770  1.00  0.00    -0.442 C  
HETATM    8  H   UNL     1     -13.915  13.302  65.454  1.00  0.00     0.000 HD 
HETATM    9  O   UNL     1     -13.141  13.497  64.939  1.00  0.00    -0.718 OA 
BRANCH   7  10
HETATM   10  C   UNL     1     -11.873  13.241  66.971  1.00  0.00    -0.442 A  
HETATM   11  C   UNL     1     -11.955  13.776  68.269  1.00  0.00    -0.392 A  
HETATM   12  C   UNL     1     -11.665  12.973  69.375  1.00  0.00    -0.326 A  
HETATM   13  C   UNL     1     -11.303  11.640  69.224  1.00  0.00    -0.353 A  
HETATM   14  O   UNL     1     -11.721  13.465  70.646  1.00  0.00    -0.521 OA 
HETATM   15  H   UNL     1     -11.523  12.919  71.398  1.00  0.00     0.000 HD 
HETATM   16  C   UNL     1     -11.245  11.104  67.946  1.00  0.00    -0.302 A  
HETATM   17  O   UNL     1     -10.898   9.804  67.729  1.00  0.00    -0.313 OA 
HETATM   18  C   UNL     1     -11.537  11.883  66.830  1.00  0.00    -0.358 A  
HETATM   19  H   UNL     1     -10.858   9.436  66.854  1.00  0.00     0.000 HD 
ENDBRANCH   7  10
ENDBRANCH   6   7
ENDBRANCH   4   6
ENDBRANCH   2   4
TORSDOF 4
ENDMDL
MODEL       38
REMARK 921   NORMALIZED FREE ENERGY PREDICTED BY IDOCK:   -5.19 KCAL/MOL
REMARK 922        TOTAL FREE ENERGY PREDICTED BY IDOCK:   -6.68 KCAL/MOL
REMARK 923 INTER-LIGAND FREE ENERGY PREDICTED BY IDOCK:   -6.44 KCAL/MOL
REMARK 924 INTRA-LIGAND FREE ENERGY PREDICTED BY IDOCK:   -0.24 KCAL/MOL
REMARK 927      BINDING AFFINITY PREDICTED BY RF-SCORE:    0.00 PKD
ROOT
HETATM    1  C   UNL     1     -11.531  10.056  70.771  1.00  0.00    -0.438 C  
HETATM    2  C   UNL     1     -12.499  11.038  70.110  1.00  0.00    -0.269 C  
HETATM    3  C   UNL     1     -12.417  12.394  70.819  1.00  0.00    -0.356 C  
ENDROOT
BRANCH   2   4
HETATM    4  N   UNL     1     -12.168  11.146  68.682  1.00  0.00    -0.705 NA 
HETATM    5  H   UNL     1     -12.980  10.943  68.098  1.00  0.00     0.000 HD 
BRANCH   4   6
HETATM    6  C   UNL     1     -11.583  12.455  68.346  1.00  0.00    -0.324 C  
BRANCH   6   7
HETATM    7  C   UNL     1     -11.386  12.661  66.825  1.00  0.00    -0.320 C  
HETATM    8  H   UNL     1     -12.484  12.479  65.206  1.00  0.00     0.000 HD 
HETATM    9  O   UNL     1     -12.605  12.353  66.140  1.00  0.00    -0.358 OA 
BRANCH   7  10
HETATM   10  C   UNL     1     -10.951  14.075  66.463  1.00  0.00    -0.306 A  
HETATM   11  C   UNL     1     -10.109  14.789  67.335  1.00  0.00    -0.231 A  
HETATM   12  C   UNL     1      -9.727  16.095  67.022  1.00  0.00    -0.230 A  
HETATM   13  C   UNL     1     -10.156  16.713  65.854  1.00  0.00    -0.341 A  
HETATM   14  O   UNL     1      -8.923  16.820  67.854  1.00  0.00    -0.213 OA 
HETATM   15  H   UNL     1      -8.664  17.708  67.642  1.00  0.00     0.000 HD 
HETATM   16  C   UNL     1     -10.966  16.002  64.982  1.00  0.00    -0.380 A  
HETATM   17  O   UNL     1     -11.420  16.550  63.819  1.00  0.00    -1.615 OA 
HETATM   18  C   UNL     1     -11.353  14.697  65.268  1.00  0.00    -0.354 A  
HETATM   19  H   UNL     1     -11.975  16.063  63.220  1.00  0.00     0.000 HD 
ENDBRANCH   7  10
ENDBRANCH   6   7
ENDBRANCH   4   6
ENDBRANCH   2   4
TORSDOF 4
ENDMDL
MODEL       39
REMARK 921   NORMALIZED FREE ENERGY PREDICTED BY IDOCK:   -5.16 KCAL/MOL
REMARK 922        TOTAL FREE ENERGY PREDICTED BY IDOCK:   -6.65 KCAL/MOL
REMARK 923 INTER-LIGAND FREE ENERGY PREDICTED BY IDOCK:   -6.21 KCAL/MOL
REMARK 924 INTRA-LIGAND FREE ENERGY PREDICTED BY IDOCK:   -0.44 KCAL/MOL
REMARK 927      BINDING AFFINITY PREDICTED BY RF-SCORE:    0.00 PKD
ROOT
HETATM    1  C   UNL     1      -9.814  10.125  64.622  1.00  0.00    -0.361 C  
HETATM    2  C   UNL     1      -9.797  11.154  63.491  1.00  0.00    -0.353 C  
HETATM    3  C   UNL     1      -8.749  10.751  62.448  1.00  0.00    -0.331 C  
ENDROOT
BRANCH   2   4
HETATM    4  N   UNL     1     -11.143  11.245  62.907  1.00  0.00    -0.766 NA 
HETATM    5  H   UNL     1     -11.488  10.326  62.628  1.00  0.00     0.000 HD 
BRANCH   4   6
HETATM    6  C   UNL     1     -12.094  11.920  63.808  1.00  0.00    -0.443 C  
BRANCH   6   7
HETATM    7  C   UNL     1     -11.682  13.372  64.149  1.00  0.00    -0.419 C  
HETATM    8  H   UNL     1     -12.327  15.177  63.718  1.00  0.00     0.000 HD 
HETATM    9  O   UNL     1     -12.580  14.285  63.509  1.00  0.00    -0.814 OA 
BRANCH   7  10
HETATM   10  C   UNL     1     -11.664  13.653  65.645  1.00  0.00    -0.360 A  
HETATM   11  C   UNL     1     -11.414  14.959  66.105  1.00  0.00    -0.272 A  
HETATM   12  C   UNL     1     -11.370  15.220  67.477  1.00  0.00    -0.297 A  
HETATM   13  C   UNL     1     -11.577  14.212  68.410  1.00  0.00    -0.353 A  
HETATM   14  O   UNL     1     -11.116  16.472  67.955  1.00  0.00    -0.345 OA 
HETATM   15  H   UNL     1     -11.085  16.649  68.888  1.00  0.00     0.000 HD 
HETATM   16  C   UNL     1     -11.848  12.928  67.959  1.00  0.00    -0.343 A  
HETATM   17  O   UNL     1     -12.061  11.896  68.822  1.00  0.00    -0.303 OA 
HETATM   18  C   UNL     1     -11.904  12.647  66.597  1.00  0.00    -0.449 A  
HETATM   19  H   UNL     1     -12.247  11.016  68.514  1.00  0.00     0.000 HD 
ENDBRANCH   7  10
ENDBRANCH   6   7
ENDBRANCH   4   6
ENDBRANCH   2   4
TORSDOF 4
ENDMDL
MODEL       40
REMARK 921   NORMALIZED FREE ENERGY PREDICTED BY IDOCK:   -5.15 KCAL/MOL
REMARK 922        TOTAL FREE ENERGY PREDICTED BY IDOCK:   -6.64 KCAL/MOL
REMARK 923 INTER-LIGAND FREE ENERGY PREDICTED BY IDOCK:   -6.20 KCAL/MOL
REMARK 924 INTRA-LIGAND FREE ENERGY PREDICTED BY IDOCK:   -0.44 KCAL/MOL
REMARK 927      BINDING AFFINITY PREDICTED BY RF-SCORE:    0.00 PKD
ROOT
HETATM    1  C   UNL     1     -10.782  17.003  69.329  1.00  0.00    -0.226 C  
HETATM    2  C   UNL     1      -9.785  17.823  68.509  1.00  0.00    -0.343 C  
HETATM    3  C   UNL     1      -9.780  19.272  69.007  1.00  0.00    -0.453 C  
ENDROOT
BRANCH   2   4
HETATM    4  N   UNL     1      -8.456  17.204  68.614  1.00  0.00    -0.261 NA 
HETATM    5  H   UNL     1      -7.955  17.541  69.436  1.00  0.00     0.000 HD 
BRANCH   4   6
HETATM    6  C   UNL     1      -8.527  15.732  68.599  1.00  0.00    -0.193 C  
BRANCH   6   7
HETATM    7  C   UNL     1      -8.261  15.124  67.201  1.00  0.00    -0.221 C  
HETATM    8  H   UNL     1      -7.388  13.514  66.488  1.00  0.00     0.000 HD 
HETATM    9  O   UNL     1      -7.552  13.888  67.346  1.00  0.00    -0.176 OA 
BRANCH   7  10
HETATM   10  C   UNL     1      -9.533  14.881  66.401  1.00  0.00    -0.327 A  
HETATM   11  C   UNL     1     -10.246  13.681  66.575  1.00  0.00    -0.284 A  
HETATM   12  C   UNL     1     -11.399  13.439  65.825  1.00  0.00    -0.305 A  
HETATM   13  C   UNL     1     -11.872  14.369  64.908  1.00  0.00    -0.419 A  
HETATM   14  O   UNL     1     -12.105  12.279  65.960  1.00  0.00    -0.623 OA 
HETATM   15  H   UNL     1     -12.889  12.114  65.450  1.00  0.00     0.000 HD 
HETATM   16  C   UNL     1     -11.184  15.563  64.752  1.00  0.00    -0.390 A  
HETATM   17  O   UNL     1     -11.596  16.517  63.870  1.00  0.00    -1.598 OA 
HETATM   18  C   UNL     1     -10.037  15.829  65.494  1.00  0.00    -0.383 A  
HETATM   19  H   UNL     1     -11.125  17.336  63.763  1.00  0.00     0.000 HD 
ENDBRANCH   7  10
ENDBRANCH   6   7
ENDBRANCH   4   6
ENDBRANCH   2   4
TORSDOF 4
ENDMDL
MODEL       41
REMARK 921   NORMALIZED FREE ENERGY PREDICTED BY IDOCK:   -5.15 KCAL/MOL
REMARK 922        TOTAL FREE ENERGY PREDICTED BY IDOCK:   -6.64 KCAL/MOL
REMARK 923 INTER-LIGAND FREE ENERGY PREDICTED BY IDOCK:   -6.41 KCAL/MOL
REMARK 924 INTRA-LIGAND FREE ENERGY PREDICTED BY IDOCK:   -0.22 KCAL/MOL
REMARK 927      BINDING AFFINITY PREDICTED BY RF-SCORE:    0.00 PKD
ROOT
HETATM    1  C   UNL     1     -12.659  14.203  64.990  1.00  0.00    -0.399 C  
HETATM    2  C   UNL     1     -12.387  12.715  64.768  1.00  0.00    -0.489 C  
HETATM    3  C   UNL     1     -11.297  12.547  63.705  1.00  0.00    -0.555 C  
ENDROOT
BRANCH   2   4
HETATM    4  N   UNL     1     -12.002  12.103  66.048  1.00  0.00    -0.585 NA 
HETATM    5  H   UNL     1     -11.219  11.460  65.929  1.00  0.00     0.000 HD 
BRANCH   4   6
HETATM    6  C   UNL     1     -11.711  13.114  67.080  1.00  0.00    -0.377 C  
BRANCH   6   7
HETATM    7  C   UNL     1     -11.071  12.514  68.355  1.00  0.00    -0.258 C  
HETATM    8  H   UNL     1      -9.364  12.689  69.313  1.00  0.00     0.000 HD 
HETATM    9  O   UNL     1      -9.758  13.058  68.530  1.00  0.00    -0.208 OA 
BRANCH   7  10
HETATM   10  C   UNL     1     -11.890  12.768  69.613  1.00  0.00    -0.384 A  
HETATM   11  C   UNL     1     -12.288  14.079  69.931  1.00  0.00    -0.367 A  
HETATM   12  C   UNL     1     -13.017  14.324  71.097  1.00  0.00    -0.353 A  
HETATM   13  C   UNL     1     -13.372  13.292  71.956  1.00  0.00    -0.582 A  
HETATM   14  O   UNL     1     -13.406  15.586  71.442  1.00  0.00    -0.484 OA 
HETATM   15  H   UNL     1     -13.901  15.753  72.234  1.00  0.00     0.000 HD 
HETATM   16  C   UNL     1     -13.002  11.995  71.632  1.00  0.00    -0.334 A  
HETATM   17  O   UNL     1     -13.319  10.938  72.432  1.00  0.00    -0.600 OA 
HETATM   18  C   UNL     1     -12.281  11.727  70.472  1.00  0.00    -0.438 A  
HETATM   19  H   UNL     1     -13.066  10.050  72.210  1.00  0.00     0.000 HD 
ENDBRANCH   7  10
ENDBRANCH   6   7
ENDBRANCH   4   6
ENDBRANCH   2   4
TORSDOF 4
ENDMDL
MODEL       42
REMARK 921   NORMALIZED FREE ENERGY PREDICTED BY IDOCK:   -5.11 KCAL/MOL
REMARK 922        TOTAL FREE ENERGY PREDICTED BY IDOCK:   -6.58 KCAL/MOL
REMARK 923 INTER-LIGAND FREE ENERGY PREDICTED BY IDOCK:   -6.28 KCAL/MOL
REMARK 924 INTRA-LIGAND FREE ENERGY PREDICTED BY IDOCK:   -0.30 KCAL/MOL
REMARK 927      BINDING AFFINITY PREDICTED BY RF-SCORE:    0.00 PKD
ROOT
HETATM    1  C   UNL     1     -11.039   9.740  71.046  1.00  0.00    -0.431 C  
HETATM    2  C   UNL     1     -12.382  10.218  70.492  1.00  0.00    -0.284 C  
HETATM    3  C   UNL     1     -12.904  11.379  71.345  1.00  0.00    -0.502 C  
ENDROOT
BRANCH   2   4
HETATM    4  N   UNL     1     -12.207  10.608  69.086  1.00  0.00    -0.731 NA 
HETATM    5  H   UNL     1     -13.034  10.379  68.533  1.00  0.00     0.000 HD 
BRANCH   4   6
HETATM    6  C   UNL     1     -11.848  12.030  68.945  1.00  0.00    -0.299 C  
BRANCH   6   7
HETATM    7  C   UNL     1     -10.683  12.268  67.954  1.00  0.00    -0.215 C  
HETATM    8  H   UNL     1      -9.294  11.175  67.096  1.00  0.00     0.000 HD 
HETATM    9  O   UNL     1     -10.009  11.029  67.705  1.00  0.00    -0.170 OA 
BRANCH   7  10
HETATM   10  C   UNL     1     -11.137  12.867  66.630  1.00  0.00    -0.316 A  
HETATM   11  C   UNL     1     -12.027  12.151  65.810  1.00  0.00    -0.267 A  
HETATM   12  C   UNL     1     -12.427  12.682  64.582  1.00  0.00    -0.466 A  
HETATM   13  C   UNL     1     -11.970  13.919  64.148  1.00  0.00    -0.464 A  
HETATM   14  O   UNL     1     -13.279  12.005  63.757  1.00  0.00    -0.723 OA 
HETATM   15  H   UNL     1     -13.550  12.366  62.922  1.00  0.00     0.000 HD 
HETATM   16  C   UNL     1     -11.110  14.638  64.965  1.00  0.00    -0.394 A  
HETATM   17  O   UNL     1     -10.626  15.858  64.598  1.00  0.00    -0.718 OA 
HETATM   18  C   UNL     1     -10.704  14.132  66.196  1.00  0.00    -0.297 A  
HETATM   19  H   UNL     1     -10.037  16.352  65.157  1.00  0.00     0.000 HD 
ENDBRANCH   7  10
ENDBRANCH   6   7
ENDBRANCH   4   6
ENDBRANCH   2   4
TORSDOF 4
ENDMDL
MODEL       43
REMARK 921   NORMALIZED FREE ENERGY PREDICTED BY IDOCK:   -5.11 KCAL/MOL
REMARK 922        TOTAL FREE ENERGY PREDICTED BY IDOCK:   -6.58 KCAL/MOL
REMARK 923 INTER-LIGAND FREE ENERGY PREDICTED BY IDOCK:   -6.32 KCAL/MOL
REMARK 924 INTRA-LIGAND FREE ENERGY PREDICTED BY IDOCK:   -0.26 KCAL/MOL
REMARK 927      BINDING AFFINITY PREDICTED BY RF-SCORE:    0.00 PKD
ROOT
HETATM    1  C   UNL     1     -10.343   9.169  67.190  1.00  0.00    -0.337 C  
HETATM    2  C   UNL     1     -10.808   9.807  68.500  1.00  0.00    -0.188 C  
HETATM    3  C   UNL     1      -9.640  10.559  69.146  1.00  0.00    -0.214 C  
ENDROOT
BRANCH   2   4
HETATM    4  N   UNL     1     -11.945  10.696  68.221  1.00  0.00    -0.814 NA 
HETATM    5  H   UNL     1     -12.661  10.618  68.944  1.00  0.00     0.000 HD 
BRANCH   4   6
HETATM    6  C   UNL     1     -11.522  12.096  68.037  1.00  0.00    -0.319 C  
BRANCH   6   7
HETATM    7  C   UNL     1     -11.318  12.480  66.552  1.00  0.00    -0.334 C  
HETATM    8  H   UNL     1     -12.354  12.346  64.889  1.00  0.00     0.000 HD 
HETATM    9  O   UNL     1     -12.480  12.110  65.801  1.00  0.00    -0.482 OA 
BRANCH   7  10
HETATM   10  C   UNL     1     -11.041  13.963  66.350  1.00  0.00    -0.309 A  
HETATM   11  C   UNL     1     -10.459  14.711  67.389  1.00  0.00    -0.255 A  
HETATM   12  C   UNL     1     -10.226  16.077  67.221  1.00  0.00    -0.277 A  
HETATM   13  C   UNL     1     -10.550  16.724  66.035  1.00  0.00    -0.232 A  
HETATM   14  O   UNL     1      -9.676  16.834  68.215  1.00  0.00    -0.237 OA 
HETATM   15  H   UNL     1      -9.518  17.763  68.100  1.00  0.00     0.000 HD 
HETATM   16  C   UNL     1     -11.102  15.984  64.999  1.00  0.00    -0.336 A  
HETATM   17  O   UNL     1     -11.441  16.557  63.810  1.00  0.00    -1.615 OA 
HETATM   18  C   UNL     1     -11.336  14.619  65.142  1.00  0.00    -0.375 A  
HETATM   19  H   UNL     1     -11.819  16.051  63.101  1.00  0.00     0.000 HD 
ENDBRANCH   7  10
ENDBRANCH   6   7
ENDBRANCH   4   6
ENDBRANCH   2   4
TORSDOF 4
ENDMDL
MODEL       44
REMARK 921   NORMALIZED FREE ENERGY PREDICTED BY IDOCK:   -5.10 KCAL/MOL
REMARK 922        TOTAL FREE ENERGY PREDICTED BY IDOCK:   -6.57 KCAL/MOL
REMARK 923 INTER-LIGAND FREE ENERGY PREDICTED BY IDOCK:   -6.28 KCAL/MOL
REMARK 924 INTRA-LIGAND FREE ENERGY PREDICTED BY IDOCK:   -0.29 KCAL/MOL
REMARK 927      BINDING AFFINITY PREDICTED BY RF-SCORE:    0.00 PKD
ROOT
HETATM    1  C   UNL     1      -6.302  17.384  66.597  1.00  0.00    -0.250 C  
HETATM    2  C   UNL     1      -7.738  17.746  66.979  1.00  0.00    -0.210 C  
HETATM    3  C   UNL     1      -7.802  19.220  67.389  1.00  0.00    -0.283 C  
ENDROOT
BRANCH   2   4
HETATM    4  N   UNL     1      -8.623  17.454  65.843  1.00  0.00    -0.534 NA 
HETATM    5  H   UNL     1      -8.313  16.624  65.336  1.00  0.00     0.000 HD 
BRANCH   4   6
HETATM    6  C   UNL     1     -10.033  17.332  66.255  1.00  0.00    -0.300 C  
BRANCH   6   7
HETATM    7  C   UNL     1     -10.296  16.112  67.170  1.00  0.00    -0.291 C  
HETATM    8  H   UNL     1     -11.268  15.767  68.842  1.00  0.00     0.000 HD 
HETATM    9  O   UNL     1     -11.107  16.516  68.279  1.00  0.00    -0.355 OA 
BRANCH   7  10
HETATM   10  C   UNL     1     -10.974  14.956  66.448  1.00  0.00    -0.336 A  
HETATM   11  C   UNL     1     -11.110  13.715  67.095  1.00  0.00    -0.311 A  
HETATM   12  C   UNL     1     -11.707  12.643  66.429  1.00  0.00    -0.405 A  
HETATM   13  C   UNL     1     -12.184  12.774  65.131  1.00  0.00    -0.530 A  
HETATM   14  O   UNL     1     -11.842  11.422  67.024  1.00  0.00    -0.530 OA 
HETATM   15  H   UNL     1     -12.248  10.692  66.571  1.00  0.00     0.000 HD 
HETATM   16  C   UNL     1     -12.072  14.004  64.499  1.00  0.00    -0.459 A  
HETATM   17  O   UNL     1     -12.520  14.199  63.227  1.00  0.00    -1.146 OA 
HETATM   18  C   UNL     1     -11.487  15.089  65.146  1.00  0.00    -0.339 A  
HETATM   19  H   UNL     1     -12.444  15.041  62.793  1.00  0.00     0.000 HD 
ENDBRANCH   7  10
ENDBRANCH   6   7
ENDBRANCH   4   6
ENDBRANCH   2   4
TORSDOF 4
ENDMDL
MODEL       45
REMARK 921   NORMALIZED FREE ENERGY PREDICTED BY IDOCK:   -5.09 KCAL/MOL
REMARK 922        TOTAL FREE ENERGY PREDICTED BY IDOCK:   -6.56 KCAL/MOL
REMARK 923 INTER-LIGAND FREE ENERGY PREDICTED BY IDOCK:   -6.12 KCAL/MOL
REMARK 924 INTRA-LIGAND FREE ENERGY PREDICTED BY IDOCK:   -0.44 KCAL/MOL
REMARK 927      BINDING AFFINITY PREDICTED BY RF-SCORE:    0.00 PKD
ROOT
HETATM    1  C   UNL     1      -9.454  10.012  69.163  1.00  0.00    -0.214 C  
HETATM    2  C   UNL     1     -10.822  10.240  69.807  1.00  0.00    -0.287 C  
HETATM    3  C   UNL     1     -10.859   9.566  71.183  1.00  0.00    -0.425 C  
ENDROOT
BRANCH   2   4
HETATM    4  N   UNL     1     -11.072  11.685  69.899  1.00  0.00    -0.481 NA 
HETATM    5  H   UNL     1     -10.197  12.211  69.914  1.00  0.00     0.000 HD 
BRANCH   4   6
HETATM    6  C   UNL     1     -11.964  12.163  68.828  1.00  0.00    -0.239 C  
BRANCH   6   7
HETATM    7  C   UNL     1     -11.296  13.206  67.900  1.00  0.00    -0.286 C  
HETATM    8  H   UNL     1      -9.525  14.041  67.734  1.00  0.00     0.000 HD 
HETATM    9  O   UNL     1      -9.935  13.400  68.303  1.00  0.00    -0.231 OA 
BRANCH   7  10
HETATM   10  C   UNL     1     -11.331  12.810  66.430  1.00  0.00    -0.369 A  
HETATM   11  C   UNL     1     -10.763  11.590  66.024  1.00  0.00    -0.332 A  
HETATM   12  C   UNL     1     -10.769  11.231  64.674  1.00  0.00    -0.303 A  
HETATM   13  C   UNL     1     -11.336  12.056  63.712  1.00  0.00    -0.526 A  
HETATM   14  O   UNL     1     -10.212  10.061  64.246  1.00  0.00    -0.436 OA 
HETATM   15  H   UNL     1     -10.216   9.818  63.329  1.00  0.00     0.000 HD 
HETATM   16  C   UNL     1     -11.919  13.249  64.112  1.00  0.00    -0.447 A  
HETATM   17  O   UNL     1     -12.493  14.102  63.218  1.00  0.00    -1.146 OA 
HETATM   18  C   UNL     1     -11.931  13.623  65.453  1.00  0.00    -0.400 A  
HETATM   19  H   UNL     1     -12.893  14.920  63.492  1.00  0.00     0.000 HD 
ENDBRANCH   7  10
ENDBRANCH   6   7
ENDBRANCH   4   6
ENDBRANCH   2   4
TORSDOF 4
ENDMDL
MODEL       46
REMARK 921   NORMALIZED FREE ENERGY PREDICTED BY IDOCK:   -5.09 KCAL/MOL
REMARK 922        TOTAL FREE ENERGY PREDICTED BY IDOCK:   -6.56 KCAL/MOL
REMARK 923 INTER-LIGAND FREE ENERGY PREDICTED BY IDOCK:   -6.09 KCAL/MOL
REMARK 924 INTRA-LIGAND FREE ENERGY PREDICTED BY IDOCK:   -0.47 KCAL/MOL
REMARK 927      BINDING AFFINITY PREDICTED BY RF-SCORE:    0.00 PKD
ROOT
HETATM    1  C   UNL     1      -9.921  11.070  63.927  1.00  0.00    -0.396 C  
HETATM    2  C   UNL     1     -10.776  12.233  63.421  1.00  0.00    -0.391 C  
HETATM    3  C   UNL     1     -12.235  12.015  63.838  1.00  0.00    -0.555 C  
ENDROOT
BRANCH   2   4
HETATM    4  N   UNL     1     -10.237  13.491  63.956  1.00  0.00    -0.713 NA 
HETATM    5  H   UNL     1      -9.894  14.094  63.208  1.00  0.00     0.000 HD 
BRANCH   4   6
HETATM    6  C   UNL     1     -11.213  14.197  64.804  1.00  0.00    -0.378 C  
BRANCH   6   7
HETATM    7  C   UNL     1     -10.597  14.745  66.114  1.00  0.00    -0.311 C  
HETATM    8  H   UNL     1     -10.509  16.479  67.033  1.00  0.00     0.000 HD 
HETATM    9  O   UNL     1     -10.888  16.142  66.229  1.00  0.00    -0.257 OA 
BRANCH   7  10
HETATM   10  C   UNL     1     -11.098  14.024  67.358  1.00  0.00    -0.317 A  
HETATM   11  C   UNL     1     -11.256  14.738  68.560  1.00  0.00    -0.291 A  
HETATM   12  C   UNL     1     -11.690  14.079  69.712  1.00  0.00    -0.313 A  
HETATM   13  C   UNL     1     -11.982  12.721  69.700  1.00  0.00    -0.354 A  
HETATM   14  O   UNL     1     -11.839  14.740  70.897  1.00  0.00    -0.293 OA 
HETATM   15  H   UNL     1     -12.134  14.292  71.680  1.00  0.00     0.000 HD 
HETATM   16  C   UNL     1     -11.850  12.020  68.511  1.00  0.00    -0.311 A  
HETATM   17  O   UNL     1     -12.121  10.686  68.431  1.00  0.00    -0.813 OA 
HETATM   18  C   UNL     1     -11.426  12.658  67.348  1.00  0.00    -0.397 A  
HETATM   19  H   UNL     1     -12.032  10.206  67.616  1.00  0.00     0.000 HD 
ENDBRANCH   7  10
ENDBRANCH   6   7
ENDBRANCH   4   6
ENDBRANCH   2   4
TORSDOF 4
ENDMDL
MODEL       47
REMARK 921   NORMALIZED FREE ENERGY PREDICTED BY IDOCK:   -5.07 KCAL/MOL
REMARK 922        TOTAL FREE ENERGY PREDICTED BY IDOCK:   -6.53 KCAL/MOL
REMARK 923 INTER-LIGAND FREE ENERGY PREDICTED BY IDOCK:   -6.16 KCAL/MOL
REMARK 924 INTRA-LIGAND FREE ENERGY PREDICTED BY IDOCK:   -0.37 KCAL/MOL
REMARK 927      BINDING AFFINITY PREDICTED BY RF-SCORE:    0.00 PKD
ROOT
HETATM    1  C   UNL     1      -9.803  10.189  64.792  1.00  0.00    -0.382 C  
HETATM    2  C   UNL     1      -9.917  11.187  63.639  1.00  0.00    -0.363 C  
HETATM    3  C   UNL     1      -8.982  10.763  62.501  1.00  0.00    -0.344 C  
ENDROOT
BRANCH   2   4
HETATM    4  N   UNL     1     -11.318  11.252  63.200  1.00  0.00    -0.836 NA 
HETATM    5  H   UNL     1     -11.735  10.322  63.155  1.00  0.00     0.000 HD 
BRANCH   4   6
HETATM    6  C   UNL     1     -12.121  12.157  64.042  1.00  0.00    -0.443 C  
BRANCH   6   7
HETATM    7  C   UNL     1     -11.646  13.628  63.979  1.00  0.00    -0.317 C  
HETATM    8  H   UNL     1     -12.380  15.339  63.352  1.00  0.00     0.000 HD 
HETATM    9  O   UNL     1     -12.672  14.436  63.391  1.00  0.00    -0.689 OA 
BRANCH   7  10
HETATM   10  C   UNL     1     -11.280  14.198  65.342  1.00  0.00    -0.325 A  
HETATM   11  C   UNL     1     -12.113  13.950  66.447  1.00  0.00    -0.489 A  
HETATM   12  C   UNL     1     -11.798  14.491  67.696  1.00  0.00    -0.364 A  
HETATM   13  C   UNL     1     -10.663  15.270  67.878  1.00  0.00    -0.275 A  
HETATM   14  O   UNL     1     -12.594  14.281  68.784  1.00  0.00    -0.513 OA 
HETATM   15  H   UNL     1     -12.380  14.649  69.633  1.00  0.00     0.000 HD 
HETATM   16  C   UNL     1      -9.826  15.496  66.796  1.00  0.00    -0.241 A  
HETATM   17  O   UNL     1      -8.697  16.251  66.908  1.00  0.00    -0.178 OA 
HETATM   18  C   UNL     1     -10.117  14.961  65.544  1.00  0.00    -0.400 A  
HETATM   19  H   UNL     1      -8.123  16.406  66.167  1.00  0.00     0.000 HD 
ENDBRANCH   7  10
ENDBRANCH   6   7
ENDBRANCH   4   6
ENDBRANCH   2   4
TORSDOF 4
ENDMDL
MODEL       48
REMARK 921   NORMALIZED FREE ENERGY PREDICTED BY IDOCK:   -5.06 KCAL/MOL
REMARK 922        TOTAL FREE ENERGY PREDICTED BY IDOCK:   -6.53 KCAL/MOL
REMARK 923 INTER-LIGAND FREE ENERGY PREDICTED BY IDOCK:   -6.28 KCAL/MOL
REMARK 924 INTRA-LIGAND FREE ENERGY PREDICTED BY IDOCK:   -0.25 KCAL/MOL
REMARK 927      BINDING AFFINITY PREDICTED BY RF-SCORE:    0.00 PKD
ROOT
HETATM    1  C   UNL     1     -11.759  12.161  63.699  1.00  0.00    -0.588 C  
HETATM    2  C   UNL     1     -11.102  12.566  65.020  1.00  0.00    -0.299 C  
HETATM    3  C   UNL     1     -10.626  14.020  64.930  1.00  0.00    -0.442 C  
ENDROOT
BRANCH   2   4
HETATM    4  N   UNL     1     -12.067  12.373  66.112  1.00  0.00    -0.641 NA 
HETATM    5  H   UNL     1     -12.071  11.405  66.434  1.00  0.00     0.000 HD 
BRANCH   4   6
HETATM    6  C   UNL     1     -11.835  13.306  67.228  1.00  0.00    -0.372 C  
BRANCH   6   7
HETATM    7  C   UNL     1     -11.159  12.637  68.449  1.00  0.00    -0.265 C  
HETATM    8  H   UNL     1      -9.455  12.813  69.411  1.00  0.00     0.000 HD 
HETATM    9  O   UNL     1      -9.870  13.224  68.661  1.00  0.00    -0.191 OA 
BRANCH   7  10
HETATM   10  C   UNL     1     -11.979  12.755  69.727  1.00  0.00    -0.362 A  
HETATM   11  C   UNL     1     -12.265  11.602  70.479  1.00  0.00    -0.451 A  
HETATM   12  C   UNL     1     -13.039  11.698  71.638  1.00  0.00    -0.351 A  
HETATM   13  C   UNL     1     -13.532  12.920  72.077  1.00  0.00    -0.568 A  
HETATM   14  O   UNL     1     -13.346  10.596  72.382  1.00  0.00    -0.612 OA 
HETATM   15  H   UNL     1     -13.872  10.662  73.170  1.00  0.00     0.000 HD 
HETATM   16  C   UNL     1     -13.232  14.062  71.350  1.00  0.00    -0.334 A  
HETATM   17  O   UNL     1     -13.684  15.292  71.727  1.00  0.00    -0.421 OA 
HETATM   18  C   UNL     1     -12.456  13.991  70.196  1.00  0.00    -0.380 A  
HETATM   19  H   UNL     1     -13.478  16.075  71.229  1.00  0.00     0.000 HD 
ENDBRANCH   7  10
ENDBRANCH   6   7
ENDBRANCH   4   6
ENDBRANCH   2   4
TORSDOF 4
ENDMDL
MODEL       49
REMARK 921   NORMALIZED FREE ENERGY PREDICTED BY IDOCK:   -5.06 KCAL/MOL
REMARK 922        TOTAL FREE ENERGY PREDICTED BY IDOCK:   -6.52 KCAL/MOL
REMARK 923 INTER-LIGAND FREE ENERGY PREDICTED BY IDOCK:   -6.17 KCAL/MOL
REMARK 924 INTRA-LIGAND FREE ENERGY PREDICTED BY IDOCK:   -0.35 KCAL/MOL
REMARK 927      BINDING AFFINITY PREDICTED BY RF-SCORE:    0.00 PKD
ROOT
HETATM    1  C   UNL     1      -9.658   9.478  68.873  1.00  0.00    -0.156 C  
HETATM    2  C   UNL     1      -8.962  10.834  68.750  1.00  0.00    -0.170 C  
HETATM    3  C   UNL     1      -8.424  11.006  67.325  1.00  0.00    -0.130 C  
ENDROOT
BRANCH   2   4
HETATM    4  N   UNL     1      -9.914  11.894  69.107  1.00  0.00    -0.406 NA 
HETATM    5  H   UNL     1      -9.621  12.386  69.952  1.00  0.00     0.000 HD 
BRANCH   4   6
HETATM    6  C   UNL     1     -10.141  12.834  67.995  1.00  0.00    -0.230 C  
BRANCH   6   7
HETATM    7  C   UNL     1     -11.632  12.962  67.602  1.00  0.00    -0.355 C  
HETATM    8  H   UNL     1     -13.142  14.122  68.089  1.00  0.00     0.000 HD 
HETATM    9  O   UNL     1     -12.226  14.043  68.330  1.00  0.00    -0.332 OA 
BRANCH   7  10
HETATM   10  C   UNL     1     -11.841  13.189  66.111  1.00  0.00    -0.453 A  
HETATM   11  C   UNL     1     -11.893  14.500  65.606  1.00  0.00    -0.326 A  
HETATM   12  C   UNL     1     -12.110  14.717  64.244  1.00  0.00    -0.415 A  
HETATM   13  C   UNL     1     -12.269  13.656  63.361  1.00  0.00    -0.236 A  
HETATM   14  O   UNL     1     -12.180  15.977  63.725  1.00  0.00    -1.269 OA 
HETATM   15  H   UNL     1     -12.328  16.124  62.799  1.00  0.00     0.000 HD 
HETATM   16  C   UNL     1     -12.194  12.361  63.852  1.00  0.00    -0.513 A  
HETATM   17  O   UNL     1     -12.341  11.277  63.039  1.00  0.00    -0.856 OA 
HETATM   18  C   UNL     1     -11.971  12.122  65.205  1.00  0.00    -0.324 A  
HETATM   19  H   UNL     1     -12.290  10.389  63.375  1.00  0.00     0.000 HD 
ENDBRANCH   7  10
ENDBRANCH   6   7
ENDBRANCH   4   6
ENDBRANCH   2   4
TORSDOF 4
ENDMDL
MODEL       50
REMARK 921   NORMALIZED FREE ENERGY PREDICTED BY IDOCK:   -5.05 KCAL/MOL
REMARK 922        TOTAL FREE ENERGY PREDICTED BY IDOCK:   -6.51 KCAL/MOL
REMARK 923 INTER-LIGAND FREE ENERGY PREDICTED BY IDOCK:   -6.09 KCAL/MOL
REMARK 924 INTRA-LIGAND FREE ENERGY PREDICTED BY IDOCK:   -0.42 KCAL/MOL
REMARK 927      BINDING AFFINITY PREDICTED BY RF-SCORE:    0.00 PKD
ROOT
HETATM    1  C   UNL     1      -8.834  17.119  68.635  1.00  0.00    -0.266 C  
HETATM    2  C   UNL     1      -9.390  15.970  67.792  1.00  0.00    -0.211 C  
HETATM    3  C   UNL     1      -8.272  15.386  66.922  1.00  0.00    -0.281 C  
ENDROOT
BRANCH   2   4
HETATM    4  N   UNL     1      -9.972  14.960  68.686  1.00  0.00    -0.218 NA 
HETATM    5  H   UNL     1     -10.900  15.241  69.007  1.00  0.00     0.000 HD 
BRANCH   4   6
HETATM    6  C   UNL     1     -10.004  13.623  68.067  1.00  0.00    -0.247 C  
BRANCH   6   7
HETATM    7  C   UNL     1     -11.428  13.175  67.660  1.00  0.00    -0.324 C  
HETATM    8  H   UNL     1     -13.269  13.630  68.174  1.00  0.00     0.000 HD 
HETATM    9  O   UNL     1     -12.394  13.906  68.424  1.00  0.00    -0.261 OA 
BRANCH   7  10
HETATM   10  C   UNL     1     -11.714  13.365  66.176  1.00  0.00    -0.405 A  
HETATM   11  C   UNL     1     -11.826  12.240  65.340  1.00  0.00    -0.418 A  
HETATM   12  C   UNL     1     -12.063  12.407  63.973  1.00  0.00    -0.475 A  
HETATM   13  C   UNL     1     -12.201  13.671  63.414  1.00  0.00    -0.236 A  
HETATM   14  O   UNL     1     -12.162  11.337  63.132  1.00  0.00    -0.814 OA 
HETATM   15  H   UNL     1     -12.323  11.450  62.203  1.00  0.00     0.000 HD 
HETATM   16  C   UNL     1     -12.116  14.781  64.241  1.00  0.00    -0.394 A  
HETATM   17  O   UNL     1     -12.243  16.048  63.756  1.00  0.00    -1.269 OA 
HETATM   18  C   UNL     1     -11.888  14.638  65.607  1.00  0.00    -0.273 A  
HETATM   19  H   UNL     1     -12.185  16.809  64.322  1.00  0.00     0.000 HD 
ENDBRANCH   7  10
ENDBRANCH   6   7
ENDBRANCH   4   6
ENDBRANCH   2   4
TORSDOF 4
ENDMDL
MODEL       51
REMARK 921   NORMALIZED FREE ENERGY PREDICTED BY IDOCK:   -5.05 KCAL/MOL
REMARK 922        TOTAL FREE ENERGY PREDICTED BY IDOCK:   -6.51 KCAL/MOL
REMARK 923 INTER-LIGAND FREE ENERGY PREDICTED BY IDOCK:   -6.29 KCAL/MOL
REMARK 924 INTRA-LIGAND FREE ENERGY PREDICTED BY IDOCK:   -0.22 KCAL/MOL
REMARK 927      BINDING AFFINITY PREDICTED BY RF-SCORE:    0.00 PKD
ROOT
HETATM    1  C   UNL     1      -9.480  19.294  68.755  1.00  0.00    -0.459 C  
HETATM    2  C   UNL     1      -9.275  17.981  68.001  1.00  0.00    -0.272 C  
HETATM    3  C   UNL     1      -8.204  17.144  68.709  1.00  0.00    -0.238 C  
ENDROOT
BRANCH   2   4
HETATM    4  N   UNL     1     -10.559  17.271  67.920  1.00  0.00    -0.379 NA 
HETATM    5  H   UNL     1     -10.606  16.686  67.085  1.00  0.00     0.000 HD 
BRANCH   4   6
HETATM    6  C   UNL     1     -10.837  16.487  69.136  1.00  0.00    -0.334 C  
BRANCH   6   7
HETATM    7  C   UNL     1     -12.010  15.492  68.964  1.00  0.00    -0.301 C  
HETATM    8  H   UNL     1     -12.315  13.795  68.022  1.00  0.00     0.000 HD 
HETATM    9  O   UNL     1     -11.595  14.406  68.128  1.00  0.00    -0.295 OA 
BRANCH   7  10
HETATM   10  C   UNL     1     -12.526  14.939  70.285  1.00  0.00    -0.386 A  
HETATM   11  C   UNL     1     -12.584  13.548  70.482  1.00  0.00    -0.311 A  
HETATM   12  C   UNL     1     -13.080  13.033  71.682  1.00  0.00    -0.347 A  
HETATM   13  C   UNL     1     -13.514  13.870  72.702  1.00  0.00    -0.652 A  
HETATM   14  O   UNL     1     -13.163  11.688  71.899  1.00  0.00    -0.485 OA 
HETATM   15  H   UNL     1     -13.501  11.338  72.714  1.00  0.00     0.000 HD 
HETATM   16  C   UNL     1     -13.435  15.242  72.520  1.00  0.00    -0.485 A  
HETATM   17  O   UNL     1     -13.844  16.118  73.481  1.00  0.00    -0.868 OA 
HETATM   18  C   UNL     1     -12.937  15.778  71.336  1.00  0.00    -0.478 A  
HETATM   19  H   UNL     1     -13.790  17.058  73.357  1.00  0.00     0.000 HD 
ENDBRANCH   7  10
ENDBRANCH   6   7
ENDBRANCH   4   6
ENDBRANCH   2   4
TORSDOF 4
ENDMDL
MODEL       52
REMARK 921   NORMALIZED FREE ENERGY PREDICTED BY IDOCK:   -5.05 KCAL/MOL
REMARK 922        TOTAL FREE ENERGY PREDICTED BY IDOCK:   -6.51 KCAL/MOL
REMARK 923 INTER-LIGAND FREE ENERGY PREDICTED BY IDOCK:   -6.27 KCAL/MOL
REMARK 924 INTRA-LIGAND FREE ENERGY PREDICTED BY IDOCK:   -0.24 KCAL/MOL
REMARK 927      BINDING AFFINITY PREDICTED BY RF-SCORE:    0.00 PKD
ROOT
HETATM    1  C   UNL     1     -10.540   9.865  68.099  1.00  0.00    -0.270 C  
HETATM    2  C   UNL     1     -10.899   9.420  69.517  1.00  0.00    -0.213 C  
HETATM    3  C   UNL     1      -9.719   9.696  70.454  1.00  0.00    -0.304 C  
ENDROOT
BRANCH   2   4
HETATM    4  N   UNL     1     -12.114  10.125  69.945  1.00  0.00    -0.481 NA 
HETATM    5  H   UNL     1     -12.510   9.704  70.787  1.00  0.00     0.000 HD 
BRANCH   4   6
HETATM    6  C   UNL     1     -11.882  11.569  70.131  1.00  0.00    -0.356 C  
BRANCH   6   7
HETATM    7  C   UNL     1     -12.985  12.260  70.968  1.00  0.00    -0.064 C  
HETATM    8  H   UNL     1     -13.944  11.895  72.644  1.00  0.00     0.000 HD 
HETATM    9  O   UNL     1     -13.266  11.470  72.130  1.00  0.00    -0.505 OA 
BRANCH   7  10
HETATM   10  C   UNL     1     -12.613  13.672  71.400  1.00  0.00    -0.415 A  
HETATM   11  C   UNL     1     -12.943  14.114  72.693  1.00  0.00    -0.505 A  
HETATM   12  C   UNL     1     -12.629  15.416  73.088  1.00  0.00    -0.465 A  
HETATM   13  C   UNL     1     -11.982  16.294  72.228  1.00  0.00    -0.605 A  
HETATM   14  O   UNL     1     -12.949  15.880  74.330  1.00  0.00    -0.884 OA 
HETATM   15  H   UNL     1     -12.736  16.766  74.598  1.00  0.00     0.000 HD 
HETATM   16  C   UNL     1     -11.634  15.853  70.960  1.00  0.00    -0.424 A  
HETATM   17  O   UNL     1     -10.997  16.664  70.068  1.00  0.00    -0.393 OA 
HETATM   18  C   UNL     1     -11.930  14.557  70.548  1.00  0.00    -0.387 A  
HETATM   19  H   UNL     1     -10.757  16.362  69.200  1.00  0.00     0.000 HD 
ENDBRANCH   7  10
ENDBRANCH   6   7
ENDBRANCH   4   6
ENDBRANCH   2   4
TORSDOF 4
ENDMDL
MODEL       53
REMARK 921   NORMALIZED FREE ENERGY PREDICTED BY IDOCK:   -5.02 KCAL/MOL
REMARK 922        TOTAL FREE ENERGY PREDICTED BY IDOCK:   -6.48 KCAL/MOL
REMARK 923 INTER-LIGAND FREE ENERGY PREDICTED BY IDOCK:   -6.22 KCAL/MOL
REMARK 924 INTRA-LIGAND FREE ENERGY PREDICTED BY IDOCK:   -0.25 KCAL/MOL
REMARK 927      BINDING AFFINITY PREDICTED BY RF-SCORE:    0.00 PKD
ROOT
HETATM    1  C   UNL     1     -12.279  12.267  63.399  1.00  0.00    -0.630 C  
HETATM    2  C   UNL     1     -12.660  12.729  64.806  1.00  0.00    -0.446 C  
HETATM    3  C   UNL     1     -11.643  12.185  65.816  1.00  0.00    -0.414 C  
ENDROOT
BRANCH   2   4
HETATM    4  N   UNL     1     -12.721  14.197  64.827  1.00  0.00    -0.678 NA 
HETATM    5  H   UNL     1     -13.668  14.525  65.014  1.00  0.00     0.000 HD 
BRANCH   4   6
HETATM    6  C   UNL     1     -11.757  14.779  65.779  1.00  0.00    -0.252 C  
BRANCH   6   7
HETATM    7  C   UNL     1     -10.743  15.736  65.109  1.00  0.00    -0.435 C  
HETATM    8  H   UNL     1     -10.818  17.233  63.838  1.00  0.00     0.000 HD 
HETATM    9  O   UNL     1     -11.441  16.645  64.250  1.00  0.00    -1.075 OA 
BRANCH   7  10
HETATM   10  C   UNL     1      -9.915  16.529  66.111  1.00  0.00    -0.363 A  
HETATM   11  C   UNL     1      -8.512  16.515  66.021  1.00  0.00    -0.206 A  
HETATM   12  C   UNL     1      -7.745  17.218  66.953  1.00  0.00    -0.215 A  
HETATM   13  C   UNL     1      -8.341  17.948  67.974  1.00  0.00    -0.258 A  
HETATM   14  O   UNL     1      -6.382  17.213  66.901  1.00  0.00    -0.162 OA 
HETATM   15  H   UNL     1      -5.860  17.691  67.535  1.00  0.00     0.000 HD 
HETATM   16  C   UNL     1      -9.725  17.982  68.051  1.00  0.00    -0.309 A  
HETATM   17  O   UNL     1     -10.371  18.680  69.027  1.00  0.00    -0.483 OA 
HETATM   18  C   UNL     1     -10.509  17.295  67.129  1.00  0.00    -0.297 A  
HETATM   19  H   UNL     1     -11.320  18.704  69.080  1.00  0.00     0.000 HD 
ENDBRANCH   7  10
ENDBRANCH   6   7
ENDBRANCH   4   6
ENDBRANCH   2   4
TORSDOF 4
ENDMDL
MODEL       54
REMARK 921   NORMALIZED FREE ENERGY PREDICTED BY IDOCK:   -5.02 KCAL/MOL
REMARK 922        TOTAL FREE ENERGY PREDICTED BY IDOCK:   -6.47 KCAL/MOL
REMARK 923 INTER-LIGAND FREE ENERGY PREDICTED BY IDOCK:   -6.24 KCAL/MOL
REMARK 924 INTRA-LIGAND FREE ENERGY PREDICTED BY IDOCK:   -0.24 KCAL/MOL
REMARK 927      BINDING AFFINITY PREDICTED BY RF-SCORE:    0.00 PKD
ROOT
HETATM    1  C   UNL     1     -12.828  15.795  72.287  1.00  0.00    -0.525 C  
HETATM    2  C   UNL     1     -12.554  15.462  70.820  1.00  0.00    -0.442 C  
HETATM    3  C   UNL     1     -11.050  15.569  70.543  1.00  0.00    -0.369 C  
ENDROOT
BRANCH   2   4
HETATM    4  N   UNL     1     -13.069  14.117  70.531  1.00  0.00    -0.332 NA 
HETATM    5  H   UNL     1     -13.757  14.139  69.777  1.00  0.00     0.000 HD 
BRANCH   4   6
HETATM    6  C   UNL     1     -11.988  13.159  70.239  1.00  0.00    -0.292 C  
BRANCH   6   7
HETATM    7  C   UNL     1     -12.501  11.824  69.650  1.00  0.00     0.044 C  
HETATM    8  H   UNL     1     -12.132  10.731  68.059  1.00  0.00     0.000 HD 
HETATM    9  O   UNL     1     -11.817  11.551  68.421  1.00  0.00    -0.438 OA 
BRANCH   7  10
HETATM   10  C   UNL     1     -12.323  10.644  70.595  1.00  0.00    -0.462 A  
HETATM   11  C   UNL     1     -11.159   9.859  70.517  1.00  0.00    -0.398 A  
HETATM   12  C   UNL     1     -11.000   8.759  71.363  1.00  0.00    -0.289 A  
HETATM   13  C   UNL     1     -11.970   8.422  72.298  1.00  0.00    -0.455 A  
HETATM   14  O   UNL     1      -9.889   7.969  71.302  1.00  0.00    -0.160 OA 
HETATM   15  H   UNL     1      -9.781   7.221  71.877  1.00  0.00     0.000 HD 
HETATM   16  C   UNL     1     -13.108   9.209  72.394  1.00  0.00    -0.423 A  
HETATM   17  O   UNL     1     -14.097   8.933  73.290  1.00  0.00    -1.211 OA 
HETATM   18  C   UNL     1     -13.285  10.313  71.566  1.00  0.00    -0.484 A  
HETATM   19  H   UNL     1     -14.877   9.472  73.357  1.00  0.00     0.000 HD 
ENDBRANCH   7  10
ENDBRANCH   6   7
ENDBRANCH   4   6
ENDBRANCH   2   4
TORSDOF 4
ENDMDL
MODEL       55
REMARK 921   NORMALIZED FREE ENERGY PREDICTED BY IDOCK:   -5.00 KCAL/MOL
REMARK 922        TOTAL FREE ENERGY PREDICTED BY IDOCK:   -6.45 KCAL/MOL
REMARK 923 INTER-LIGAND FREE ENERGY PREDICTED BY IDOCK:   -6.17 KCAL/MOL
REMARK 924 INTRA-LIGAND FREE ENERGY PREDICTED BY IDOCK:   -0.28 KCAL/MOL
REMARK 927      BINDING AFFINITY PREDICTED BY RF-SCORE:    0.00 PKD
ROOT
HETATM    1  C   UNL     1      -9.855  10.771  68.086  1.00  0.00    -0.171 C  
HETATM    2  C   UNL     1     -11.106  11.649  68.030  1.00  0.00    -0.242 C  
HETATM    3  C   UNL     1     -11.575  11.779  66.577  1.00  0.00    -0.256 C  
ENDROOT
BRANCH   2   4
HETATM    4  N   UNL     1     -12.142  11.059  68.889  1.00  0.00    -0.668 NA 
HETATM    5  H   UNL     1     -12.283  10.072  68.674  1.00  0.00     0.000 HD 
BRANCH   4   6
HETATM    6  C   UNL     1     -11.854  11.257  70.321  1.00  0.00    -0.357 C  
BRANCH   6   7
HETATM    7  C   UNL     1     -13.033  11.892  71.096  1.00  0.00    -0.172 C  
HETATM    8  H   UNL     1     -13.983  11.547  72.781  1.00  0.00     0.000 HD 
HETATM    9  O   UNL     1     -13.258  11.157  72.305  1.00  0.00    -0.413 OA 
BRANCH   7  10
HETATM   10  C   UNL     1     -12.806  13.358  71.436  1.00  0.00    -0.420 A  
HETATM   11  C   UNL     1     -12.094  14.178  70.542  1.00  0.00    -0.420 A  
HETATM   12  C   UNL     1     -11.859  15.518  70.858  1.00  0.00    -0.371 A  
HETATM   13  C   UNL     1     -12.323  16.071  72.045  1.00  0.00    -0.540 A  
HETATM   14  O   UNL     1     -11.160  16.335  70.019  1.00  0.00    -0.341 OA 
HETATM   15  H   UNL     1     -11.000  17.246  70.234  1.00  0.00     0.000 HD 
HETATM   16  C   UNL     1     -13.046  15.271  72.917  1.00  0.00    -0.490 A  
HETATM   17  O   UNL     1     -13.530  15.753  74.097  1.00  0.00    -0.674 OA 
HETATM   18  C   UNL     1     -13.299  13.935  72.619  1.00  0.00    -0.640 A  
HETATM   19  H   UNL     1     -14.026  15.205  74.695  1.00  0.00     0.000 HD 
ENDBRANCH   7  10
ENDBRANCH   6   7
ENDBRANCH   4   6
ENDBRANCH   2   4
TORSDOF 4
ENDMDL
MODEL       56
REMARK 921   NORMALIZED FREE ENERGY PREDICTED BY IDOCK:   -4.98 KCAL/MOL
REMARK 922        TOTAL FREE ENERGY PREDICTED BY IDOCK:   -6.42 KCAL/MOL
REMARK 923 INTER-LIGAND FREE ENERGY PREDICTED BY IDOCK:   -6.22 KCAL/MOL
REMARK 924 INTRA-LIGAND FREE ENERGY PREDICTED BY IDOCK:   -0.20 KCAL/MOL
REMARK 927      BINDING AFFINITY PREDICTED BY RF-SCORE:    0.00 PKD
ROOT
HETATM    1  C   UNL     1      -7.056  17.472  66.503  1.00  0.00    -0.289 C  
HETATM    2  C   UNL     1      -8.032  18.648  66.556  1.00  0.00    -0.278 C  
HETATM    3  C   UNL     1      -7.433  19.844  65.810  1.00  0.00    -0.330 C  
ENDROOT
BRANCH   2   4
HETATM    4  N   UNL     1      -9.316  18.229  65.978  1.00  0.00    -0.512 NA 
HETATM    5  H   UNL     1      -9.438  18.604  65.037  1.00  0.00     0.000 HD 
BRANCH   4   6
HETATM    6  C   UNL     1      -9.481  16.764  65.994  1.00  0.00    -0.223 C  
BRANCH   6   7
HETATM    7  C   UNL     1     -10.903  16.308  65.591  1.00  0.00    -0.208 C  
HETATM    8  H   UNL     1     -12.108  16.574  64.063  1.00  0.00     0.000 HD 
HETATM    9  O   UNL     1     -11.234  16.855  64.310  1.00  0.00    -1.204 OA 
BRANCH   7  10
HETATM   10  C   UNL     1     -11.055  14.793  65.544  1.00  0.00    -0.346 A  
HETATM   11  C   UNL     1     -11.391  14.091  66.715  1.00  0.00    -0.346 A  
HETATM   12  C   UNL     1     -11.506  12.699  66.685  1.00  0.00    -0.351 A  
HETATM   13  C   UNL     1     -11.304  11.983  65.513  1.00  0.00    -0.381 A  
HETATM   14  O   UNL     1     -11.816  11.986  67.807  1.00  0.00    -0.488 OA 
HETATM   15  H   UNL     1     -11.894  11.040  67.787  1.00  0.00     0.000 HD 
HETATM   16  C   UNL     1     -10.996  12.676  64.351  1.00  0.00    -0.351 A  
HETATM   17  O   UNL     1     -10.787  12.033  63.167  1.00  0.00    -0.649 OA 
HETATM   18  C   UNL     1     -10.884  14.063  64.355  1.00  0.00    -0.265 A  
HETATM   19  H   UNL     1     -10.577  12.507  62.371  1.00  0.00     0.000 HD 
ENDBRANCH   7  10
ENDBRANCH   6   7
ENDBRANCH   4   6
ENDBRANCH   2   4
TORSDOF 4
ENDMDL
MODEL       57
REMARK 921   NORMALIZED FREE ENERGY PREDICTED BY IDOCK:   -4.96 KCAL/MOL
REMARK 922        TOTAL FREE ENERGY PREDICTED BY IDOCK:   -6.40 KCAL/MOL
REMARK 923 INTER-LIGAND FREE ENERGY PREDICTED BY IDOCK:   -6.10 KCAL/MOL
REMARK 924 INTRA-LIGAND FREE ENERGY PREDICTED BY IDOCK:   -0.30 KCAL/MOL
REMARK 927      BINDING AFFINITY PREDICTED BY RF-SCORE:    0.00 PKD
ROOT
HETATM    1  C   UNL     1      -8.768  16.198  66.096  1.00  0.00    -0.358 C  
HETATM    2  C   UNL     1     -10.256  16.550  66.081  1.00  0.00    -0.346 C  
HETATM    3  C   UNL     1     -10.427  18.060  66.281  1.00  0.00    -0.340 C  
ENDROOT
BRANCH   2   4
HETATM    4  N   UNL     1     -10.841  16.097  64.811  1.00  0.00    -0.781 NA 
HETATM    5  H   UNL     1     -10.359  16.512  64.013  1.00  0.00     0.000 HD 
BRANCH   4   6
HETATM    6  C   UNL     1     -10.874  14.627  64.709  1.00  0.00    -0.385 C  
BRANCH   6   7
HETATM    7  C   UNL     1     -11.787  13.964  65.768  1.00  0.00    -0.378 C  
HETATM    8  H   UNL     1     -13.697  13.534  65.937  1.00  0.00     0.000 HD 
HETATM    9  O   UNL     1     -13.136  13.941  65.287  1.00  0.00    -0.777 OA 
BRANCH   7  10
HETATM   10  C   UNL     1     -11.359  12.548  66.126  1.00  0.00    -0.388 A  
HETATM   11  C   UNL     1     -11.652  12.034  67.401  1.00  0.00    -0.388 A  
HETATM   12  C   UNL     1     -11.239  10.745  67.746  1.00  0.00    -0.316 A  
HETATM   13  C   UNL     1     -10.545   9.945  66.848  1.00  0.00    -0.248 A  
HETATM   14  O   UNL     1     -11.496  10.222  68.981  1.00  0.00    -0.397 OA 
HETATM   15  H   UNL     1     -11.215   9.346  69.215  1.00  0.00     0.000 HD 
HETATM   16  C   UNL     1     -10.276  10.441  65.581  1.00  0.00    -0.238 A  
HETATM   17  O   UNL     1      -9.600   9.706  64.653  1.00  0.00    -0.419 OA 
HETATM   18  C   UNL     1     -10.684  11.719  65.213  1.00  0.00    -0.338 A  
HETATM   19  H   UNL     1      -9.415  10.046  63.785  1.00  0.00     0.000 HD 
ENDBRANCH   7  10
ENDBRANCH   6   7
ENDBRANCH   4   6
ENDBRANCH   2   4
TORSDOF 4
ENDMDL
MODEL       58
REMARK 921   NORMALIZED FREE ENERGY PREDICTED BY IDOCK:   -4.94 KCAL/MOL
REMARK 922        TOTAL FREE ENERGY PREDICTED BY IDOCK:   -6.38 KCAL/MOL
REMARK 923 INTER-LIGAND FREE ENERGY PREDICTED BY IDOCK:   -5.99 KCAL/MOL
REMARK 924 INTRA-LIGAND FREE ENERGY PREDICTED BY IDOCK:   -0.39 KCAL/MOL
REMARK 927      BINDING AFFINITY PREDICTED BY RF-SCORE:    0.00 PKD
ROOT
HETATM    1  C   UNL     1     -11.637  12.281  64.366  1.00  0.00    -0.428 C  
HETATM    2  C   UNL     1     -11.542  12.898  65.762  1.00  0.00    -0.368 C  
HETATM    3  C   UNL     1     -12.474  14.111  65.851  1.00  0.00    -0.479 C  
ENDROOT
BRANCH   2   4
HETATM    4  N   UNL     1     -11.881  11.874  66.760  1.00  0.00    -0.607 NA 
HETATM    5  H   UNL     1     -11.780  10.934  66.375  1.00  0.00     0.000 HD 
BRANCH   4   6
HETATM    6  C   UNL     1     -11.099  12.028  68.000  1.00  0.00    -0.241 C  
BRANCH   6   7
HETATM    7  C   UNL     1     -11.957  11.892  69.281  1.00  0.00    -0.281 C  
HETATM    8  H   UNL     1     -11.880  10.853  70.947  1.00  0.00     0.000 HD 
HETATM    9  O   UNL     1     -11.352  10.937  70.160  1.00  0.00    -0.293 OA 
BRANCH   7  10
HETATM   10  C   UNL     1     -12.142  13.209  70.021  1.00  0.00    -0.375 A  
HETATM   11  C   UNL     1     -11.571  14.385  69.502  1.00  0.00    -0.352 A  
HETATM   12  C   UNL     1     -11.714  15.593  70.189  1.00  0.00    -0.360 A  
HETATM   13  C   UNL     1     -12.420  15.665  71.383  1.00  0.00    -0.500 A  
HETATM   14  O   UNL     1     -11.160  16.749  69.720  1.00  0.00    -0.397 OA 
HETATM   15  H   UNL     1     -11.256  17.570  70.187  1.00  0.00     0.000 HD 
HETATM   16  C   UNL     1     -13.004  14.512  71.884  1.00  0.00    -0.341 A  
HETATM   17  O   UNL     1     -13.712  14.515  73.050  1.00  0.00    -0.573 OA 
HETATM   18  C   UNL     1     -12.882  13.299  71.213  1.00  0.00    -0.398 A  
HETATM   19  H   UNL     1     -14.112  13.725  73.394  1.00  0.00     0.000 HD 
ENDBRANCH   7  10
ENDBRANCH   6   7
ENDBRANCH   4   6
ENDBRANCH   2   4
TORSDOF 4
ENDMDL
MODEL       59
REMARK 921   NORMALIZED FREE ENERGY PREDICTED BY IDOCK:   -4.93 KCAL/MOL
REMARK 922        TOTAL FREE ENERGY PREDICTED BY IDOCK:   -6.37 KCAL/MOL
REMARK 923 INTER-LIGAND FREE ENERGY PREDICTED BY IDOCK:   -6.05 KCAL/MOL
REMARK 924 INTRA-LIGAND FREE ENERGY PREDICTED BY IDOCK:   -0.32 KCAL/MOL
REMARK 927      BINDING AFFINITY PREDICTED BY RF-SCORE:    0.00 PKD
ROOT
HETATM    1  C   UNL     1      -8.785  16.132  66.071  1.00  0.00    -0.282 C  
HETATM    2  C   UNL     1     -10.275  16.475  66.066  1.00  0.00    -0.356 C  
HETATM    3  C   UNL     1     -10.455  17.981  66.285  1.00  0.00    -0.340 C  
ENDROOT
BRANCH   2   4
HETATM    4  N   UNL     1     -10.862  16.033  64.793  1.00  0.00    -0.765 NA 
HETATM    5  H   UNL     1     -10.341  16.402  63.997  1.00  0.00     0.000 HD 
BRANCH   4   6
HETATM    6  C   UNL     1     -10.982  14.566  64.718  1.00  0.00    -0.391 C  
BRANCH   6   7
HETATM    7  C   UNL     1     -11.920  13.976  65.797  1.00  0.00    -0.404 C  
HETATM    8  H   UNL     1     -13.831  13.543  65.946  1.00  0.00     0.000 HD 
HETATM    9  O   UNL     1     -13.255  13.905  65.282  1.00  0.00    -0.774 OA 
BRANCH   7  10
HETATM   10  C   UNL     1     -11.492  12.594  66.272  1.00  0.00    -0.415 A  
HETATM   11  C   UNL     1     -10.778  11.750  65.403  1.00  0.00    -0.333 A  
HETATM   12  C   UNL     1     -10.405  10.471  65.822  1.00  0.00    -0.200 A  
HETATM   13  C   UNL     1     -10.717  10.008  67.094  1.00  0.00    -0.279 A  
HETATM   14  O   UNL     1      -9.725   9.622  64.998  1.00  0.00    -0.395 OA 
HETATM   15  H   UNL     1      -9.471   8.752  65.282  1.00  0.00     0.000 HD 
HETATM   16  C   UNL     1     -11.400  10.848  67.961  1.00  0.00    -0.312 A  
HETATM   17  O   UNL     1     -11.735  10.455  69.223  1.00  0.00    -0.420 OA 
HETATM   18  C   UNL     1     -11.775  12.129  67.568  1.00  0.00    -0.385 A  
HETATM   19  H   UNL     1     -12.203  11.030  69.818  1.00  0.00     0.000 HD 
ENDBRANCH   7  10
ENDBRANCH   6   7
ENDBRANCH   4   6
ENDBRANCH   2   4
TORSDOF 4
ENDMDL
MODEL       60
REMARK 921   NORMALIZED FREE ENERGY PREDICTED BY IDOCK:   -4.93 KCAL/MOL
REMARK 922        TOTAL FREE ENERGY PREDICTED BY IDOCK:   -6.36 KCAL/MOL
REMARK 923 INTER-LIGAND FREE ENERGY PREDICTED BY IDOCK:   -6.28 KCAL/MOL
REMARK 924 INTRA-LIGAND FREE ENERGY PREDICTED BY IDOCK:   -0.09 KCAL/MOL
REMARK 927      BINDING AFFINITY PREDICTED BY RF-SCORE:    0.00 PKD
ROOT
HETATM    1  C   UNL     1     -13.421  14.173  71.525  1.00  0.00    -0.419 C  
HETATM    2  C   UNL     1     -12.860  15.227  70.570  1.00  0.00    -0.373 C  
HETATM    3  C   UNL     1     -11.727  15.993  71.261  1.00  0.00    -0.516 C  
ENDROOT
BRANCH   2   4
HETATM    4  N   UNL     1     -12.401  14.563  69.342  1.00  0.00    -0.541 NA 
HETATM    5  H   UNL     1     -11.705  15.127  68.854  1.00  0.00     0.000 HD 
BRANCH   4   6
HETATM    6  C   UNL     1     -11.898  13.202  69.601  1.00  0.00    -0.324 C  
BRANCH   6   7
HETATM    7  C   UNL     1     -11.227  12.556  68.366  1.00  0.00    -0.272 C  
HETATM    8  H   UNL     1     -11.592  11.038  67.174  1.00  0.00     0.000 HD 
HETATM    9  O   UNL     1     -12.005  11.435  67.933  1.00  0.00    -0.626 OA 
BRANCH   7  10
HETATM   10  C   UNL     1     -11.053  13.524  67.204  1.00  0.00    -0.308 A  
HETATM   11  C   UNL     1      -9.917  14.352  67.152  1.00  0.00    -0.253 A  
HETATM   12  C   UNL     1      -9.763  15.261  66.103  1.00  0.00    -0.314 A  
HETATM   13  C   UNL     1     -10.710  15.364  65.092  1.00  0.00    -0.460 A  
HETATM   14  O   UNL     1      -8.680  16.089  66.031  1.00  0.00    -0.331 OA 
HETATM   15  H   UNL     1      -8.575  16.707  65.318  1.00  0.00     0.000 HD 
HETATM   16  C   UNL     1     -11.819  14.532  65.128  1.00  0.00    -0.374 A  
HETATM   17  O   UNL     1     -12.785  14.582  64.168  1.00  0.00    -0.711 OA 
HETATM   18  C   UNL     1     -11.990  13.614  66.160  1.00  0.00    -0.453 A  
HETATM   19  H   UNL     1     -13.545  14.012  64.192  1.00  0.00     0.000 HD 
ENDBRANCH   7  10
ENDBRANCH   6   7
ENDBRANCH   4   6
ENDBRANCH   2   4
TORSDOF 4
ENDMDL
MODEL       61
REMARK 921   NORMALIZED FREE ENERGY PREDICTED BY IDOCK:   -4.93 KCAL/MOL
REMARK 922        TOTAL FREE ENERGY PREDICTED BY IDOCK:   -6.36 KCAL/MOL
REMARK 923 INTER-LIGAND FREE ENERGY PREDICTED BY IDOCK:   -6.13 KCAL/MOL
REMARK 924 INTRA-LIGAND FREE ENERGY PREDICTED BY IDOCK:   -0.23 KCAL/MOL
REMARK 927      BINDING AFFINITY PREDICTED BY RF-SCORE:    0.00 PKD
ROOT
HETATM    1  C   UNL     1      -6.376  19.272  65.430  1.00  0.00    -0.303 C  
HETATM    2  C   UNL     1      -7.390  19.472  66.556  1.00  0.00    -0.240 C  
HETATM    3  C   UNL     1      -7.266  20.894  67.111  1.00  0.00    -0.395 C  
ENDROOT
BRANCH   2   4
HETATM    4  N   UNL     1      -8.738  19.201  66.039  1.00  0.00    -0.459 NA 
HETATM    5  H   UNL     1      -8.728  19.079  65.026  1.00  0.00     0.000 HD 
BRANCH   4   6
HETATM    6  C   UNL     1      -9.369  18.050  66.709  1.00  0.00    -0.284 C  
BRANCH   6   7
HETATM    7  C   UNL     1      -9.052  16.699  66.024  1.00  0.00    -0.224 C  
HETATM    8  H   UNL     1      -7.792  15.218  66.305  1.00  0.00     0.000 HD 
HETATM    9  O   UNL     1      -7.987  16.048  66.725  1.00  0.00    -0.225 OA 
BRANCH   7  10
HETATM   10  C   UNL     1     -10.253  15.765  65.958  1.00  0.00    -0.352 A  
HETATM   11  C   UNL     1     -10.792  15.413  64.708  1.00  0.00    -0.385 A  
HETATM   12  C   UNL     1     -11.909  14.577  64.639  1.00  0.00    -0.453 A  
HETATM   13  C   UNL     1     -12.504  14.072  65.789  1.00  0.00    -0.523 A  
HETATM   14  O   UNL     1     -12.465  14.228  63.443  1.00  0.00    -1.125 OA 
HETATM   15  H   UNL     1     -13.225  13.661  63.397  1.00  0.00     0.000 HD 
HETATM   16  C   UNL     1     -11.959  14.399  67.022  1.00  0.00    -0.395 A  
HETATM   17  O   UNL     1     -12.494  13.936  68.187  1.00  0.00    -0.442 OA 
HETATM   18  C   UNL     1     -10.842  15.223  67.113  1.00  0.00    -0.322 A  
HETATM   19  H   UNL     1     -12.121  14.159  69.032  1.00  0.00     0.000 HD 
ENDBRANCH   7  10
ENDBRANCH   6   7
ENDBRANCH   4   6
ENDBRANCH   2   4
TORSDOF 4
ENDMDL
MODEL       62
REMARK 921   NORMALIZED FREE ENERGY PREDICTED BY IDOCK:   -4.92 KCAL/MOL
REMARK 922        TOTAL FREE ENERGY PREDICTED BY IDOCK:   -6.35 KCAL/MOL
REMARK 923 INTER-LIGAND FREE ENERGY PREDICTED BY IDOCK:   -6.10 KCAL/MOL
REMARK 924 INTRA-LIGAND FREE ENERGY PREDICTED BY IDOCK:   -0.25 KCAL/MOL
REMARK 927      BINDING AFFINITY PREDICTED BY RF-SCORE:    0.00 PKD
ROOT
HETATM    1  C   UNL     1     -12.194  16.090  72.714  1.00  0.00    -0.617 C  
HETATM    2  C   UNL     1     -12.872  15.065  71.805  1.00  0.00    -0.338 C  
HETATM    3  C   UNL     1     -14.379  15.049  72.084  1.00  0.00    -0.622 C  
ENDROOT
BRANCH   2   4
HETATM    4  N   UNL     1     -12.579  15.401  70.404  1.00  0.00    -0.515 NA 
HETATM    5  H   UNL     1     -13.390  15.819  69.947  1.00  0.00     0.000 HD 
BRANCH   4   6
HETATM    6  C   UNL     1     -11.392  16.265  70.278  1.00  0.00    -0.287 C  
BRANCH   6   7
HETATM    7  C   UNL     1     -10.441  15.828  69.138  1.00  0.00    -0.240 C  
HETATM    8  H   UNL     1     -10.221  14.249  67.990  1.00  0.00     0.000 HD 
HETATM    9  O   UNL     1     -10.805  14.518  68.689  1.00  0.00    -0.236 OA 
BRANCH   7  10
HETATM   10  C   UNL     1     -10.447  16.783  67.953  1.00  0.00    -0.335 A  
HETATM   11  C   UNL     1     -10.193  18.151  68.161  1.00  0.00    -0.400 A  
HETATM   12  C   UNL     1     -10.223  19.039  67.083  1.00  0.00    -0.388 A  
HETATM   13  C   UNL     1     -10.491  18.598  65.793  1.00  0.00    -0.294 A  
HETATM   14  O   UNL     1      -9.995  20.373  67.253  1.00  0.00    -0.435 OA 
HETATM   15  H   UNL     1     -10.016  20.977  66.520  1.00  0.00     0.000 HD 
HETATM   16  C   UNL     1     -10.717  17.246  65.582  1.00  0.00    -0.120 A  
HETATM   17  O   UNL     1     -10.985  16.749  64.341  1.00  0.00    -1.098 OA 
HETATM   18  C   UNL     1     -10.685  16.343  66.640  1.00  0.00    -0.173 A  
HETATM   19  H   UNL     1     -11.140  15.823  64.196  1.00  0.00     0.000 HD 
ENDBRANCH   7  10
ENDBRANCH   6   7
ENDBRANCH   4   6
ENDBRANCH   2   4
TORSDOF 4
ENDMDL
MODEL       63
REMARK 921   NORMALIZED FREE ENERGY PREDICTED BY IDOCK:   -4.91 KCAL/MOL
REMARK 922        TOTAL FREE ENERGY PREDICTED BY IDOCK:   -6.34 KCAL/MOL
REMARK 923 INTER-LIGAND FREE ENERGY PREDICTED BY IDOCK:   -6.15 KCAL/MOL
REMARK 924 INTRA-LIGAND FREE ENERGY PREDICTED BY IDOCK:   -0.19 KCAL/MOL
REMARK 927      BINDING AFFINITY PREDICTED BY RF-SCORE:    0.00 PKD
ROOT
HETATM    1  C   UNL     1     -13.653   7.008  71.587  1.00  0.00    -0.346 C  
HETATM    2  C   UNL     1     -12.910   8.296  71.945  1.00  0.00    -0.344 C  
HETATM    3  C   UNL     1     -11.509   7.952  72.461  1.00  0.00    -0.455 C  
ENDROOT
BRANCH   2   4
HETATM    4  N   UNL     1     -12.859   9.164  70.760  1.00  0.00    -0.498 NA 
HETATM    5  H   UNL     1     -13.491   8.832  70.032  1.00  0.00     0.000 HD 
BRANCH   4   6
HETATM    6  C   UNL     1     -13.124  10.574  71.094  1.00  0.00    -0.358 C  
BRANCH   6   7
HETATM    7  C   UNL     1     -12.192  11.561  70.351  1.00  0.00    -0.355 C  
HETATM    8  H   UNL     1     -11.778  11.998  68.481  1.00  0.00     0.000 HD 
HETATM    9  O   UNL     1     -12.350  11.392  68.937  1.00  0.00    -0.446 OA 
BRANCH   7  10
HETATM   10  C   UNL     1     -12.450  13.017  70.713  1.00  0.00    -0.384 A  
HETATM   11  C   UNL     1     -12.915  13.342  72.000  1.00  0.00    -0.401 A  
HETATM   12  C   UNL     1     -13.179  14.673  72.332  1.00  0.00    -0.406 A  
HETATM   13  C   UNL     1     -12.983  15.697  71.415  1.00  0.00    -0.555 A  
HETATM   14  O   UNL     1     -13.645  15.019  73.567  1.00  0.00    -0.569 OA 
HETATM   15  H   UNL     1     -13.824  15.924  73.793  1.00  0.00     0.000 HD 
HETATM   16  C   UNL     1     -12.501  15.382  70.154  1.00  0.00    -0.335 A  
HETATM   17  O   UNL     1     -12.286  16.341  69.208  1.00  0.00    -0.302 OA 
HETATM   18  C   UNL     1     -12.224  14.064  69.803  1.00  0.00    -0.396 A  
HETATM   19  H   UNL     1     -11.956  16.125  68.344  1.00  0.00     0.000 HD 
ENDBRANCH   7  10
ENDBRANCH   6   7
ENDBRANCH   4   6
ENDBRANCH   2   4
TORSDOF 4
ENDMDL
MODEL       64
REMARK 921   NORMALIZED FREE ENERGY PREDICTED BY IDOCK:   -4.90 KCAL/MOL
REMARK 922        TOTAL FREE ENERGY PREDICTED BY IDOCK:   -6.33 KCAL/MOL
REMARK 923 INTER-LIGAND FREE ENERGY PREDICTED BY IDOCK:   -6.15 KCAL/MOL
REMARK 924 INTRA-LIGAND FREE ENERGY PREDICTED BY IDOCK:   -0.19 KCAL/MOL
REMARK 927      BINDING AFFINITY PREDICTED BY RF-SCORE:    0.00 PKD
ROOT
HETATM    1  C   UNL     1     -10.684  11.783  65.659  1.00  0.00    -0.328 C  
HETATM    2  C   UNL     1     -11.317  12.572  66.806  1.00  0.00    -0.334 C  
HETATM    3  C   UNL     1     -12.125  13.743  66.239  1.00  0.00    -0.484 C  
ENDROOT
BRANCH   2   4
HETATM    4  N   UNL     1     -12.154  11.665  67.604  1.00  0.00    -0.573 NA 
HETATM    5  H   UNL     1     -12.819  11.162  67.016  1.00  0.00     0.000 HD 
BRANCH   4   6
HETATM    6  C   UNL     1     -11.348  10.734  68.414  1.00  0.00    -0.302 C  
BRANCH   6   7
HETATM    7  C   UNL     1     -11.173  11.198  69.880  1.00  0.00    -0.217 C  
HETATM    8  H   UNL     1     -11.900  12.622  71.023  1.00  0.00     0.000 HD 
HETATM    9  O   UNL     1     -12.008  12.336  70.123  1.00  0.00    -0.334 OA 
BRANCH   7  10
HETATM   10  C   UNL     1     -11.499  10.112  70.895  1.00  0.00    -0.444 A  
HETATM   11  C   UNL     1     -12.791  10.039  71.446  1.00  0.00    -0.519 A  
HETATM   12  C   UNL     1     -13.091   9.062  72.398  1.00  0.00    -0.423 A  
HETATM   13  C   UNL     1     -12.136   8.142  72.812  1.00  0.00    -0.208 A  
HETATM   14  O   UNL     1     -14.330   8.974  72.962  1.00  0.00    -1.108 OA 
HETATM   15  H   UNL     1     -14.534   8.310  73.609  1.00  0.00     0.000 HD 
HETATM   16  C   UNL     1     -10.868   8.196  72.253  1.00  0.00    -0.320 A  
HETATM   17  O   UNL     1      -9.887   7.322  72.616  1.00  0.00    -0.156 OA 
HETATM   18  C   UNL     1     -10.549   9.157  71.298  1.00  0.00    -0.399 A  
HETATM   19  H   UNL     1      -9.018   7.359  72.233  1.00  0.00     0.000 HD 
ENDBRANCH   7  10
ENDBRANCH   6   7
ENDBRANCH   4   6
ENDBRANCH   2   4
TORSDOF 4
ENDMDL
MODEL       65
REMARK 921   NORMALIZED FREE ENERGY PREDICTED BY IDOCK:   -4.90 KCAL/MOL
REMARK 922        TOTAL FREE ENERGY PREDICTED BY IDOCK:   -6.33 KCAL/MOL
REMARK 923 INTER-LIGAND FREE ENERGY PREDICTED BY IDOCK:   -6.12 KCAL/MOL
REMARK 924 INTRA-LIGAND FREE ENERGY PREDICTED BY IDOCK:   -0.21 KCAL/MOL
REMARK 927      BINDING AFFINITY PREDICTED BY RF-SCORE:    0.00 PKD
ROOT
HETATM    1  C   UNL     1     -10.945   5.521  73.418  1.00  0.00    -0.324 C  
HETATM    2  C   UNL     1     -10.671   6.680  72.459  1.00  0.00    -0.229 C  
HETATM    3  C   UNL     1     -10.837   6.199  71.014  1.00  0.00    -0.338 C  
ENDROOT
BRANCH   2   4
HETATM    4  N   UNL     1     -11.584   7.788  72.775  1.00  0.00    -0.558 NA 
HETATM    5  H   UNL     1     -11.398   8.166  73.704  1.00  0.00     0.000 HD 
BRANCH   4   6
HETATM    6  C   UNL     1     -11.547   8.846  71.750  1.00  0.00    -0.352 C  
BRANCH   6   7
HETATM    7  C   UNL     1     -12.914   9.543  71.546  1.00  0.00    -0.386 C  
HETATM    8  H   UNL     1     -14.598   9.702  72.546  1.00  0.00     0.000 HD 
HETATM    9  O   UNL     1     -13.759   9.274  72.671  1.00  0.00    -0.450 OA 
BRANCH   7  10
HETATM   10  C   UNL     1     -12.796  11.049  71.357  1.00  0.00    -0.548 A  
HETATM   11  C   UNL     1     -11.952  11.561  70.355  1.00  0.00    -0.459 A  
HETATM   12  C   UNL     1     -11.818  12.942  70.192  1.00  0.00    -0.245 A  
HETATM   13  C   UNL     1     -12.513  13.834  70.999  1.00  0.00    -0.458 A  
HETATM   14  O   UNL     1     -10.997  13.470  69.239  1.00  0.00    -0.372 OA 
HETATM   15  H   UNL     1     -10.906  14.408  69.129  1.00  0.00     0.000 HD 
HETATM   16  C   UNL     1     -13.364  13.332  71.972  1.00  0.00    -0.489 A  
HETATM   17  O   UNL     1     -14.074  14.153  72.796  1.00  0.00    -0.610 OA 
HETATM   18  C   UNL     1     -13.519  11.960  72.147  1.00  0.00    -0.300 A  
HETATM   19  H   UNL     1     -14.658  13.810  73.463  1.00  0.00     0.000 HD 
ENDBRANCH   7  10
ENDBRANCH   6   7
ENDBRANCH   4   6
ENDBRANCH   2   4
TORSDOF 4
ENDMDL
MODEL       66
REMARK 921   NORMALIZED FREE ENERGY PREDICTED BY IDOCK:   -4.87 KCAL/MOL
REMARK 922        TOTAL FREE ENERGY PREDICTED BY IDOCK:   -6.29 KCAL/MOL
REMARK 923 INTER-LIGAND FREE ENERGY PREDICTED BY IDOCK:   -6.02 KCAL/MOL
REMARK 924 INTRA-LIGAND FREE ENERGY PREDICTED BY IDOCK:   -0.27 KCAL/MOL
REMARK 927      BINDING AFFINITY PREDICTED BY RF-SCORE:    0.00 PKD
ROOT
HETATM    1  C   UNL     1     -10.425  10.977  64.241  1.00  0.00    -0.427 C  
HETATM    2  C   UNL     1     -10.752  12.356  63.665  1.00  0.00    -0.455 C  
HETATM    3  C   UNL     1     -12.271  12.516  63.549  1.00  0.00    -0.652 C  
ENDROOT
BRANCH   2   4
HETATM    4  N   UNL     1     -10.157  13.387  64.527  1.00  0.00    -0.634 NA 
HETATM    5  H   UNL     1      -9.293  13.752  64.125  1.00  0.00     0.000 HD 
BRANCH   4   6
HETATM    6  C   UNL     1     -11.106  14.474  64.827  1.00  0.00    -0.391 C  
BRANCH   6   7
HETATM    7  C   UNL     1     -11.178  14.819  66.334  1.00  0.00    -0.342 C  
HETATM    8  H   UNL     1     -10.769  13.911  68.027  1.00  0.00     0.000 HD 
HETATM    9  O   UNL     1     -10.724  13.699  67.102  1.00  0.00    -0.273 OA 
BRANCH   7  10
HETATM   10  C   UNL     1     -10.360  16.047  66.707  1.00  0.00    -0.300 A  
HETATM   11  C   UNL     1     -10.759  16.846  67.793  1.00  0.00    -0.315 A  
HETATM   12  C   UNL     1     -10.028  17.989  68.126  1.00  0.00    -0.353 A  
HETATM   13  C   UNL     1      -8.898  18.357  67.407  1.00  0.00    -0.262 A  
HETATM   14  O   UNL     1     -10.397  18.793  69.165  1.00  0.00    -0.506 OA 
HETATM   15  H   UNL     1      -9.901  19.570  69.390  1.00  0.00     0.000 HD 
HETATM   16  C   UNL     1      -8.488  17.557  66.351  1.00  0.00    -0.252 A  
HETATM   17  O   UNL     1      -7.387  17.862  65.606  1.00  0.00    -0.533 OA 
HETATM   18  C   UNL     1      -9.196  16.410  66.006  1.00  0.00    -0.328 A  
HETATM   19  H   UNL     1      -7.106  17.314  64.882  1.00  0.00     0.000 HD 
ENDBRANCH   7  10
ENDBRANCH   6   7
ENDBRANCH   4   6
ENDBRANCH   2   4
TORSDOF 4
ENDMDL
MODEL       67
REMARK 921   NORMALIZED FREE ENERGY PREDICTED BY IDOCK:   -4.85 KCAL/MOL
REMARK 922        TOTAL FREE ENERGY PREDICTED BY IDOCK:   -6.26 KCAL/MOL
REMARK 923 INTER-LIGAND FREE ENERGY PREDICTED BY IDOCK:   -5.97 KCAL/MOL
REMARK 924 INTRA-LIGAND FREE ENERGY PREDICTED BY IDOCK:   -0.30 KCAL/MOL
REMARK 927      BINDING AFFINITY PREDICTED BY RF-SCORE:    0.00 PKD
ROOT
HETATM    1  C   UNL     1     -12.625  12.011  63.937  1.00  0.00    -0.517 C  
HETATM    2  C   UNL     1     -11.922  12.797  65.045  1.00  0.00    -0.412 C  
HETATM    3  C   UNL     1     -12.778  14.005  65.439  1.00  0.00    -0.499 C  
ENDROOT
BRANCH   2   4
HETATM    4  N   UNL     1     -11.680  11.903  66.185  1.00  0.00    -0.496 NA 
HETATM    5  H   UNL     1     -11.119  11.096  65.910  1.00  0.00     0.000 HD 
BRANCH   4   6
HETATM    6  C   UNL     1     -11.072  12.610  67.326  1.00  0.00    -0.278 C  
BRANCH   6   7
HETATM    7  C   UNL     1     -11.560  12.086  68.697  1.00  0.00    -0.319 C  
HETATM    8  H   UNL     1     -10.848  10.934  70.121  1.00  0.00     0.000 HD 
HETATM    9  O   UNL     1     -10.548  11.256  69.278  1.00  0.00    -0.212 OA 
BRANCH   7  10
HETATM   10  C   UNL     1     -11.915  13.201  69.672  1.00  0.00    -0.370 A  
HETATM   11  C   UNL     1     -12.766  12.930  70.759  1.00  0.00    -0.229 A  
HETATM   12  C   UNL     1     -13.117  13.953  71.642  1.00  0.00    -0.367 A  
HETATM   13  C   UNL     1     -12.634  15.245  71.479  1.00  0.00    -0.442 A  
HETATM   14  O   UNL     1     -13.952  13.727  72.698  1.00  0.00    -0.710 OA 
HETATM   15  H   UNL     1     -14.191  14.423  73.298  1.00  0.00     0.000 HD 
HETATM   16  C   UNL     1     -11.775  15.509  70.423  1.00  0.00    -0.339 A  
HETATM   17  O   UNL     1     -11.265  16.755  70.207  1.00  0.00    -0.466 OA 
HETATM   18  C   UNL     1     -11.405  14.504  69.534  1.00  0.00    -0.313 A  
HETATM   19  H   UNL     1     -10.676  16.936  69.484  1.00  0.00     0.000 HD 
ENDBRANCH   7  10
ENDBRANCH   6   7
ENDBRANCH   4   6
ENDBRANCH   2   4
TORSDOF 4
ENDMDL
MODEL       68
REMARK 921   NORMALIZED FREE ENERGY PREDICTED BY IDOCK:   -4.85 KCAL/MOL
REMARK 922        TOTAL FREE ENERGY PREDICTED BY IDOCK:   -6.26 KCAL/MOL
REMARK 923 INTER-LIGAND FREE ENERGY PREDICTED BY IDOCK:   -5.93 KCAL/MOL
REMARK 924 INTRA-LIGAND FREE ENERGY PREDICTED BY IDOCK:   -0.33 KCAL/MOL
REMARK 927      BINDING AFFINITY PREDICTED BY RF-SCORE:    0.00 PKD
ROOT
HETATM    1  C   UNL     1     -11.349   6.840  70.475  1.00  0.00    -0.394 C  
HETATM    2  C   UNL     1     -11.629   8.301  70.828  1.00  0.00    -0.236 C  
HETATM    3  C   UNL     1     -10.676   8.751  71.940  1.00  0.00    -0.429 C  
ENDROOT
BRANCH   2   4
HETATM    4  N   UNL     1     -11.483   9.122  69.617  1.00  0.00    -0.428 NA 
HETATM    5  H   UNL     1     -12.388   9.305  69.183  1.00  0.00     0.000 HD 
BRANCH   4   6
HETATM    6  C   UNL     1     -10.755  10.376  69.882  1.00  0.00    -0.279 C  
BRANCH   6   7
HETATM    7  C   UNL     1     -11.246  11.559  69.014  1.00  0.00    -0.262 C  
HETATM    8  H   UNL     1     -12.424  11.795  67.459  1.00  0.00     0.000 HD 
HETATM    9  O   UNL     1     -12.122  11.069  67.992  1.00  0.00    -0.615 OA 
BRANCH   7  10
HETATM   10  C   UNL     1     -11.965  12.633  69.818  1.00  0.00    -0.365 A  
HETATM   11  C   UNL     1     -11.991  13.957  69.344  1.00  0.00    -0.402 A  
HETATM   12  C   UNL     1     -12.626  14.953  70.089  1.00  0.00    -0.264 A  
HETATM   13  C   UNL     1     -13.248  14.665  71.296  1.00  0.00    -0.432 A  
HETATM   14  O   UNL     1     -12.656  16.250  69.663  1.00  0.00    -0.409 OA 
HETATM   15  H   UNL     1     -13.087  16.927  70.170  1.00  0.00     0.000 HD 
HETATM   16  C   UNL     1     -13.245  13.356  71.754  1.00  0.00    -0.407 A  
HETATM   17  O   UNL     1     -13.839  13.007  72.931  1.00  0.00    -0.658 OA 
HETATM   18  C   UNL     1     -12.625  12.346  71.025  1.00  0.00    -0.349 A  
HETATM   19  H   UNL     1     -13.837  12.110  73.245  1.00  0.00     0.000 HD 
ENDBRANCH   7  10
ENDBRANCH   6   7
ENDBRANCH   4   6
ENDBRANCH   2   4
TORSDOF 4
ENDMDL
MODEL       69
REMARK 921   NORMALIZED FREE ENERGY PREDICTED BY IDOCK:   -4.84 KCAL/MOL
REMARK 922        TOTAL FREE ENERGY PREDICTED BY IDOCK:   -6.25 KCAL/MOL
REMARK 923 INTER-LIGAND FREE ENERGY PREDICTED BY IDOCK:   -6.04 KCAL/MOL
REMARK 924 INTRA-LIGAND FREE ENERGY PREDICTED BY IDOCK:   -0.21 KCAL/MOL
REMARK 927      BINDING AFFINITY PREDICTED BY RF-SCORE:    0.00 PKD
ROOT
HETATM    1  C   UNL     1     -11.095   5.252  73.325  1.00  0.00    -0.376 C  
HETATM    2  C   UNL     1     -10.850   6.403  72.350  1.00  0.00    -0.236 C  
HETATM    3  C   UNL     1     -11.099   5.923  70.917  1.00  0.00    -0.312 C  
ENDROOT
BRANCH   2   4
HETATM    4  N   UNL     1     -11.723   7.529  72.710  1.00  0.00    -0.575 NA 
HETATM    5  H   UNL     1     -11.581   7.812  73.679  1.00  0.00     0.000 HD 
BRANCH   4   6
HETATM    6  C   UNL     1     -11.563   8.671  71.792  1.00  0.00    -0.332 C  
BRANCH   6   7
HETATM    7  C   UNL     1     -12.903   9.357  71.435  1.00  0.00    -0.345 C  
HETATM    8  H   UNL     1     -14.678   9.536  72.259  1.00  0.00     0.000 HD 
HETATM    9  O   UNL     1     -13.855   9.115  72.478  1.00  0.00    -0.475 OA 
BRANCH   7  10
HETATM   10  C   UNL     1     -12.768  10.858  71.219  1.00  0.00    -0.542 A  
HETATM   11  C   UNL     1     -13.440  11.748  72.077  1.00  0.00    -0.319 A  
HETATM   12  C   UNL     1     -13.342  13.126  71.869  1.00  0.00    -0.455 A  
HETATM   13  C   UNL     1     -12.582  13.647  70.830  1.00  0.00    -0.421 A  
HETATM   14  O   UNL     1     -13.993  14.015  72.675  1.00  0.00    -0.654 OA 
HETATM   15  H   UNL     1     -13.927  14.952  72.533  1.00  0.00     0.000 HD 
HETATM   16  C   UNL     1     -11.899  12.773  69.998  1.00  0.00    -0.281 A  
HETATM   17  O   UNL     1     -11.136  13.219  68.961  1.00  0.00    -0.255 OA 
HETATM   18  C   UNL     1     -11.976  11.396  70.190  1.00  0.00    -0.460 A  
HETATM   19  H   UNL     1     -10.667  12.620  68.390  1.00  0.00     0.000 HD 
ENDBRANCH   7  10
ENDBRANCH   6   7
ENDBRANCH   4   6
ENDBRANCH   2   4
TORSDOF 4
ENDMDL
MODEL       70
REMARK 921   NORMALIZED FREE ENERGY PREDICTED BY IDOCK:   -4.83 KCAL/MOL
REMARK 922        TOTAL FREE ENERGY PREDICTED BY IDOCK:   -6.25 KCAL/MOL
REMARK 923 INTER-LIGAND FREE ENERGY PREDICTED BY IDOCK:   -6.00 KCAL/MOL
REMARK 924 INTRA-LIGAND FREE ENERGY PREDICTED BY IDOCK:   -0.24 KCAL/MOL
REMARK 927      BINDING AFFINITY PREDICTED BY RF-SCORE:    0.00 PKD
ROOT
HETATM    1  C   UNL     1     -13.209  13.726  71.979  1.00  0.00    -0.520 C  
HETATM    2  C   UNL     1     -13.145  15.226  71.689  1.00  0.00    -0.425 C  
HETATM    3  C   UNL     1     -12.049  15.867  72.546  1.00  0.00    -0.611 C  
ENDROOT
BRANCH   2   4
HETATM    4  N   UNL     1     -12.904  15.426  70.253  1.00  0.00    -0.646 NA 
HETATM    5  H   UNL     1     -12.385  16.287  70.082  1.00  0.00     0.000 HD 
BRANCH   4   6
HETATM    6  C   UNL     1     -12.232  14.267  69.637  1.00  0.00    -0.323 C  
BRANCH   6   7
HETATM    7  C   UNL     1     -12.031  14.421  68.111  1.00  0.00    -0.285 C  
HETATM    8  H   UNL     1     -11.024  15.614  66.917  1.00  0.00     0.000 HD 
HETATM    9  O   UNL     1     -11.148  15.519  67.855  1.00  0.00    -0.303 OA 
BRANCH   7  10
HETATM   10  C   UNL     1     -11.477  13.167  67.450  1.00  0.00    -0.375 A  
HETATM   11  C   UNL     1     -10.813  13.266  66.214  1.00  0.00    -0.293 A  
HETATM   12  C   UNL     1     -10.325  12.117  65.589  1.00  0.00    -0.257 A  
HETATM   13  C   UNL     1     -10.472  10.863  66.168  1.00  0.00    -0.290 A  
HETATM   14  O   UNL     1      -9.689  12.178  64.383  1.00  0.00    -0.456 OA 
HETATM   15  H   UNL     1      -9.358  11.397  63.957  1.00  0.00     0.000 HD 
HETATM   16  C   UNL     1     -11.104  10.765  67.398  1.00  0.00    -0.296 A  
HETATM   17  O   UNL     1     -11.280   9.565  68.020  1.00  0.00    -0.522 OA 
HETATM   18  C   UNL     1     -11.592  11.898  68.043  1.00  0.00    -0.401 A  
HETATM   19  H   UNL     1     -11.713   9.497  68.863  1.00  0.00     0.000 HD 
ENDBRANCH   7  10
ENDBRANCH   6   7
ENDBRANCH   4   6
ENDBRANCH   2   4
TORSDOF 4
ENDMDL
MODEL       71
REMARK 921   NORMALIZED FREE ENERGY PREDICTED BY IDOCK:   -4.82 KCAL/MOL
REMARK 922        TOTAL FREE ENERGY PREDICTED BY IDOCK:   -6.23 KCAL/MOL
REMARK 923 INTER-LIGAND FREE ENERGY PREDICTED BY IDOCK:   -5.68 KCAL/MOL
REMARK 924 INTRA-LIGAND FREE ENERGY PREDICTED BY IDOCK:   -0.55 KCAL/MOL
REMARK 927      BINDING AFFINITY PREDICTED BY RF-SCORE:    0.00 PKD
ROOT
HETATM    1  C   UNL     1      -8.659  12.737  67.650  1.00  0.00    -0.181 C  
HETATM    2  C   UNL     1      -9.152  11.705  66.635  1.00  0.00    -0.194 C  
HETATM    3  C   UNL     1     -10.343  10.939  67.219  1.00  0.00    -0.255 C  
ENDROOT
BRANCH   2   4
HETATM    4  N   UNL     1      -9.504  12.395  65.386  1.00  0.00    -0.448 NA 
HETATM    5  H   UNL     1      -8.800  12.237  64.665  1.00  0.00     0.000 HD 
BRANCH   4   6
HETATM    6  C   UNL     1     -10.849  12.025  64.908  1.00  0.00    -0.301 C  
BRANCH   6   7
HETATM    7  C   UNL     1     -11.796  13.239  64.756  1.00  0.00    -0.371 C  
HETATM    8  H   UNL     1     -13.731  13.561  64.865  1.00  0.00     0.000 HD 
HETATM    9  O   UNL     1     -13.149  12.816  64.958  1.00  0.00    -0.811 OA 
BRANCH   7  10
HETATM   10  C   UNL     1     -11.476  14.373  65.721  1.00  0.00    -0.335 A  
HETATM   11  C   UNL     1     -10.651  15.432  65.301  1.00  0.00    -0.450 A  
HETATM   12  C   UNL     1     -10.332  16.462  66.188  1.00  0.00    -0.344 A  
HETATM   13  C   UNL     1     -10.821  16.473  67.488  1.00  0.00    -0.237 A  
HETATM   14  O   UNL     1      -9.522  17.496  65.817  1.00  0.00    -0.519 OA 
HETATM   15  H   UNL     1      -9.305  18.196  66.420  1.00  0.00     0.000 HD 
HETATM   16  C   UNL     1     -11.655  15.442  67.897  1.00  0.00    -0.257 A  
HETATM   17  O   UNL     1     -12.169  15.394  69.158  1.00  0.00    -0.558 OA 
HETATM   18  C   UNL     1     -11.992  14.409  67.027  1.00  0.00    -0.424 A  
HETATM   19  H   UNL     1     -12.740  14.688  69.439  1.00  0.00     0.000 HD 
ENDBRANCH   7  10
ENDBRANCH   6   7
ENDBRANCH   4   6
ENDBRANCH   2   4
TORSDOF 4
ENDMDL
MODEL       72
REMARK 921   NORMALIZED FREE ENERGY PREDICTED BY IDOCK:   -4.81 KCAL/MOL
REMARK 922        TOTAL FREE ENERGY PREDICTED BY IDOCK:   -6.22 KCAL/MOL
REMARK 923 INTER-LIGAND FREE ENERGY PREDICTED BY IDOCK:   -5.94 KCAL/MOL
REMARK 924 INTRA-LIGAND FREE ENERGY PREDICTED BY IDOCK:   -0.27 KCAL/MOL
REMARK 927      BINDING AFFINITY PREDICTED BY RF-SCORE:    0.00 PKD
ROOT
HETATM    1  C   UNL     1     -12.316  14.127  70.364  1.00  0.00    -0.428 C  
HETATM    2  C   UNL     1     -11.758  15.531  70.595  1.00  0.00    -0.357 C  
HETATM    3  C   UNL     1     -11.952  15.925  72.063  1.00  0.00    -0.602 C  
ENDROOT
BRANCH   2   4
HETATM    4  N   UNL     1     -10.341  15.552  70.206  1.00  0.00    -0.397 NA 
HETATM    5  H   UNL     1      -9.989  14.608  70.040  1.00  0.00     0.000 HD 
BRANCH   4   6
HETATM    6  C   UNL     1     -10.097  16.424  69.044  1.00  0.00    -0.262 C  
BRANCH   6   7
HETATM    7  C   UNL     1      -9.015  15.872  68.085  1.00  0.00    -0.181 C  
HETATM    8  H   UNL     1      -7.565  14.550  68.179  1.00  0.00     0.000 HD 
HETATM    9  O   UNL     1      -8.230  14.889  68.768  1.00  0.00    -0.146 OA 
BRANCH   7  10
HETATM   10  C   UNL     1      -9.595  15.258  66.818  1.00  0.00    -0.257 A  
HETATM   11  C   UNL     1     -10.313  16.067  65.918  1.00  0.00    -0.386 A  
HETATM   12  C   UNL     1     -10.870  15.505  64.767  1.00  0.00    -0.363 A  
HETATM   13  C   UNL     1     -10.724  14.155  64.479  1.00  0.00    -0.323 A  
HETATM   14  O   UNL     1     -11.585  16.259  63.882  1.00  0.00    -1.489 OA 
HETATM   15  H   UNL     1     -11.964  15.878  63.099  1.00  0.00     0.000 HD 
HETATM   16  C   UNL     1      -9.996  13.360  65.352  1.00  0.00    -0.192 A  
HETATM   17  O   UNL     1      -9.814  12.028  65.127  1.00  0.00    -0.274 OA 
HETATM   18  C   UNL     1      -9.425  13.899  66.502  1.00  0.00    -0.288 A  
HETATM   19  H   UNL     1      -9.315  11.484  65.725  1.00  0.00     0.000 HD 
ENDBRANCH   7  10
ENDBRANCH   6   7
ENDBRANCH   4   6
ENDBRANCH   2   4
TORSDOF 4
ENDMDL
MODEL       73
REMARK 921   NORMALIZED FREE ENERGY PREDICTED BY IDOCK:   -4.79 KCAL/MOL
REMARK 922        TOTAL FREE ENERGY PREDICTED BY IDOCK:   -6.19 KCAL/MOL
REMARK 923 INTER-LIGAND FREE ENERGY PREDICTED BY IDOCK:   -5.77 KCAL/MOL
REMARK 924 INTRA-LIGAND FREE ENERGY PREDICTED BY IDOCK:   -0.42 KCAL/MOL
REMARK 927      BINDING AFFINITY PREDICTED BY RF-SCORE:    0.00 PKD
ROOT
HETATM    1  C   UNL     1     -10.494  17.008  67.123  1.00  0.00    -0.291 C  
HETATM    2  C   UNL     1     -10.013  15.904  66.181  1.00  0.00    -0.314 C  
HETATM    3  C   UNL     1      -8.537  15.601  66.458  1.00  0.00    -0.335 C  
ENDROOT
BRANCH   2   4
HETATM    4  N   UNL     1     -10.859  14.716  66.365  1.00  0.00    -0.309 NA 
HETATM    5  H   UNL     1     -10.297  13.866  66.414  1.00  0.00     0.000 HD 
BRANCH   4   6
HETATM    6  C   UNL     1     -11.742  14.841  67.538  1.00  0.00    -0.348 C  
BRANCH   6   7
HETATM    7  C   UNL     1     -11.578  13.681  68.549  1.00  0.00    -0.335 C  
HETATM    8  H   UNL     1     -10.107  12.554  69.201  1.00  0.00     0.000 HD 
HETATM    9  O   UNL     1     -10.208  13.267  68.581  1.00  0.00    -0.232 OA 
BRANCH   7  10
HETATM   10  C   UNL     1     -12.024  14.047  69.958  1.00  0.00    -0.404 A  
HETATM   11  C   UNL     1     -12.776  13.127  70.711  1.00  0.00    -0.260 A  
HETATM   12  C   UNL     1     -13.211  13.465  71.994  1.00  0.00    -0.438 A  
HETATM   13  C   UNL     1     -12.909  14.699  72.556  1.00  0.00    -0.475 A  
HETATM   14  O   UNL     1     -13.954  12.601  72.745  1.00  0.00    -0.642 OA 
HETATM   15  H   UNL     1     -14.250  12.832  73.617  1.00  0.00     0.000 HD 
HETATM   16  C   UNL     1     -12.147  15.598  71.825  1.00  0.00    -0.431 A  
HETATM   17  O   UNL     1     -11.816  16.825  72.320  1.00  0.00    -0.598 OA 
HETATM   18  C   UNL     1     -11.697  15.280  70.548  1.00  0.00    -0.355 A  
HETATM   19  H   UNL     1     -11.294  17.441  71.819  1.00  0.00     0.000 HD 
ENDBRANCH   7  10
ENDBRANCH   6   7
ENDBRANCH   4   6
ENDBRANCH   2   4
TORSDOF 4
ENDMDL
MODEL       74
REMARK 921   NORMALIZED FREE ENERGY PREDICTED BY IDOCK:   -4.78 KCAL/MOL
REMARK 922        TOTAL FREE ENERGY PREDICTED BY IDOCK:   -6.17 KCAL/MOL
REMARK 923 INTER-LIGAND FREE ENERGY PREDICTED BY IDOCK:   -5.90 KCAL/MOL
REMARK 924 INTRA-LIGAND FREE ENERGY PREDICTED BY IDOCK:   -0.28 KCAL/MOL
REMARK 927      BINDING AFFINITY PREDICTED BY RF-SCORE:    0.00 PKD
ROOT
HETATM    1  C   UNL     1     -10.769  17.580  67.412  1.00  0.00    -0.250 C  
HETATM    2  C   UNL     1     -10.738  16.088  67.747  1.00  0.00    -0.323 C  
HETATM    3  C   UNL     1     -11.689  15.805  68.915  1.00  0.00    -0.404 C  
ENDROOT
BRANCH   2   4
HETATM    4  N   UNL     1     -11.101  15.321  66.547  1.00  0.00    -0.308 NA 
HETATM    5  H   UNL     1     -10.279  14.898  66.116  1.00  0.00     0.000 HD 
BRANCH   4   6
HETATM    6  C   UNL     1     -12.136  14.310  66.827  1.00  0.00    -0.417 C  
BRANCH   6   7
HETATM    7  C   UNL     1     -12.523  13.475  65.584  1.00  0.00    -0.479 C  
HETATM    8  H   UNL     1     -12.841  13.820  63.676  1.00  0.00     0.000 HD 
HETATM    9  O   UNL     1     -12.604  14.333  64.440  1.00  0.00    -0.665 OA 
BRANCH   7  10
HETATM   10  C   UNL     1     -11.546  12.344  65.294  1.00  0.00    -0.419 A  
HETATM   11  C   UNL     1     -11.282  11.976  63.963  1.00  0.00    -0.468 A  
HETATM   12  C   UNL     1     -10.406  10.922  63.690  1.00  0.00    -0.298 A  
HETATM   13  C   UNL     1      -9.775  10.226  64.713  1.00  0.00    -0.397 A  
HETATM   14  O   UNL     1     -10.141  10.531  62.410  1.00  0.00    -0.746 OA 
HETATM   15  H   UNL     1      -9.546   9.814  62.225  1.00  0.00     0.000 HD 
HETATM   16  C   UNL     1     -10.015  10.603  66.026  1.00  0.00    -0.239 A  
HETATM   17  O   UNL     1      -9.426   9.961  67.074  1.00  0.00    -0.153 OA 
HETATM   18  C   UNL     1     -10.877  11.654  66.321  1.00  0.00    -0.333 A  
HETATM   19  H   UNL     1      -9.590  10.219  67.974  1.00  0.00     0.000 HD 
ENDBRANCH   7  10
ENDBRANCH   6   7
ENDBRANCH   4   6
ENDBRANCH   2   4
TORSDOF 4
ENDMDL
MODEL       75
REMARK 921   NORMALIZED FREE ENERGY PREDICTED BY IDOCK:   -4.78 KCAL/MOL
REMARK 922        TOTAL FREE ENERGY PREDICTED BY IDOCK:   -6.17 KCAL/MOL
REMARK 923 INTER-LIGAND FREE ENERGY PREDICTED BY IDOCK:   -5.71 KCAL/MOL
REMARK 924 INTRA-LIGAND FREE ENERGY PREDICTED BY IDOCK:   -0.46 KCAL/MOL
REMARK 927      BINDING AFFINITY PREDICTED BY RF-SCORE:    0.00 PKD
ROOT
HETATM    1  C   UNL     1      -8.529  12.070  67.462  1.00  0.00    -0.165 C  
HETATM    2  C   UNL     1      -9.225  11.205  68.513  1.00  0.00    -0.183 C  
HETATM    3  C   UNL     1      -8.177  10.592  69.448  1.00  0.00    -0.089 C  
ENDROOT
BRANCH   2   4
HETATM    4  N   UNL     1     -10.195  12.031  69.245  1.00  0.00    -0.401 NA 
HETATM    5  H   UNL     1      -9.813  12.954  69.454  1.00  0.00     0.000 HD 
BRANCH   4   6
HETATM    6  C   UNL     1     -11.482  12.136  68.535  1.00  0.00    -0.300 C  
BRANCH   6   7
HETATM    7  C   UNL     1     -11.836  13.587  68.128  1.00  0.00    -0.365 C  
HETATM    8  H   UNL     1     -11.087  15.377  68.432  1.00  0.00     0.000 HD 
HETATM    9  O   UNL     1     -10.869  14.486  68.682  1.00  0.00    -0.236 OA 
BRANCH   7  10
HETATM   10  C   UNL     1     -11.901  13.787  66.620  1.00  0.00    -0.445 A  
HETATM   11  C   UNL     1     -11.454  14.996  66.059  1.00  0.00    -0.221 A  
HETATM   12  C   UNL     1     -11.534  15.198  64.679  1.00  0.00    -0.362 A  
HETATM   13  C   UNL     1     -12.042  14.219  63.835  1.00  0.00    -0.247 A  
HETATM   14  O   UNL     1     -11.122  16.366  64.105  1.00  0.00    -1.226 OA 
HETATM   15  H   UNL     1     -11.177  16.503  63.167  1.00  0.00     0.000 HD 
HETATM   16  C   UNL     1     -12.461  13.016  64.383  1.00  0.00    -0.337 A  
HETATM   17  O   UNL     1     -12.969  12.014  63.611  1.00  0.00    -0.747 OA 
HETATM   18  C   UNL     1     -12.384  12.790  65.755  1.00  0.00    -0.388 A  
HETATM   19  H   UNL     1     -13.256  11.189  63.986  1.00  0.00     0.000 HD 
ENDBRANCH   7  10
ENDBRANCH   6   7
ENDBRANCH   4   6
ENDBRANCH   2   4
TORSDOF 4
ENDMDL
MODEL       76
REMARK 921   NORMALIZED FREE ENERGY PREDICTED BY IDOCK:   -4.77 KCAL/MOL
REMARK 922        TOTAL FREE ENERGY PREDICTED BY IDOCK:   -6.17 KCAL/MOL
REMARK 923 INTER-LIGAND FREE ENERGY PREDICTED BY IDOCK:   -5.82 KCAL/MOL
REMARK 924 INTRA-LIGAND FREE ENERGY PREDICTED BY IDOCK:   -0.35 KCAL/MOL
REMARK 927      BINDING AFFINITY PREDICTED BY RF-SCORE:    0.00 PKD
ROOT
HETATM    1  C   UNL     1      -7.436  12.044  68.339  1.00  0.00    -0.110 C  
HETATM    2  C   UNL     1      -8.686  12.485  67.576  1.00  0.00    -0.182 C  
HETATM    3  C   UNL     1      -9.073  11.407  66.559  1.00  0.00    -0.193 C  
ENDROOT
BRANCH   2   4
HETATM    4  N   UNL     1      -9.767  12.743  68.538  1.00  0.00    -0.370 NA 
HETATM    5  H   UNL     1      -9.599  12.260  69.421  1.00  0.00     0.000 HD 
BRANCH   4   6
HETATM    6  C   UNL     1      -9.987  14.184  68.752  1.00  0.00    -0.183 C  
BRANCH   6   7
HETATM    7  C   UNL     1     -11.415  14.644  68.371  1.00  0.00    -0.311 C  
HETATM    8  H   UNL     1     -12.483  16.283  68.555  1.00  0.00     0.000 HD 
HETATM    9  O   UNL     1     -11.606  16.001  68.789  1.00  0.00    -0.377 OA 
BRANCH   7  10
HETATM   10  C   UNL     1     -11.702  14.534  66.880  1.00  0.00    -0.399 A  
HETATM   11  C   UNL     1     -12.260  13.351  66.364  1.00  0.00    -0.435 A  
HETATM   12  C   UNL     1     -12.502  13.232  64.993  1.00  0.00    -0.443 A  
HETATM   13  C   UNL     1     -12.210  14.269  64.117  1.00  0.00    -0.410 A  
HETATM   14  O   UNL     1     -13.029  12.092  64.459  1.00  0.00    -0.677 OA 
HETATM   15  H   UNL     1     -13.193  12.012  63.528  1.00  0.00     0.000 HD 
HETATM   16  C   UNL     1     -11.682  15.446  64.626  1.00  0.00    -0.267 A  
HETATM   17  O   UNL     1     -11.374  16.501  63.820  1.00  0.00    -1.553 OA 
HETATM   18  C   UNL     1     -11.439  15.589  65.989  1.00  0.00     0.090 A  
HETATM   19  H   UNL     1     -11.012  17.308  64.169  1.00  0.00     0.000 HD 
ENDBRANCH   7  10
ENDBRANCH   6   7
ENDBRANCH   4   6
ENDBRANCH   2   4
TORSDOF 4
ENDMDL
MODEL       77
REMARK 921   NORMALIZED FREE ENERGY PREDICTED BY IDOCK:   -4.75 KCAL/MOL
REMARK 922        TOTAL FREE ENERGY PREDICTED BY IDOCK:   -6.14 KCAL/MOL
REMARK 923 INTER-LIGAND FREE ENERGY PREDICTED BY IDOCK:   -5.78 KCAL/MOL
REMARK 924 INTRA-LIGAND FREE ENERGY PREDICTED BY IDOCK:   -0.37 KCAL/MOL
REMARK 927      BINDING AFFINITY PREDICTED BY RF-SCORE:    0.00 PKD
ROOT
HETATM    1  C   UNL     1     -10.647  17.189  67.634  1.00  0.00    -0.343 C  
HETATM    2  C   UNL     1     -10.378  16.377  66.367  1.00  0.00    -0.313 C  
HETATM    3  C   UNL     1      -8.867  16.252  66.150  1.00  0.00    -0.362 C  
ENDROOT
BRANCH   2   4
HETATM    4  N   UNL     1     -11.023  15.062  66.496  1.00  0.00    -0.325 NA 
HETATM    5  H   UNL     1     -10.347  14.306  66.385  1.00  0.00     0.000 HD 
BRANCH   4   6
HETATM    6  C   UNL     1     -11.765  14.931  67.763  1.00  0.00    -0.317 C  
BRANCH   6   7
HETATM    7  C   UNL     1     -11.353  13.686  68.584  1.00  0.00    -0.286 C  
HETATM    8  H   UNL     1      -9.702  12.994  69.393  1.00  0.00     0.000 HD 
HETATM    9  O   UNL     1      -9.955  13.759  68.889  1.00  0.00    -0.160 OA 
BRANCH   7  10
HETATM   10  C   UNL     1     -12.141  13.534  69.877  1.00  0.00    -0.408 A  
HETATM   11  C   UNL     1     -12.689  14.671  70.497  1.00  0.00    -0.394 A  
HETATM   12  C   UNL     1     -13.391  14.543  71.697  1.00  0.00    -0.363 A  
HETATM   13  C   UNL     1     -13.572  13.304  72.299  1.00  0.00    -0.703 A  
HETATM   14  O   UNL     1     -13.922  15.629  72.331  1.00  0.00    -0.530 OA 
HETATM   15  H   UNL     1     -14.399  15.542  73.147  1.00  0.00     0.000 HD 
HETATM   16  C   UNL     1     -13.053  12.178  71.678  1.00  0.00    -0.310 A  
HETATM   17  O   UNL     1     -13.196  10.933  72.215  1.00  0.00    -0.613 OA 
HETATM   18  C   UNL     1     -12.356  12.281  70.477  1.00  0.00    -0.349 A  
HETATM   19  H   UNL     1     -12.841  10.161  71.789  1.00  0.00     0.000 HD 
ENDBRANCH   7  10
ENDBRANCH   6   7
ENDBRANCH   4   6
ENDBRANCH   2   4
TORSDOF 4
ENDMDL
MODEL       78
REMARK 921   NORMALIZED FREE ENERGY PREDICTED BY IDOCK:   -4.74 KCAL/MOL
REMARK 922        TOTAL FREE ENERGY PREDICTED BY IDOCK:   -6.13 KCAL/MOL
REMARK 923 INTER-LIGAND FREE ENERGY PREDICTED BY IDOCK:   -5.78 KCAL/MOL
REMARK 924 INTRA-LIGAND FREE ENERGY PREDICTED BY IDOCK:   -0.36 KCAL/MOL
REMARK 927      BINDING AFFINITY PREDICTED BY RF-SCORE:    0.00 PKD
ROOT
HETATM    1  C   UNL     1     -12.813  11.091  71.401  1.00  0.00    -0.548 C  
HETATM    2  C   UNL     1     -12.341   9.650  71.205  1.00  0.00    -0.360 C  
HETATM    3  C   UNL     1     -13.497   8.688  71.501  1.00  0.00    -0.344 C  
ENDROOT
BRANCH   2   4
HETATM    4  N   UNL     1     -11.837   9.494  69.834  1.00  0.00    -0.449 NA 
HETATM    5  H   UNL     1     -12.577   9.647  69.148  1.00  0.00     0.000 HD 
BRANCH   4   6
HETATM    6  C   UNL     1     -10.675  10.361  69.568  1.00  0.00    -0.251 C  
BRANCH   6   7
HETATM    7  C   UNL     1     -10.375  10.530  68.060  1.00  0.00    -0.181 C  
HETATM    8  H   UNL     1     -10.575   9.445  66.434  1.00  0.00     0.000 HD 
HETATM    9  O   UNL     1     -10.760   9.341  67.361  1.00  0.00    -0.279 OA 
BRANCH   7  10
HETATM   10  C   UNL     1     -11.083  11.727  67.439  1.00  0.00    -0.338 A  
HETATM   11  C   UNL     1     -11.308  12.880  68.212  1.00  0.00    -0.326 A  
HETATM   12  C   UNL     1     -11.979  13.972  67.657  1.00  0.00    -0.368 A  
HETATM   13  C   UNL     1     -12.428  13.952  66.343  1.00  0.00    -0.414 A  
HETATM   14  O   UNL     1     -12.227  15.100  68.385  1.00  0.00    -0.569 OA 
HETATM   15  H   UNL     1     -12.683  15.842  68.008  1.00  0.00     0.000 HD 
HETATM   16  C   UNL     1     -12.186  12.825  65.571  1.00  0.00    -0.463 A  
HETATM   17  O   UNL     1     -12.599  12.742  64.275  1.00  0.00    -0.597 OA 
HETATM   18  C   UNL     1     -11.512  11.728  66.101  1.00  0.00    -0.288 A  
HETATM   19  H   UNL     1     -12.433  11.970  63.746  1.00  0.00     0.000 HD 
ENDBRANCH   7  10
ENDBRANCH   6   7
ENDBRANCH   4   6
ENDBRANCH   2   4
TORSDOF 4
ENDMDL
MODEL       79
REMARK 921   NORMALIZED FREE ENERGY PREDICTED BY IDOCK:   -4.72 KCAL/MOL
REMARK 922        TOTAL FREE ENERGY PREDICTED BY IDOCK:   -6.11 KCAL/MOL
REMARK 923 INTER-LIGAND FREE ENERGY PREDICTED BY IDOCK:   -5.74 KCAL/MOL
REMARK 924 INTRA-LIGAND FREE ENERGY PREDICTED BY IDOCK:   -0.37 KCAL/MOL
REMARK 927      BINDING AFFINITY PREDICTED BY RF-SCORE:    0.00 PKD
ROOT
HETATM    1  C   UNL     1     -10.649   7.580  67.014  1.00  0.00    -0.409 C  
HETATM    2  C   UNL     1     -10.170   9.014  67.245  1.00  0.00    -0.256 C  
HETATM    3  C   UNL     1     -10.148   9.767  65.911  1.00  0.00    -0.314 C  
ENDROOT
BRANCH   2   4
HETATM    4  N   UNL     1     -11.055   9.661  68.223  1.00  0.00    -0.496 NA 
HETATM    5  H   UNL     1     -11.107   9.122  69.088  1.00  0.00     0.000 HD 
BRANCH   4   6
HETATM    6  C   UNL     1     -10.663  11.057  68.488  1.00  0.00    -0.202 C  
BRANCH   6   7
HETATM    7  C   UNL     1     -11.783  12.075  68.166  1.00  0.00    -0.333 C  
HETATM    8  H   UNL     1     -12.811  13.425  69.156  1.00  0.00     0.000 HD 
HETATM    9  O   UNL     1     -12.123  12.800  69.354  1.00  0.00    -0.273 OA 
BRANCH   7  10
HETATM   10  C   UNL     1     -11.401  13.059  67.070  1.00  0.00    -0.343 A  
HETATM   11  C   UNL     1     -12.278  13.275  65.992  1.00  0.00    -0.483 A  
HETATM   12  C   UNL     1     -11.924  14.157  64.968  1.00  0.00    -0.408 A  
HETATM   13  C   UNL     1     -10.715  14.842  64.993  1.00  0.00    -0.452 A  
HETATM   14  O   UNL     1     -12.746  14.378  63.902  1.00  0.00    -0.771 OA 
HETATM   15  H   UNL     1     -12.504  14.977  63.206  1.00  0.00     0.000 HD 
HETATM   16  C   UNL     1      -9.859  14.649  66.067  1.00  0.00    -0.322 A  
HETATM   17  O   UNL     1      -8.660  15.291  66.151  1.00  0.00    -0.433 OA 
HETATM   18  C   UNL     1     -10.195  13.781  67.101  1.00  0.00    -0.244 A  
HETATM   19  H   UNL     1      -8.073  15.160  66.887  1.00  0.00     0.000 HD 
ENDBRANCH   7  10
ENDBRANCH   6   7
ENDBRANCH   4   6
ENDBRANCH   2   4
TORSDOF 4
ENDMDL
MODEL       80
REMARK 921   NORMALIZED FREE ENERGY PREDICTED BY IDOCK:   -4.68 KCAL/MOL
REMARK 922        TOTAL FREE ENERGY PREDICTED BY IDOCK:   -6.06 KCAL/MOL
REMARK 923 INTER-LIGAND FREE ENERGY PREDICTED BY IDOCK:   -5.69 KCAL/MOL
REMARK 924 INTRA-LIGAND FREE ENERGY PREDICTED BY IDOCK:   -0.37 KCAL/MOL
REMARK 927      BINDING AFFINITY PREDICTED BY RF-SCORE:    0.00 PKD
ROOT
HETATM    1  C   UNL     1     -12.909  10.700  71.552  1.00  0.00    -0.567 C  
HETATM    2  C   UNL     1     -11.540  10.071  71.293  1.00  0.00    -0.350 C  
HETATM    3  C   UNL     1     -11.712   8.583  70.969  1.00  0.00    -0.310 C  
ENDROOT
BRANCH   2   4
HETATM    4  N   UNL     1     -10.881  10.796  70.198  1.00  0.00    -0.468 NA 
HETATM    5  H   UNL     1     -10.009  10.341  69.925  1.00  0.00     0.000 HD 
BRANCH   4   6
HETATM    6  C   UNL     1     -11.772  10.980  69.038  1.00  0.00    -0.333 C  
BRANCH   6   7
HETATM    7  C   UNL     1     -11.283  12.078  68.063  1.00  0.00    -0.258 C  
HETATM    8  H   UNL     1     -11.821  12.765  66.303  1.00  0.00     0.000 HD 
HETATM    9  O   UNL     1     -12.121  12.091  66.902  1.00  0.00    -0.608 OA 
BRANCH   7  10
HETATM   10  C   UNL     1     -11.267  13.467  68.686  1.00  0.00    -0.311 A  
HETATM   11  C   UNL     1     -10.123  14.275  68.555  1.00  0.00    -0.246 A  
HETATM   12  C   UNL     1     -10.091  15.541  69.145  1.00  0.00    -0.239 A  
HETATM   13  C   UNL     1     -11.176  16.032  69.859  1.00  0.00    -0.361 A  
HETATM   14  O   UNL     1      -8.991  16.343  69.049  1.00  0.00    -0.249 OA 
HETATM   15  H   UNL     1      -8.969  17.203  69.451  1.00  0.00     0.000 HD 
HETATM   16  C   UNL     1     -12.314  15.247  69.969  1.00  0.00    -0.328 A  
HETATM   17  O   UNL     1     -13.413  15.670  70.655  1.00  0.00    -0.813 OA 
HETATM   18  C   UNL     1     -12.372  13.986  69.383  1.00  0.00    -0.247 A  
HETATM   19  H   UNL     1     -14.194  15.133  70.730  1.00  0.00     0.000 HD 
ENDBRANCH   7  10
ENDBRANCH   6   7
ENDBRANCH   4   6
ENDBRANCH   2   4
TORSDOF 4
ENDMDL
MODEL       81
REMARK 921   NORMALIZED FREE ENERGY PREDICTED BY IDOCK:   -4.67 KCAL/MOL
REMARK 922        TOTAL FREE ENERGY PREDICTED BY IDOCK:   -6.04 KCAL/MOL
REMARK 923 INTER-LIGAND FREE ENERGY PREDICTED BY IDOCK:   -5.75 KCAL/MOL
REMARK 924 INTRA-LIGAND FREE ENERGY PREDICTED BY IDOCK:   -0.29 KCAL/MOL
REMARK 927      BINDING AFFINITY PREDICTED BY RF-SCORE:    0.00 PKD
ROOT
HETATM    1  C   UNL     1     -10.480  15.538  68.699  1.00  0.00    -0.237 C  
HETATM    2  C   UNL     1     -10.543  16.414  67.448  1.00  0.00    -0.306 C  
HETATM    3  C   UNL     1      -9.880  17.765  67.735  1.00  0.00    -0.295 C  
ENDROOT
BRANCH   2   4
HETATM    4  N   UNL     1      -9.888  15.709  66.337  1.00  0.00    -0.257 NA 
HETATM    5  H   UNL     1      -9.645  14.753  66.598  1.00  0.00     0.000 HD 
BRANCH   4   6
HETATM    6  C   UNL     1     -10.700  15.735  65.107  1.00  0.00    -0.435 C  
BRANCH   6   7
HETATM    7  C   UNL     1     -11.838  14.687  65.107  1.00  0.00    -0.351 C  
HETATM    8  H   UNL     1     -13.424  14.304  64.012  1.00  0.00     0.000 HD 
HETATM    9  O   UNL     1     -12.724  14.947  64.012  1.00  0.00    -0.792 OA 
BRANCH   7  10
HETATM   10  C   UNL     1     -11.333  13.254  65.013  1.00  0.00    -0.326 A  
HETATM   11  C   UNL     1     -11.027  12.546  66.189  1.00  0.00    -0.318 A  
HETATM   12  C   UNL     1     -10.538  11.240  66.110  1.00  0.00    -0.258 A  
HETATM   13  C   UNL     1     -10.352  10.612  64.886  1.00  0.00    -0.347 A  
HETATM   14  O   UNL     1     -10.219  10.531  67.232  1.00  0.00    -0.195 OA 
HETATM   15  H   UNL     1      -9.886   9.643  67.178  1.00  0.00     0.000 HD 
HETATM   16  C   UNL     1     -10.675  11.300  63.725  1.00  0.00    -0.379 A  
HETATM   17  O   UNL     1     -10.517  10.740  62.493  1.00  0.00    -0.733 OA 
HETATM   18  C   UNL     1     -11.171  12.599  63.780  1.00  0.00    -0.519 A  
HETATM   19  H   UNL     1     -10.738  11.211  61.697  1.00  0.00     0.000 HD 
ENDBRANCH   7  10
ENDBRANCH   6   7
ENDBRANCH   4   6
ENDBRANCH   2   4
TORSDOF 4
ENDMDL
MODEL       82
REMARK 921   NORMALIZED FREE ENERGY PREDICTED BY IDOCK:   -4.66 KCAL/MOL
REMARK 922        TOTAL FREE ENERGY PREDICTED BY IDOCK:   -6.04 KCAL/MOL
REMARK 923 INTER-LIGAND FREE ENERGY PREDICTED BY IDOCK:   -5.72 KCAL/MOL
REMARK 924 INTRA-LIGAND FREE ENERGY PREDICTED BY IDOCK:   -0.32 KCAL/MOL
REMARK 927      BINDING AFFINITY PREDICTED BY RF-SCORE:    0.00 PKD
ROOT
HETATM    1  C   UNL     1      -9.730   9.760  66.095  1.00  0.00    -0.309 C  
HETATM    2  C   UNL     1     -10.697  10.319  67.139  1.00  0.00    -0.241 C  
HETATM    3  C   UNL     1     -10.552   9.532  68.446  1.00  0.00    -0.261 C  
ENDROOT
BRANCH   2   4
HETATM    4  N   UNL     1     -10.422  11.750  67.328  1.00  0.00    -0.209 NA 
HETATM    5  H   UNL     1     -10.018  12.163  66.487  1.00  0.00     0.000 HD 
BRANCH   4   6
HETATM    6  C   UNL     1     -11.618  12.492  67.765  1.00  0.00    -0.343 C  
BRANCH   6   7
HETATM    7  C   UNL     1     -11.300  13.611  68.786  1.00  0.00    -0.289 C  
HETATM    8  H   UNL     1     -11.329  15.575  68.804  1.00  0.00     0.000 HD 
HETATM    9  O   UNL     1     -11.524  14.888  68.178  1.00  0.00    -0.304 OA 
BRANCH   7  10
HETATM   10  C   UNL     1     -12.126  13.511  70.061  1.00  0.00    -0.411 A  
HETATM   11  C   UNL     1     -12.658  14.677  70.639  1.00  0.00    -0.419 A  
HETATM   12  C   UNL     1     -13.395  14.596  71.823  1.00  0.00    -0.360 A  
HETATM   13  C   UNL     1     -13.626  13.378  72.447  1.00  0.00    -0.708 A  
HETATM   14  O   UNL     1     -13.913  15.711  72.416  1.00  0.00    -0.530 OA 
HETATM   15  H   UNL     1     -14.413  15.656  73.221  1.00  0.00     0.000 HD 
HETATM   16  C   UNL     1     -13.122  12.223  71.867  1.00  0.00    -0.363 A  
HETATM   17  O   UNL     1     -13.314  10.996  72.429  1.00  0.00    -0.600 OA 
HETATM   18  C   UNL     1     -12.392  12.278  70.683  1.00  0.00    -0.375 A  
HETATM   19  H   UNL     1     -12.969  10.204  72.031  1.00  0.00     0.000 HD 
ENDBRANCH   7  10
ENDBRANCH   6   7
ENDBRANCH   4   6
ENDBRANCH   2   4
TORSDOF 4
ENDMDL
MODEL       83
REMARK 921   NORMALIZED FREE ENERGY PREDICTED BY IDOCK:   -4.66 KCAL/MOL
REMARK 922        TOTAL FREE ENERGY PREDICTED BY IDOCK:   -6.03 KCAL/MOL
REMARK 923 INTER-LIGAND FREE ENERGY PREDICTED BY IDOCK:   -5.81 KCAL/MOL
REMARK 924 INTRA-LIGAND FREE ENERGY PREDICTED BY IDOCK:   -0.23 KCAL/MOL
REMARK 927      BINDING AFFINITY PREDICTED BY RF-SCORE:    0.00 PKD
ROOT
HETATM    1  C   UNL     1      -7.744  14.454  67.362  1.00  0.00    -0.207 C  
HETATM    2  C   UNL     1      -8.367  15.061  68.619  1.00  0.00    -0.166 C  
HETATM    3  C   UNL     1      -7.336  15.947  69.326  1.00  0.00    -0.221 C  
ENDROOT
BRANCH   2   4
HETATM    4  N   UNL     1      -9.569  15.817  68.240  1.00  0.00    -0.199 NA 
HETATM    5  H   UNL     1     -10.154  15.283  67.596  1.00  0.00     0.000 HD 
BRANCH   4   6
HETATM    6  C   UNL     1     -10.339  16.262  69.415  1.00  0.00    -0.278 C  
BRANCH   6   7
HETATM    7  C   UNL     1     -11.790  15.726  69.431  1.00  0.00    -0.349 C  
HETATM    8  H   UNL     1     -12.773  14.244  68.596  1.00  0.00     0.000 HD 
HETATM    9  O   UNL     1     -11.881  14.573  68.586  1.00  0.00    -0.319 OA 
BRANCH   7  10
HETATM   10  C   UNL     1     -12.280  15.366  70.826  1.00  0.00    -0.430 A  
HETATM   11  C   UNL     1     -12.095  16.273  71.885  1.00  0.00    -0.447 A  
HETATM   12  C   UNL     1     -12.519  15.938  73.173  1.00  0.00    -0.497 A  
HETATM   13  C   UNL     1     -13.133  14.721  73.437  1.00  0.00    -0.458 A  
HETATM   14  O   UNL     1     -12.341  16.790  74.225  1.00  0.00    -0.628 OA 
HETATM   15  H   UNL     1     -12.628  16.562  75.100  1.00  0.00     0.000 HD 
HETATM   16  C   UNL     1     -13.339  13.835  72.391  1.00  0.00    -0.535 A  
HETATM   17  O   UNL     1     -13.937  12.625  72.582  1.00  0.00    -0.655 OA 
HETATM   18  C   UNL     1     -12.932  14.150  71.097  1.00  0.00    -0.419 A  
HETATM   19  H   UNL     1     -14.078  12.018  71.865  1.00  0.00     0.000 HD 
ENDBRANCH   7  10
ENDBRANCH   6   7
ENDBRANCH   4   6
ENDBRANCH   2   4
TORSDOF 4
ENDMDL
MODEL       84
REMARK 921   NORMALIZED FREE ENERGY PREDICTED BY IDOCK:   -4.66 KCAL/MOL
REMARK 922        TOTAL FREE ENERGY PREDICTED BY IDOCK:   -6.03 KCAL/MOL
REMARK 923 INTER-LIGAND FREE ENERGY PREDICTED BY IDOCK:   -5.97 KCAL/MOL
REMARK 924 INTRA-LIGAND FREE ENERGY PREDICTED BY IDOCK:   -0.06 KCAL/MOL
REMARK 927      BINDING AFFINITY PREDICTED BY RF-SCORE:    0.00 PKD
ROOT
HETATM    1  C   UNL     1      -7.348  18.696  66.914  1.00  0.00    -0.222 C  
HETATM    2  C   UNL     1      -7.482  19.025  68.401  1.00  0.00    -0.300 C  
HETATM    3  C   UNL     1      -6.486  20.128  68.773  1.00  0.00    -0.345 C  
ENDROOT
BRANCH   2   4
HETATM    4  N   UNL     1      -8.869  19.423  68.679  1.00  0.00    -0.377 NA 
HETATM    5  H   UNL     1      -9.012  20.417  68.497  1.00  0.00     0.000 HD 
BRANCH   4   6
HETATM    6  C   UNL     1      -9.842  18.600  67.938  1.00  0.00    -0.329 C  
BRANCH   6   7
HETATM    7  C   UNL     1      -9.739  17.092  68.267  1.00  0.00    -0.275 C  
HETATM    8  H   UNL     1     -10.577  15.848  69.536  1.00  0.00     0.000 HD 
HETATM    9  O   UNL     1     -10.641  16.774  69.333  1.00  0.00    -0.324 OA 
BRANCH   7  10
HETATM   10  C   UNL     1     -10.039  16.196  67.073  1.00  0.00    -0.270 A  
HETATM   11  C   UNL     1      -9.597  14.861  67.076  1.00  0.00    -0.245 A  
HETATM   12  C   UNL     1      -9.846  14.041  65.973  1.00  0.00    -0.297 A  
HETATM   13  C   UNL     1     -10.534  14.513  64.863  1.00  0.00    -0.435 A  
HETATM   14  O   UNL     1      -9.418  12.745  65.939  1.00  0.00    -0.416 OA 
HETATM   15  H   UNL     1      -9.587  12.188  65.189  1.00  0.00     0.000 HD 
HETATM   16  C   UNL     1     -10.991  15.823  64.868  1.00  0.00    -0.427 A  
HETATM   17  O   UNL     1     -11.673  16.347  63.811  1.00  0.00    -1.553 OA 
HETATM   18  C   UNL     1     -10.762  16.656  65.959  1.00  0.00    -0.153 A  
HETATM   19  H   UNL     1     -11.987  17.244  63.813  1.00  0.00     0.000 HD 
ENDBRANCH   7  10
ENDBRANCH   6   7
ENDBRANCH   4   6
ENDBRANCH   2   4
TORSDOF 4
ENDMDL
MODEL       85
REMARK 921   NORMALIZED FREE ENERGY PREDICTED BY IDOCK:   -4.65 KCAL/MOL
REMARK 922        TOTAL FREE ENERGY PREDICTED BY IDOCK:   -6.01 KCAL/MOL
REMARK 923 INTER-LIGAND FREE ENERGY PREDICTED BY IDOCK:   -5.81 KCAL/MOL
REMARK 924 INTRA-LIGAND FREE ENERGY PREDICTED BY IDOCK:   -0.20 KCAL/MOL
REMARK 927      BINDING AFFINITY PREDICTED BY RF-SCORE:    0.00 PKD
ROOT
HETATM    1  C   UNL     1     -11.344  11.777  65.801  1.00  0.00    -0.309 C  
HETATM    2  C   UNL     1     -11.681  13.004  66.649  1.00  0.00    -0.381 C  
HETATM    3  C   UNL     1     -12.620  13.926  65.865  1.00  0.00    -0.498 C  
ENDROOT
BRANCH   2   4
HETATM    4  N   UNL     1     -12.281  12.560  67.915  1.00  0.00    -0.282 NA 
HETATM    5  H   UNL     1     -13.112  11.991  67.751  1.00  0.00     0.000 HD 
BRANCH   4   6
HETATM    6  C   UNL     1     -11.311  11.853  68.771  1.00  0.00    -0.274 C  
BRANCH   6   7
HETATM    7  C   UNL     1     -11.674  11.906  70.274  1.00  0.00    -0.205 C  
HETATM    8  H   UNL     1     -13.037  12.785  71.382  1.00  0.00     0.000 HD 
HETATM    9  O   UNL     1     -12.814  12.752  70.459  1.00  0.00    -0.047 OA 
BRANCH   7  10
HETATM   10  C   UNL     1     -11.964  10.536  70.869  1.00  0.00    -0.481 A  
HETATM   11  C   UNL     1     -11.120   9.452  70.567  1.00  0.00    -0.330 A  
HETATM   12  C   UNL     1     -11.395   8.186  71.088  1.00  0.00    -0.269 A  
HETATM   13  C   UNL     1     -12.489   7.968  71.915  1.00  0.00    -0.364 A  
HETATM   14  O   UNL     1     -10.604   7.111  70.801  1.00  0.00    -0.218 OA 
HETATM   15  H   UNL     1     -10.791   6.250  71.155  1.00  0.00     0.000 HD 
HETATM   16  C   UNL     1     -13.309   9.040  72.235  1.00  0.00    -0.467 A  
HETATM   17  O   UNL     1     -14.398   8.894  73.042  1.00  0.00    -1.115 OA 
HETATM   18  C   UNL     1     -13.050  10.312  71.733  1.00  0.00    -0.570 A  
HETATM   19  H   UNL     1     -14.960   9.628  73.261  1.00  0.00     0.000 HD 
ENDBRANCH   7  10
ENDBRANCH   6   7
ENDBRANCH   4   6
ENDBRANCH   2   4
TORSDOF 4
ENDMDL
MODEL       86
REMARK 921   NORMALIZED FREE ENERGY PREDICTED BY IDOCK:   -4.64 KCAL/MOL
REMARK 922        TOTAL FREE ENERGY PREDICTED BY IDOCK:   -6.00 KCAL/MOL
REMARK 923 INTER-LIGAND FREE ENERGY PREDICTED BY IDOCK:   -5.65 KCAL/MOL
REMARK 924 INTRA-LIGAND FREE ENERGY PREDICTED BY IDOCK:   -0.35 KCAL/MOL
REMARK 927      BINDING AFFINITY PREDICTED BY RF-SCORE:    0.00 PKD
ROOT
HETATM    1  C   UNL     1      -9.041   7.033  67.689  1.00  0.00    -0.122 C  
HETATM    2  C   UNL     1     -10.191   7.949  67.267  1.00  0.00    -0.273 C  
HETATM    3  C   UNL     1     -10.534   8.903  68.416  1.00  0.00    -0.230 C  
ENDROOT
BRANCH   2   4
HETATM    4  N   UNL     1      -9.801   8.676  66.051  1.00  0.00    -0.459 NA 
HETATM    5  H   UNL     1     -10.584   8.758  65.402  1.00  0.00     0.000 HD 
BRANCH   4   6
HETATM    6  C   UNL     1      -9.219   9.995  66.355  1.00  0.00    -0.156 C  
BRANCH   6   7
HETATM    7  C   UNL     1      -9.297  10.983  65.167  1.00  0.00    -0.220 C  
HETATM    8  H   UNL     1      -9.586  10.862  63.227  1.00  0.00     0.000 HD 
HETATM    9  O   UNL     1      -9.538  10.255  63.957  1.00  0.00    -0.289 OA 
BRANCH   7  10
HETATM   10  C   UNL     1     -10.378  12.042  65.339  1.00  0.00    -0.301 A  
HETATM   11  C   UNL     1     -10.947  12.645  64.203  1.00  0.00    -0.427 A  
HETATM   12  C   UNL     1     -11.920  13.636  64.353  1.00  0.00    -0.437 A  
HETATM   13  C   UNL     1     -12.351  14.040  65.610  1.00  0.00    -0.502 A  
HETATM   14  O   UNL     1     -12.482  14.251  63.272  1.00  0.00    -1.133 OA 
HETATM   15  H   UNL     1     -13.143  14.925  63.373  1.00  0.00     0.000 HD 
HETATM   16  C   UNL     1     -11.809  13.430  66.731  1.00  0.00    -0.403 A  
HETATM   17  O   UNL     1     -12.189  13.779  67.992  1.00  0.00    -0.419 OA 
HETATM   18  C   UNL     1     -10.843  12.435  66.605  1.00  0.00    -0.281 A  
HETATM   19  H   UNL     1     -11.817  13.361  68.760  1.00  0.00     0.000 HD 
ENDBRANCH   7  10
ENDBRANCH   6   7
ENDBRANCH   4   6
ENDBRANCH   2   4
TORSDOF 4
ENDMDL
MODEL       87
REMARK 921   NORMALIZED FREE ENERGY PREDICTED BY IDOCK:   -4.62 KCAL/MOL
REMARK 922        TOTAL FREE ENERGY PREDICTED BY IDOCK:   -5.98 KCAL/MOL
REMARK 923 INTER-LIGAND FREE ENERGY PREDICTED BY IDOCK:   -5.65 KCAL/MOL
REMARK 924 INTRA-LIGAND FREE ENERGY PREDICTED BY IDOCK:   -0.33 KCAL/MOL
REMARK 927      BINDING AFFINITY PREDICTED BY RF-SCORE:    0.00 PKD
ROOT
HETATM    1  C   UNL     1     -10.235   7.073  68.107  1.00  0.00    -0.211 C  
HETATM    2  C   UNL     1     -10.171   7.775  69.464  1.00  0.00    -0.207 C  
HETATM    3  C   UNL     1      -9.511   9.148  69.300  1.00  0.00    -0.158 C  
ENDROOT
BRANCH   2   4
HETATM    4  N   UNL     1     -11.530   7.882  70.012  1.00  0.00    -0.471 NA 
HETATM    5  H   UNL     1     -11.924   6.962  70.207  1.00  0.00     0.000 HD 
BRANCH   4   6
HETATM    6  C   UNL     1     -11.581   8.748  71.203  1.00  0.00    -0.289 C  
BRANCH   6   7
HETATM    7  C   UNL     1     -12.926   9.499  71.352  1.00  0.00    -0.368 C  
HETATM    8  H   UNL     1     -14.342   9.635  72.708  1.00  0.00     0.000 HD 
HETATM    9  O   UNL     1     -13.516   9.174  72.616  1.00  0.00    -0.463 OA 
BRANCH   7  10
HETATM   10  C   UNL     1     -12.783  11.011  71.240  1.00  0.00    -0.537 A  
HETATM   11  C   UNL     1     -13.510  11.845  72.108  1.00  0.00    -0.300 A  
HETATM   12  C   UNL     1     -13.405  13.233  71.994  1.00  0.00    -0.489 A  
HETATM   13  C   UNL     1     -12.583  13.818  71.039  1.00  0.00    -0.446 A  
HETATM   14  O   UNL     1     -14.108  14.070  72.811  1.00  0.00    -0.636 OA 
HETATM   15  H   UNL     1     -14.037  15.013  72.733  1.00  0.00     0.000 HD 
HETATM   16  C   UNL     1     -11.847  12.998  70.198  1.00  0.00    -0.252 A  
HETATM   17  O   UNL     1     -11.021  13.508  69.240  1.00  0.00    -0.372 OA 
HETATM   18  C   UNL     1     -11.930  11.612  70.298  1.00  0.00    -0.445 A  
HETATM   19  H   UNL     1     -10.516  12.946  68.664  1.00  0.00     0.000 HD 
ENDBRANCH   7  10
ENDBRANCH   6   7
ENDBRANCH   4   6
ENDBRANCH   2   4
TORSDOF 4
ENDMDL
MODEL       88
REMARK 921   NORMALIZED FREE ENERGY PREDICTED BY IDOCK:   -4.61 KCAL/MOL
REMARK 922        TOTAL FREE ENERGY PREDICTED BY IDOCK:   -5.97 KCAL/MOL
REMARK 923 INTER-LIGAND FREE ENERGY PREDICTED BY IDOCK:   -5.80 KCAL/MOL
REMARK 924 INTRA-LIGAND FREE ENERGY PREDICTED BY IDOCK:   -0.17 KCAL/MOL
REMARK 927      BINDING AFFINITY PREDICTED BY RF-SCORE:    0.00 PKD
ROOT
HETATM    1  C   UNL     1     -10.534  19.193  66.000  1.00  0.00    -0.546 C  
HETATM    2  C   UNL     1     -10.029  18.693  67.354  1.00  0.00    -0.332 C  
HETATM    3  C   UNL     1     -10.160  19.810  68.394  1.00  0.00    -0.568 C  
ENDROOT
BRANCH   2   4
HETATM    4  N   UNL     1     -10.793  17.497  67.736  1.00  0.00    -0.326 NA 
HETATM    5  H   UNL     1     -11.781  17.598  67.499  1.00  0.00     0.000 HD 
BRANCH   4   6
HETATM    6  C   UNL     1     -10.228  16.267  67.153  1.00  0.00    -0.276 C  
BRANCH   6   7
HETATM    7  C   UNL     1     -11.305  15.228  66.761  1.00  0.00    -0.183 C  
HETATM    8  H   UNL     1     -11.610  13.981  65.274  1.00  0.00     0.000 HD 
HETATM    9  O   UNL     1     -10.948  14.618  65.515  1.00  0.00    -0.311 OA 
BRANCH   7  10
HETATM   10  C   UNL     1     -11.503  14.144  67.811  1.00  0.00    -0.352 A  
HETATM   11  C   UNL     1     -11.574  12.797  67.416  1.00  0.00    -0.415 A  
HETATM   12  C   UNL     1     -11.781  11.799  68.371  1.00  0.00    -0.325 A  
HETATM   13  C   UNL     1     -11.911  12.106  69.719  1.00  0.00    -0.397 A  
HETATM   14  O   UNL     1     -11.870  10.483  68.018  1.00  0.00    -0.765 OA 
HETATM   15  H   UNL     1     -12.011   9.805  68.667  1.00  0.00     0.000 HD 
HETATM   16  C   UNL     1     -11.817  13.432  70.115  1.00  0.00    -0.272 A  
HETATM   17  O   UNL     1     -11.934  13.800  71.422  1.00  0.00    -0.384 OA 
HETATM   18  C   UNL     1     -11.603  14.442  69.181  1.00  0.00    -0.344 A  
HETATM   19  H   UNL     1     -11.870  14.708  71.693  1.00  0.00     0.000 HD 
ENDBRANCH   7  10
ENDBRANCH   6   7
ENDBRANCH   4   6
ENDBRANCH   2   4
TORSDOF 4
ENDMDL
MODEL       89
REMARK 921   NORMALIZED FREE ENERGY PREDICTED BY IDOCK:   -4.60 KCAL/MOL
REMARK 922        TOTAL FREE ENERGY PREDICTED BY IDOCK:   -5.96 KCAL/MOL
REMARK 923 INTER-LIGAND FREE ENERGY PREDICTED BY IDOCK:   -5.71 KCAL/MOL
REMARK 924 INTRA-LIGAND FREE ENERGY PREDICTED BY IDOCK:   -0.25 KCAL/MOL
REMARK 927      BINDING AFFINITY PREDICTED BY RF-SCORE:    0.00 PKD
ROOT
HETATM    1  C   UNL     1      -8.783   9.434  66.935  1.00  0.00    -0.137 C  
HETATM    2  C   UNL     1     -10.213   8.972  66.652  1.00  0.00    -0.263 C  
HETATM    3  C   UNL     1     -10.306   7.453  66.835  1.00  0.00    -0.367 C  
ENDROOT
BRANCH   2   4
HETATM    4  N   UNL     1     -11.133   9.688  67.546  1.00  0.00    -0.421 NA 
HETATM    5  H   UNL     1     -11.692   9.038  68.099  1.00  0.00     0.000 HD 
BRANCH   4   6
HETATM    6  C   UNL     1     -10.429  10.653  68.409  1.00  0.00    -0.188 C  
BRANCH   6   7
HETATM    7  C   UNL     1     -11.108  12.043  68.448  1.00  0.00    -0.245 C  
HETATM    8  H   UNL     1     -12.420  13.021  67.361  1.00  0.00     0.000 HD 
HETATM    9  O   UNL     1     -12.003  12.167  67.337  1.00  0.00    -0.563 OA 
BRANCH   7  10
HETATM   10  C   UNL     1     -11.873  12.299  69.740  1.00  0.00    -0.388 A  
HETATM   11  C   UNL     1     -12.311  11.211  70.517  1.00  0.00    -0.454 A  
HETATM   12  C   UNL     1     -13.036  11.437  71.689  1.00  0.00    -0.393 A  
HETATM   13  C   UNL     1     -13.332  12.725  72.117  1.00  0.00    -0.593 A  
HETATM   14  O   UNL     1     -13.487  10.404  72.457  1.00  0.00    -0.585 OA 
HETATM   15  H   UNL     1     -13.981  10.557  73.254  1.00  0.00     0.000 HD 
HETATM   16  C   UNL     1     -12.881  13.800  71.365  1.00  0.00    -0.369 A  
HETATM   17  O   UNL     1     -13.137  15.088  71.730  1.00  0.00    -0.313 OA 
HETATM   18  C   UNL     1     -12.151  13.598  70.198  1.00  0.00    -0.431 A  
HETATM   19  H   UNL     1     -12.828  15.824  71.216  1.00  0.00     0.000 HD 
ENDBRANCH   7  10
ENDBRANCH   6   7
ENDBRANCH   4   6
ENDBRANCH   2   4
TORSDOF 4
ENDMDL
MODEL       90
REMARK 921   NORMALIZED FREE ENERGY PREDICTED BY IDOCK:   -4.60 KCAL/MOL
REMARK 922        TOTAL FREE ENERGY PREDICTED BY IDOCK:   -5.96 KCAL/MOL
REMARK 923 INTER-LIGAND FREE ENERGY PREDICTED BY IDOCK:   -5.69 KCAL/MOL
REMARK 924 INTRA-LIGAND FREE ENERGY PREDICTED BY IDOCK:   -0.27 KCAL/MOL
REMARK 927      BINDING AFFINITY PREDICTED BY RF-SCORE:    0.00 PKD
ROOT
HETATM    1  C   UNL     1     -10.604   7.397  69.428  1.00  0.00    -0.231 C  
HETATM    2  C   UNL     1     -10.755   8.914  69.313  1.00  0.00    -0.162 C  
HETATM    3  C   UNL     1      -9.658   9.601  70.133  1.00  0.00    -0.300 C  
ENDROOT
BRANCH   2   4
HETATM    4  N   UNL     1     -10.697   9.294  67.895  1.00  0.00    -0.420 NA 
HETATM    5  H   UNL     1     -11.629   9.481  67.524  1.00  0.00     0.000 HD 
BRANCH   4   6
HETATM    6  C   UNL     1      -9.792  10.433  67.662  1.00  0.00    -0.170 C  
BRANCH   6   7
HETATM    7  C   UNL     1      -9.785  10.914  66.191  1.00  0.00    -0.210 C  
HETATM    8  H   UNL     1     -10.128  10.118  64.428  1.00  0.00     0.000 HD 
HETATM    9  O   UNL     1     -10.133   9.823  65.332  1.00  0.00    -0.305 OA 
BRANCH   7  10
HETATM   10  C   UNL     1     -10.735  12.076  65.936  1.00  0.00    -0.314 A  
HETATM   11  C   UNL     1     -11.212  12.836  67.019  1.00  0.00    -0.336 A  
HETATM   12  C   UNL     1     -12.104  13.887  66.796  1.00  0.00    -0.439 A  
HETATM   13  C   UNL     1     -12.531  14.211  65.514  1.00  0.00    -0.495 A  
HETATM   14  O   UNL     1     -12.597  14.633  67.826  1.00  0.00    -0.446 OA 
HETATM   15  H   UNL     1     -13.204  15.348  67.674  1.00  0.00     0.000 HD 
HETATM   16  C   UNL     1     -12.043  13.479  64.442  1.00  0.00    -0.420 A  
HETATM   17  O   UNL     1     -12.421  13.747  63.160  1.00  0.00    -1.089 OA 
HETATM   18  C   UNL     1     -11.147  12.432  64.640  1.00  0.00    -0.348 A  
HETATM   19  H   UNL     1     -12.087  13.245  62.425  1.00  0.00     0.000 HD 
ENDBRANCH   7  10
ENDBRANCH   6   7
ENDBRANCH   4   6
ENDBRANCH   2   4
TORSDOF 4
ENDMDL
MODEL       91
REMARK 921   NORMALIZED FREE ENERGY PREDICTED BY IDOCK:   -4.60 KCAL/MOL
REMARK 922        TOTAL FREE ENERGY PREDICTED BY IDOCK:   -5.95 KCAL/MOL
REMARK 923 INTER-LIGAND FREE ENERGY PREDICTED BY IDOCK:   -5.74 KCAL/MOL
REMARK 924 INTRA-LIGAND FREE ENERGY PREDICTED BY IDOCK:   -0.22 KCAL/MOL
REMARK 927      BINDING AFFINITY PREDICTED BY RF-SCORE:    0.00 PKD
ROOT
HETATM    1  C   UNL     1     -11.983  12.541  65.844  1.00  0.00    -0.472 C  
HETATM    2  C   UNL     1     -11.178  12.876  64.588  1.00  0.00    -0.320 C  
HETATM    3  C   UNL     1     -12.131  13.298  63.466  1.00  0.00    -0.550 C  
ENDROOT
BRANCH   2   4
HETATM    4  N   UNL     1     -10.209  13.933  64.910  1.00  0.00    -0.558 NA 
HETATM    5  H   UNL     1      -9.672  14.206  64.086  1.00  0.00     0.000 HD 
BRANCH   4   6
HETATM    6  C   UNL     1     -10.850  15.101  65.540  1.00  0.00    -0.364 C  
BRANCH   6   7
HETATM    7  C   UNL     1     -10.301  15.408  66.953  1.00  0.00    -0.277 C  
HETATM    8  H   UNL     1      -8.876  14.712  68.113  1.00  0.00     0.000 HD 
HETATM    9  O   UNL     1      -9.213  14.524  67.244  1.00  0.00    -0.192 OA 
BRANCH   7  10
HETATM   10  C   UNL     1      -9.833  16.848  67.114  1.00  0.00    -0.270 A  
HETATM   11  C   UNL     1      -8.872  17.371  66.230  1.00  0.00    -0.236 A  
HETATM   12  C   UNL     1      -8.419  18.682  66.387  1.00  0.00    -0.272 A  
HETATM   13  C   UNL     1      -8.905  19.497  67.402  1.00  0.00    -0.363 A  
HETATM   14  O   UNL     1      -7.477  19.214  65.555  1.00  0.00    -0.462 OA 
HETATM   15  H   UNL     1      -7.168  20.106  65.662  1.00  0.00     0.000 HD 
HETATM   16  C   UNL     1      -9.870  18.992  68.260  1.00  0.00    -0.378 A  
HETATM   17  O   UNL     1     -10.388  19.739  69.275  1.00  0.00    -0.636 OA 
HETATM   18  C   UNL     1     -10.342  17.690  68.118  1.00  0.00    -0.386 A  
HETATM   19  H   UNL     1     -11.050  19.394  69.864  1.00  0.00     0.000 HD 
ENDBRANCH   7  10
ENDBRANCH   6   7
ENDBRANCH   4   6
ENDBRANCH   2   4
TORSDOF 4
ENDMDL
MODEL       92
REMARK 921   NORMALIZED FREE ENERGY PREDICTED BY IDOCK:   -4.58 KCAL/MOL
REMARK 922        TOTAL FREE ENERGY PREDICTED BY IDOCK:   -5.93 KCAL/MOL
REMARK 923 INTER-LIGAND FREE ENERGY PREDICTED BY IDOCK:   -5.67 KCAL/MOL
REMARK 924 INTRA-LIGAND FREE ENERGY PREDICTED BY IDOCK:   -0.26 KCAL/MOL
REMARK 927      BINDING AFFINITY PREDICTED BY RF-SCORE:    0.00 PKD
ROOT
HETATM    1  C   UNL     1     -10.942   6.594  68.628  1.00  0.00    -0.317 C  
HETATM    2  C   UNL     1     -10.205   7.746  67.943  1.00  0.00    -0.206 C  
HETATM    3  C   UNL     1      -9.675   7.278  66.583  1.00  0.00    -0.249 C  
ENDROOT
BRANCH   2   4
HETATM    4  N   UNL     1     -11.122   8.887  67.809  1.00  0.00    -0.445 NA 
HETATM    5  H   UNL     1     -12.074   8.628  68.068  1.00  0.00     0.000 HD 
BRANCH   4   6
HETATM    6  C   UNL     1     -10.662  10.060  68.573  1.00  0.00    -0.231 C  
BRANCH   6   7
HETATM    7  C   UNL     1      -9.821  11.045  67.727  1.00  0.00    -0.173 C  
HETATM    8  H   UNL     1      -8.058  11.036  66.860  1.00  0.00     0.000 HD 
HETATM    9  O   UNL     1      -8.575  10.431  67.379  1.00  0.00    -0.125 OA 
BRANCH   7  10
HETATM   10  C   UNL     1     -10.527  11.499  66.458  1.00  0.00    -0.284 A  
HETATM   11  C   UNL     1     -11.569  12.440  66.539  1.00  0.00    -0.447 A  
HETATM   12  C   UNL     1     -12.240  12.842  65.382  1.00  0.00    -0.478 A  
HETATM   13  C   UNL     1     -11.894  12.336  64.136  1.00  0.00    -0.502 A  
HETATM   14  O   UNL     1     -13.264  13.743  65.429  1.00  0.00    -0.722 OA 
HETATM   15  H   UNL     1     -13.721  14.015  64.643  1.00  0.00     0.000 HD 
HETATM   16  C   UNL     1     -10.852  11.426  64.049  1.00  0.00    -0.383 A  
HETATM   17  O   UNL     1     -10.463  10.893  62.857  1.00  0.00    -0.758 OA 
HETATM   18  C   UNL     1     -10.164  11.017  65.188  1.00  0.00    -0.352 A  
HETATM   19  H   UNL     1      -9.748  10.269  62.797  1.00  0.00     0.000 HD 
ENDBRANCH   7  10
ENDBRANCH   6   7
ENDBRANCH   4   6
ENDBRANCH   2   4
TORSDOF 4
ENDMDL
MODEL       93
REMARK 921   NORMALIZED FREE ENERGY PREDICTED BY IDOCK:   -4.56 KCAL/MOL
REMARK 922        TOTAL FREE ENERGY PREDICTED BY IDOCK:   -5.91 KCAL/MOL
REMARK 923 INTER-LIGAND FREE ENERGY PREDICTED BY IDOCK:   -5.59 KCAL/MOL
REMARK 924 INTRA-LIGAND FREE ENERGY PREDICTED BY IDOCK:   -0.32 KCAL/MOL
REMARK 927      BINDING AFFINITY PREDICTED BY RF-SCORE:    0.00 PKD
ROOT
HETATM    1  C   UNL     1     -10.205  19.169  66.427  1.00  0.00    -0.515 C  
HETATM    2  C   UNL     1      -9.017  18.206  66.411  1.00  0.00    -0.239 C  
HETATM    3  C   UNL     1      -8.517  17.986  67.842  1.00  0.00    -0.253 C  
ENDROOT
BRANCH   2   4
HETATM    4  N   UNL     1      -9.432  16.946  65.776  1.00  0.00    -0.531 NA 
HETATM    5  H   UNL     1      -8.662  16.277  65.746  1.00  0.00     0.000 HD 
BRANCH   4   6
HETATM    6  C   UNL     1     -10.621  16.364  66.424  1.00  0.00    -0.236 C  
BRANCH   6   7
HETATM    7  C   UNL     1     -10.769  14.845  66.170  1.00  0.00    -0.317 C  
HETATM    8  H   UNL     1      -9.631  13.394  65.491  1.00  0.00     0.000 HD 
HETATM    9  O   UNL     1      -9.540  14.327  65.648  1.00  0.00    -0.231 OA 
BRANCH   7  10
HETATM   10  C   UNL     1     -11.151  14.063  67.420  1.00  0.00    -0.317 A  
HETATM   11  C   UNL     1     -11.115  14.697  68.675  1.00  0.00    -0.276 A  
HETATM   12  C   UNL     1     -11.439  13.979  69.829  1.00  0.00    -0.230 A  
HETATM   13  C   UNL     1     -11.808  12.642  69.767  1.00  0.00    -0.379 A  
HETATM   14  O   UNL     1     -11.400  14.561  71.063  1.00  0.00    -0.518 OA 
HETATM   15  H   UNL     1     -11.620  14.073  71.847  1.00  0.00     0.000 HD 
HETATM   16  C   UNL     1     -11.868  12.021  68.528  1.00  0.00    -0.311 A  
HETATM   17  O   UNL     1     -12.224  10.712  68.398  1.00  0.00    -0.822 OA 
HETATM   18  C   UNL     1     -11.557  12.719  67.364  1.00  0.00    -0.415 A  
HETATM   19  H   UNL     1     -12.265  10.287  67.549  1.00  0.00     0.000 HD 
ENDBRANCH   7  10
ENDBRANCH   6   7
ENDBRANCH   4   6
ENDBRANCH   2   4
TORSDOF 4
ENDMDL
MODEL       94
REMARK 921   NORMALIZED FREE ENERGY PREDICTED BY IDOCK:   -4.55 KCAL/MOL
REMARK 922        TOTAL FREE ENERGY PREDICTED BY IDOCK:   -5.90 KCAL/MOL
REMARK 923 INTER-LIGAND FREE ENERGY PREDICTED BY IDOCK:   -5.50 KCAL/MOL
REMARK 924 INTRA-LIGAND FREE ENERGY PREDICTED BY IDOCK:   -0.39 KCAL/MOL
REMARK 927      BINDING AFFINITY PREDICTED BY RF-SCORE:    0.00 PKD
ROOT
HETATM    1  C   UNL     1     -12.379  13.047  65.495  1.00  0.00    -0.527 C  
HETATM    2  C   UNL     1     -11.125  13.818  65.079  1.00  0.00    -0.346 C  
HETATM    3  C   UNL     1     -11.520  15.223  64.611  1.00  0.00    -0.356 C  
ENDROOT
BRANCH   2   4
HETATM    4  N   UNL     1     -10.193  13.861  66.214  1.00  0.00    -0.289 NA 
HETATM    5  H   UNL     1      -9.224  13.900  65.896  1.00  0.00     0.000 HD 
BRANCH   4   6
HETATM    6  C   UNL     1     -10.495  14.969  67.139  1.00  0.00    -0.277 C  
BRANCH   6   7
HETATM    7  C   UNL     1      -9.263  15.848  67.458  1.00  0.00    -0.207 C  
HETATM    8  H   UNL     1      -7.492  16.164  66.667  1.00  0.00     0.000 HD 
HETATM    9  O   UNL     1      -8.249  15.624  66.471  1.00  0.00    -0.264 OA 
BRANCH   7  10
HETATM   10  C   UNL     1      -9.586  17.335  67.515  1.00  0.00    -0.259 A  
HETATM   11  C   UNL     1      -9.806  17.952  68.760  1.00  0.00    -0.354 A  
HETATM   12  C   UNL     1     -10.129  19.309  68.819  1.00  0.00    -0.401 A  
HETATM   13  C   UNL     1     -10.232  20.077  67.666  1.00  0.00    -0.548 A  
HETATM   14  O   UNL     1     -10.362  19.934  70.010  1.00  0.00    -0.572 OA 
HETATM   15  H   UNL     1     -10.582  20.857  70.050  1.00  0.00     0.000 HD 
HETATM   16  C   UNL     1      -9.993  19.477  66.439  1.00  0.00    -0.438 A  
HETATM   17  O   UNL     1     -10.077  20.174  65.271  1.00  0.00    -0.332 OA 
HETATM   18  C   UNL     1      -9.662  18.127  66.357  1.00  0.00    -0.329 A  
HETATM   19  H   UNL     1      -9.912  19.763  64.430  1.00  0.00     0.000 HD 
ENDBRANCH   7  10
ENDBRANCH   6   7
ENDBRANCH   4   6
ENDBRANCH   2   4
TORSDOF 4
ENDMDL
MODEL       95
REMARK 921   NORMALIZED FREE ENERGY PREDICTED BY IDOCK:   -4.51 KCAL/MOL
REMARK 922        TOTAL FREE ENERGY PREDICTED BY IDOCK:   -5.85 KCAL/MOL
REMARK 923 INTER-LIGAND FREE ENERGY PREDICTED BY IDOCK:   -5.52 KCAL/MOL
REMARK 924 INTRA-LIGAND FREE ENERGY PREDICTED BY IDOCK:   -0.33 KCAL/MOL
REMARK 927      BINDING AFFINITY PREDICTED BY RF-SCORE:    0.00 PKD
ROOT
HETATM    1  C   UNL     1     -10.679  19.301  66.547  1.00  0.00    -0.487 C  
HETATM    2  C   UNL     1      -9.499  18.332  66.638  1.00  0.00    -0.308 C  
HETATM    3  C   UNL     1      -9.192  18.036  68.110  1.00  0.00    -0.283 C  
ENDROOT
BRANCH   2   4
HETATM    4  N   UNL     1      -9.826  17.110  65.891  1.00  0.00    -0.532 NA 
HETATM    5  H   UNL     1      -9.271  17.039  65.038  1.00  0.00     0.000 HD 
BRANCH   4   6
HETATM    6  C   UNL     1      -9.687  15.899  66.720  1.00  0.00    -0.238 C  
BRANCH   6   7
HETATM    7  C   UNL     1     -10.981  15.053  66.781  1.00  0.00    -0.323 C  
HETATM    8  H   UNL     1     -11.567  13.293  66.135  1.00  0.00     0.000 HD 
HETATM    9  O   UNL     1     -10.773  13.812  66.097  1.00  0.00    -0.280 OA 
BRANCH   7  10
HETATM   10  C   UNL     1     -11.444  14.769  68.204  1.00  0.00    -0.343 A  
HETATM   11  C   UNL     1     -11.601  15.832  69.110  1.00  0.00    -0.399 A  
HETATM   12  C   UNL     1     -11.999  15.577  70.425  1.00  0.00    -0.367 A  
HETATM   13  C   UNL     1     -12.256  14.284  70.862  1.00  0.00    -0.425 A  
HETATM   14  O   UNL     1     -12.147  16.585  71.332  1.00  0.00    -0.555 OA 
HETATM   15  H   UNL     1     -12.417  16.411  72.226  1.00  0.00     0.000 HD 
HETATM   16  C   UNL     1     -12.125  13.236  69.964  1.00  0.00    -0.315 A  
HETATM   17  O   UNL     1     -12.362  11.944  70.330  1.00  0.00    -0.274 OA 
HETATM   18  C   UNL     1     -11.736  13.467  68.648  1.00  0.00    -0.389 A  
HETATM   19  H   UNL     1     -12.273  11.226  69.714  1.00  0.00     0.000 HD 
ENDBRANCH   7  10
ENDBRANCH   6   7
ENDBRANCH   4   6
ENDBRANCH   2   4
TORSDOF 4
ENDMDL
MODEL       96
REMARK 921   NORMALIZED FREE ENERGY PREDICTED BY IDOCK:   -4.47 KCAL/MOL
REMARK 922        TOTAL FREE ENERGY PREDICTED BY IDOCK:   -5.79 KCAL/MOL
REMARK 923 INTER-LIGAND FREE ENERGY PREDICTED BY IDOCK:   -5.60 KCAL/MOL
REMARK 924 INTRA-LIGAND FREE ENERGY PREDICTED BY IDOCK:   -0.20 KCAL/MOL
REMARK 927      BINDING AFFINITY PREDICTED BY RF-SCORE:    0.00 PKD
ROOT
HETATM    1  C   UNL     1     -10.750   7.435  67.120  1.00  0.00    -0.400 C  
HETATM    2  C   UNL     1     -10.133   8.748  67.603  1.00  0.00    -0.216 C  
HETATM    3  C   UNL     1      -9.132   9.258  66.561  1.00  0.00    -0.191 C  
ENDROOT
BRANCH   2   4
HETATM    4  N   UNL     1     -11.208   9.719  67.850  1.00  0.00    -0.505 NA 
HETATM    5  H   UNL     1     -12.082   9.251  68.089  1.00  0.00     0.000 HD 
BRANCH   4   6
HETATM    6  C   UNL     1     -10.836  10.710  68.875  1.00  0.00    -0.231 C  
BRANCH   6   7
HETATM    7  C   UNL     1     -11.898  10.859  69.991  1.00  0.00    -0.347 C  
HETATM    8  H   UNL     1     -12.087  10.300  71.865  1.00  0.00     0.000 HD 
HETATM    9  O   UNL     1     -11.435  10.209  71.180  1.00  0.00    -0.357 OA 
BRANCH   7  10
HETATM   10  C   UNL     1     -12.231  12.310  70.311  1.00  0.00    -0.342 A  
HETATM   11  C   UNL     1     -12.790  12.637  71.559  1.00  0.00    -0.368 A  
HETATM   12  C   UNL     1     -13.123  13.962  71.850  1.00  0.00    -0.385 A  
HETATM   13  C   UNL     1     -12.904  14.979  70.930  1.00  0.00    -0.451 A  
HETATM   14  O   UNL     1     -13.680  14.310  73.046  1.00  0.00    -0.613 OA 
HETATM   15  H   UNL     1     -13.906  15.211  73.244  1.00  0.00     0.000 HD 
HETATM   16  C   UNL     1     -12.331  14.663  69.707  1.00  0.00    -0.262 A  
HETATM   17  O   UNL     1     -12.090  15.615  68.761  1.00  0.00    -0.559 OA 
HETATM   18  C   UNL     1     -11.985  13.351  69.398  1.00  0.00    -0.369 A  
HETATM   19  H   UNL     1     -11.697  15.398  67.923  1.00  0.00     0.000 HD 
ENDBRANCH   7  10
ENDBRANCH   6   7
ENDBRANCH   4   6
ENDBRANCH   2   4
TORSDOF 4
ENDMDL
MODEL       97
REMARK 921   NORMALIZED FREE ENERGY PREDICTED BY IDOCK:   -4.47 KCAL/MOL
REMARK 922        TOTAL FREE ENERGY PREDICTED BY IDOCK:   -5.79 KCAL/MOL
REMARK 923 INTER-LIGAND FREE ENERGY PREDICTED BY IDOCK:   -5.49 KCAL/MOL
REMARK 924 INTRA-LIGAND FREE ENERGY PREDICTED BY IDOCK:   -0.31 KCAL/MOL
REMARK 927      BINDING AFFINITY PREDICTED BY RF-SCORE:    0.00 PKD
ROOT
HETATM    1  C   UNL     1     -10.784   6.131  66.847  1.00  0.00    -0.413 C  
HETATM    2  C   UNL     1      -9.692   5.925  67.898  1.00  0.00    -0.119 C  
HETATM    3  C   UNL     1      -8.498   5.205  67.262  1.00  0.00    -0.106 C  
ENDROOT
BRANCH   2   4
HETATM    4  N   UNL     1      -9.310   7.231  68.453  1.00  0.00    -0.143 NA 
HETATM    5  H   UNL     1      -9.864   7.983  68.042  1.00  0.00     0.000 HD 
BRANCH   4   6
HETATM    6  C   UNL     1      -9.389   7.253  69.924  1.00  0.00    -0.154 C  
BRANCH   6   7
HETATM    7  C   UNL     1     -10.792   6.888  70.464  1.00  0.00    -0.253 C  
HETATM    8  H   UNL     1     -11.524   5.707  71.854  1.00  0.00     0.000 HD 
HETATM    9  O   UNL     1     -10.662   5.932  71.522  1.00  0.00    -0.239 OA 
BRANCH   7  10
HETATM   10  C   UNL     1     -11.572   8.093  70.970  1.00  0.00    -0.301 A  
HETATM   11  C   UNL     1     -11.251   9.378  70.497  1.00  0.00    -0.329 A  
HETATM   12  C   UNL     1     -11.944  10.492  70.977  1.00  0.00    -0.364 A  
HETATM   13  C   UNL     1     -12.961  10.361  71.914  1.00  0.00    -0.555 A  
HETATM   14  O   UNL     1     -11.648  11.754  70.549  1.00  0.00    -0.493 OA 
HETATM   15  H   UNL     1     -12.119  12.511  70.875  1.00  0.00     0.000 HD 
HETATM   16  C   UNL     1     -13.295   9.092  72.365  1.00  0.00    -0.463 A  
HETATM   17  O   UNL     1     -14.283   8.895  73.283  1.00  0.00    -1.197 OA 
HETATM   18  C   UNL     1     -12.623   7.968  71.895  1.00  0.00    -0.359 A  
HETATM   19  H   UNL     1     -14.512   8.026  73.592  1.00  0.00     0.000 HD 
ENDBRANCH   7  10
ENDBRANCH   6   7
ENDBRANCH   4   6
ENDBRANCH   2   4
TORSDOF 4
ENDMDL
MODEL       98
REMARK 921   NORMALIZED FREE ENERGY PREDICTED BY IDOCK:   -4.46 KCAL/MOL
REMARK 922        TOTAL FREE ENERGY PREDICTED BY IDOCK:   -5.79 KCAL/MOL
REMARK 923 INTER-LIGAND FREE ENERGY PREDICTED BY IDOCK:   -5.08 KCAL/MOL
REMARK 924 INTRA-LIGAND FREE ENERGY PREDICTED BY IDOCK:   -0.71 KCAL/MOL
REMARK 927      BINDING AFFINITY PREDICTED BY RF-SCORE:    0.00 PKD
ROOT
HETATM    1  C   UNL     1      -9.609  14.634  68.934  1.00  0.00    -0.184 C  
HETATM    2  C   UNL     1     -10.934  14.201  68.306  1.00  0.00    -0.251 C  
HETATM    3  C   UNL     1     -12.018  15.233  68.633  1.00  0.00    -0.263 C  
ENDROOT
BRANCH   2   4
HETATM    4  N   UNL     1     -10.747  14.045  66.856  1.00  0.00    -0.284 NA 
HETATM    5  H   UNL     1     -10.989  13.102  66.552  1.00  0.00     0.000 HD 
BRANCH   4   6
HETATM    6  C   UNL     1     -11.490  15.060  66.088  1.00  0.00    -0.222 C  
BRANCH   6   7
HETATM    7  C   UNL     1     -10.570  15.992  65.263  1.00  0.00    -0.402 C  
HETATM    8  H   UNL     1     -10.789  17.270  63.787  1.00  0.00     0.000 HD 
HETATM    9  O   UNL     1     -11.353  16.698  64.294  1.00  0.00    -1.116 OA 
BRANCH   7  10
HETATM   10  C   UNL     1      -9.809  16.994  66.120  1.00  0.00    -0.297 A  
HETATM   11  C   UNL     1      -8.409  16.906  66.216  1.00  0.00    -0.331 A  
HETATM   12  C   UNL     1      -7.706  17.806  67.020  1.00  0.00    -0.210 A  
HETATM   13  C   UNL     1      -8.362  18.804  67.730  1.00  0.00    -0.293 A  
HETATM   14  O   UNL     1      -6.349  17.738  67.146  1.00  0.00    -0.152 OA 
HETATM   15  H   UNL     1      -5.871  18.350  67.693  1.00  0.00     0.000 HD 
HETATM   16  C   UNL     1      -9.740  18.908  67.618  1.00  0.00    -0.314 A  
HETATM   17  O   UNL     1     -10.443  19.865  68.287  1.00  0.00    -0.426 OA 
HETATM   18  C   UNL     1     -10.460  18.027  66.816  1.00  0.00    -0.335 A  
HETATM   19  H   UNL     1     -11.388  19.937  68.210  1.00  0.00     0.000 HD 
ENDBRANCH   7  10
ENDBRANCH   6   7
ENDBRANCH   4   6
ENDBRANCH   2   4
TORSDOF 4
ENDMDL
MODEL       99
REMARK 921   NORMALIZED FREE ENERGY PREDICTED BY IDOCK:   -4.46 KCAL/MOL
REMARK 922        TOTAL FREE ENERGY PREDICTED BY IDOCK:   -5.78 KCAL/MOL
REMARK 923 INTER-LIGAND FREE ENERGY PREDICTED BY IDOCK:   -5.49 KCAL/MOL
REMARK 924 INTRA-LIGAND FREE ENERGY PREDICTED BY IDOCK:   -0.29 KCAL/MOL
REMARK 927      BINDING AFFINITY PREDICTED BY RF-SCORE:    0.00 PKD
ROOT
HETATM    1  C   UNL     1     -10.209   7.290  69.184  1.00  0.00    -0.197 C  
HETATM    2  C   UNL     1     -10.687   8.586  69.840  1.00  0.00    -0.224 C  
HETATM    3  C   UNL     1      -9.588   9.132  70.758  1.00  0.00    -0.338 C  
ENDROOT
BRANCH   2   4
HETATM    4  N   UNL     1     -11.051   9.547  68.790  1.00  0.00    -0.456 NA 
HETATM    5  H   UNL     1     -11.840  10.127  69.077  1.00  0.00     0.000 HD 
BRANCH   4   6
HETATM    6  C   UNL     1      -9.904  10.374  68.374  1.00  0.00    -0.162 C  
BRANCH   6   7
HETATM    7  C   UNL     1      -9.905  10.697  66.860  1.00  0.00    -0.188 C  
HETATM    8  H   UNL     1     -10.273   9.723  65.194  1.00  0.00     0.000 HD 
HETATM    9  O   UNL     1     -10.273   9.525  66.123  1.00  0.00    -0.273 OA 
BRANCH   7  10
HETATM   10  C   UNL     1     -10.845  11.836  66.491  1.00  0.00    -0.323 A  
HETATM   11  C   UNL     1     -11.339  11.934  65.178  1.00  0.00    -0.328 A  
HETATM   12  C   UNL     1     -12.180  12.991  64.825  1.00  0.00    -0.435 A  
HETATM   13  C   UNL     1     -12.554  13.956  65.752  1.00  0.00    -0.533 A  
HETATM   14  O   UNL     1     -12.664  13.123  63.556  1.00  0.00    -0.711 OA 
HETATM   15  H   UNL     1     -13.236  13.842  63.316  1.00  0.00     0.000 HD 
HETATM   16  C   UNL     1     -12.088  13.849  67.054  1.00  0.00    -0.415 A  
HETATM   17  O   UNL     1     -12.418  14.761  68.011  1.00  0.00    -0.571 OA 
HETATM   18  C   UNL     1     -11.255  12.799  67.430  1.00  0.00    -0.337 A  
HETATM   19  H   UNL     1     -12.100  14.688  68.903  1.00  0.00     0.000 HD 
ENDBRANCH   7  10
ENDBRANCH   6   7
ENDBRANCH   4   6
ENDBRANCH   2   4
TORSDOF 4
ENDMDL
MODEL      100
REMARK 921   NORMALIZED FREE ENERGY PREDICTED BY IDOCK:   -4.44 KCAL/MOL
REMARK 922        TOTAL FREE ENERGY PREDICTED BY IDOCK:   -5.76 KCAL/MOL
REMARK 923 INTER-LIGAND FREE ENERGY PREDICTED BY IDOCK:   -5.52 KCAL/MOL
REMARK 924 INTRA-LIGAND FREE ENERGY PREDICTED BY IDOCK:   -0.25 KCAL/MOL
REMARK 927      BINDING AFFINITY PREDICTED BY RF-SCORE:    0.00 PKD
ROOT
HETATM    1  C   UNL     1      -6.760  20.798  67.331  1.00  0.00    -0.400 C  
HETATM    2  C   UNL     1      -7.008  20.295  65.909  1.00  0.00    -0.267 C  
HETATM    3  C   UNL     1      -5.883  19.338  65.501  1.00  0.00    -0.214 C  
ENDROOT
BRANCH   2   4
HETATM    4  N   UNL     1      -8.325  19.645  65.855  1.00  0.00    -0.417 NA 
HETATM    5  H   UNL     1      -8.551  19.346  64.906  1.00  0.00     0.000 HD 
BRANCH   4   6
HETATM    6  C   UNL     1      -8.431  18.525  66.807  1.00  0.00    -0.282 C  
BRANCH   6   7
HETATM    7  C   UNL     1      -9.884  18.251  67.265  1.00  0.00    -0.321 C  
HETATM    8  H   UNL     1     -11.662  19.002  66.896  1.00  0.00     0.000 HD 
HETATM    9  O   UNL     1     -10.770  19.170  66.615  1.00  0.00    -0.417 OA 
BRANCH   7  10
HETATM   10  C   UNL     1     -10.343  16.827  66.981  1.00  0.00    -0.300 A  
HETATM   11  C   UNL     1     -11.136  16.151  67.925  1.00  0.00    -0.293 A  
HETATM   12  C   UNL     1     -11.539  14.835  67.685  1.00  0.00    -0.354 A  
HETATM   13  C   UNL     1     -11.179  14.173  66.518  1.00  0.00    -0.333 A  
HETATM   14  O   UNL     1     -12.296  14.147  68.587  1.00  0.00    -0.553 OA 
HETATM   15  H   UNL     1     -12.570  13.252  68.423  1.00  0.00     0.000 HD 
HETATM   16  C   UNL     1     -10.417  14.846  65.575  1.00  0.00    -0.360 A  
HETATM   17  O   UNL     1     -10.032  14.253  64.409  1.00  0.00    -0.634 OA 
HETATM   18  C   UNL     1     -10.011  16.159  65.790  1.00  0.00    -0.370 A  
HETATM   19  H   UNL     1      -9.511  14.714  63.762  1.00  0.00     0.000 HD 
ENDBRANCH   7  10
ENDBRANCH   6   7
ENDBRANCH   4   6
ENDBRANCH   2   4
TORSDOF 4
ENDMDL
MODEL      101
REMARK 921   NORMALIZED FREE ENERGY PREDICTED BY IDOCK:   -4.44 KCAL/MOL
REMARK 922        TOTAL FREE ENERGY PREDICTED BY IDOCK:   -5.76 KCAL/MOL
REMARK 923 INTER-LIGAND FREE ENERGY PREDICTED BY IDOCK:   -5.52 KCAL/MOL
REMARK 924 INTRA-LIGAND FREE ENERGY PREDICTED BY IDOCK:   -0.25 KCAL/MOL
REMARK 927      BINDING AFFINITY PREDICTED BY RF-SCORE:    0.00 PKD
ROOT
HETATM    1  C   UNL     1      -8.613  16.397  66.318  1.00  0.00    -0.375 C  
HETATM    2  C   UNL     1      -9.989  17.053  66.199  1.00  0.00    -0.298 C  
HETATM    3  C   UNL     1      -9.834  18.577  66.228  1.00  0.00    -0.352 C  
ENDROOT
BRANCH   2   4
HETATM    4  N   UNL     1     -10.634  16.592  64.962  1.00  0.00    -0.698 NA 
HETATM    5  H   UNL     1     -10.156  16.956  64.138  1.00  0.00     0.000 HD 
BRANCH   4   6
HETATM    6  C   UNL     1     -10.744  15.123  64.909  1.00  0.00    -0.398 C  
BRANCH   6   7
HETATM    7  C   UNL     1     -11.795  14.556  65.892  1.00  0.00    -0.331 C  
HETATM    8  H   UNL     1     -13.548  13.679  65.758  1.00  0.00     0.000 HD 
HETATM    9  O   UNL     1     -12.902  14.027  65.153  1.00  0.00    -0.696 OA 
BRANCH   7  10
HETATM   10  C   UNL     1     -11.238  13.471  66.804  1.00  0.00    -0.327 A  
HETATM   11  C   UNL     1     -12.095  12.476  67.307  1.00  0.00    -0.133 A  
HETATM   12  C   UNL     1     -11.597  11.493  68.165  1.00  0.00    -0.308 A  
HETATM   13  C   UNL     1     -10.258  11.467  68.532  1.00  0.00    -0.219 A  
HETATM   14  O   UNL     1     -12.406  10.523  68.681  1.00  0.00    -0.785 OA 
HETATM   15  H   UNL     1     -12.067   9.855  69.265  1.00  0.00     0.000 HD 
HETATM   16  C   UNL     1      -9.405  12.433  68.018  1.00  0.00    -0.204 A  
HETATM   17  O   UNL     1      -8.081  12.463  68.338  1.00  0.00    -0.154 OA 
HETATM   18  C   UNL     1      -9.878  13.418  67.156  1.00  0.00    -0.237 A  
HETATM   19  H   UNL     1      -7.496  13.124  67.986  1.00  0.00     0.000 HD 
ENDBRANCH   7  10
ENDBRANCH   6   7
ENDBRANCH   4   6
ENDBRANCH   2   4
TORSDOF 4
ENDMDL
MODEL      102
REMARK 921   NORMALIZED FREE ENERGY PREDICTED BY IDOCK:   -4.44 KCAL/MOL
REMARK 922        TOTAL FREE ENERGY PREDICTED BY IDOCK:   -5.76 KCAL/MOL
REMARK 923 INTER-LIGAND FREE ENERGY PREDICTED BY IDOCK:   -5.55 KCAL/MOL
REMARK 924 INTRA-LIGAND FREE ENERGY PREDICTED BY IDOCK:   -0.21 KCAL/MOL
REMARK 927      BINDING AFFINITY PREDICTED BY RF-SCORE:    0.00 PKD
ROOT
HETATM    1  C   UNL     1      -9.379   7.590  66.598  1.00  0.00    -0.222 C  
HETATM    2  C   UNL     1      -8.986   9.051  66.374  1.00  0.00    -0.155 C  
HETATM    3  C   UNL     1      -8.520   9.240  64.927  1.00  0.00    -0.182 C  
ENDROOT
BRANCH   2   4
HETATM    4  N   UNL     1     -10.134   9.910  66.695  1.00  0.00    -0.223 NA 
HETATM    5  H   UNL     1     -10.501   9.703  67.625  1.00  0.00     0.000 HD 
BRANCH   4   6
HETATM    6  C   UNL     1      -9.813  11.341  66.555  1.00  0.00    -0.208 C  
BRANCH   6   7
HETATM    7  C   UNL     1     -10.952  12.159  65.900  1.00  0.00    -0.292 C  
HETATM    8  H   UNL     1     -12.858  12.485  66.252  1.00  0.00     0.000 HD 
HETATM    9  O   UNL     1     -12.158  11.983  66.654  1.00  0.00    -0.615 OA 
BRANCH   7  10
HETATM   10  C   UNL     1     -10.639  13.645  65.796  1.00  0.00    -0.285 A  
HETATM   11  C   UNL     1     -11.308  14.431  64.841  1.00  0.00    -0.380 A  
HETATM   12  C   UNL     1     -11.007  15.790  64.720  1.00  0.00    -0.393 A  
HETATM   13  C   UNL     1     -10.059  16.394  65.536  1.00  0.00    -0.238 A  
HETATM   14  O   UNL     1     -11.627  16.577  63.794  1.00  0.00    -1.617 OA 
HETATM   15  H   UNL     1     -11.422  17.501  63.712  1.00  0.00     0.000 HD 
HETATM   16  C   UNL     1      -9.415  15.626  66.495  1.00  0.00    -0.274 A  
HETATM   17  O   UNL     1      -8.476  16.158  67.328  1.00  0.00    -0.167 OA 
HETATM   18  C   UNL     1      -9.705  14.272  66.638  1.00  0.00    -0.297 A  
HETATM   19  H   UNL     1      -8.035  15.632  67.985  1.00  0.00     0.000 HD 
ENDBRANCH   7  10
ENDBRANCH   6   7
ENDBRANCH   4   6
ENDBRANCH   2   4
TORSDOF 4
ENDMDL
MODEL      103
REMARK 921   NORMALIZED FREE ENERGY PREDICTED BY IDOCK:   -4.43 KCAL/MOL
REMARK 922        TOTAL FREE ENERGY PREDICTED BY IDOCK:   -5.75 KCAL/MOL
REMARK 923 INTER-LIGAND FREE ENERGY PREDICTED BY IDOCK:   -5.56 KCAL/MOL
REMARK 924 INTRA-LIGAND FREE ENERGY PREDICTED BY IDOCK:   -0.19 KCAL/MOL
REMARK 927      BINDING AFFINITY PREDICTED BY RF-SCORE:    0.00 PKD
ROOT
HETATM    1  C   UNL     1     -11.888  12.707  65.942  1.00  0.00    -0.499 C  
HETATM    2  C   UNL     1     -10.999  12.741  64.699  1.00  0.00    -0.327 C  
HETATM    3  C   UNL     1     -11.873  12.864  63.447  1.00  0.00    -0.576 C  
ENDROOT
BRANCH   2   4
HETATM    4  N   UNL     1     -10.053  13.859  64.819  1.00  0.00    -0.610 NA 
HETATM    5  H   UNL     1      -9.561  14.023  63.940  1.00  0.00     0.000 HD 
BRANCH   4   6
HETATM    6  C   UNL     1     -10.705  15.088  65.303  1.00  0.00    -0.389 C  
BRANCH   6   7
HETATM    7  C   UNL     1     -10.094  15.623  66.620  1.00  0.00    -0.273 C  
HETATM    8  H   UNL     1      -8.956  14.914  68.056  1.00  0.00     0.000 HD 
HETATM    9  O   UNL     1      -9.331  14.586  67.247  1.00  0.00    -0.197 OA 
BRANCH   7  10
HETATM   10  C   UNL     1      -9.207  16.844  66.416  1.00  0.00    -0.308 A  
HETATM   11  C   UNL     1      -9.779  18.129  66.427  1.00  0.00    -0.329 A  
HETATM   12  C   UNL     1      -8.977  19.252  66.215  1.00  0.00    -0.328 A  
HETATM   13  C   UNL     1      -7.610  19.132  66.000  1.00  0.00    -0.281 A  
HETATM   14  O   UNL     1      -9.503  20.511  66.205  1.00  0.00    -0.632 OA 
HETATM   15  H   UNL     1      -8.958  21.275  66.061  1.00  0.00     0.000 HD 
HETATM   16  C   UNL     1      -7.040  17.868  66.012  1.00  0.00    -0.305 A  
HETATM   17  O   UNL     1      -5.705  17.682  65.808  1.00  0.00    -0.173 OA 
HETATM   18  C   UNL     1      -7.819  16.735  66.229  1.00  0.00    -0.334 A  
HETATM   19  H   UNL     1      -5.314  16.816  65.817  1.00  0.00     0.000 HD 
ENDBRANCH   7  10
ENDBRANCH   6   7
ENDBRANCH   4   6
ENDBRANCH   2   4
TORSDOF 4
ENDMDL
MODEL      104
REMARK 921   NORMALIZED FREE ENERGY PREDICTED BY IDOCK:   -4.43 KCAL/MOL
REMARK 922        TOTAL FREE ENERGY PREDICTED BY IDOCK:   -5.74 KCAL/MOL
REMARK 923 INTER-LIGAND FREE ENERGY PREDICTED BY IDOCK:   -5.41 KCAL/MOL
REMARK 924 INTRA-LIGAND FREE ENERGY PREDICTED BY IDOCK:   -0.33 KCAL/MOL
REMARK 927      BINDING AFFINITY PREDICTED BY RF-SCORE:    0.00 PKD
ROOT
HETATM    1  C   UNL     1     -12.653  15.556  73.860  1.00  0.00    -0.767 C  
HETATM    2  C   UNL     1     -12.977  14.804  72.568  1.00  0.00    -0.392 C  
HETATM    3  C   UNL     1     -11.825  14.977  71.572  1.00  0.00    -0.429 C  
ENDROOT
BRANCH   2   4
HETATM    4  N   UNL     1     -13.217  13.390  72.887  1.00  0.00    -0.436 NA 
HETATM    5  H   UNL     1     -14.015  13.283  73.514  1.00  0.00     0.000 HD 
BRANCH   4   6
HETATM    6  C   UNL     1     -13.377  12.568  71.674  1.00  0.00    -0.196 C  
BRANCH   6   7
HETATM    7  C   UNL     1     -12.634  11.213  71.755  1.00  0.00    -0.177 C  
HETATM    8  H   UNL     1     -13.116   9.341  72.106  1.00  0.00     0.000 HD 
HETATM    9  O   UNL     1     -13.572  10.173  72.056  1.00  0.00    -0.358 OA 
BRANCH   7  10
HETATM   10  C   UNL     1     -11.889  10.861  70.476  1.00  0.00    -0.457 A  
HETATM   11  C   UNL     1     -12.146  11.586  69.298  1.00  0.00    -0.344 A  
HETATM   12  C   UNL     1     -11.485  11.253  68.114  1.00  0.00    -0.306 A  
HETATM   13  C   UNL     1     -10.562  10.215  68.070  1.00  0.00    -0.273 A  
HETATM   14  O   UNL     1     -11.722  11.928  66.952  1.00  0.00    -0.541 OA 
HETATM   15  H   UNL     1     -11.274  11.700  66.147  1.00  0.00     0.000 HD 
HETATM   16  C   UNL     1     -10.289   9.514  69.235  1.00  0.00    -0.208 A  
HETATM   17  O   UNL     1      -9.394   8.486  69.260  1.00  0.00    -0.153 OA 
HETATM   18  C   UNL     1     -10.930   9.834  70.429  1.00  0.00    -0.371 A  
HETATM   19  H   UNL     1      -9.207   8.006  70.058  1.00  0.00     0.000 HD 
ENDBRANCH   7  10
ENDBRANCH   6   7
ENDBRANCH   4   6
ENDBRANCH   2   4
TORSDOF 4
ENDMDL
MODEL      105
REMARK 921   NORMALIZED FREE ENERGY PREDICTED BY IDOCK:   -4.42 KCAL/MOL
REMARK 922        TOTAL FREE ENERGY PREDICTED BY IDOCK:   -5.74 KCAL/MOL
REMARK 923 INTER-LIGAND FREE ENERGY PREDICTED BY IDOCK:   -5.50 KCAL/MOL
REMARK 924 INTRA-LIGAND FREE ENERGY PREDICTED BY IDOCK:   -0.24 KCAL/MOL
REMARK 927      BINDING AFFINITY PREDICTED BY RF-SCORE:    0.00 PKD
ROOT
HETATM    1  C   UNL     1     -10.549   7.157  66.994  1.00  0.00    -0.413 C  
HETATM    2  C   UNL     1     -10.199   8.127  68.124  1.00  0.00    -0.209 C  
HETATM    3  C   UNL     1      -8.712   8.486  68.049  1.00  0.00    -0.142 C  
ENDROOT
BRANCH   2   4
HETATM    4  N   UNL     1     -11.056   9.316  68.015  1.00  0.00    -0.501 NA 
HETATM    5  H   UNL     1     -12.044   9.063  68.038  1.00  0.00     0.000 HD 
BRANCH   4   6
HETATM    6  C   UNL     1     -10.739  10.323  69.043  1.00  0.00    -0.227 C  
BRANCH   6   7
HETATM    7  C   UNL     1     -11.852  10.477  70.108  1.00  0.00    -0.320 C  
HETATM    8  H   UNL     1     -12.104   9.973  71.990  1.00  0.00     0.000 HD 
HETATM    9  O   UNL     1     -11.421   9.880  71.336  1.00  0.00    -0.371 OA 
BRANCH   7  10
HETATM   10  C   UNL     1     -12.239  11.927  70.364  1.00  0.00    -0.399 A  
HETATM   11  C   UNL     1     -11.868  12.920  69.441  1.00  0.00    -0.371 A  
HETATM   12  C   UNL     1     -12.197  14.256  69.682  1.00  0.00    -0.323 A  
HETATM   13  C   UNL     1     -12.898  14.632  70.821  1.00  0.00    -0.418 A  
HETATM   14  O   UNL     1     -11.838  15.245  68.813  1.00  0.00    -0.403 OA 
HETATM   15  H   UNL     1     -12.061  16.154  68.978  1.00  0.00     0.000 HD 
HETATM   16  C   UNL     1     -13.286  13.651  71.721  1.00  0.00    -0.388 A  
HETATM   17  O   UNL     1     -13.977  13.953  72.856  1.00  0.00    -0.627 OA 
HETATM   18  C   UNL     1     -12.976  12.313  71.497  1.00  0.00    -0.390 A  
HETATM   19  H   UNL     1     -14.244  13.282  73.473  1.00  0.00     0.000 HD 
ENDBRANCH   7  10
ENDBRANCH   6   7
ENDBRANCH   4   6
ENDBRANCH   2   4
TORSDOF 4
ENDMDL
MODEL      106
REMARK 921   NORMALIZED FREE ENERGY PREDICTED BY IDOCK:   -4.42 KCAL/MOL
REMARK 922        TOTAL FREE ENERGY PREDICTED BY IDOCK:   -5.73 KCAL/MOL
REMARK 923 INTER-LIGAND FREE ENERGY PREDICTED BY IDOCK:   -5.35 KCAL/MOL
REMARK 924 INTRA-LIGAND FREE ENERGY PREDICTED BY IDOCK:   -0.39 KCAL/MOL
REMARK 927      BINDING AFFINITY PREDICTED BY RF-SCORE:    0.00 PKD
ROOT
HETATM    1  C   UNL     1     -10.355   7.648  67.062  1.00  0.00    -0.400 C  
HETATM    2  C   UNL     1      -9.928   9.103  67.256  1.00  0.00    -0.211 C  
HETATM    3  C   UNL     1      -9.739   9.768  65.888  1.00  0.00    -0.332 C  
ENDROOT
BRANCH   2   4
HETATM    4  N   UNL     1     -10.942   9.795  68.064  1.00  0.00    -0.458 NA 
HETATM    5  H   UNL     1     -11.230   9.227  68.862  1.00  0.00     0.000 HD 
BRANCH   4   6
HETATM    6  C   UNL     1     -10.492  11.130  68.495  1.00  0.00    -0.191 C  
BRANCH   6   7
HETATM    7  C   UNL     1     -11.618  12.190  68.468  1.00  0.00    -0.315 C  
HETATM    8  H   UNL     1     -12.297  13.583  69.677  1.00  0.00     0.000 HD 
HETATM    9  O   UNL     1     -11.605  12.932  69.693  1.00  0.00    -0.283 OA 
BRANCH   7  10
HETATM   10  C   UNL     1     -11.504  13.156  67.297  1.00  0.00    -0.375 A  
HETATM   11  C   UNL     1     -10.926  14.423  67.494  1.00  0.00    -0.299 A  
HETATM   12  C   UNL     1     -10.841  15.325  66.430  1.00  0.00    -0.317 A  
HETATM   13  C   UNL     1     -11.310  14.995  65.165  1.00  0.00    -0.372 A  
HETATM   14  O   UNL     1     -10.300  16.567  66.592  1.00  0.00    -0.293 OA 
HETATM   15  H   UNL     1     -10.242  17.180  65.869  1.00  0.00     0.000 HD 
HETATM   16  C   UNL     1     -11.858  13.737  64.963  1.00  0.00    -0.366 A  
HETATM   17  O   UNL     1     -12.335  13.350  63.746  1.00  0.00    -0.644 OA 
HETATM   18  C   UNL     1     -11.946  12.820  66.006  1.00  0.00    -0.491 A  
HETATM   19  H   UNL     1     -12.710  12.488  63.606  1.00  0.00     0.000 HD 
ENDBRANCH   7  10
ENDBRANCH   6   7
ENDBRANCH   4   6
ENDBRANCH   2   4
TORSDOF 4
ENDMDL
MODEL      107
REMARK 921   NORMALIZED FREE ENERGY PREDICTED BY IDOCK:   -4.38 KCAL/MOL
REMARK 922        TOTAL FREE ENERGY PREDICTED BY IDOCK:   -5.69 KCAL/MOL
REMARK 923 INTER-LIGAND FREE ENERGY PREDICTED BY IDOCK:   -5.56 KCAL/MOL
REMARK 924 INTRA-LIGAND FREE ENERGY PREDICTED BY IDOCK:   -0.13 KCAL/MOL
REMARK 927      BINDING AFFINITY PREDICTED BY RF-SCORE:    0.00 PKD
ROOT
HETATM    1  C   UNL     1      -9.155  16.678  66.253  1.00  0.00    -0.333 C  
HETATM    2  C   UNL     1     -10.581  17.118  65.919  1.00  0.00    -0.215 C  
HETATM    3  C   UNL     1     -10.647  18.648  65.870  1.00  0.00    -0.365 C  
ENDROOT
BRANCH   2   4
HETATM    4  N   UNL     1     -10.980  16.512  64.641  1.00  0.00    -0.897 NA 
HETATM    5  H   UNL     1     -10.489  16.943  63.858  1.00  0.00     0.000 HD 
BRANCH   4   6
HETATM    6  C   UNL     1     -10.804  15.049  64.642  1.00  0.00    -0.269 C  
BRANCH   6   7
HETATM    7  C   UNL     1     -11.903  14.304  65.437  1.00  0.00    -0.363 C  
HETATM    8  H   UNL     1     -13.336  13.023  65.033  1.00  0.00     0.000 HD 
HETATM    9  O   UNL     1     -12.661  13.480  64.544  1.00  0.00    -0.635 OA 
BRANCH   7  10
HETATM   10  C   UNL     1     -11.348  13.444  66.564  1.00  0.00    -0.346 A  
HETATM   11  C   UNL     1     -10.060  13.701  67.066  1.00  0.00    -0.248 A  
HETATM   12  C   UNL     1      -9.533  12.900  68.082  1.00  0.00    -0.218 A  
HETATM   13  C   UNL     1     -10.261  11.847  68.621  1.00  0.00    -0.202 A  
HETATM   14  O   UNL     1      -8.281  13.114  68.581  1.00  0.00    -0.292 OA 
HETATM   15  H   UNL     1      -7.923  12.569  69.271  1.00  0.00     0.000 HD 
HETATM   16  C   UNL     1     -11.541  11.606  68.144  1.00  0.00    -0.319 A  
HETATM   17  O   UNL     1     -12.308  10.590  68.631  1.00  0.00    -0.785 OA 
HETATM   18  C   UNL     1     -12.089  12.397  67.138  1.00  0.00    -0.072 A  
HETATM   19  H   UNL     1     -13.185  10.425  68.305  1.00  0.00     0.000 HD 
ENDBRANCH   7  10
ENDBRANCH   6   7
ENDBRANCH   4   6
ENDBRANCH   2   4
TORSDOF 4
ENDMDL
MODEL      108
REMARK 921   NORMALIZED FREE ENERGY PREDICTED BY IDOCK:   -4.37 KCAL/MOL
REMARK 922        TOTAL FREE ENERGY PREDICTED BY IDOCK:   -5.68 KCAL/MOL
REMARK 923 INTER-LIGAND FREE ENERGY PREDICTED BY IDOCK:   -5.42 KCAL/MOL
REMARK 924 INTRA-LIGAND FREE ENERGY PREDICTED BY IDOCK:   -0.26 KCAL/MOL
REMARK 927      BINDING AFFINITY PREDICTED BY RF-SCORE:    0.00 PKD
ROOT
HETATM    1  C   UNL     1     -10.130   5.334  67.064  1.00  0.00    -0.243 C  
HETATM    2  C   UNL     1      -9.803   4.848  68.477  1.00  0.00    -0.141 C  
HETATM    3  C   UNL     1      -8.335   5.149  68.796  1.00  0.00    -0.088 C  
ENDROOT
BRANCH   2   4
HETATM    4  N   UNL     1     -10.715   5.499  69.428  1.00  0.00    -0.285 NA 
HETATM    5  H   UNL     1     -10.547   5.176  70.382  1.00  0.00     0.000 HD 
BRANCH   4   6
HETATM    6  C   UNL     1     -10.648   6.969  69.344  1.00  0.00    -0.230 C  
BRANCH   6   7
HETATM    7  C   UNL     1     -10.280   7.639  70.689  1.00  0.00    -0.199 C  
HETATM    8  H   UNL     1      -8.751   8.636  71.416  1.00  0.00     0.000 HD 
HETATM    9  O   UNL     1      -8.977   8.225  70.589  1.00  0.00    -0.143 OA 
BRANCH   7  10
HETATM   10  C   UNL     1     -11.278   8.707  71.118  1.00  0.00    -0.329 A  
HETATM   11  C   UNL     1     -12.319   8.372  72.002  1.00  0.00    -0.413 A  
HETATM   12  C   UNL     1     -13.253   9.339  72.379  1.00  0.00    -0.426 A  
HETATM   13  C   UNL     1     -13.174  10.642  71.906  1.00  0.00    -0.528 A  
HETATM   14  O   UNL     1     -14.284   9.042  73.224  1.00  0.00    -1.192 OA 
HETATM   15  H   UNL     1     -14.919   9.699  73.480  1.00  0.00     0.000 HD 
HETATM   16  C   UNL     1     -12.134  10.981  71.053  1.00  0.00    -0.301 A  
HETATM   17  O   UNL     1     -11.999  12.242  70.554  1.00  0.00    -0.472 OA 
HETATM   18  C   UNL     1     -11.188  10.036  70.669  1.00  0.00    -0.425 A  
HETATM   19  H   UNL     1     -11.287  12.475  69.970  1.00  0.00     0.000 HD 
ENDBRANCH   7  10
ENDBRANCH   6   7
ENDBRANCH   4   6
ENDBRANCH   2   4
TORSDOF 4
ENDMDL
MODEL      109
REMARK 921   NORMALIZED FREE ENERGY PREDICTED BY IDOCK:   -4.37 KCAL/MOL
REMARK 922        TOTAL FREE ENERGY PREDICTED BY IDOCK:   -5.67 KCAL/MOL
REMARK 923 INTER-LIGAND FREE ENERGY PREDICTED BY IDOCK:   -5.41 KCAL/MOL
REMARK 924 INTRA-LIGAND FREE ENERGY PREDICTED BY IDOCK:   -0.26 KCAL/MOL
REMARK 927      BINDING AFFINITY PREDICTED BY RF-SCORE:    0.00 PKD
ROOT
HETATM    1  C   UNL     1     -13.041  10.417  71.623  1.00  0.00    -0.553 C  
HETATM    2  C   UNL     1     -11.807  10.271  70.733  1.00  0.00    -0.365 C  
HETATM    3  C   UNL     1     -11.111   8.940  71.036  1.00  0.00    -0.340 C  
ENDROOT
BRANCH   2   4
HETATM    4  N   UNL     1     -12.219  10.365  69.325  1.00  0.00    -0.653 NA 
HETATM    5  H   UNL     1     -12.541  11.306  69.096  1.00  0.00     0.000 HD 
BRANCH   4   6
HETATM    6  C   UNL     1     -11.156   9.925  68.405  1.00  0.00    -0.139 C  
BRANCH   6   7
HETATM    7  C   UNL     1     -10.112  11.029  68.109  1.00  0.00    -0.179 C  
HETATM    8  H   UNL     1      -8.472  11.193  67.040  1.00  0.00     0.000 HD 
HETATM    9  O   UNL     1      -9.113  10.515  67.221  1.00  0.00    -0.142 OA 
BRANCH   7  10
HETATM   10  C   UNL     1     -10.724  12.284  67.503  1.00  0.00    -0.255 A  
HETATM   11  C   UNL     1     -11.658  12.168  66.457  1.00  0.00    -0.425 A  
HETATM   12  C   UNL     1     -12.204  13.316  65.877  1.00  0.00    -0.441 A  
HETATM   13  C   UNL     1     -11.851  14.584  66.319  1.00  0.00    -0.354 A  
HETATM   14  O   UNL     1     -13.101  13.237  64.852  1.00  0.00    -0.737 OA 
HETATM   15  H   UNL     1     -13.471  14.017  64.458  1.00  0.00     0.000 HD 
HETATM   16  C   UNL     1     -10.949  14.701  67.366  1.00  0.00    -0.308 A  
HETATM   17  O   UNL     1     -10.562  15.917  67.846  1.00  0.00    -0.282 OA 
HETATM   18  C   UNL     1     -10.398  13.572  67.963  1.00  0.00    -0.241 A  
HETATM   19  H   UNL     1      -9.944  15.997  68.563  1.00  0.00     0.000 HD 
ENDBRANCH   7  10
ENDBRANCH   6   7
ENDBRANCH   4   6
ENDBRANCH   2   4
TORSDOF 4
ENDMDL
MODEL      110
REMARK 921   NORMALIZED FREE ENERGY PREDICTED BY IDOCK:   -4.37 KCAL/MOL
REMARK 922        TOTAL FREE ENERGY PREDICTED BY IDOCK:   -5.67 KCAL/MOL
REMARK 923 INTER-LIGAND FREE ENERGY PREDICTED BY IDOCK:   -5.45 KCAL/MOL
REMARK 924 INTRA-LIGAND FREE ENERGY PREDICTED BY IDOCK:   -0.22 KCAL/MOL
REMARK 927      BINDING AFFINITY PREDICTED BY RF-SCORE:    0.00 PKD
ROOT
HETATM    1  C   UNL     1     -11.539  12.134  68.303  1.00  0.00    -0.382 C  
HETATM    2  C   UNL     1     -11.282  13.115  67.160  1.00  0.00    -0.294 C  
HETATM    3  C   UNL     1     -11.750  12.496  65.838  1.00  0.00    -0.480 C  
ENDROOT
BRANCH   2   4
HETATM    4  N   UNL     1     -11.976  14.378  67.448  1.00  0.00    -0.514 NA 
HETATM    5  H   UNL     1     -12.320  14.400  68.409  1.00  0.00     0.000 HD 
BRANCH   4   6
HETATM    6  C   UNL     1     -11.136  15.553  67.155  1.00  0.00    -0.256 C  
BRANCH   6   7
HETATM    7  C   UNL     1     -10.979  16.505  68.365  1.00  0.00    -0.348 C  
HETATM    8  H   UNL     1     -10.231  16.397  70.178  1.00  0.00     0.000 HD 
HETATM    9  O   UNL     1     -10.327  15.812  69.435  1.00  0.00    -0.224 OA 
BRANCH   7  10
HETATM   10  C   UNL     1     -10.195  17.768  68.034  1.00  0.00    -0.377 A  
HETATM   11  C   UNL     1      -9.185  18.208  68.908  1.00  0.00    -0.172 A  
HETATM   12  C   UNL     1      -8.479  19.380  68.626  1.00  0.00    -0.359 A  
HETATM   13  C   UNL     1      -8.746  20.126  67.485  1.00  0.00    -0.415 A  
HETATM   14  O   UNL     1      -7.503  19.842  69.461  1.00  0.00    -0.255 OA 
HETATM   15  H   UNL     1      -7.023  20.638  69.269  1.00  0.00     0.000 HD 
HETATM   16  C   UNL     1      -9.725  19.681  66.609  1.00  0.00    -0.390 A  
HETATM   17  O   UNL     1     -10.035  20.366  65.472  1.00  0.00    -0.548 OA 
HETATM   18  C   UNL     1     -10.436  18.512  66.867  1.00  0.00    -0.434 A  
HETATM   19  H   UNL     1     -10.705  20.061  64.872  1.00  0.00     0.000 HD 
ENDBRANCH   7  10
ENDBRANCH   6   7
ENDBRANCH   4   6
ENDBRANCH   2   4
TORSDOF 4
ENDMDL
MODEL      111
REMARK 921   NORMALIZED FREE ENERGY PREDICTED BY IDOCK:   -4.37 KCAL/MOL
REMARK 922        TOTAL FREE ENERGY PREDICTED BY IDOCK:   -5.67 KCAL/MOL
REMARK 923 INTER-LIGAND FREE ENERGY PREDICTED BY IDOCK:   -5.47 KCAL/MOL
REMARK 924 INTRA-LIGAND FREE ENERGY PREDICTED BY IDOCK:   -0.19 KCAL/MOL
REMARK 927      BINDING AFFINITY PREDICTED BY RF-SCORE:    0.00 PKD
ROOT
HETATM    1  C   UNL     1      -7.735  19.715  68.274  1.00  0.00    -0.356 C  
HETATM    2  C   UNL     1      -9.103  19.233  67.789  1.00  0.00    -0.306 C  
HETATM    3  C   UNL     1     -10.004  20.442  67.517  1.00  0.00    -0.537 C  
ENDROOT
BRANCH   2   4
HETATM    4  N   UNL     1      -8.920  18.405  66.589  1.00  0.00    -0.283 NA 
HETATM    5  H   UNL     1      -8.017  17.930  66.601  1.00  0.00     0.000 HD 
BRANCH   4   6
HETATM    6  C   UNL     1     -10.024  17.446  66.404  1.00  0.00    -0.316 C  
BRANCH   6   7
HETATM    7  C   UNL     1      -9.558  16.085  65.832  1.00  0.00    -0.335 C  
HETATM    8  H   UNL     1      -7.923  14.997  65.891  1.00  0.00     0.000 HD 
HETATM    9  O   UNL     1      -8.210  15.832  66.242  1.00  0.00    -0.243 OA 
BRANCH   7  10
HETATM   10  C   UNL     1     -10.440  14.921  66.263  1.00  0.00    -0.306 A  
HETATM   11  C   UNL     1     -10.249  14.335  67.527  1.00  0.00    -0.240 A  
HETATM   12  C   UNL     1     -11.036  13.249  67.919  1.00  0.00    -0.262 A  
HETATM   13  C   UNL     1     -12.021  12.734  67.086  1.00  0.00    -0.351 A  
HETATM   14  O   UNL     1     -10.867  12.649  69.133  1.00  0.00    -0.389 OA 
HETATM   15  H   UNL     1     -11.402  11.911  69.399  1.00  0.00     0.000 HD 
HETATM   16  C   UNL     1     -12.227  13.326  65.849  1.00  0.00    -0.441 A  
HETATM   17  O   UNL     1     -13.177  12.869  64.985  1.00  0.00    -0.765 OA 
HETATM   18  C   UNL     1     -11.460  14.413  65.440  1.00  0.00    -0.344 A  
HETATM   19  H   UNL     1     -13.319  13.275  64.137  1.00  0.00     0.000 HD 
ENDBRANCH   7  10
ENDBRANCH   6   7
ENDBRANCH   4   6
ENDBRANCH   2   4
TORSDOF 4
ENDMDL
MODEL      112
REMARK 921   NORMALIZED FREE ENERGY PREDICTED BY IDOCK:   -4.35 KCAL/MOL
REMARK 922        TOTAL FREE ENERGY PREDICTED BY IDOCK:   -5.65 KCAL/MOL
REMARK 923 INTER-LIGAND FREE ENERGY PREDICTED BY IDOCK:   -5.34 KCAL/MOL
REMARK 924 INTRA-LIGAND FREE ENERGY PREDICTED BY IDOCK:   -0.31 KCAL/MOL
REMARK 927      BINDING AFFINITY PREDICTED BY RF-SCORE:    0.00 PKD
ROOT
HETATM    1  C   UNL     1     -11.711  12.926  66.478  1.00  0.00    -0.453 C  
HETATM    2  C   UNL     1     -11.456  13.076  67.978  1.00  0.00    -0.309 C  
HETATM    3  C   UNL     1     -10.088  12.482  68.328  1.00  0.00    -0.228 C  
ENDROOT
BRANCH   2   4
HETATM    4  N   UNL     1     -11.543  14.498  68.338  1.00  0.00    -0.309 NA 
HETATM    5  H   UNL     1     -10.998  14.702  69.175  1.00  0.00     0.000 HD 
BRANCH   4   6
HETATM    6  C   UNL     1     -11.154  15.377  67.221  1.00  0.00    -0.302 C  
BRANCH   6   7
HETATM    7  C   UNL     1      -9.714  15.928  67.354  1.00  0.00    -0.227 C  
HETATM    8  H   UNL     1      -8.044  15.819  66.323  1.00  0.00     0.000 HD 
HETATM    9  O   UNL     1      -8.929  15.482  66.242  1.00  0.00    -0.297 OA 
BRANCH   7  10
HETATM   10  C   UNL     1      -9.658  17.447  67.429  1.00  0.00    -0.257 A  
HETATM   11  C   UNL     1      -9.090  18.176  66.368  1.00  0.00    -0.255 A  
HETATM   12  C   UNL     1      -9.011  19.569  66.441  1.00  0.00    -0.370 A  
HETATM   13  C   UNL     1      -9.494  20.262  67.544  1.00  0.00    -0.539 A  
HETATM   14  O   UNL     1      -8.453  20.304  65.436  1.00  0.00    -0.408 OA 
HETATM   15  H   UNL     1      -8.399  21.251  65.486  1.00  0.00     0.000 HD 
HETATM   16  C   UNL     1     -10.076  19.547  68.580  1.00  0.00    -0.442 A  
HETATM   17  O   UNL     1     -10.570  20.167  69.689  1.00  0.00    -0.544 OA 
HETATM   18  C   UNL     1     -10.172  18.160  68.526  1.00  0.00    -0.399 A  
HETATM   19  H   UNL     1     -10.969  19.678  70.399  1.00  0.00     0.000 HD 
ENDBRANCH   7  10
ENDBRANCH   6   7
ENDBRANCH   4   6
ENDBRANCH   2   4
TORSDOF 4
ENDMDL
MODEL      113
REMARK 921   NORMALIZED FREE ENERGY PREDICTED BY IDOCK:   -4.33 KCAL/MOL
REMARK 922        TOTAL FREE ENERGY PREDICTED BY IDOCK:   -5.62 KCAL/MOL
REMARK 923 INTER-LIGAND FREE ENERGY PREDICTED BY IDOCK:   -5.47 KCAL/MOL
REMARK 924 INTRA-LIGAND FREE ENERGY PREDICTED BY IDOCK:   -0.16 KCAL/MOL
REMARK 927      BINDING AFFINITY PREDICTED BY RF-SCORE:    0.00 PKD
ROOT
HETATM    1  C   UNL     1      -6.464  13.306  67.724  1.00  0.00    -0.161 C  
HETATM    2  C   UNL     1      -7.484  14.430  67.909  1.00  0.00    -0.152 C  
HETATM    3  C   UNL     1      -6.915  15.736  67.345  1.00  0.00    -0.235 C  
ENDROOT
BRANCH   2   4
HETATM    4  N   UNL     1      -8.740  14.049  67.248  1.00  0.00    -0.208 NA 
HETATM    5  H   UNL     1      -8.567  13.439  66.449  1.00  0.00     0.000 HD 
BRANCH   4   6
HETATM    6  C   UNL     1      -9.699  13.440  68.187  1.00  0.00    -0.226 C  
BRANCH   6   7
HETATM    7  C   UNL     1     -11.146  13.407  67.642  1.00  0.00    -0.265 C  
HETATM    8  H   UNL     1     -12.606  14.698  67.389  1.00  0.00     0.000 HD 
HETATM    9  O   UNL     1     -11.717  14.718  67.724  1.00  0.00    -0.346 OA 
BRANCH   7  10
HETATM   10  C   UNL     1     -11.234  12.910  66.206  1.00  0.00    -0.337 A  
HETATM   11  C   UNL     1     -10.618  11.698  65.849  1.00  0.00    -0.318 A  
HETATM   12  C   UNL     1     -10.672  11.249  64.528  1.00  0.00    -0.323 A  
HETATM   13  C   UNL     1     -11.334  11.974  63.546  1.00  0.00    -0.528 A  
HETATM   14  O   UNL     1     -10.072  10.084  64.147  1.00  0.00    -0.458 OA 
HETATM   15  H   UNL     1     -10.108   9.779  63.248  1.00  0.00     0.000 HD 
HETATM   16  C   UNL     1     -11.964  13.158  63.900  1.00  0.00    -0.488 A  
HETATM   17  O   UNL     1     -12.631  13.916  62.984  1.00  0.00    -1.030 OA 
HETATM   18  C   UNL     1     -11.929  13.621  65.212  1.00  0.00    -0.395 A  
HETATM   19  H   UNL     1     -13.063  14.727  63.226  1.00  0.00     0.000 HD 
ENDBRANCH   7  10
ENDBRANCH   6   7
ENDBRANCH   4   6
ENDBRANCH   2   4
TORSDOF 4
ENDMDL
MODEL      114
REMARK 921   NORMALIZED FREE ENERGY PREDICTED BY IDOCK:   -4.33 KCAL/MOL
REMARK 922        TOTAL FREE ENERGY PREDICTED BY IDOCK:   -5.62 KCAL/MOL
REMARK 923 INTER-LIGAND FREE ENERGY PREDICTED BY IDOCK:   -5.39 KCAL/MOL
REMARK 924 INTRA-LIGAND FREE ENERGY PREDICTED BY IDOCK:   -0.23 KCAL/MOL
REMARK 927      BINDING AFFINITY PREDICTED BY RF-SCORE:    0.00 PKD
ROOT
HETATM    1  C   UNL     1     -11.564  15.731  70.634  1.00  0.00    -0.416 C  
HETATM    2  C   UNL     1     -11.842  16.050  69.165  1.00  0.00    -0.261 C  
HETATM    3  C   UNL     1     -10.615  16.728  68.546  1.00  0.00    -0.354 C  
ENDROOT
BRANCH   2   4
HETATM    4  N   UNL     1     -12.192  14.807  68.464  1.00  0.00    -0.605 NA 
HETATM    5  H   UNL     1     -13.196  14.749  68.290  1.00  0.00     0.000 HD 
BRANCH   4   6
HETATM    6  C   UNL     1     -11.425  14.638  67.217  1.00  0.00    -0.372 C  
BRANCH   6   7
HETATM    7  C   UNL     1     -12.091  13.661  66.220  1.00  0.00    -0.434 C  
HETATM    8  H   UNL     1     -12.467  13.625  64.292  1.00  0.00     0.000 HD 
HETATM    9  O   UNL     1     -12.057  14.226  64.904  1.00  0.00    -0.395 OA 
BRANCH   7  10
HETATM   10  C   UNL     1     -11.431  12.289  66.193  1.00  0.00    -0.429 A  
HETATM   11  C   UNL     1     -11.499  11.462  67.329  1.00  0.00    -0.301 A  
HETATM   12  C   UNL     1     -10.873  10.213  67.322  1.00  0.00    -0.230 A  
HETATM   13  C   UNL     1     -10.185   9.758  66.205  1.00  0.00    -0.278 A  
HETATM   14  O   UNL     1     -10.908   9.394  68.412  1.00  0.00    -0.378 OA 
HETATM   15  H   UNL     1     -10.482   8.545  68.407  1.00  0.00     0.000 HD 
HETATM   16  C   UNL     1     -10.137  10.561  65.075  1.00  0.00    -0.321 A  
HETATM   17  O   UNL     1      -9.479  10.172  63.946  1.00  0.00    -0.274 OA 
HETATM   18  C   UNL     1     -10.760  11.806  65.057  1.00  0.00    -0.344 A  
HETATM   19  H   UNL     1      -9.447  10.722  63.172  1.00  0.00     0.000 HD 
ENDBRANCH   7  10
ENDBRANCH   6   7
ENDBRANCH   4   6
ENDBRANCH   2   4
TORSDOF 4
ENDMDL
MODEL      115
REMARK 921   NORMALIZED FREE ENERGY PREDICTED BY IDOCK:   -4.33 KCAL/MOL
REMARK 922        TOTAL FREE ENERGY PREDICTED BY IDOCK:   -5.62 KCAL/MOL
REMARK 923 INTER-LIGAND FREE ENERGY PREDICTED BY IDOCK:   -5.05 KCAL/MOL
REMARK 924 INTRA-LIGAND FREE ENERGY PREDICTED BY IDOCK:   -0.57 KCAL/MOL
REMARK 927      BINDING AFFINITY PREDICTED BY RF-SCORE:    0.00 PKD
ROOT
HETATM    1  C   UNL     1     -12.804  12.424  64.255  1.00  0.00    -0.356 C  
HETATM    2  C   UNL     1     -11.460  12.533  63.534  1.00  0.00    -0.496 C  
HETATM    3  C   UNL     1     -10.484  13.349  64.388  1.00  0.00    -0.403 C  
ENDROOT
BRANCH   2   4
HETATM    4  N   UNL     1     -10.952  11.181  63.264  1.00  0.00    -0.794 NA 
HETATM    5  H   UNL     1     -10.959  10.976  62.264  1.00  0.00     0.000 HD 
BRANCH   4   6
HETATM    6  C   UNL     1      -9.614  10.964  63.843  1.00  0.00    -0.284 C  
BRANCH   6   7
HETATM    7  C   UNL     1      -9.600   9.891  64.957  1.00  0.00    -0.297 C  
HETATM    8  H   UNL     1      -8.320   8.573  65.654  1.00  0.00     0.000 HD 
HETATM    9  O   UNL     1      -8.328   9.233  64.970  1.00  0.00    -0.136 OA 
BRANCH   7  10
HETATM   10  C   UNL     1      -9.884  10.459  66.341  1.00  0.00    -0.266 A  
HETATM   11  C   UNL     1      -8.877  11.164  67.024  1.00  0.00    -0.149 A  
HETATM   12  C   UNL     1      -9.120  11.666  68.304  1.00  0.00    -0.187 A  
HETATM   13  C   UNL     1     -10.351  11.493  68.924  1.00  0.00    -0.191 A  
HETATM   14  O   UNL     1      -8.159  12.341  68.999  1.00  0.00    -0.347 OA 
HETATM   15  H   UNL     1      -8.325  12.682  69.869  1.00  0.00     0.000 HD 
HETATM   16  C   UNL     1     -11.354  10.819  68.244  1.00  0.00    -0.309 A  
HETATM   17  O   UNL     1     -12.584  10.616  68.796  1.00  0.00    -0.733 OA 
HETATM   18  C   UNL     1     -11.136  10.317  66.964  1.00  0.00    -0.104 A  
HETATM   19  H   UNL     1     -13.271  10.155  68.329  1.00  0.00     0.000 HD 
ENDBRANCH   7  10
ENDBRANCH   6   7
ENDBRANCH   4   6
ENDBRANCH   2   4
TORSDOF 4
ENDMDL
MODEL      116
REMARK 921   NORMALIZED FREE ENERGY PREDICTED BY IDOCK:   -4.31 KCAL/MOL
REMARK 922        TOTAL FREE ENERGY PREDICTED BY IDOCK:   -5.60 KCAL/MOL
REMARK 923 INTER-LIGAND FREE ENERGY PREDICTED BY IDOCK:   -5.31 KCAL/MOL
REMARK 924 INTRA-LIGAND FREE ENERGY PREDICTED BY IDOCK:   -0.28 KCAL/MOL
REMARK 927      BINDING AFFINITY PREDICTED BY RF-SCORE:    0.00 PKD
ROOT
HETATM    1  C   UNL     1      -7.260  11.521  68.107  1.00  0.00    -0.080 C  
HETATM    2  C   UNL     1      -7.671  10.507  69.176  1.00  0.00    -0.131 C  
HETATM    3  C   UNL     1      -6.782  10.677  70.412  1.00  0.00    -0.017 C  
ENDROOT
BRANCH   2   4
HETATM    4  N   UNL     1      -9.093  10.700  69.495  1.00  0.00    -0.411 NA 
HETATM    5  H   UNL     1      -9.214  11.061  70.442  1.00  0.00     0.000 HD 
BRANCH   4   6
HETATM    6  C   UNL     1      -9.773  11.556  68.506  1.00  0.00    -0.189 C  
BRANCH   6   7
HETATM    7  C   UNL     1     -10.886  10.818  67.725  1.00  0.00    -0.269 C  
HETATM    8  H   UNL     1     -12.783  10.392  68.005  1.00  0.00     0.000 HD 
HETATM    9  O   UNL     1     -12.100  10.846  68.485  1.00  0.00    -0.545 OA 
BRANCH   7  10
HETATM   10  C   UNL     1     -11.143  11.410  66.346  1.00  0.00    -0.301 A  
HETATM   11  C   UNL     1     -10.513  10.851  65.220  1.00  0.00    -0.299 A  
HETATM   12  C   UNL     1     -10.723  11.405  63.955  1.00  0.00    -0.387 A  
HETATM   13  C   UNL     1     -11.557  12.502  63.778  1.00  0.00    -0.552 A  
HETATM   14  O   UNL     1     -10.115  10.896  62.845  1.00  0.00    -0.586 OA 
HETATM   15  H   UNL     1     -10.258  11.273  61.985  1.00  0.00     0.000 HD 
HETATM   16  C   UNL     1     -12.200  13.039  64.883  1.00  0.00    -0.441 A  
HETATM   17  O   UNL     1     -13.031  14.114  64.777  1.00  0.00    -0.674 OA 
HETATM   18  C   UNL     1     -12.010  12.499  66.152  1.00  0.00    -0.432 A  
HETATM   19  H   UNL     1     -13.472  14.482  65.534  1.00  0.00     0.000 HD 
ENDBRANCH   7  10
ENDBRANCH   6   7
ENDBRANCH   4   6
ENDBRANCH   2   4
TORSDOF 4
ENDMDL
MODEL      117
REMARK 921   NORMALIZED FREE ENERGY PREDICTED BY IDOCK:   -4.31 KCAL/MOL
REMARK 922        TOTAL FREE ENERGY PREDICTED BY IDOCK:   -5.60 KCAL/MOL
REMARK 923 INTER-LIGAND FREE ENERGY PREDICTED BY IDOCK:   -5.37 KCAL/MOL
REMARK 924 INTRA-LIGAND FREE ENERGY PREDICTED BY IDOCK:   -0.23 KCAL/MOL
REMARK 927      BINDING AFFINITY PREDICTED BY RF-SCORE:    0.00 PKD
ROOT
HETATM    1  C   UNL     1      -7.111  19.615  68.586  1.00  0.00    -0.369 C  
HETATM    2  C   UNL     1      -6.321  18.306  68.607  1.00  0.00    -0.209 C  
HETATM    3  C   UNL     1      -5.802  18.044  70.025  1.00  0.00    -0.214 C  
ENDROOT
BRANCH   2   4
HETATM    4  N   UNL     1      -7.186  17.218  68.132  1.00  0.00    -0.190 NA 
HETATM    5  H   UNL     1      -6.998  16.350  68.634  1.00  0.00     0.000 HD 
BRANCH   4   6
HETATM    6  C   UNL     1      -8.614  17.575  68.199  1.00  0.00    -0.258 C  
BRANCH   6   7
HETATM    7  C   UNL     1      -9.318  17.530  66.822  1.00  0.00    -0.265 C  
HETATM    8  H   UNL     1      -8.765  17.530  64.936  1.00  0.00     0.000 HD 
HETATM    9  O   UNL     1      -8.333  17.557  65.782  1.00  0.00    -0.538 OA 
BRANCH   7  10
HETATM   10  C   UNL     1     -10.204  16.305  66.641  1.00  0.00    -0.287 A  
HETATM   11  C   UNL     1     -10.981  15.844  67.718  1.00  0.00    -0.315 A  
HETATM   12  C   UNL     1     -11.776  14.705  67.569  1.00  0.00    -0.379 A  
HETATM   13  C   UNL     1     -11.826  14.013  66.365  1.00  0.00    -0.437 A  
HETATM   14  O   UNL     1     -12.531  14.223  68.599  1.00  0.00    -0.568 OA 
HETATM   15  H   UNL     1     -13.071  13.449  68.497  1.00  0.00     0.000 HD 
HETATM   16  C   UNL     1     -11.079  14.480  65.294  1.00  0.00    -0.353 A  
HETATM   17  O   UNL     1     -11.085  13.848  64.086  1.00  0.00    -0.583 OA 
HETATM   18  C   UNL     1     -10.286  15.617  65.418  1.00  0.00    -0.401 A  
HETATM   19  H   UNL     1     -10.574  14.168  63.352  1.00  0.00     0.000 HD 
ENDBRANCH   7  10
ENDBRANCH   6   7
ENDBRANCH   4   6
ENDBRANCH   2   4
TORSDOF 4
ENDMDL
MODEL      118
REMARK 921   NORMALIZED FREE ENERGY PREDICTED BY IDOCK:   -4.30 KCAL/MOL
REMARK 922        TOTAL FREE ENERGY PREDICTED BY IDOCK:   -5.59 KCAL/MOL
REMARK 923 INTER-LIGAND FREE ENERGY PREDICTED BY IDOCK:   -5.31 KCAL/MOL
REMARK 924 INTRA-LIGAND FREE ENERGY PREDICTED BY IDOCK:   -0.28 KCAL/MOL
REMARK 927      BINDING AFFINITY PREDICTED BY RF-SCORE:    0.00 PKD
ROOT
HETATM    1  C   UNL     1      -7.927  16.816  66.347  1.00  0.00    -0.356 C  
HETATM    2  C   UNL     1      -8.965  16.687  67.462  1.00  0.00    -0.200 C  
HETATM    3  C   UNL     1      -9.044  18.004  68.242  1.00  0.00    -0.284 C  
ENDROOT
BRANCH   2   4
HETATM    4  N   UNL     1     -10.259  16.323  66.871  1.00  0.00    -0.282 NA 
HETATM    5  H   UNL     1     -10.221  16.350  65.851  1.00  0.00     0.000 HD 
BRANCH   4   6
HETATM    6  C   UNL     1     -10.741  15.016  67.352  1.00  0.00    -0.289 C  
BRANCH   6   7
HETATM    7  C   UNL     1     -11.056  15.004  68.867  1.00  0.00    -0.266 C  
HETATM    8  H   UNL     1     -12.224  16.005  70.090  1.00  0.00     0.000 HD 
HETATM    9  O   UNL     1     -12.031  16.012  69.159  1.00  0.00    -0.340 OA 
BRANCH   7  10
HETATM   10  C   UNL     1     -11.564  13.657  69.363  1.00  0.00    -0.368 A  
HETATM   11  C   UNL     1     -11.423  12.518  68.550  1.00  0.00    -0.346 A  
HETATM   12  C   UNL     1     -11.910  11.284  68.987  1.00  0.00    -0.352 A  
HETATM   13  C   UNL     1     -12.530  11.149  70.222  1.00  0.00    -0.354 A  
HETATM   14  O   UNL     1     -11.801  10.163  68.216  1.00  0.00    -0.697 OA 
HETATM   15  H   UNL     1     -12.132   9.324  68.512  1.00  0.00     0.000 HD 
HETATM   16  C   UNL     1     -12.650  12.266  71.035  1.00  0.00    -0.257 A  
HETATM   17  O   UNL     1     -13.247  12.201  72.259  1.00  0.00    -0.489 OA 
HETATM   18  C   UNL     1     -12.165  13.504  70.624  1.00  0.00    -0.434 A  
HETATM   19  H   UNL     1     -13.329  12.966  72.816  1.00  0.00     0.000 HD 
ENDBRANCH   7  10
ENDBRANCH   6   7
ENDBRANCH   4   6
ENDBRANCH   2   4
TORSDOF 4
ENDMDL
MODEL      119
REMARK 921   NORMALIZED FREE ENERGY PREDICTED BY IDOCK:   -4.30 KCAL/MOL
REMARK 922        TOTAL FREE ENERGY PREDICTED BY IDOCK:   -5.59 KCAL/MOL
REMARK 923 INTER-LIGAND FREE ENERGY PREDICTED BY IDOCK:   -5.23 KCAL/MOL
REMARK 924 INTRA-LIGAND FREE ENERGY PREDICTED BY IDOCK:   -0.36 KCAL/MOL
REMARK 927      BINDING AFFINITY PREDICTED BY RF-SCORE:    0.00 PKD
ROOT
HETATM    1  C   UNL     1      -7.239   7.586  73.776  1.00  0.00    -0.113 C  
HETATM    2  C   UNL     1      -7.991   8.135  72.562  1.00  0.00    -0.144 C  
HETATM    3  C   UNL     1      -6.989   8.717  71.560  1.00  0.00    -0.091 C  
ENDROOT
BRANCH   2   4
HETATM    4  N   UNL     1      -8.794   7.056  71.970  1.00  0.00    -0.128 NA 
HETATM    5  H   UNL     1      -9.615   6.851  72.540  1.00  0.00     0.000 HD 
BRANCH   4   6
HETATM    6  C   UNL     1      -9.173   7.348  70.576  1.00  0.00    -0.157 C  
BRANCH   6   7
HETATM    7  C   UNL     1     -10.686   7.172  70.307  1.00  0.00    -0.238 C  
HETATM    8  H   UNL     1     -12.067   5.841  70.737  1.00  0.00     0.000 HD 
HETATM    9  O   UNL     1     -11.137   5.950  70.903  1.00  0.00    -0.282 OA 
BRANCH   7  10
HETATM   10  C   UNL     1     -11.527   8.326  70.834  1.00  0.00    -0.296 A  
HETATM   11  C   UNL     1     -11.264   9.636  70.395  1.00  0.00    -0.342 A  
HETATM   12  C   UNL     1     -12.014  10.704  70.894  1.00  0.00    -0.363 A  
HETATM   13  C   UNL     1     -13.031  10.502  71.818  1.00  0.00    -0.582 A  
HETATM   14  O   UNL     1     -11.774  11.988  70.499  1.00  0.00    -0.510 OA 
HETATM   15  H   UNL     1     -12.284  12.714  70.838  1.00  0.00     0.000 HD 
HETATM   16  C   UNL     1     -13.308   9.208  72.235  1.00  0.00    -0.477 A  
HETATM   17  O   UNL     1     -14.293   8.942  73.139  1.00  0.00    -1.143 OA 
HETATM   18  C   UNL     1     -12.579   8.128  71.746  1.00  0.00    -0.360 A  
HETATM   19  H   UNL     1     -14.483   8.056  73.425  1.00  0.00     0.000 HD 
ENDBRANCH   7  10
ENDBRANCH   6   7
ENDBRANCH   4   6
ENDBRANCH   2   4
TORSDOF 4
ENDMDL
MODEL      120
REMARK 921   NORMALIZED FREE ENERGY PREDICTED BY IDOCK:   -4.30 KCAL/MOL
REMARK 922        TOTAL FREE ENERGY PREDICTED BY IDOCK:   -5.59 KCAL/MOL
REMARK 923 INTER-LIGAND FREE ENERGY PREDICTED BY IDOCK:   -5.38 KCAL/MOL
REMARK 924 INTRA-LIGAND FREE ENERGY PREDICTED BY IDOCK:   -0.21 KCAL/MOL
REMARK 927      BINDING AFFINITY PREDICTED BY RF-SCORE:    0.00 PKD
ROOT
HETATM    1  C   UNL     1      -7.123  19.643  68.435  1.00  0.00    -0.344 C  
HETATM    2  C   UNL     1      -8.246  19.186  67.504  1.00  0.00    -0.281 C  
HETATM    3  C   UNL     1      -8.937  20.410  66.895  1.00  0.00    -0.383 C  
ENDROOT
BRANCH   2   4
HETATM    4  N   UNL     1      -7.682  18.306  66.471  1.00  0.00    -0.239 NA 
HETATM    5  H   UNL     1      -6.688  18.140  66.629  1.00  0.00     0.000 HD 
BRANCH   4   6
HETATM    6  C   UNL     1      -8.423  17.037  66.358  1.00  0.00    -0.283 C  
BRANCH   6   7
HETATM    7  C   UNL     1      -9.943  17.196  66.601  1.00  0.00    -0.295 C  
HETATM    8  H   UNL     1     -11.535  17.541  65.503  1.00  0.00     0.000 HD 
HETATM    9  O   UNL     1     -10.602  17.443  65.354  1.00  0.00    -0.638 OA 
BRANCH   7  10
HETATM   10  C   UNL     1     -10.573  15.981  67.269  1.00  0.00    -0.313 A  
HETATM   11  C   UNL     1     -11.080  14.936  66.476  1.00  0.00    -0.341 A  
HETATM   12  C   UNL     1     -11.683  13.830  67.080  1.00  0.00    -0.385 A  
HETATM   13  C   UNL     1     -11.789  13.731  68.461  1.00  0.00    -0.406 A  
HETATM   14  O   UNL     1     -12.197  12.807  66.339  1.00  0.00    -0.507 OA 
HETATM   15  H   UNL     1     -12.608  12.055  66.750  1.00  0.00     0.000 HD 
HETATM   16  C   UNL     1     -11.268  14.750  69.246  1.00  0.00    -0.283 A  
HETATM   17  O   UNL     1     -11.339  14.713  70.607  1.00  0.00    -0.434 OA 
HETATM   18  C   UNL     1     -10.656  15.857  68.666  1.00  0.00    -0.250 A  
HETATM   19  H   UNL     1     -10.982  15.410  71.145  1.00  0.00     0.000 HD 
ENDBRANCH   7  10
ENDBRANCH   6   7
ENDBRANCH   4   6
ENDBRANCH   2   4
TORSDOF 4
ENDMDL
MODEL      121
REMARK 921   NORMALIZED FREE ENERGY PREDICTED BY IDOCK:   -4.30 KCAL/MOL
REMARK 922        TOTAL FREE ENERGY PREDICTED BY IDOCK:   -5.59 KCAL/MOL
REMARK 923 INTER-LIGAND FREE ENERGY PREDICTED BY IDOCK:   -5.39 KCAL/MOL
REMARK 924 INTRA-LIGAND FREE ENERGY PREDICTED BY IDOCK:   -0.19 KCAL/MOL
REMARK 927      BINDING AFFINITY PREDICTED BY RF-SCORE:    0.00 PKD
ROOT
HETATM    1  C   UNL     1     -12.552  13.969  70.508  1.00  0.00    -0.399 C  
HETATM    2  C   UNL     1     -12.421  15.479  70.710  1.00  0.00    -0.440 C  
HETATM    3  C   UNL     1     -11.897  15.763  72.122  1.00  0.00    -0.593 C  
ENDROOT
BRANCH   2   4
HETATM    4  N   UNL     1     -11.531  16.024  69.676  1.00  0.00    -0.334 NA 
HETATM    5  H   UNL     1     -10.619  16.267  70.064  1.00  0.00     0.000 HD 
BRANCH   4   6
HETATM    6  C   UNL     1     -11.396  15.114  68.525  1.00  0.00    -0.309 C  
BRANCH   6   7
HETATM    7  C   UNL     1     -10.102  15.351  67.710  1.00  0.00    -0.227 C  
HETATM    8  H   UNL     1      -9.454  14.925  65.905  1.00  0.00     0.000 HD 
HETATM    9  O   UNL     1     -10.249  14.779  66.405  1.00  0.00    -0.274 OA 
BRANCH   7  10
HETATM   10  C   UNL     1      -9.742  16.824  67.574  1.00  0.00    -0.252 A  
HETATM   11  C   UNL     1      -8.738  17.374  68.391  1.00  0.00    -0.271 A  
HETATM   12  C   UNL     1      -8.420  18.730  68.290  1.00  0.00    -0.327 A  
HETATM   13  C   UNL     1      -9.072  19.559  67.386  1.00  0.00    -0.377 A  
HETATM   14  O   UNL     1      -7.461  19.297  69.078  1.00  0.00    -0.352 OA 
HETATM   15  H   UNL     1      -7.245  20.219  69.010  1.00  0.00     0.000 HD 
HETATM   16  C   UNL     1     -10.046  19.014  66.562  1.00  0.00    -0.403 A  
HETATM   17  O   UNL     1     -10.722  19.772  65.653  1.00  0.00    -0.505 OA 
HETATM   18  C   UNL     1     -10.374  17.664  66.640  1.00  0.00    -0.333 A  
HETATM   19  H   UNL     1     -11.389  19.400  65.089  1.00  0.00     0.000 HD 
ENDBRANCH   7  10
ENDBRANCH   6   7
ENDBRANCH   4   6
ENDBRANCH   2   4
TORSDOF 4
ENDMDL
MODEL      122
REMARK 921   NORMALIZED FREE ENERGY PREDICTED BY IDOCK:   -4.30 KCAL/MOL
REMARK 922        TOTAL FREE ENERGY PREDICTED BY IDOCK:   -5.59 KCAL/MOL
REMARK 923 INTER-LIGAND FREE ENERGY PREDICTED BY IDOCK:   -5.24 KCAL/MOL
REMARK 924 INTRA-LIGAND FREE ENERGY PREDICTED BY IDOCK:   -0.34 KCAL/MOL
REMARK 927      BINDING AFFINITY PREDICTED BY RF-SCORE:    0.00 PKD
ROOT
HETATM    1  C   UNL     1      -7.649  15.227  67.657  1.00  0.00    -0.193 C  
HETATM    2  C   UNL     1      -8.649  16.013  66.809  1.00  0.00    -0.257 C  
HETATM    3  C   UNL     1      -7.923  17.151  66.083  1.00  0.00    -0.297 C  
ENDROOT
BRANCH   2   4
HETATM    4  N   UNL     1      -9.305  15.094  65.869  1.00  0.00    -0.441 NA 
HETATM    5  H   UNL     1      -8.626  14.658  65.244  1.00  0.00     0.000 HD 
BRANCH   4   6
HETATM    6  C   UNL     1     -10.121  14.081  66.561  1.00  0.00    -0.285 C  
BRANCH   6   7
HETATM    7  C   UNL     1     -11.531  14.592  66.942  1.00  0.00    -0.363 C  
HETATM    8  H   UNL     1     -13.379  14.228  66.386  1.00  0.00     0.000 HD 
HETATM    9  O   UNL     1     -12.513  13.914  66.152  1.00  0.00    -0.459 OA 
BRANCH   7  10
HETATM   10  C   UNL     1     -11.857  14.404  68.417  1.00  0.00    -0.354 A  
HETATM   11  C   UNL     1     -11.899  15.523  69.269  1.00  0.00    -0.372 A  
HETATM   12  C   UNL     1     -12.172  15.356  70.629  1.00  0.00    -0.385 A  
HETATM   13  C   UNL     1     -12.415  14.099  71.166  1.00  0.00    -0.445 A  
HETATM   14  O   UNL     1     -12.205  16.419  71.484  1.00  0.00    -0.594 OA 
HETATM   15  H   UNL     1     -12.390  16.305  72.408  1.00  0.00     0.000 HD 
HETATM   16  C   UNL     1     -12.398  12.997  70.325  1.00  0.00    -0.241 A  
HETATM   17  O   UNL     1     -12.629  11.736  70.789  1.00  0.00    -0.317 OA 
HETATM   18  C   UNL     1     -12.135  13.140  68.965  1.00  0.00    -0.240 A  
HETATM   19  H   UNL     1     -12.618  10.981  70.213  1.00  0.00     0.000 HD 
ENDBRANCH   7  10
ENDBRANCH   6   7
ENDBRANCH   4   6
ENDBRANCH   2   4
TORSDOF 4
ENDMDL
MODEL      123
REMARK 921   NORMALIZED FREE ENERGY PREDICTED BY IDOCK:   -4.29 KCAL/MOL
REMARK 922        TOTAL FREE ENERGY PREDICTED BY IDOCK:   -5.58 KCAL/MOL
REMARK 923 INTER-LIGAND FREE ENERGY PREDICTED BY IDOCK:   -5.25 KCAL/MOL
REMARK 924 INTRA-LIGAND FREE ENERGY PREDICTED BY IDOCK:   -0.32 KCAL/MOL
REMARK 927      BINDING AFFINITY PREDICTED BY RF-SCORE:    0.00 PKD
ROOT
HETATM    1  C   UNL     1      -8.833   8.310  67.075  1.00  0.00    -0.146 C  
HETATM    2  C   UNL     1     -10.353   8.335  66.910  1.00  0.00    -0.320 C  
HETATM    3  C   UNL     1     -10.949   7.033  67.455  1.00  0.00    -0.299 C  
ENDROOT
BRANCH   2   4
HETATM    4  N   UNL     1     -10.890   9.514  67.604  1.00  0.00    -0.444 NA 
HETATM    5  H   UNL     1     -11.588   9.249  68.298  1.00  0.00     0.000 HD 
BRANCH   4   6
HETATM    6  C   UNL     1      -9.825  10.336  68.205  1.00  0.00    -0.146 C  
BRANCH   6   7
HETATM    7  C   UNL     1     -10.129  11.853  68.164  1.00  0.00    -0.198 C  
HETATM    8  H   UNL     1      -9.121  13.518  68.428  1.00  0.00     0.000 HD 
HETATM    9  O   UNL     1      -8.934  12.587  68.453  1.00  0.00    -0.189 OA 
BRANCH   7  10
HETATM   10  C   UNL     1     -10.691  12.314  66.826  1.00  0.00    -0.272 A  
HETATM   11  C   UNL     1      -9.943  12.116  65.652  1.00  0.00    -0.271 A  
HETATM   12  C   UNL     1     -10.439  12.560  64.424  1.00  0.00    -0.359 A  
HETATM   13  C   UNL     1     -11.672  13.193  64.331  1.00  0.00    -0.429 A  
HETATM   14  O   UNL     1      -9.731  12.396  63.269  1.00  0.00    -0.608 OA 
HETATM   15  H   UNL     1     -10.069  12.698  62.434  1.00  0.00     0.000 HD 
HETATM   16  C   UNL     1     -12.422  13.369  65.484  1.00  0.00    -0.483 A  
HETATM   17  O   UNL     1     -13.639  13.981  65.461  1.00  0.00    -0.673 OA 
HETATM   18  C   UNL     1     -11.951  12.927  66.717  1.00  0.00    -0.418 A  
HETATM   19  H   UNL     1     -14.154  14.102  66.250  1.00  0.00     0.000 HD 
ENDBRANCH   7  10
ENDBRANCH   6   7
ENDBRANCH   4   6
ENDBRANCH   2   4
TORSDOF 4
ENDMDL
MODEL      124
REMARK 921   NORMALIZED FREE ENERGY PREDICTED BY IDOCK:   -4.28 KCAL/MOL
REMARK 922        TOTAL FREE ENERGY PREDICTED BY IDOCK:   -5.56 KCAL/MOL
REMARK 923 INTER-LIGAND FREE ENERGY PREDICTED BY IDOCK:   -5.33 KCAL/MOL
REMARK 924 INTRA-LIGAND FREE ENERGY PREDICTED BY IDOCK:   -0.23 KCAL/MOL
REMARK 927      BINDING AFFINITY PREDICTED BY RF-SCORE:    0.00 PKD
ROOT
HETATM    1  C   UNL     1      -7.646   8.118  63.460  1.00  0.00    -0.136 C  
HETATM    2  C   UNL     1      -7.039   9.404  64.022  1.00  0.00    -0.102 C  
HETATM    3  C   UNL     1      -5.803   9.788  63.203  1.00  0.00    -0.107 C  
ENDROOT
BRANCH   2   4
HETATM    4  N   UNL     1      -8.059  10.461  64.002  1.00  0.00    -0.269 NA 
HETATM    5  H   UNL     1      -8.771  10.275  63.296  1.00  0.00     0.000 HD 
BRANCH   4   6
HETATM    6  C   UNL     1      -8.666  10.672  65.329  1.00  0.00    -0.187 C  
BRANCH   6   7
HETATM    7  C   UNL     1     -10.195  10.430  65.344  1.00  0.00    -0.259 C  
HETATM    8  H   UNL     1     -11.482   9.505  66.504  1.00  0.00     0.000 HD 
HETATM    9  O   UNL     1     -10.543   9.653  66.495  1.00  0.00    -0.174 OA 
BRANCH   7  10
HETATM   10  C   UNL     1     -11.005  11.720  65.345  1.00  0.00    -0.352 A  
HETATM   11  C   UNL     1     -11.334  12.333  66.567  1.00  0.00    -0.403 A  
HETATM   12  C   UNL     1     -12.099  13.502  66.578  1.00  0.00    -0.408 A  
HETATM   13  C   UNL     1     -12.541  14.086  65.398  1.00  0.00    -0.529 A  
HETATM   14  O   UNL     1     -12.448  14.113  67.748  1.00  0.00    -0.535 OA 
HETATM   15  H   UNL     1     -12.968  14.907  67.755  1.00  0.00     0.000 HD 
HETATM   16  C   UNL     1     -12.198  13.496  64.191  1.00  0.00    -0.394 A  
HETATM   17  O   UNL     1     -12.599  14.019  62.998  1.00  0.00    -1.027 OA 
HETATM   18  C   UNL     1     -11.430  12.336  64.156  1.00  0.00    -0.453 A  
HETATM   19  H   UNL     1     -12.363  13.616  62.170  1.00  0.00     0.000 HD 
ENDBRANCH   7  10
ENDBRANCH   6   7
ENDBRANCH   4   6
ENDBRANCH   2   4
TORSDOF 4
ENDMDL
MODEL      125
REMARK 921   NORMALIZED FREE ENERGY PREDICTED BY IDOCK:   -4.28 KCAL/MOL
REMARK 922        TOTAL FREE ENERGY PREDICTED BY IDOCK:   -5.56 KCAL/MOL
REMARK 923 INTER-LIGAND FREE ENERGY PREDICTED BY IDOCK:   -5.37 KCAL/MOL
REMARK 924 INTRA-LIGAND FREE ENERGY PREDICTED BY IDOCK:   -0.19 KCAL/MOL
REMARK 927      BINDING AFFINITY PREDICTED BY RF-SCORE:    0.00 PKD
ROOT
HETATM    1  C   UNL     1     -10.964  10.171  69.310  1.00  0.00    -0.279 C  
HETATM    2  C   UNL     1     -10.673  10.626  67.879  1.00  0.00    -0.248 C  
HETATM    3  C   UNL     1     -10.362   9.405  67.007  1.00  0.00    -0.322 C  
ENDROOT
BRANCH   2   4
HETATM    4  N   UNL     1     -11.829  11.379  67.373  1.00  0.00    -0.601 NA 
HETATM    5  H   UNL     1     -12.707  10.958  67.678  1.00  0.00     0.000 HD 
BRANCH   4   6
HETATM    6  C   UNL     1     -11.766  12.805  67.740  1.00  0.00    -0.359 C  
BRANCH   6   7
HETATM    7  C   UNL     1     -11.420  13.726  66.546  1.00  0.00    -0.348 C  
HETATM    8  H   UNL     1     -12.402  14.595  65.083  1.00  0.00     0.000 HD 
HETATM    9  O   UNL     1     -12.615  14.029  65.817  1.00  0.00    -0.491 OA 
BRANCH   7  10
HETATM   10  C   UNL     1     -10.746  15.025  66.967  1.00  0.00    -0.304 A  
HETATM   11  C   UNL     1      -9.770  15.604  66.136  1.00  0.00    -0.348 A  
HETATM   12  C   UNL     1      -9.129  16.781  66.527  1.00  0.00    -0.273 A  
HETATM   13  C   UNL     1      -9.441  17.408  67.727  1.00  0.00    -0.261 A  
HETATM   14  O   UNL     1      -8.168  17.360  65.751  1.00  0.00    -0.540 OA 
HETATM   15  H   UNL     1      -7.732  18.161  66.017  1.00  0.00     0.000 HD 
HETATM   16  C   UNL     1     -10.420  16.853  68.537  1.00  0.00    -0.361 A  
HETATM   17  O   UNL     1     -10.773  17.418  69.725  1.00  0.00    -0.311 OA 
HETATM   18  C   UNL     1     -11.078  15.684  68.164  1.00  0.00    -0.330 A  
HETATM   19  H   UNL     1     -11.445  17.038  70.281  1.00  0.00     0.000 HD 
ENDBRANCH   7  10
ENDBRANCH   6   7
ENDBRANCH   4   6
ENDBRANCH   2   4
TORSDOF 4
ENDMDL
MODEL      126
REMARK 921   NORMALIZED FREE ENERGY PREDICTED BY IDOCK:   -4.27 KCAL/MOL
REMARK 922        TOTAL FREE ENERGY PREDICTED BY IDOCK:   -5.55 KCAL/MOL
REMARK 923 INTER-LIGAND FREE ENERGY PREDICTED BY IDOCK:   -5.58 KCAL/MOL
REMARK 924 INTRA-LIGAND FREE ENERGY PREDICTED BY IDOCK:    0.03 KCAL/MOL
REMARK 927      BINDING AFFINITY PREDICTED BY RF-SCORE:    0.00 PKD
ROOT
HETATM    1  C   UNL     1     -10.508  16.408  66.489  1.00  0.00    -0.282 C  
HETATM    2  C   UNL     1     -10.274  16.656  67.980  1.00  0.00    -0.280 C  
HETATM    3  C   UNL     1     -10.391  18.155  68.275  1.00  0.00    -0.377 C  
ENDROOT
BRANCH   2   4
HETATM    4  N   UNL     1     -11.246  15.869  68.752  1.00  0.00    -0.337 NA 
HETATM    5  H   UNL     1     -12.017  16.451  69.079  1.00  0.00     0.000 HD 
BRANCH   4   6
HETATM    6  C   UNL     1     -11.740  14.703  67.998  1.00  0.00    -0.342 C  
BRANCH   6   7
HETATM    7  C   UNL     1     -11.106  13.368  68.457  1.00  0.00    -0.270 C  
HETATM    8  H   UNL     1      -9.348  12.770  69.100  1.00  0.00     0.000 HD 
HETATM    9  O   UNL     1      -9.738  13.589  68.818  1.00  0.00    -0.141 OA 
BRANCH   7  10
HETATM   10  C   UNL     1     -11.837  12.730  69.631  1.00  0.00    -0.384 A  
HETATM   11  C   UNL     1     -11.960  11.331  69.697  1.00  0.00    -0.423 A  
HETATM   12  C   UNL     1     -12.652  10.740  70.757  1.00  0.00    -0.383 A  
HETATM   13  C   UNL     1     -13.221  11.508  71.764  1.00  0.00    -0.456 A  
HETATM   14  O   UNL     1     -12.801   9.386  70.842  1.00  0.00    -0.499 OA 
HETATM   15  H   UNL     1     -13.272   8.984  71.562  1.00  0.00     0.000 HD 
HETATM   16  C   UNL     1     -13.080  12.886  71.714  1.00  0.00    -0.360 A  
HETATM   17  O   UNL     1     -13.614  13.696  72.672  1.00  0.00    -0.615 OA 
HETATM   18  C   UNL     1     -12.389  13.497  70.672  1.00  0.00    -0.432 A  
HETATM   19  H   UNL     1     -13.517  14.641  72.639  1.00  0.00     0.000 HD 
ENDBRANCH   7  10
ENDBRANCH   6   7
ENDBRANCH   4   6
ENDBRANCH   2   4
TORSDOF 4
ENDMDL
MODEL      127
REMARK 921   NORMALIZED FREE ENERGY PREDICTED BY IDOCK:   -4.26 KCAL/MOL
REMARK 922        TOTAL FREE ENERGY PREDICTED BY IDOCK:   -5.54 KCAL/MOL
REMARK 923 INTER-LIGAND FREE ENERGY PREDICTED BY IDOCK:   -5.30 KCAL/MOL
REMARK 924 INTRA-LIGAND FREE ENERGY PREDICTED BY IDOCK:   -0.24 KCAL/MOL
REMARK 927      BINDING AFFINITY PREDICTED BY RF-SCORE:    0.00 PKD
ROOT
HETATM    1  C   UNL     1     -10.851  17.776  68.090  1.00  0.00    -0.193 C  
HETATM    2  C   UNL     1      -9.833  17.911  66.958  1.00  0.00    -0.314 C  
HETATM    3  C   UNL     1      -8.832  19.020  67.298  1.00  0.00    -0.302 C  
ENDROOT
BRANCH   2   4
HETATM    4  N   UNL     1      -9.168  16.616  66.757  1.00  0.00    -0.227 NA 
HETATM    5  H   UNL     1      -8.191  16.652  67.050  1.00  0.00     0.000 HD 
BRANCH   4   6
HETATM    6  C   UNL     1      -9.884  15.514  67.424  1.00  0.00    -0.224 C  
BRANCH   6   7
HETATM    7  C   UNL     1      -9.285  14.122  67.114  1.00  0.00    -0.231 C  
HETATM    8  H   UNL     1      -8.917  12.472  68.114  1.00  0.00     0.000 HD 
HETATM    9  O   UNL     1      -9.285  13.327  68.305  1.00  0.00    -0.206 OA 
BRANCH   7  10
HETATM   10  C   UNL     1     -10.033  13.379  66.015  1.00  0.00    -0.300 A  
HETATM   11  C   UNL     1      -9.784  12.011  65.806  1.00  0.00    -0.254 A  
HETATM   12  C   UNL     1     -10.447  11.329  64.784  1.00  0.00    -0.323 A  
HETATM   13  C   UNL     1     -11.364  11.973  63.963  1.00  0.00    -0.478 A  
HETATM   14  O   UNL     1     -10.218  10.005  64.546  1.00  0.00    -0.377 OA 
HETATM   15  H   UNL     1     -10.668   9.541  63.850  1.00  0.00     0.000 HD 
HETATM   16  C   UNL     1     -11.629  13.316  64.182  1.00  0.00    -0.405 A  
HETATM   17  O   UNL     1     -12.518  14.007  63.413  1.00  0.00    -1.108 OA 
HETATM   18  C   UNL     1     -10.986  14.015  65.200  1.00  0.00    -0.357 A  
HETATM   19  H   UNL     1     -12.700  14.927  63.563  1.00  0.00     0.000 HD 
ENDBRANCH   7  10
ENDBRANCH   6   7
ENDBRANCH   4   6
ENDBRANCH   2   4
TORSDOF 4
ENDMDL
MODEL      128
REMARK 921   NORMALIZED FREE ENERGY PREDICTED BY IDOCK:   -4.23 KCAL/MOL
REMARK 922        TOTAL FREE ENERGY PREDICTED BY IDOCK:   -5.50 KCAL/MOL
REMARK 923 INTER-LIGAND FREE ENERGY PREDICTED BY IDOCK:   -5.27 KCAL/MOL
REMARK 924 INTRA-LIGAND FREE ENERGY PREDICTED BY IDOCK:   -0.23 KCAL/MOL
REMARK 927      BINDING AFFINITY PREDICTED BY RF-SCORE:    0.00 PKD
ROOT
HETATM    1  C   UNL     1      -7.810  16.696  67.707  1.00  0.00    -0.175 C  
HETATM    2  C   UNL     1      -7.690  15.206  68.029  1.00  0.00    -0.124 C  
HETATM    3  C   UNL     1      -7.821  14.996  69.541  1.00  0.00    -0.149 C  
ENDROOT
BRANCH   2   4
HETATM    4  N   UNL     1      -8.721  14.471  67.284  1.00  0.00    -0.198 NA 
HETATM    5  H   UNL     1      -8.352  13.600  66.901  1.00  0.00     0.000 HD 
BRANCH   4   6
HETATM    6  C   UNL     1      -9.926  14.227  68.097  1.00  0.00    -0.230 C  
BRANCH   6   7
HETATM    7  C   UNL     1     -10.694  12.951  67.679  1.00  0.00    -0.223 C  
HETATM    8  H   UNL     1     -12.374  12.066  68.185  1.00  0.00     0.000 HD 
HETATM    9  O   UNL     1     -11.902  12.851  68.442  1.00  0.00    -0.315 OA 
BRANCH   7  10
HETATM   10  C   UNL     1     -11.034  12.915  66.195  1.00  0.00    -0.304 A  
HETATM   11  C   UNL     1     -11.717  13.997  65.612  1.00  0.00    -0.356 A  
HETATM   12  C   UNL     1     -12.056  13.961  64.257  1.00  0.00    -0.440 A  
HETATM   13  C   UNL     1     -11.723  12.874  63.459  1.00  0.00    -0.576 A  
HETATM   14  O   UNL     1     -12.732  14.987  63.664  1.00  0.00    -0.846 OA 
HETATM   15  H   UNL     1     -12.962  14.962  62.744  1.00  0.00     0.000 HD 
HETATM   16  C   UNL     1     -11.027  11.816  64.027  1.00  0.00    -0.384 A  
HETATM   17  O   UNL     1     -10.670  10.721  63.299  1.00  0.00    -0.615 OA 
HETATM   18  C   UNL     1     -10.673  11.834  65.372  1.00  0.00    -0.333 A  
HETATM   19  H   UNL     1     -10.193   9.996  63.687  1.00  0.00     0.000 HD 
ENDBRANCH   7  10
ENDBRANCH   6   7
ENDBRANCH   4   6
ENDBRANCH   2   4
TORSDOF 4
ENDMDL
MODEL      129
REMARK 921   NORMALIZED FREE ENERGY PREDICTED BY IDOCK:   -4.21 KCAL/MOL
REMARK 922        TOTAL FREE ENERGY PREDICTED BY IDOCK:   -5.48 KCAL/MOL
REMARK 923 INTER-LIGAND FREE ENERGY PREDICTED BY IDOCK:   -5.08 KCAL/MOL
REMARK 924 INTRA-LIGAND FREE ENERGY PREDICTED BY IDOCK:   -0.40 KCAL/MOL
REMARK 927      BINDING AFFINITY PREDICTED BY RF-SCORE:    0.00 PKD
ROOT
HETATM    1  C   UNL     1      -7.162  10.601  66.122  1.00  0.00    -0.138 C  
HETATM    2  C   UNL     1      -8.484  10.056  65.579  1.00  0.00    -0.147 C  
HETATM    3  C   UNL     1      -8.204   8.905  64.608  1.00  0.00    -0.163 C  
ENDROOT
BRANCH   2   4
HETATM    4  N   UNL     1      -9.323   9.629  66.707  1.00  0.00    -0.148 NA 
HETATM    5  H   UNL     1      -8.816   8.995  67.326  1.00  0.00     0.000 HD 
BRANCH   4   6
HETATM    6  C   UNL     1      -9.875  10.774  67.453  1.00  0.00    -0.177 C  
BRANCH   6   7
HETATM    7  C   UNL     1     -11.196  11.311  66.852  1.00  0.00    -0.230 C  
HETATM    8  H   UNL     1     -13.007  11.702  67.508  1.00  0.00     0.000 HD 
HETATM    9  O   UNL     1     -12.195  11.373  67.877  1.00  0.00    -0.592 OA 
BRANCH   7  10
HETATM   10  C   UNL     1     -11.048  12.684  66.213  1.00  0.00    -0.330 A  
HETATM   11  C   UNL     1     -12.069  13.178  65.380  1.00  0.00    -0.478 A  
HETATM   12  C   UNL     1     -11.929  14.426  64.769  1.00  0.00    -0.447 A  
HETATM   13  C   UNL     1     -10.798  15.206  64.972  1.00  0.00    -0.457 A  
HETATM   14  O   UNL     1     -12.894  14.927  63.944  1.00  0.00    -0.697 OA 
HETATM   15  H   UNL     1     -12.798  15.775  63.528  1.00  0.00     0.000 HD 
HETATM   16  C   UNL     1      -9.801  14.732  65.812  1.00  0.00    -0.342 A  
HETATM   17  O   UNL     1      -8.667  15.449  66.053  1.00  0.00    -0.433 OA 
HETATM   18  C   UNL     1      -9.922  13.495  66.437  1.00  0.00    -0.296 A  
HETATM   19  H   UNL     1      -7.984  15.125  66.629  1.00  0.00     0.000 HD 
ENDBRANCH   7  10
ENDBRANCH   6   7
ENDBRANCH   4   6
ENDBRANCH   2   4
TORSDOF 4
ENDMDL
MODEL      130
REMARK 921   NORMALIZED FREE ENERGY PREDICTED BY IDOCK:   -4.19 KCAL/MOL
REMARK 922        TOTAL FREE ENERGY PREDICTED BY IDOCK:   -5.45 KCAL/MOL
REMARK 923 INTER-LIGAND FREE ENERGY PREDICTED BY IDOCK:   -5.22 KCAL/MOL
REMARK 924 INTRA-LIGAND FREE ENERGY PREDICTED BY IDOCK:   -0.23 KCAL/MOL
REMARK 927      BINDING AFFINITY PREDICTED BY RF-SCORE:    0.00 PKD
ROOT
HETATM    1  C   UNL     1     -11.435   8.988  70.591  1.00  0.00    -0.291 C  
HETATM    2  C   UNL     1     -11.945  10.382  70.221  1.00  0.00    -0.302 C  
HETATM    3  C   UNL     1     -12.787  10.942  71.372  1.00  0.00    -0.554 C  
ENDROOT
BRANCH   2   4
HETATM    4  N   UNL     1     -10.796  11.244  69.912  1.00  0.00    -0.466 NA 
HETATM    5  H   UNL     1     -10.044  11.115  70.589  1.00  0.00     0.000 HD 
BRANCH   4   6
HETATM    6  C   UNL     1     -10.312  11.051  68.534  1.00  0.00    -0.190 C  
BRANCH   6   7
HETATM    7  C   UNL     1     -10.700  12.209  67.584  1.00  0.00    -0.220 C  
HETATM    8  H   UNL     1     -12.253  12.689  66.479  1.00  0.00     0.000 HD 
HETATM    9  O   UNL     1     -12.014  11.978  67.063  1.00  0.00    -0.609 OA 
BRANCH   7  10
HETATM   10  C   UNL     1     -10.661  13.574  68.257  1.00  0.00    -0.271 A  
HETATM   11  C   UNL     1     -11.841  14.118  68.797  1.00  0.00    -0.384 A  
HETATM   12  C   UNL     1     -11.819  15.381  69.393  1.00  0.00    -0.351 A  
HETATM   13  C   UNL     1     -10.646  16.120  69.475  1.00  0.00    -0.306 A  
HETATM   14  O   UNL     1     -12.949  15.942  69.913  1.00  0.00    -0.589 OA 
HETATM   15  H   UNL     1     -12.934  16.801  70.318  1.00  0.00     0.000 HD 
HETATM   16  C   UNL     1      -9.476  15.576  68.964  1.00  0.00    -0.242 A  
HETATM   17  O   UNL     1      -8.292  16.249  69.014  1.00  0.00    -0.232 OA 
HETATM   18  C   UNL     1      -9.473  14.316  68.373  1.00  0.00    -0.213 A  
HETATM   19  H   UNL     1      -7.490  15.876  68.664  1.00  0.00     0.000 HD 
ENDBRANCH   7  10
ENDBRANCH   6   7
ENDBRANCH   4   6
ENDBRANCH   2   4
TORSDOF 4
ENDMDL
MODEL      131
REMARK 921   NORMALIZED FREE ENERGY PREDICTED BY IDOCK:   -4.18 KCAL/MOL
REMARK 922        TOTAL FREE ENERGY PREDICTED BY IDOCK:   -5.44 KCAL/MOL
REMARK 923 INTER-LIGAND FREE ENERGY PREDICTED BY IDOCK:   -5.11 KCAL/MOL
REMARK 924 INTRA-LIGAND FREE ENERGY PREDICTED BY IDOCK:   -0.32 KCAL/MOL
REMARK 927      BINDING AFFINITY PREDICTED BY RF-SCORE:    0.00 PKD
ROOT
HETATM    1  C   UNL     1     -11.285   6.240  69.519  1.00  0.00    -0.500 C  
HETATM    2  C   UNL     1     -11.596   6.712  70.940  1.00  0.00    -0.361 C  
HETATM    3  C   UNL     1     -10.298   7.139  71.634  1.00  0.00    -0.215 C  
ENDROOT
BRANCH   2   4
HETATM    4  N   UNL     1     -12.569   7.811  70.876  1.00  0.00    -0.528 NA 
HETATM    5  H   UNL     1     -13.440   7.562  71.347  1.00  0.00     0.000 HD 
BRANCH   4   6
HETATM    6  C   UNL     1     -12.019   9.072  71.405  1.00  0.00    -0.332 C  
BRANCH   6   7
HETATM    7  C   UNL     1     -12.845  10.315  70.999  1.00  0.00    -0.397 C  
HETATM    8  H   UNL     1     -13.785  11.769  71.928  1.00  0.00     0.000 HD 
HETATM    9  O   UNL     1     -13.277  11.005  72.178  1.00  0.00    -0.481 OA 
BRANCH   7  10
HETATM   10  C   UNL     1     -12.077  11.280  70.106  1.00  0.00    -0.448 A  
HETATM   11  C   UNL     1     -12.503  12.616  69.997  1.00  0.00    -0.051 A  
HETATM   12  C   UNL     1     -11.819  13.500  69.160  1.00  0.00    -0.340 A  
HETATM   13  C   UNL     1     -10.710  13.091  68.430  1.00  0.00    -0.273 A  
HETATM   14  O   UNL     1     -12.216  14.799  69.020  1.00  0.00    -0.523 OA 
HETATM   15  H   UNL     1     -11.751  15.400  68.450  1.00  0.00     0.000 HD 
HETATM   16  C   UNL     1     -10.274  11.781  68.555  1.00  0.00    -0.210 A  
HETATM   17  O   UNL     1      -9.192  11.317  67.867  1.00  0.00    -0.149 OA 
HETATM   18  C   UNL     1     -10.935  10.884  69.389  1.00  0.00    -0.304 A  
HETATM   19  H   UNL     1      -8.893  10.419  67.953  1.00  0.00     0.000 HD 
ENDBRANCH   7  10
ENDBRANCH   6   7
ENDBRANCH   4   6
ENDBRANCH   2   4
TORSDOF 4
ENDMDL
MODEL      132
REMARK 921   NORMALIZED FREE ENERGY PREDICTED BY IDOCK:   -4.17 KCAL/MOL
REMARK 922        TOTAL FREE ENERGY PREDICTED BY IDOCK:   -5.43 KCAL/MOL
REMARK 923 INTER-LIGAND FREE ENERGY PREDICTED BY IDOCK:   -4.90 KCAL/MOL
REMARK 924 INTRA-LIGAND FREE ENERGY PREDICTED BY IDOCK:   -0.53 KCAL/MOL
REMARK 927      BINDING AFFINITY PREDICTED BY RF-SCORE:    0.00 PKD
ROOT
HETATM    1  C   UNL     1      -7.777  15.129  68.443  1.00  0.00    -0.118 C  
HETATM    2  C   UNL     1      -7.958  14.292  67.177  1.00  0.00    -0.101 C  
HETATM    3  C   UNL     1      -8.100  12.814  67.556  1.00  0.00    -0.180 C  
ENDROOT
BRANCH   2   4
HETATM    4  N   UNL     1      -9.132  14.784  66.442  1.00  0.00    -0.414 NA 
HETATM    5  H   UNL     1      -8.857  15.268  65.587  1.00  0.00     0.000 HD 
BRANCH   4   6
HETATM    6  C   UNL     1     -10.099  13.709  66.159  1.00  0.00    -0.306 C  
BRANCH   6   7
HETATM    7  C   UNL     1     -11.518  14.010  66.699  1.00  0.00    -0.364 C  
HETATM    8  H   UNL     1     -13.365  13.653  66.133  1.00  0.00     0.000 HD 
HETATM    9  O   UNL     1     -12.494  13.468  65.801  1.00  0.00    -0.457 OA 
BRANCH   7  10
HETATM   10  C   UNL     1     -11.758  13.453  68.095  1.00  0.00    -0.397 A  
HETATM   11  C   UNL     1     -11.688  12.065  68.313  1.00  0.00    -0.396 A  
HETATM   12  C   UNL     1     -11.933  11.544  69.585  1.00  0.00    -0.339 A  
HETATM   13  C   UNL     1     -12.238  12.373  70.657  1.00  0.00    -0.368 A  
HETATM   14  O   UNL     1     -11.887  10.202  69.826  1.00  0.00    -0.415 OA 
HETATM   15  H   UNL     1     -12.054   9.848  70.691  1.00  0.00     0.000 HD 
HETATM   16  C   UNL     1     -12.283  13.744  70.451  1.00  0.00    -0.363 A  
HETATM   17  O   UNL     1     -12.576  14.611  71.461  1.00  0.00    -0.309 OA 
HETATM   18  C   UNL     1     -12.036  14.285  69.193  1.00  0.00    -0.372 A  
HETATM   19  H   UNL     1     -12.607  15.550  71.320  1.00  0.00     0.000 HD 
ENDBRANCH   7  10
ENDBRANCH   6   7
ENDBRANCH   4   6
ENDBRANCH   2   4
TORSDOF 4
ENDMDL
MODEL      133
REMARK 921   NORMALIZED FREE ENERGY PREDICTED BY IDOCK:   -4.16 KCAL/MOL
REMARK 922        TOTAL FREE ENERGY PREDICTED BY IDOCK:   -5.41 KCAL/MOL
REMARK 923 INTER-LIGAND FREE ENERGY PREDICTED BY IDOCK:   -4.83 KCAL/MOL
REMARK 924 INTRA-LIGAND FREE ENERGY PREDICTED BY IDOCK:   -0.58 KCAL/MOL
REMARK 927      BINDING AFFINITY PREDICTED BY RF-SCORE:    0.00 PKD
ROOT
HETATM    1  C   UNL     1     -13.148  12.063  63.963  1.00  0.00    -0.125 C  
HETATM    2  C   UNL     1     -12.062  12.945  63.344  1.00  0.00    -0.530 C  
HETATM    3  C   UNL     1     -11.846  14.182  64.221  1.00  0.00    -0.420 C  
ENDROOT
BRANCH   2   4
HETATM    4  N   UNL     1     -10.832  12.156  63.198  1.00  0.00    -0.658 NA 
HETATM    5  H   UNL     1     -10.440  12.251  62.260  1.00  0.00     0.000 HD 
BRANCH   4   6
HETATM    6  C   UNL     1      -9.833  12.489  64.229  1.00  0.00    -0.087 C  
BRANCH   6   7
HETATM    7  C   UNL     1      -9.672  11.383  65.299  1.00  0.00    -0.241 C  
HETATM    8  H   UNL     1      -8.188  10.362  66.084  1.00  0.00     0.000 HD 
HETATM    9  O   UNL     1      -8.287  11.041  65.426  1.00  0.00    -0.114 OA 
BRANCH   7  10
HETATM   10  C   UNL     1     -10.215  11.787  66.663  1.00  0.00    -0.240 A  
HETATM   11  C   UNL     1     -11.240  11.028  67.256  1.00  0.00    -0.330 A  
HETATM   12  C   UNL     1     -11.762  11.407  68.495  1.00  0.00    -0.318 A  
HETATM   13  C   UNL     1     -11.283  12.523  69.169  1.00  0.00    -0.297 A  
HETATM   14  O   UNL     1     -12.767  10.701  69.090  1.00  0.00    -0.685 OA 
HETATM   15  H   UNL     1     -13.122  10.959  69.932  1.00  0.00     0.000 HD 
HETATM   16  C   UNL     1     -10.255  13.259  68.598  1.00  0.00    -0.172 A  
HETATM   17  O   UNL     1      -9.739  14.363  69.208  1.00  0.00    -0.408 OA 
HETATM   18  C   UNL     1      -9.715  12.895  67.368  1.00  0.00    -0.201 A  
HETATM   19  H   UNL     1      -9.035  14.867  68.817  1.00  0.00     0.000 HD 
ENDBRANCH   7  10
ENDBRANCH   6   7
ENDBRANCH   4   6
ENDBRANCH   2   4
TORSDOF 4
ENDMDL
MODEL      134
REMARK 921   NORMALIZED FREE ENERGY PREDICTED BY IDOCK:   -4.14 KCAL/MOL
REMARK 922        TOTAL FREE ENERGY PREDICTED BY IDOCK:   -5.39 KCAL/MOL
REMARK 923 INTER-LIGAND FREE ENERGY PREDICTED BY IDOCK:   -5.06 KCAL/MOL
REMARK 924 INTRA-LIGAND FREE ENERGY PREDICTED BY IDOCK:   -0.33 KCAL/MOL
REMARK 927      BINDING AFFINITY PREDICTED BY RF-SCORE:    0.00 PKD
ROOT
HETATM    1  C   UNL     1      -7.249  19.725  69.269  1.00  0.00    -0.293 C  
HETATM    2  C   UNL     1      -6.701  18.600  68.390  1.00  0.00    -0.241 C  
HETATM    3  C   UNL     1      -6.255  17.430  69.273  1.00  0.00    -0.238 C  
ENDROOT
BRANCH   2   4
HETATM    4  N   UNL     1      -7.737  18.196  67.429  1.00  0.00    -0.215 NA 
HETATM    5  H   UNL     1      -7.591  17.238  67.108  1.00  0.00     0.000 HD 
BRANCH   4   6
HETATM    6  C   UNL     1      -9.096  18.374  67.972  1.00  0.00    -0.294 C  
BRANCH   6   7
HETATM    7  C   UNL     1     -10.198  17.788  67.057  1.00  0.00    -0.346 C  
HETATM    8  H   UNL     1     -10.807  18.051  65.208  1.00  0.00     0.000 HD 
HETATM    9  O   UNL     1     -10.130  18.411  65.769  1.00  0.00    -0.553 OA 
BRANCH   7  10
HETATM   10  C   UNL     1     -10.096  16.278  66.890  1.00  0.00    -0.278 A  
HETATM   11  C   UNL     1     -10.180  15.713  65.605  1.00  0.00    -0.402 A  
HETATM   12  C   UNL     1     -10.115  14.327  65.446  1.00  0.00    -0.351 A  
HETATM   13  C   UNL     1      -9.958  13.482  66.537  1.00  0.00    -0.287 A  
HETATM   14  O   UNL     1     -10.208  13.747  64.214  1.00  0.00    -0.698 OA 
HETATM   15  H   UNL     1     -10.163  12.804  64.106  1.00  0.00     0.000 HD 
HETATM   16  C   UNL     1      -9.850  14.038  67.803  1.00  0.00    -0.232 A  
HETATM   17  O   UNL     1      -9.694  13.265  68.915  1.00  0.00    -0.418 OA 
HETATM   18  C   UNL     1      -9.906  15.417  67.985  1.00  0.00    -0.216 A  
HETATM   19  H   UNL     1      -9.620  13.646  69.782  1.00  0.00     0.000 HD 
ENDBRANCH   7  10
ENDBRANCH   6   7
ENDBRANCH   4   6
ENDBRANCH   2   4
TORSDOF 4
ENDMDL
MODEL      135
REMARK 921   NORMALIZED FREE ENERGY PREDICTED BY IDOCK:   -4.12 KCAL/MOL
REMARK 922        TOTAL FREE ENERGY PREDICTED BY IDOCK:   -5.36 KCAL/MOL
REMARK 923 INTER-LIGAND FREE ENERGY PREDICTED BY IDOCK:   -5.05 KCAL/MOL
REMARK 924 INTRA-LIGAND FREE ENERGY PREDICTED BY IDOCK:   -0.32 KCAL/MOL
REMARK 927      BINDING AFFINITY PREDICTED BY RF-SCORE:    0.00 PKD
ROOT
HETATM    1  C   UNL     1     -11.218   6.811  70.373  1.00  0.00    -0.378 C  
HETATM    2  C   UNL     1     -11.961   7.660  71.405  1.00  0.00    -0.310 C  
HETATM    3  C   UNL     1     -10.989   8.093  72.508  1.00  0.00    -0.439 C  
ENDROOT
BRANCH   2   4
HETATM    4  N   UNL     1     -12.568   8.813  70.727  1.00  0.00    -0.483 NA 
HETATM    5  H   UNL     1     -13.469   9.055  71.143  1.00  0.00     0.000 HD 
BRANCH   4   6
HETATM    6  C   UNL     1     -11.666   9.978  70.697  1.00  0.00    -0.337 C  
BRANCH   6   7
HETATM    7  C   UNL     1     -12.098  11.056  69.675  1.00  0.00    -0.340 C  
HETATM    8  H   UNL     1     -12.239  13.016  69.642  1.00  0.00     0.000 HD 
HETATM    9  O   UNL     1     -11.973  12.353  70.270  1.00  0.00    -0.349 OA 
BRANCH   7  10
HETATM   10  C   UNL     1     -11.289  11.017  68.385  1.00  0.00    -0.363 A  
HETATM   11  C   UNL     1     -10.811  12.216  67.827  1.00  0.00    -0.263 A  
HETATM   12  C   UNL     1     -10.091  12.191  66.630  1.00  0.00    -0.199 A  
HETATM   13  C   UNL     1      -9.825  10.997  65.974  1.00  0.00    -0.273 A  
HETATM   14  O   UNL     1      -9.626  13.338  66.056  1.00  0.00    -0.403 OA 
HETATM   15  H   UNL     1      -9.137  13.321  65.242  1.00  0.00     0.000 HD 
HETATM   16  C   UNL     1     -10.275   9.811  66.534  1.00  0.00    -0.219 A  
HETATM   17  O   UNL     1     -10.046   8.605  65.941  1.00  0.00    -0.452 OA 
HETATM   18  C   UNL     1     -10.988   9.811  67.730  1.00  0.00    -0.242 A  
HETATM   19  H   UNL     1     -10.354   7.792  66.325  1.00  0.00     0.000 HD 
ENDBRANCH   7  10
ENDBRANCH   6   7
ENDBRANCH   4   6
ENDBRANCH   2   4
TORSDOF 4
ENDMDL
MODEL      136
REMARK 921   NORMALIZED FREE ENERGY PREDICTED BY IDOCK:   -4.12 KCAL/MOL
REMARK 922        TOTAL FREE ENERGY PREDICTED BY IDOCK:   -5.36 KCAL/MOL
REMARK 923 INTER-LIGAND FREE ENERGY PREDICTED BY IDOCK:   -5.04 KCAL/MOL
REMARK 924 INTRA-LIGAND FREE ENERGY PREDICTED BY IDOCK:   -0.32 KCAL/MOL
REMARK 927      BINDING AFFINITY PREDICTED BY RF-SCORE:    0.00 PKD
ROOT
HETATM    1  C   UNL     1      -6.063  17.356  66.278  1.00  0.00    -0.238 C  
HETATM    2  C   UNL     1      -7.350  18.162  66.453  1.00  0.00    -0.250 C  
HETATM    3  C   UNL     1      -7.203  19.520  65.759  1.00  0.00    -0.314 C  
ENDROOT
BRANCH   2   4
HETATM    4  N   UNL     1      -8.476  17.389  65.909  1.00  0.00    -0.541 NA 
HETATM    5  H   UNL     1      -8.304  16.386  65.981  1.00  0.00     0.000 HD 
BRANCH   4   6
HETATM    6  C   UNL     1      -9.757  17.758  66.536  1.00  0.00    -0.320 C  
BRANCH   6   7
HETATM    7  C   UNL     1      -9.750  17.596  68.074  1.00  0.00    -0.301 C  
HETATM    8  H   UNL     1     -10.273  18.683  69.626  1.00  0.00     0.000 HD 
HETATM    9  O   UNL     1     -10.278  18.782  68.681  1.00  0.00    -0.381 OA 
BRANCH   7  10
HETATM   10  C   UNL     1     -10.548  16.391  68.553  1.00  0.00    -0.304 A  
HETATM   11  C   UNL     1     -10.864  16.263  69.918  1.00  0.00    -0.352 A  
HETATM   12  C   UNL     1     -11.573  15.148  70.369  1.00  0.00    -0.292 A  
HETATM   13  C   UNL     1     -11.988  14.154  69.492  1.00  0.00    -0.389 A  
HETATM   14  O   UNL     1     -11.882  14.986  71.688  1.00  0.00    -0.337 OA 
HETATM   15  H   UNL     1     -12.364  14.228  71.995  1.00  0.00     0.000 HD 
HETATM   16  C   UNL     1     -11.699  14.289  68.143  1.00  0.00    -0.350 A  
HETATM   17  O   UNL     1     -12.078  13.350  67.230  1.00  0.00    -0.361 OA 
HETATM   18  C   UNL     1     -11.000  15.396  67.669  1.00  0.00    -0.315 A  
HETATM   19  H   UNL     1     -11.881  13.443  66.305  1.00  0.00     0.000 HD 
ENDBRANCH   7  10
ENDBRANCH   6   7
ENDBRANCH   4   6
ENDBRANCH   2   4
TORSDOF 4
ENDMDL
MODEL      137
REMARK 921   NORMALIZED FREE ENERGY PREDICTED BY IDOCK:   -4.11 KCAL/MOL
REMARK 922        TOTAL FREE ENERGY PREDICTED BY IDOCK:   -5.35 KCAL/MOL
REMARK 923 INTER-LIGAND FREE ENERGY PREDICTED BY IDOCK:   -4.97 KCAL/MOL
REMARK 924 INTRA-LIGAND FREE ENERGY PREDICTED BY IDOCK:   -0.38 KCAL/MOL
REMARK 927      BINDING AFFINITY PREDICTED BY RF-SCORE:    0.00 PKD
ROOT
HETATM    1  C   UNL     1      -9.296  14.931  69.013  1.00  0.00    -0.179 C  
HETATM    2  C   UNL     1     -10.798  15.219  69.055  1.00  0.00    -0.244 C  
HETATM    3  C   UNL     1     -11.142  15.960  70.351  1.00  0.00    -0.382 C  
ENDROOT
BRANCH   2   4
HETATM    4  N   UNL     1     -11.168  15.997  67.864  1.00  0.00    -0.316 NA 
HETATM    5  H   UNL     1     -12.178  15.991  67.718  1.00  0.00     0.000 HD 
BRANCH   4   6
HETATM    6  C   UNL     1     -10.645  17.374  67.917  1.00  0.00    -0.383 C  
BRANCH   6   7
HETATM    7  C   UNL     1      -9.674  17.701  66.758  1.00  0.00    -0.300 C  
HETATM    8  H   UNL     1      -9.802  18.520  64.977  1.00  0.00     0.000 HD 
HETATM    9  O   UNL     1     -10.399  18.320  65.689  1.00  0.00    -0.607 OA 
BRANCH   7  10
HETATM   10  C   UNL     1      -8.526  18.609  67.177  1.00  0.00    -0.272 A  
HETATM   11  C   UNL     1      -7.981  18.493  68.468  1.00  0.00    -0.346 A  
HETATM   12  C   UNL     1      -6.946  19.340  68.868  1.00  0.00    -0.338 A  
HETATM   13  C   UNL     1      -6.427  20.301  68.010  1.00  0.00    -0.312 A  
HETATM   14  O   UNL     1      -6.406  19.262  70.119  1.00  0.00    -0.215 OA 
HETATM   15  H   UNL     1      -5.702  19.838  70.392  1.00  0.00     0.000 HD 
HETATM   16  C   UNL     1      -6.946  20.402  66.728  1.00  0.00    -0.261 A  
HETATM   17  O   UNL     1      -6.481  21.323  65.837  1.00  0.00    -0.479 OA 
HETATM   18  C   UNL     1      -7.973  19.563  66.305  1.00  0.00    -0.332 A  
HETATM   19  H   UNL     1      -6.836  21.392  64.958  1.00  0.00     0.000 HD 
ENDBRANCH   7  10
ENDBRANCH   6   7
ENDBRANCH   4   6
ENDBRANCH   2   4
TORSDOF 4
ENDMDL
MODEL      138
REMARK 921   NORMALIZED FREE ENERGY PREDICTED BY IDOCK:   -4.10 KCAL/MOL
REMARK 922        TOTAL FREE ENERGY PREDICTED BY IDOCK:   -5.34 KCAL/MOL
REMARK 923 INTER-LIGAND FREE ENERGY PREDICTED BY IDOCK:   -5.09 KCAL/MOL
REMARK 924 INTRA-LIGAND FREE ENERGY PREDICTED BY IDOCK:   -0.25 KCAL/MOL
REMARK 927      BINDING AFFINITY PREDICTED BY RF-SCORE:    0.00 PKD
ROOT
HETATM    1  C   UNL     1      -6.839  12.364  67.474  1.00  0.00    -0.143 C  
HETATM    2  C   UNL     1      -7.619  13.258  68.439  1.00  0.00    -0.137 C  
HETATM    3  C   UNL     1      -7.680  14.684  67.880  1.00  0.00    -0.149 C  
ENDROOT
BRANCH   2   4
HETATM    4  N   UNL     1      -8.960  12.691  68.637  1.00  0.00    -0.392 NA 
HETATM    5  H   UNL     1      -9.068  12.320  69.582  1.00  0.00     0.000 HD 
BRANCH   4   6
HETATM    6  C   UNL     1     -10.025  13.659  68.319  1.00  0.00    -0.236 C  
BRANCH   6   7
HETATM    7  C   UNL     1     -11.438  13.028  68.314  1.00  0.00    -0.312 C  
HETATM    8  H   UNL     1     -12.216  11.273  67.896  1.00  0.00     0.000 HD 
HETATM    9  O   UNL     1     -11.348  11.660  67.900  1.00  0.00    -0.254 OA 
BRANCH   7  10
HETATM   10  C   UNL     1     -12.130  13.098  69.668  1.00  0.00    -0.317 A  
HETATM   11  C   UNL     1     -12.386  11.912  70.380  1.00  0.00    -0.334 A  
HETATM   12  C   UNL     1     -13.044  11.965  71.612  1.00  0.00    -0.328 A  
HETATM   13  C   UNL     1     -13.449  13.175  72.162  1.00  0.00    -0.653 A  
HETATM   14  O   UNL     1     -13.321  10.832  72.320  1.00  0.00    -0.623 OA 
HETATM   15  H   UNL     1     -13.768  10.868  73.157  1.00  0.00     0.000 HD 
HETATM   16  C   UNL     1     -13.176  14.347  71.473  1.00  0.00    -0.346 A  
HETATM   17  O   UNL     1     -13.546  15.566  71.958  1.00  0.00    -0.445 OA 
HETATM   18  C   UNL     1     -12.515  14.319  70.248  1.00  0.00    -0.422 A  
HETATM   19  H   UNL     1     -13.359  16.370  71.487  1.00  0.00     0.000 HD 
ENDBRANCH   7  10
ENDBRANCH   6   7
ENDBRANCH   4   6
ENDBRANCH   2   4
TORSDOF 4
ENDMDL
MODEL      139
REMARK 921   NORMALIZED FREE ENERGY PREDICTED BY IDOCK:   -4.10 KCAL/MOL
REMARK 922        TOTAL FREE ENERGY PREDICTED BY IDOCK:   -5.34 KCAL/MOL
REMARK 923 INTER-LIGAND FREE ENERGY PREDICTED BY IDOCK:   -5.14 KCAL/MOL
REMARK 924 INTRA-LIGAND FREE ENERGY PREDICTED BY IDOCK:   -0.20 KCAL/MOL
REMARK 927      BINDING AFFINITY PREDICTED BY RF-SCORE:    0.00 PKD
ROOT
HETATM    1  C   UNL     1      -9.696   7.123  68.366  1.00  0.00    -0.143 C  
HETATM    2  C   UNL     1     -10.194   8.568  68.389  1.00  0.00    -0.203 C  
HETATM    3  C   UNL     1     -10.228   9.075  69.835  1.00  0.00    -0.214 C  
ENDROOT
BRANCH   2   4
HETATM    4  N   UNL     1      -9.316   9.389  67.542  1.00  0.00    -0.126 NA 
HETATM    5  H   UNL     1      -9.147   8.941  66.642  1.00  0.00     0.000 HD 
BRANCH   4   6
HETATM    6  C   UNL     1      -9.836  10.757  67.367  1.00  0.00    -0.177 C  
BRANCH   6   7
HETATM    7  C   UNL     1      -9.189  11.506  66.178  1.00  0.00    -0.219 C  
HETATM    8  H   UNL     1      -8.026  11.043  64.663  1.00  0.00     0.000 HD 
HETATM    9  O   UNL     1      -8.423  10.584  65.394  1.00  0.00    -0.164 OA 
BRANCH   7  10
HETATM   10  C   UNL     1     -10.206  12.200  65.283  1.00  0.00    -0.304 A  
HETATM   11  C   UNL     1     -11.036  11.431  64.446  1.00  0.00    -0.329 A  
HETATM   12  C   UNL     1     -11.954  12.062  63.603  1.00  0.00    -0.515 A  
HETATM   13  C   UNL     1     -12.076  13.445  63.575  1.00  0.00    -0.497 A  
HETATM   14  O   UNL     1     -12.763  11.346  62.769  1.00  0.00    -0.927 OA 
HETATM   15  H   UNL     1     -13.386  11.775  62.195  1.00  0.00     0.000 HD 
HETATM   16  C   UNL     1     -11.276  14.204  64.416  1.00  0.00    -0.278 A  
HETATM   17  O   UNL     1     -11.347  15.565  64.438  1.00  0.00    -0.680 OA 
HETATM   18  C   UNL     1     -10.360  13.597  65.270  1.00  0.00    -0.362 A  
HETATM   19  H   UNL     1     -10.799  16.085  65.015  1.00  0.00     0.000 HD 
ENDBRANCH   7  10
ENDBRANCH   6   7
ENDBRANCH   4   6
ENDBRANCH   2   4
TORSDOF 4
ENDMDL
MODEL      140
REMARK 921   NORMALIZED FREE ENERGY PREDICTED BY IDOCK:   -4.08 KCAL/MOL
REMARK 922        TOTAL FREE ENERGY PREDICTED BY IDOCK:   -5.32 KCAL/MOL
REMARK 923 INTER-LIGAND FREE ENERGY PREDICTED BY IDOCK:   -4.70 KCAL/MOL
REMARK 924 INTRA-LIGAND FREE ENERGY PREDICTED BY IDOCK:   -0.62 KCAL/MOL
REMARK 927      BINDING AFFINITY PREDICTED BY RF-SCORE:    0.00 PKD
ROOT
HETATM    1  C   UNL     1      -7.468  13.553  67.507  1.00  0.00    -0.177 C  
HETATM    2  C   UNL     1      -7.930  12.140  67.149  1.00  0.00    -0.170 C  
HETATM    3  C   UNL     1      -8.678  11.529  68.338  1.00  0.00    -0.160 C  
ENDROOT
BRANCH   2   4
HETATM    4  N   UNL     1      -8.772  12.204  65.946  1.00  0.00    -0.391 NA 
HETATM    5  H   UNL     1      -8.427  11.576  65.219  1.00  0.00     0.000 HD 
BRANCH   4   6
HETATM    6  C   UNL     1     -10.191  11.941  66.248  1.00  0.00    -0.216 C  
BRANCH   6   7
HETATM    7  C   UNL     1     -11.128  13.094  65.816  1.00  0.00    -0.273 C  
HETATM    8  H   UNL     1     -13.017  13.283  65.308  1.00  0.00     0.000 HD 
HETATM    9  O   UNL     1     -12.441  12.575  65.574  1.00  0.00    -0.646 OA 
BRANCH   7  10
HETATM   10  C   UNL     1     -11.214  14.213  66.845  1.00  0.00    -0.326 A  
HETATM   11  C   UNL     1     -12.011  14.045  67.992  1.00  0.00    -0.386 A  
HETATM   12  C   UNL     1     -12.115  15.077  68.927  1.00  0.00    -0.188 A  
HETATM   13  C   UNL     1     -11.438  16.277  68.756  1.00  0.00    -0.289 A  
HETATM   14  O   UNL     1     -12.891  14.950  70.043  1.00  0.00    -0.578 OA 
HETATM   15  H   UNL     1     -12.963  15.652  70.678  1.00  0.00     0.000 HD 
HETATM   16  C   UNL     1     -10.633  16.436  67.638  1.00  0.00    -0.313 A  
HETATM   17  O   UNL     1      -9.941  17.589  67.412  1.00  0.00    -0.294 OA 
HETATM   18  C   UNL     1     -10.507  15.419  66.697  1.00  0.00    -0.293 A  
HETATM   19  H   UNL     1      -9.389  17.698  66.646  1.00  0.00     0.000 HD 
ENDBRANCH   7  10
ENDBRANCH   6   7
ENDBRANCH   4   6
ENDBRANCH   2   4
TORSDOF 4
ENDMDL
MODEL      141
REMARK 921   NORMALIZED FREE ENERGY PREDICTED BY IDOCK:   -4.08 KCAL/MOL
REMARK 922        TOTAL FREE ENERGY PREDICTED BY IDOCK:   -5.31 KCAL/MOL
REMARK 923 INTER-LIGAND FREE ENERGY PREDICTED BY IDOCK:   -4.78 KCAL/MOL
REMARK 924 INTRA-LIGAND FREE ENERGY PREDICTED BY IDOCK:   -0.54 KCAL/MOL
REMARK 927      BINDING AFFINITY PREDICTED BY RF-SCORE:    0.00 PKD
ROOT
HETATM    1  C   UNL     1      -7.714   8.372  71.197  1.00  0.00    -0.107 C  
HETATM    2  C   UNL     1      -7.490   9.386  70.075  1.00  0.00    -0.107 C  
HETATM    3  C   UNL     1      -7.545   8.672  68.720  1.00  0.00    -0.096 C  
ENDROOT
BRANCH   2   4
HETATM    4  N   UNL     1      -8.504  10.444  70.178  1.00  0.00    -0.320 NA 
HETATM    5  H   UNL     1      -8.072  11.361  70.293  1.00  0.00     0.000 HD 
BRANCH   4   6
HETATM    6  C   UNL     1      -9.435  10.433  69.036  1.00  0.00    -0.197 C  
BRANCH   6   7
HETATM    7  C   UNL     1     -10.915  10.605  69.455  1.00  0.00    -0.255 C  
HETATM    8  H   UNL     1     -12.638  10.843  68.542  1.00  0.00     0.000 HD 
HETATM    9  O   UNL     1     -11.729  10.737  68.284  1.00  0.00    -0.468 OA 
BRANCH   7  10
HETATM   10  C   UNL     1     -11.436   9.451  70.300  1.00  0.00    -0.223 A  
HETATM   11  C   UNL     1     -11.086   8.130  69.966  1.00  0.00    -0.146 A  
HETATM   12  C   UNL     1     -11.581   7.065  70.721  1.00  0.00    -0.338 A  
HETATM   13  C   UNL     1     -12.414   7.279  71.812  1.00  0.00    -0.378 A  
HETATM   14  O   UNL     1     -11.272   5.771  70.415  1.00  0.00    -0.286 OA 
HETATM   15  H   UNL     1     -11.609   5.047  70.928  1.00  0.00     0.000 HD 
HETATM   16  C   UNL     1     -12.741   8.581  72.158  1.00  0.00    -0.373 A  
HETATM   17  O   UNL     1     -13.552   8.860  73.218  1.00  0.00    -1.012 OA 
HETATM   18  C   UNL     1     -12.253   9.659  71.425  1.00  0.00    -0.471 A  
HETATM   19  H   UNL     1     -13.776   9.752  73.455  1.00  0.00     0.000 HD 
ENDBRANCH   7  10
ENDBRANCH   6   7
ENDBRANCH   4   6
ENDBRANCH   2   4
TORSDOF 4
ENDMDL
MODEL      142
REMARK 921   NORMALIZED FREE ENERGY PREDICTED BY IDOCK:   -4.06 KCAL/MOL
REMARK 922        TOTAL FREE ENERGY PREDICTED BY IDOCK:   -5.29 KCAL/MOL
REMARK 923 INTER-LIGAND FREE ENERGY PREDICTED BY IDOCK:   -4.88 KCAL/MOL
REMARK 924 INTRA-LIGAND FREE ENERGY PREDICTED BY IDOCK:   -0.41 KCAL/MOL
REMARK 927      BINDING AFFINITY PREDICTED BY RF-SCORE:    0.00 PKD
ROOT
HETATM    1  C   UNL     1     -10.533   7.627  70.364  1.00  0.00    -0.221 C  
HETATM    2  C   UNL     1     -10.294   6.575  69.280  1.00  0.00    -0.202 C  
HETATM    3  C   UNL     1     -10.188   5.190  69.925  1.00  0.00    -0.361 C  
ENDROOT
BRANCH   2   4
HETATM    4  N   UNL     1     -11.388   6.641  68.301  1.00  0.00    -0.564 NA 
HETATM    5  H   UNL     1     -12.064   7.364  68.550  1.00  0.00     0.000 HD 
BRANCH   4   6
HETATM    6  C   UNL     1     -10.891   6.826  66.926  1.00  0.00    -0.331 C  
BRANCH   6   7
HETATM    7  C   UNL     1      -9.679   7.785  66.841  1.00  0.00    -0.216 C  
HETATM    8  H   UNL     1      -8.029   7.907  65.782  1.00  0.00     0.000 HD 
HETATM    9  O   UNL     1      -8.773   7.319  65.834  1.00  0.00    -0.149 OA 
BRANCH   7  10
HETATM   10  C   UNL     1     -10.074   9.223  66.533  1.00  0.00    -0.343 A  
HETATM   11  C   UNL     1      -9.656   9.816  65.328  1.00  0.00    -0.368 A  
HETATM   12  C   UNL     1      -9.992  11.143  65.051  1.00  0.00    -0.273 A  
HETATM   13  C   UNL     1     -10.744  11.899  65.941  1.00  0.00    -0.326 A  
HETATM   14  O   UNL     1      -9.590  11.753  63.898  1.00  0.00    -0.439 OA 
HETATM   15  H   UNL     1      -9.818  12.655  63.709  1.00  0.00     0.000 HD 
HETATM   16  C   UNL     1     -11.178  11.308  67.118  1.00  0.00    -0.275 A  
HETATM   17  O   UNL     1     -11.920  11.994  68.033  1.00  0.00    -0.495 OA 
HETATM   18  C   UNL     1     -10.862   9.985  67.413  1.00  0.00    -0.313 A  
HETATM   19  H   UNL     1     -12.217  11.590  68.840  1.00  0.00     0.000 HD 
ENDBRANCH   7  10
ENDBRANCH   6   7
ENDBRANCH   4   6
ENDBRANCH   2   4
TORSDOF 4
ENDMDL
MODEL      143
REMARK 921   NORMALIZED FREE ENERGY PREDICTED BY IDOCK:   -4.06 KCAL/MOL
REMARK 922        TOTAL FREE ENERGY PREDICTED BY IDOCK:   -5.29 KCAL/MOL
REMARK 923 INTER-LIGAND FREE ENERGY PREDICTED BY IDOCK:   -4.88 KCAL/MOL
REMARK 924 INTRA-LIGAND FREE ENERGY PREDICTED BY IDOCK:   -0.40 KCAL/MOL
REMARK 927      BINDING AFFINITY PREDICTED BY RF-SCORE:    0.00 PKD
ROOT
HETATM    1  C   UNL     1      -7.049  14.009  68.775  1.00  0.00    -0.108 C  
HETATM    2  C   UNL     1      -6.922  13.008  67.626  1.00  0.00    -0.154 C  
HETATM    3  C   UNL     1      -6.255  11.726  68.135  1.00  0.00    -0.050 C  
ENDROOT
BRANCH   2   4
HETATM    4  N   UNL     1      -8.257  12.747  67.071  1.00  0.00    -0.345 NA 
HETATM    5  H   UNL     1      -8.291  11.843  66.599  1.00  0.00     0.000 HD 
BRANCH   4   6
HETATM    6  C   UNL     1      -9.314  12.855  68.092  1.00  0.00    -0.214 C  
BRANCH   6   7
HETATM    7  C   UNL     1     -10.677  13.303  67.513  1.00  0.00    -0.250 C  
HETATM    8  H   UNL     1     -12.496  13.584  68.200  1.00  0.00     0.000 HD 
HETATM    9  O   UNL     1     -11.659  13.309  68.555  1.00  0.00    -0.287 OA 
BRANCH   7  10
HETATM   10  C   UNL     1     -10.628  14.679  66.863  1.00  0.00    -0.281 A  
HETATM   11  C   UNL     1     -10.098  15.768  67.577  1.00  0.00    -0.245 A  
HETATM   12  C   UNL     1     -10.073  17.039  66.997  1.00  0.00    -0.295 A  
HETATM   13  C   UNL     1     -10.558  17.255  65.714  1.00  0.00    -0.198 A  
HETATM   14  O   UNL     1      -9.579  18.119  67.670  1.00  0.00    -0.271 OA 
HETATM   15  H   UNL     1      -9.563  18.982  67.276  1.00  0.00     0.000 HD 
HETATM   16  C   UNL     1     -11.059  16.179  64.998  1.00  0.00    -0.294 A  
HETATM   17  O   UNL     1     -11.549  16.324  63.734  1.00  0.00    -1.539 OA 
HETATM   18  C   UNL     1     -11.087  14.902  65.553  1.00  0.00    -0.353 A  
HETATM   19  H   UNL     1     -11.892  15.586  63.243  1.00  0.00     0.000 HD 
ENDBRANCH   7  10
ENDBRANCH   6   7
ENDBRANCH   4   6
ENDBRANCH   2   4
TORSDOF 4
ENDMDL
MODEL      144
REMARK 921   NORMALIZED FREE ENERGY PREDICTED BY IDOCK:   -4.05 KCAL/MOL
REMARK 922        TOTAL FREE ENERGY PREDICTED BY IDOCK:   -5.28 KCAL/MOL
REMARK 923 INTER-LIGAND FREE ENERGY PREDICTED BY IDOCK:   -4.86 KCAL/MOL
REMARK 924 INTRA-LIGAND FREE ENERGY PREDICTED BY IDOCK:   -0.42 KCAL/MOL
REMARK 927      BINDING AFFINITY PREDICTED BY RF-SCORE:    0.00 PKD
ROOT
HETATM    1  C   UNL     1      -8.219  16.390  66.773  1.00  0.00    -0.286 C  
HETATM    2  C   UNL     1      -8.002  17.172  68.069  1.00  0.00    -0.212 C  
HETATM    3  C   UNL     1      -7.887  18.666  67.752  1.00  0.00    -0.261 C  
ENDROOT
BRANCH   2   4
HETATM    4  N   UNL     1      -9.112  16.891  68.989  1.00  0.00    -0.224 NA 
HETATM    5  H   UNL     1      -9.981  17.313  68.660  1.00  0.00     0.000 HD 
BRANCH   4   6
HETATM    6  C   UNL     1      -9.280  15.447  69.232  1.00  0.00    -0.259 C  
BRANCH   6   7
HETATM    7  C   UNL     1     -10.756  14.988  69.179  1.00  0.00    -0.249 C  
HETATM    8  H   UNL     1     -12.513  15.850  69.006  1.00  0.00     0.000 HD 
HETATM    9  O   UNL     1     -11.606  16.132  69.039  1.00  0.00    -0.353 OA 
BRANCH   7  10
HETATM   10  C   UNL     1     -11.039  14.012  68.045  1.00  0.00    -0.282 A  
HETATM   11  C   UNL     1     -11.911  14.385  67.006  1.00  0.00    -0.424 A  
HETATM   12  C   UNL     1     -12.196  13.486  65.976  1.00  0.00    -0.445 A  
HETATM   13  C   UNL     1     -11.626  12.220  65.946  1.00  0.00    -0.450 A  
HETATM   14  O   UNL     1     -13.050  13.812  64.962  1.00  0.00    -0.751 OA 
HETATM   15  H   UNL     1     -13.243  13.201  64.263  1.00  0.00     0.000 HD 
HETATM   16  C   UNL     1     -10.747  11.858  66.956  1.00  0.00    -0.240 A  
HETATM   17  O   UNL     1     -10.153  10.631  66.984  1.00  0.00    -0.195 OA 
HETATM   18  C   UNL     1     -10.443  12.741  67.988  1.00  0.00    -0.233 A  
HETATM   19  H   UNL     1      -9.550  10.383  67.675  1.00  0.00     0.000 HD 
ENDBRANCH   7  10
ENDBRANCH   6   7
ENDBRANCH   4   6
ENDBRANCH   2   4
TORSDOF 4
ENDMDL
MODEL      145
REMARK 921   NORMALIZED FREE ENERGY PREDICTED BY IDOCK:   -4.03 KCAL/MOL
REMARK 922        TOTAL FREE ENERGY PREDICTED BY IDOCK:   -5.26 KCAL/MOL
REMARK 923 INTER-LIGAND FREE ENERGY PREDICTED BY IDOCK:   -5.02 KCAL/MOL
REMARK 924 INTRA-LIGAND FREE ENERGY PREDICTED BY IDOCK:   -0.23 KCAL/MOL
REMARK 927      BINDING AFFINITY PREDICTED BY RF-SCORE:    0.00 PKD
ROOT
HETATM    1  C   UNL     1      -8.034   8.438  67.430  1.00  0.00    -0.106 C  
HETATM    2  C   UNL     1      -7.599   9.080  68.748  1.00  0.00    -0.087 C  
HETATM    3  C   UNL     1      -8.205  10.484  68.858  1.00  0.00    -0.141 C  
ENDROOT
BRANCH   2   4
HETATM    4  N   UNL     1      -8.015   8.216  69.861  1.00  0.00    -0.107 NA 
HETATM    5  H   UNL     1      -7.327   7.482  70.036  1.00  0.00     0.000 HD 
BRANCH   4   6
HETATM    6  C   UNL     1      -8.297   8.985  71.086  1.00  0.00    -0.159 C  
BRANCH   6   7
HETATM    7  C   UNL     1      -9.345   8.309  72.001  1.00  0.00    -0.230 C  
HETATM    8  H   UNL     1      -9.651   8.134  73.934  1.00  0.00     0.000 HD 
HETATM    9  O   UNL     1      -9.007   8.550  73.371  1.00  0.00    -0.263 OA 
BRANCH   7  10
HETATM   10  C   UNL     1     -10.766   8.793  71.743  1.00  0.00    -0.413 A  
HETATM   11  C   UNL     1     -11.056   9.504  70.564  1.00  0.00    -0.342 A  
HETATM   12  C   UNL     1     -12.350   9.974  70.333  1.00  0.00    -0.135 A  
HETATM   13  C   UNL     1     -13.374   9.746  71.243  1.00  0.00    -0.413 A  
HETATM   14  O   UNL     1     -12.661  10.679  69.206  1.00  0.00    -0.715 OA 
HETATM   15  H   UNL     1     -13.541  10.999  69.049  1.00  0.00     0.000 HD 
HETATM   16  C   UNL     1     -13.097   9.024  72.394  1.00  0.00    -0.423 A  
HETATM   17  O   UNL     1     -14.056   8.766  73.327  1.00  0.00    -1.180 OA 
HETATM   18  C   UNL     1     -11.816   8.540  72.643  1.00  0.00    -0.311 A  
HETATM   19  H   UNL     1     -13.867   8.271  74.116  1.00  0.00     0.000 HD 
ENDBRANCH   7  10
ENDBRANCH   6   7
ENDBRANCH   4   6
ENDBRANCH   2   4
TORSDOF 4
ENDMDL
MODEL      146
REMARK 921   NORMALIZED FREE ENERGY PREDICTED BY IDOCK:   -4.03 KCAL/MOL
REMARK 922        TOTAL FREE ENERGY PREDICTED BY IDOCK:   -5.26 KCAL/MOL
REMARK 923 INTER-LIGAND FREE ENERGY PREDICTED BY IDOCK:   -4.93 KCAL/MOL
REMARK 924 INTRA-LIGAND FREE ENERGY PREDICTED BY IDOCK:   -0.33 KCAL/MOL
REMARK 927      BINDING AFFINITY PREDICTED BY RF-SCORE:    0.00 PKD
ROOT
HETATM    1  C   UNL     1     -10.470  11.862  68.077  1.00  0.00    -0.228 C  
HETATM    2  C   UNL     1     -10.875  13.167  68.763  1.00  0.00    -0.246 C  
HETATM    3  C   UNL     1     -11.653  14.044  67.777  1.00  0.00    -0.378 C  
ENDROOT
BRANCH   2   4
HETATM    4  N   UNL     1     -11.668  12.852  69.959  1.00  0.00    -0.514 NA 
HETATM    5  H   UNL     1     -12.455  13.494  70.061  1.00  0.00     0.000 HD 
BRANCH   4   6
HETATM    6  C   UNL     1     -12.120  11.449  69.972  1.00  0.00    -0.340 C  
BRANCH   6   7
HETATM    7  C   UNL     1     -12.168  10.838  71.392  1.00  0.00    -0.269 C  
HETATM    8  H   UNL     1     -13.547  10.481  72.746  1.00  0.00     0.000 HD 
HETATM    9  O   UNL     1     -13.518  10.856  71.873  1.00  0.00    -0.345 OA 
BRANCH   7  10
HETATM   10  C   UNL     1     -11.634   9.414  71.451  1.00  0.00    -0.451 A  
HETATM   11  C   UNL     1     -10.339   9.136  70.978  1.00  0.00    -0.363 A  
HETATM   12  C   UNL     1      -9.852   7.828  71.003  1.00  0.00    -0.174 A  
HETATM   13  C   UNL     1     -10.620   6.781  71.499  1.00  0.00    -0.245 A  
HETATM   14  O   UNL     1      -8.605   7.523  70.539  1.00  0.00    -0.134 OA 
HETATM   15  H   UNL     1      -8.274   6.633  70.556  1.00  0.00     0.000 HD 
HETATM   16  C   UNL     1     -11.888   7.056  71.988  1.00  0.00    -0.298 A  
HETATM   17  O   UNL     1     -12.692   6.075  72.488  1.00  0.00    -0.527 OA 
HETATM   18  C   UNL     1     -12.391   8.354  71.979  1.00  0.00    -0.413 A  
HETATM   19  H   UNL     1     -13.561   6.263  72.823  1.00  0.00     0.000 HD 
ENDBRANCH   7  10
ENDBRANCH   6   7
ENDBRANCH   4   6
ENDBRANCH   2   4
TORSDOF 4
ENDMDL
MODEL      147
REMARK 921   NORMALIZED FREE ENERGY PREDICTED BY IDOCK:   -4.03 KCAL/MOL
REMARK 922        TOTAL FREE ENERGY PREDICTED BY IDOCK:   -5.25 KCAL/MOL
REMARK 923 INTER-LIGAND FREE ENERGY PREDICTED BY IDOCK:   -5.01 KCAL/MOL
REMARK 924 INTRA-LIGAND FREE ENERGY PREDICTED BY IDOCK:   -0.25 KCAL/MOL
REMARK 927      BINDING AFFINITY PREDICTED BY RF-SCORE:    0.00 PKD
ROOT
HETATM    1  C   UNL     1     -10.619  11.718  67.731  1.00  0.00    -0.232 C  
HETATM    2  C   UNL     1     -10.982  12.840  68.705  1.00  0.00    -0.260 C  
HETATM    3  C   UNL     1     -11.991  13.785  68.044  1.00  0.00    -0.390 C  
ENDROOT
BRANCH   2   4
HETATM    4  N   UNL     1     -11.515  12.247  69.939  1.00  0.00    -0.510 NA 
HETATM    5  H   UNL     1     -12.437  12.623  70.162  1.00  0.00     0.000 HD 
BRANCH   4   6
HETATM    6  C   UNL     1     -11.539  10.775  69.882  1.00  0.00    -0.331 C  
BRANCH   6   7
HETATM    7  C   UNL     1     -11.738  10.115  71.268  1.00  0.00    -0.341 C  
HETATM    8  H   UNL     1     -13.178  10.002  72.600  1.00  0.00     0.000 HD 
HETATM    9  O   UNL     1     -13.055  10.407  71.749  1.00  0.00    -0.420 OA 
BRANCH   7  10
HETATM   10  C   UNL     1     -11.535   8.607  71.248  1.00  0.00    -0.341 A  
HETATM   11  C   UNL     1     -11.506   7.892  72.459  1.00  0.00    -0.455 A  
HETATM   12  C   UNL     1     -11.293   6.512  72.451  1.00  0.00    -0.279 A  
HETATM   13  C   UNL     1     -11.116   5.816  71.261  1.00  0.00    -0.267 A  
HETATM   14  O   UNL     1     -11.245   5.792  73.609  1.00  0.00    -0.439 OA 
HETATM   15  H   UNL     1     -11.100   4.854  73.603  1.00  0.00     0.000 HD 
HETATM   16  C   UNL     1     -11.169   6.515  70.064  1.00  0.00    -0.393 A  
HETATM   17  O   UNL     1     -11.004   5.892  68.863  1.00  0.00    -0.314 OA 
HETATM   18  C   UNL     1     -11.387   7.889  70.048  1.00  0.00    -0.034 A  
HETATM   19  H   UNL     1     -11.040   6.370  68.043  1.00  0.00     0.000 HD 
ENDBRANCH   7  10
ENDBRANCH   6   7
ENDBRANCH   4   6
ENDBRANCH   2   4
TORSDOF 4
ENDMDL
MODEL      148
REMARK 921   NORMALIZED FREE ENERGY PREDICTED BY IDOCK:   -4.03 KCAL/MOL
REMARK 922        TOTAL FREE ENERGY PREDICTED BY IDOCK:   -5.25 KCAL/MOL
REMARK 923 INTER-LIGAND FREE ENERGY PREDICTED BY IDOCK:   -4.93 KCAL/MOL
REMARK 924 INTRA-LIGAND FREE ENERGY PREDICTED BY IDOCK:   -0.32 KCAL/MOL
REMARK 927      BINDING AFFINITY PREDICTED BY RF-SCORE:    0.00 PKD
ROOT
HETATM    1  C   UNL     1     -11.816   7.816  72.243  1.00  0.00    -0.378 C  
HETATM    2  C   UNL     1     -12.563   8.699  71.242  1.00  0.00    -0.235 C  
HETATM    3  C   UNL     1     -12.870  10.055  71.884  1.00  0.00    -0.524 C  
ENDROOT
BRANCH   2   4
HETATM    4  N   UNL     1     -11.746   8.840  70.028  1.00  0.00    -0.431 NA 
HETATM    5  H   UNL     1     -12.328   9.022  69.210  1.00  0.00     0.000 HD 
BRANCH   4   6
HETATM    6  C   UNL     1     -10.702   9.869  70.179  1.00  0.00    -0.308 C  
BRANCH   6   7
HETATM    7  C   UNL     1     -10.032  10.257  68.839  1.00  0.00    -0.201 C  
HETATM    8  H   UNL     1      -9.986   9.545  67.008  1.00  0.00     0.000 HD 
HETATM    9  O   UNL     1     -10.398   9.308  67.831  1.00  0.00    -0.202 OA 
BRANCH   7  10
HETATM   10  C   UNL     1     -10.401  11.656  68.367  1.00  0.00    -0.215 A  
HETATM   11  C   UNL     1      -9.673  12.254  67.323  1.00  0.00    -0.195 A  
HETATM   12  C   UNL     1      -9.989  13.548  66.902  1.00  0.00    -0.256 A  
HETATM   13  C   UNL     1     -11.023  14.265  67.490  1.00  0.00    -0.297 A  
HETATM   14  O   UNL     1      -9.292  14.161  65.902  1.00  0.00    -0.507 OA 
HETATM   15  H   UNL     1      -9.507  15.041  65.616  1.00  0.00     0.000 HD 
HETATM   16  C   UNL     1     -11.758  13.669  68.503  1.00  0.00    -0.357 A  
HETATM   17  O   UNL     1     -12.786  14.318  69.120  1.00  0.00    -0.467 OA 
HETATM   18  C   UNL     1     -11.466  12.378  68.934  1.00  0.00    -0.355 A  
HETATM   19  H   UNL     1     -13.290  13.910  69.815  1.00  0.00     0.000 HD 
ENDBRANCH   7  10
ENDBRANCH   6   7
ENDBRANCH   4   6
ENDBRANCH   2   4
TORSDOF 4
ENDMDL
MODEL      149
REMARK 921   NORMALIZED FREE ENERGY PREDICTED BY IDOCK:   -4.02 KCAL/MOL
REMARK 922        TOTAL FREE ENERGY PREDICTED BY IDOCK:   -5.24 KCAL/MOL
REMARK 923 INTER-LIGAND FREE ENERGY PREDICTED BY IDOCK:   -4.90 KCAL/MOL
REMARK 924 INTRA-LIGAND FREE ENERGY PREDICTED BY IDOCK:   -0.34 KCAL/MOL
REMARK 927      BINDING AFFINITY PREDICTED BY RF-SCORE:    0.00 PKD
ROOT
HETATM    1  C   UNL     1     -11.803  11.767  69.304  1.00  0.00    -0.389 C  
HETATM    2  C   UNL     1     -11.212  11.505  67.918  1.00  0.00    -0.279 C  
HETATM    3  C   UNL     1     -10.928  10.007  67.757  1.00  0.00    -0.310 C  
ENDROOT
BRANCH   2   4
HETATM    4  N   UNL     1     -12.147  11.997  66.898  1.00  0.00    -0.545 NA 
HETATM    5  H   UNL     1     -13.104  11.706  67.101  1.00  0.00     0.000 HD 
BRANCH   4   6
HETATM    6  C   UNL     1     -12.061  13.458  66.725  1.00  0.00    -0.365 C  
BRANCH   6   7
HETATM    7  C   UNL     1     -11.122  13.880  65.570  1.00  0.00    -0.304 C  
HETATM    8  H   UNL     1     -11.305  14.815  63.851  1.00  0.00     0.000 HD 
HETATM    9  O   UNL     1     -11.882  14.557  64.561  1.00  0.00    -0.430 OA 
BRANCH   7  10
HETATM   10  C   UNL     1      -9.979  14.778  66.023  1.00  0.00    -0.336 A  
HETATM   11  C   UNL     1      -8.894  14.223  66.724  1.00  0.00    -0.207 A  
HETATM   12  C   UNL     1      -7.854  15.044  67.166  1.00  0.00    -0.190 A  
HETATM   13  C   UNL     1      -7.861  16.411  66.921  1.00  0.00    -0.273 A  
HETATM   14  O   UNL     1      -6.794  14.539  67.861  1.00  0.00    -0.131 OA 
HETATM   15  H   UNL     1      -6.088  15.097  68.162  1.00  0.00     0.000 HD 
HETATM   16  C   UNL     1      -8.918  16.958  66.209  1.00  0.00    -0.270 A  
HETATM   17  O   UNL     1      -8.985  18.291  65.935  1.00  0.00    -0.497 OA 
HETATM   18  C   UNL     1      -9.961  16.157  65.752  1.00  0.00    -0.370 A  
HETATM   19  H   UNL     1      -9.709  18.666  65.447  1.00  0.00     0.000 HD 
ENDBRANCH   7  10
ENDBRANCH   6   7
ENDBRANCH   4   6
ENDBRANCH   2   4
TORSDOF 4
ENDMDL
MODEL      150
REMARK 921   NORMALIZED FREE ENERGY PREDICTED BY IDOCK:   -3.99 KCAL/MOL
REMARK 922        TOTAL FREE ENERGY PREDICTED BY IDOCK:   -5.21 KCAL/MOL
REMARK 923 INTER-LIGAND FREE ENERGY PREDICTED BY IDOCK:   -4.90 KCAL/MOL
REMARK 924 INTRA-LIGAND FREE ENERGY PREDICTED BY IDOCK:   -0.30 KCAL/MOL
REMARK 927      BINDING AFFINITY PREDICTED BY RF-SCORE:    0.00 PKD
ROOT
HETATM    1  C   UNL     1     -14.338  14.949  71.339  1.00  0.00    -0.560 C  
HETATM    2  C   UNL     1     -12.948  15.543  71.570  1.00  0.00    -0.472 C  
HETATM    3  C   UNL     1     -12.798  15.936  73.043  1.00  0.00    -0.615 C  
ENDROOT
BRANCH   2   4
HETATM    4  N   UNL     1     -11.935  14.561  71.159  1.00  0.00    -0.363 NA 
HETATM    5  H   UNL     1     -12.353  13.797  70.628  1.00  0.00     0.000 HD 
BRANCH   4   6
HETATM    6  C   UNL     1     -10.828  15.186  70.412  1.00  0.00    -0.218 C  
BRANCH   6   7
HETATM    7  C   UNL     1     -11.302  15.975  69.169  1.00  0.00    -0.352 C  
HETATM    8  H   UNL     1     -11.018  17.772  68.427  1.00  0.00     0.000 HD 
HETATM    9  O   UNL     1     -10.727  17.287  69.190  1.00  0.00    -0.284 OA 
BRANCH   7  10
HETATM   10  C   UNL     1     -10.947  15.293  67.855  1.00  0.00    -0.306 A  
HETATM   11  C   UNL     1      -9.722  14.612  67.733  1.00  0.00    -0.215 A  
HETATM   12  C   UNL     1      -9.377  14.006  66.523  1.00  0.00    -0.255 A  
HETATM   13  C   UNL     1     -10.227  14.052  65.425  1.00  0.00    -0.368 A  
HETATM   14  O   UNL     1      -8.191  13.350  66.368  1.00  0.00    -0.200 OA 
HETATM   15  H   UNL     1      -7.956  12.939  65.545  1.00  0.00     0.000 HD 
HETATM   16  C   UNL     1     -11.446  14.703  65.550  1.00  0.00    -0.341 A  
HETATM   17  O   UNL     1     -12.325  14.783  64.512  1.00  0.00    -0.479 OA 
HETATM   18  C   UNL     1     -11.814  15.307  66.749  1.00  0.00     0.127 A  
HETATM   19  H   UNL     1     -13.160  15.228  64.597  1.00  0.00     0.000 HD 
ENDBRANCH   7  10
ENDBRANCH   6   7
ENDBRANCH   4   6
ENDBRANCH   2   4
TORSDOF 4
ENDMDL
MODEL      151
REMARK 921   NORMALIZED FREE ENERGY PREDICTED BY IDOCK:   -3.98 KCAL/MOL
REMARK 922        TOTAL FREE ENERGY PREDICTED BY IDOCK:   -5.20 KCAL/MOL
REMARK 923 INTER-LIGAND FREE ENERGY PREDICTED BY IDOCK:   -4.65 KCAL/MOL
REMARK 924 INTRA-LIGAND FREE ENERGY PREDICTED BY IDOCK:   -0.54 KCAL/MOL
REMARK 927      BINDING AFFINITY PREDICTED BY RF-SCORE:    0.00 PKD
ROOT
HETATM    1  C   UNL     1     -12.756  12.457  64.629  1.00  0.00    -0.372 C  
HETATM    2  C   UNL     1     -11.667  12.705  63.584  1.00  0.00    -0.522 C  
HETATM    3  C   UNL     1     -10.494  13.447  64.233  1.00  0.00    -0.325 C  
ENDROOT
BRANCH   2   4
HETATM    4  N   UNL     1     -11.251  11.416  63.013  1.00  0.00    -0.844 NA 
HETATM    5  H   UNL     1     -11.604  11.302  62.063  1.00  0.00     0.000 HD 
BRANCH   4   6
HETATM    6  C   UNL     1      -9.789  11.232  63.065  1.00  0.00    -0.341 C  
BRANCH   6   7
HETATM    7  C   UNL     1      -9.359  10.012  63.913  1.00  0.00    -0.263 C  
HETATM    8  H   UNL     1      -7.779   8.852  64.046  1.00  0.00     0.000 HD 
HETATM    9  O   UNL     1      -8.043   9.602  63.525  1.00  0.00    -0.131 OA 
BRANCH   7  10
HETATM   10  C   UNL     1      -9.377  10.287  65.410  1.00  0.00    -0.258 A  
HETATM   11  C   UNL     1     -10.535  10.005  66.156  1.00  0.00    -0.156 A  
HETATM   12  C   UNL     1     -10.569  10.279  67.525  1.00  0.00    -0.268 A  
HETATM   13  C   UNL     1      -9.470  10.822  68.179  1.00  0.00    -0.161 A  
HETATM   14  O   UNL     1     -11.682  10.030  68.274  1.00  0.00    -0.649 OA 
HETATM   15  H   UNL     1     -11.705  10.216  69.205  1.00  0.00     0.000 HD 
HETATM   16  C   UNL     1      -8.319  11.079  67.451  1.00  0.00    -0.126 A  
HETATM   17  O   UNL     1      -7.206  11.610  68.033  1.00  0.00    -0.075 OA 
HETATM   18  C   UNL     1      -8.260  10.807  66.087  1.00  0.00    -0.163 A  
HETATM   19  H   UNL     1      -6.417  11.786  67.534  1.00  0.00     0.000 HD 
ENDBRANCH   7  10
ENDBRANCH   6   7
ENDBRANCH   4   6
ENDBRANCH   2   4
TORSDOF 4
ENDMDL
MODEL      152
REMARK 921   NORMALIZED FREE ENERGY PREDICTED BY IDOCK:   -3.97 KCAL/MOL
REMARK 922        TOTAL FREE ENERGY PREDICTED BY IDOCK:   -5.18 KCAL/MOL
REMARK 923 INTER-LIGAND FREE ENERGY PREDICTED BY IDOCK:   -5.01 KCAL/MOL
REMARK 924 INTRA-LIGAND FREE ENERGY PREDICTED BY IDOCK:   -0.17 KCAL/MOL
REMARK 927      BINDING AFFINITY PREDICTED BY RF-SCORE:    0.00 PKD
ROOT
HETATM    1  C   UNL     1      -7.119  10.898  67.945  1.00  0.00    -0.081 C  
HETATM    2  C   UNL     1      -7.801  12.102  68.596  1.00  0.00    -0.078 C  
HETATM    3  C   UNL     1      -7.447  13.373  67.818  1.00  0.00    -0.160 C  
ENDROOT
BRANCH   2   4
HETATM    4  N   UNL     1      -9.251  11.868  68.631  1.00  0.00    -0.371 NA 
HETATM    5  H   UNL     1      -9.528  11.388  69.488  1.00  0.00     0.000 HD 
BRANCH   4   6
HETATM    6  C   UNL     1     -10.019  13.112  68.444  1.00  0.00    -0.223 C  
BRANCH   6   7
HETATM    7  C   UNL     1     -11.543  12.876  68.329  1.00  0.00    -0.335 C  
HETATM    8  H   UNL     1     -12.742  11.836  67.171  1.00  0.00     0.000 HD 
HETATM    9  O   UNL     1     -11.805  11.981  67.242  1.00  0.00    -0.556 OA 
BRANCH   7  10
HETATM   10  C   UNL     1     -12.160  12.313  69.602  1.00  0.00    -0.277 A  
HETATM   11  C   UNL     1     -12.625  13.191  70.597  1.00  0.00    -0.286 A  
HETATM   12  C   UNL     1     -13.168  12.682  71.779  1.00  0.00    -0.359 A  
HETATM   13  C   UNL     1     -13.271  11.314  71.995  1.00  0.00    -0.437 A  
HETATM   14  O   UNL     1     -13.614  13.507  72.770  1.00  0.00    -0.672 OA 
HETATM   15  H   UNL     1     -13.983  13.161  73.574  1.00  0.00     0.000 HD 
HETATM   16  C   UNL     1     -12.836  10.446  71.005  1.00  0.00    -0.401 A  
HETATM   17  O   UNL     1     -12.909   9.093  71.154  1.00  0.00    -0.447 OA 
HETATM   18  C   UNL     1     -12.298  10.931  69.816  1.00  0.00    -0.326 A  
HETATM   19  H   UNL     1     -12.612   8.498  70.476  1.00  0.00     0.000 HD 
ENDBRANCH   7  10
ENDBRANCH   6   7
ENDBRANCH   4   6
ENDBRANCH   2   4
TORSDOF 4
ENDMDL
MODEL      153
REMARK 921   NORMALIZED FREE ENERGY PREDICTED BY IDOCK:   -3.96 KCAL/MOL
REMARK 922        TOTAL FREE ENERGY PREDICTED BY IDOCK:   -5.17 KCAL/MOL
REMARK 923 INTER-LIGAND FREE ENERGY PREDICTED BY IDOCK:   -4.79 KCAL/MOL
REMARK 924 INTRA-LIGAND FREE ENERGY PREDICTED BY IDOCK:   -0.38 KCAL/MOL
REMARK 927      BINDING AFFINITY PREDICTED BY RF-SCORE:    0.00 PKD
ROOT
HETATM    1  C   UNL     1      -6.794  13.228  67.875  1.00  0.00    -0.140 C  
HETATM    2  C   UNL     1      -7.115  14.469  68.709  1.00  0.00    -0.112 C  
HETATM    3  C   UNL     1      -5.862  14.911  69.472  1.00  0.00    -0.103 C  
ENDROOT
BRANCH   2   4
HETATM    4  N   UNL     1      -7.616  15.526  67.820  1.00  0.00    -0.133 NA 
HETATM    5  H   UNL     1      -7.373  15.337  66.847  1.00  0.00     0.000 HD 
BRANCH   4   6
HETATM    6  C   UNL     1      -9.066  15.740  67.976  1.00  0.00    -0.187 C  
BRANCH   6   7
HETATM    7  C   UNL     1      -9.805  15.906  66.627  1.00  0.00    -0.254 C  
HETATM    8  H   UNL     1      -9.344  16.497  64.811  1.00  0.00     0.000 HD 
HETATM    9  O   UNL     1      -8.890  16.395  65.639  1.00  0.00    -0.406 OA 
BRANCH   7  10
HETATM   10  C   UNL     1     -10.436  14.613  66.127  1.00  0.00    -0.308 A  
HETATM   11  C   UNL     1     -10.906  13.665  67.054  1.00  0.00    -0.291 A  
HETATM   12  C   UNL     1     -11.463  12.465  66.604  1.00  0.00    -0.370 A  
HETATM   13  C   UNL     1     -11.573  12.185  65.248  1.00  0.00    -0.376 A  
HETATM   14  O   UNL     1     -11.914  11.519  67.477  1.00  0.00    -0.629 OA 
HETATM   15  H   UNL     1     -12.292  10.703  67.171  1.00  0.00     0.000 HD 
HETATM   16  C   UNL     1     -11.132  13.129  64.332  1.00  0.00    -0.381 A  
HETATM   17  O   UNL     1     -11.213  12.916  62.988  1.00  0.00    -0.662 OA 
HETATM   18  C   UNL     1     -10.582  14.334  64.757  1.00  0.00    -0.434 A  
HETATM   19  H   UNL     1     -10.912  13.562  62.360  1.00  0.00     0.000 HD 
ENDBRANCH   7  10
ENDBRANCH   6   7
ENDBRANCH   4   6
ENDBRANCH   2   4
TORSDOF 4
ENDMDL
MODEL      154
REMARK 921   NORMALIZED FREE ENERGY PREDICTED BY IDOCK:   -3.96 KCAL/MOL
REMARK 922        TOTAL FREE ENERGY PREDICTED BY IDOCK:   -5.16 KCAL/MOL
REMARK 923 INTER-LIGAND FREE ENERGY PREDICTED BY IDOCK:   -4.72 KCAL/MOL
REMARK 924 INTRA-LIGAND FREE ENERGY PREDICTED BY IDOCK:   -0.45 KCAL/MOL
REMARK 927      BINDING AFFINITY PREDICTED BY RF-SCORE:    0.00 PKD
ROOT
HETATM    1  C   UNL     1     -10.652  16.840  69.259  1.00  0.00    -0.336 C  
HETATM    2  C   UNL     1      -9.931  17.628  68.164  1.00  0.00    -0.330 C  
HETATM    3  C   UNL     1      -9.925  19.117  68.525  1.00  0.00    -0.496 C  
ENDROOT
BRANCH   2   4
HETATM    4  N   UNL     1      -8.569  17.097  68.011  1.00  0.00    -0.221 NA 
HETATM    5  H   UNL     1      -7.901  17.627  68.571  1.00  0.00     0.000 HD 
BRANCH   4   6
HETATM    6  C   UNL     1      -8.498  15.657  68.316  1.00  0.00    -0.156 C  
BRANCH   6   7
HETATM    7  C   UNL     1      -8.369  14.773  67.053  1.00  0.00    -0.198 C  
HETATM    8  H   UNL     1      -7.192  13.325  66.439  1.00  0.00     0.000 HD 
HETATM    9  O   UNL     1      -7.272  13.867  67.215  1.00  0.00    -0.139 OA 
BRANCH   7  10
HETATM   10  C   UNL     1      -9.632  13.980  66.746  1.00  0.00    -0.293 A  
HETATM   11  C   UNL     1     -10.650  14.565  65.971  1.00  0.00    -0.311 A  
HETATM   12  C   UNL     1     -11.822  13.853  65.707  1.00  0.00    -0.378 A  
HETATM   13  C   UNL     1     -12.008  12.563  66.188  1.00  0.00    -0.432 A  
HETATM   14  O   UNL     1     -12.835  14.397  64.971  1.00  0.00    -0.631 OA 
HETATM   15  H   UNL     1     -13.632  13.914  64.792  1.00  0.00     0.000 HD 
HETATM   16  C   UNL     1     -10.995  11.976  66.932  1.00  0.00    -0.281 A  
HETATM   17  O   UNL     1     -11.114  10.713  67.432  1.00  0.00    -0.302 OA 
HETATM   18  C   UNL     1      -9.815  12.663  67.201  1.00  0.00    -0.212 A  
HETATM   19  H   UNL     1     -10.421  10.310  67.942  1.00  0.00     0.000 HD 
ENDBRANCH   7  10
ENDBRANCH   6   7
ENDBRANCH   4   6
ENDBRANCH   2   4
TORSDOF 4
ENDMDL
MODEL      155
REMARK 921   NORMALIZED FREE ENERGY PREDICTED BY IDOCK:   -3.95 KCAL/MOL
REMARK 922        TOTAL FREE ENERGY PREDICTED BY IDOCK:   -5.16 KCAL/MOL
REMARK 923 INTER-LIGAND FREE ENERGY PREDICTED BY IDOCK:   -4.92 KCAL/MOL
REMARK 924 INTRA-LIGAND FREE ENERGY PREDICTED BY IDOCK:   -0.24 KCAL/MOL
REMARK 927      BINDING AFFINITY PREDICTED BY RF-SCORE:    0.00 PKD
ROOT
HETATM    1  C   UNL     1      -9.203  14.613  68.280  1.00  0.00    -0.198 C  
HETATM    2  C   UNL     1     -10.554  14.758  68.982  1.00  0.00    -0.248 C  
HETATM    3  C   UNL     1     -11.110  16.165  68.736  1.00  0.00    -0.354 C  
ENDROOT
BRANCH   2   4
HETATM    4  N   UNL     1     -11.464  13.716  68.489  1.00  0.00    -0.288 NA 
HETATM    5  H   UNL     1     -11.073  13.237  67.677  1.00  0.00     0.000 HD 
BRANCH   4   6
HETATM    6  C   UNL     1     -11.835  12.757  69.546  1.00  0.00    -0.316 C  
BRANCH   6   7
HETATM    7  C   UNL     1     -11.867  11.291  69.053  1.00  0.00    -0.352 C  
HETATM    8  H   UNL     1     -11.164  10.285  67.518  1.00  0.00     0.000 HD 
HETATM    9  O   UNL     1     -11.144  11.186  67.821  1.00  0.00    -0.242 OA 
BRANCH   7  10
HETATM   10  C   UNL     1     -11.286  10.308  70.060  1.00  0.00    -0.376 A  
HETATM   11  C   UNL     1     -12.117   9.752  71.049  1.00  0.00    -0.434 A  
HETATM   12  C   UNL     1     -11.586   8.870  71.993  1.00  0.00    -0.364 A  
HETATM   13  C   UNL     1     -10.243   8.516  71.974  1.00  0.00    -0.391 A  
HETATM   14  O   UNL     1     -12.362   8.325  72.974  1.00  0.00    -0.658 OA 
HETATM   15  H   UNL     1     -12.001   7.725  73.616  1.00  0.00     0.000 HD 
HETATM   16  C   UNL     1      -9.426   9.043  70.985  1.00  0.00    -0.274 A  
HETATM   17  O   UNL     1      -8.101   8.735  70.910  1.00  0.00    -0.118 OA 
HETATM   18  C   UNL     1      -9.936   9.919  70.030  1.00  0.00    -0.302 A  
HETATM   19  H   UNL     1      -7.541   9.097  70.232  1.00  0.00     0.000 HD 
ENDBRANCH   7  10
ENDBRANCH   6   7
ENDBRANCH   4   6
ENDBRANCH   2   4
TORSDOF 4
ENDMDL
MODEL      156
REMARK 921   NORMALIZED FREE ENERGY PREDICTED BY IDOCK:   -3.95 KCAL/MOL
REMARK 922        TOTAL FREE ENERGY PREDICTED BY IDOCK:   -5.15 KCAL/MOL
REMARK 923 INTER-LIGAND FREE ENERGY PREDICTED BY IDOCK:   -4.90 KCAL/MOL
REMARK 924 INTRA-LIGAND FREE ENERGY PREDICTED BY IDOCK:   -0.25 KCAL/MOL
REMARK 927      BINDING AFFINITY PREDICTED BY RF-SCORE:    0.00 PKD
ROOT
HETATM    1  C   UNL     1     -11.259  15.794  70.734  1.00  0.00    -0.404 C  
HETATM    2  C   UNL     1     -11.652  16.205  69.314  1.00  0.00    -0.270 C  
HETATM    3  C   UNL     1     -10.409  16.685  68.557  1.00  0.00    -0.303 C  
ENDROOT
BRANCH   2   4
HETATM    4  N   UNL     1     -12.293  15.063  68.646  1.00  0.00    -0.589 NA 
HETATM    5  H   UNL     1     -13.287  15.234  68.496  1.00  0.00     0.000 HD 
BRANCH   4   6
HETATM    6  C   UNL     1     -11.616  14.707  67.386  1.00  0.00    -0.389 C  
BRANCH   6   7
HETATM    7  C   UNL     1     -12.131  13.383  66.773  1.00  0.00    -0.365 C  
HETATM    8  H   UNL     1     -12.766  12.777  65.015  1.00  0.00     0.000 HD 
HETATM    9  O   UNL     1     -12.449  13.590  65.392  1.00  0.00    -0.445 OA 
BRANCH   7  10
HETATM   10  C   UNL     1     -11.133  12.240  66.891  1.00  0.00    -0.341 A  
HETATM   11  C   UNL     1      -9.986  12.230  66.077  1.00  0.00    -0.270 A  
HETATM   12  C   UNL     1      -9.079  11.171  66.161  1.00  0.00    -0.201 A  
HETATM   13  C   UNL     1      -9.278  10.119  67.046  1.00  0.00    -0.166 A  
HETATM   14  O   UNL     1      -7.965  11.125  65.375  1.00  0.00    -0.366 OA 
HETATM   15  H   UNL     1      -7.348  10.405  65.432  1.00  0.00     0.000 HD 
HETATM   16  C   UNL     1     -10.396  10.138  67.867  1.00  0.00    -0.194 A  
HETATM   17  O   UNL     1     -10.649   9.137  68.756  1.00  0.00    -0.233 OA 
HETATM   18  C   UNL     1     -11.309  11.187  67.805  1.00  0.00    -0.364 A  
HETATM   19  H   UNL     1     -11.414   9.150  69.319  1.00  0.00     0.000 HD 
ENDBRANCH   7  10
ENDBRANCH   6   7
ENDBRANCH   4   6
ENDBRANCH   2   4
TORSDOF 4
ENDMDL
MODEL      157
REMARK 921   NORMALIZED FREE ENERGY PREDICTED BY IDOCK:   -3.94 KCAL/MOL
REMARK 922        TOTAL FREE ENERGY PREDICTED BY IDOCK:   -5.14 KCAL/MOL
REMARK 923 INTER-LIGAND FREE ENERGY PREDICTED BY IDOCK:   -4.65 KCAL/MOL
REMARK 924 INTRA-LIGAND FREE ENERGY PREDICTED BY IDOCK:   -0.49 KCAL/MOL
REMARK 927      BINDING AFFINITY PREDICTED BY RF-SCORE:    0.00 PKD
ROOT
HETATM    1  C   UNL     1      -7.291   8.576  71.861  1.00  0.00    -0.119 C  
HETATM    2  C   UNL     1      -7.235   9.209  70.470  1.00  0.00    -0.097 C  
HETATM    3  C   UNL     1      -7.486   8.133  69.407  1.00  0.00    -0.091 C  
ENDROOT
BRANCH   2   4
HETATM    4  N   UNL     1      -8.226  10.292  70.397  1.00  0.00    -0.357 NA 
HETATM    5  H   UNL     1      -7.774  11.200  70.287  1.00  0.00     0.000 HD 
BRANCH   4   6
HETATM    6  C   UNL     1      -9.223  10.061  69.336  1.00  0.00    -0.216 C  
BRANCH   6   7
HETATM    7  C   UNL     1     -10.659  10.460  69.754  1.00  0.00    -0.258 C  
HETATM    8  H   UNL     1     -12.327  10.950  68.838  1.00  0.00     0.000 HD 
HETATM    9  O   UNL     1     -11.445  10.705  68.582  1.00  0.00    -0.274 OA 
BRANCH   7  10
HETATM   10  C   UNL     1     -11.348   9.405  70.609  1.00  0.00    -0.352 A  
HETATM   11  C   UNL     1     -12.392   9.783  71.472  1.00  0.00    -0.495 A  
HETATM   12  C   UNL     1     -13.012   8.827  72.279  1.00  0.00    -0.408 A  
HETATM   13  C   UNL     1     -12.626   7.493  72.243  1.00  0.00    -0.106 A  
HETATM   14  O   UNL     1     -14.018   9.164  73.138  1.00  0.00    -1.101 OA 
HETATM   15  H   UNL     1     -14.440   8.513  73.686  1.00  0.00     0.000 HD 
HETATM   16  C   UNL     1     -11.613   7.113  71.375  1.00  0.00    -0.283 A  
HETATM   17  O   UNL     1     -11.188   5.821  71.292  1.00  0.00    -0.246 OA 
HETATM   18  C   UNL     1     -10.986   8.048  70.557  1.00  0.00    -0.247 A  
HETATM   19  H   UNL     1     -10.494   5.561  70.697  1.00  0.00     0.000 HD 
ENDBRANCH   7  10
ENDBRANCH   6   7
ENDBRANCH   4   6
ENDBRANCH   2   4
TORSDOF 4
ENDMDL
MODEL      158
REMARK 921   NORMALIZED FREE ENERGY PREDICTED BY IDOCK:   -3.93 KCAL/MOL
REMARK 922        TOTAL FREE ENERGY PREDICTED BY IDOCK:   -5.13 KCAL/MOL
REMARK 923 INTER-LIGAND FREE ENERGY PREDICTED BY IDOCK:   -4.92 KCAL/MOL
REMARK 924 INTRA-LIGAND FREE ENERGY PREDICTED BY IDOCK:   -0.21 KCAL/MOL
REMARK 927      BINDING AFFINITY PREDICTED BY RF-SCORE:    0.00 PKD
ROOT
HETATM    1  C   UNL     1      -5.449  13.802  70.010  1.00  0.00    -0.104 C  
HETATM    2  C   UNL     1      -6.409  14.837  69.424  1.00  0.00    -0.124 C  
HETATM    3  C   UNL     1      -5.970  16.242  69.850  1.00  0.00    -0.188 C  
ENDROOT
BRANCH   2   4
HETATM    4  N   UNL     1      -6.434  14.692  67.961  1.00  0.00    -0.136 NA 
HETATM    5  H   UNL     1      -6.075  13.782  67.674  1.00  0.00     0.000 HD 
BRANCH   4   6
HETATM    6  C   UNL     1      -7.776  14.937  67.403  1.00  0.00    -0.204 C  
BRANCH   6   7
HETATM    7  C   UNL     1      -8.413  13.674  66.775  1.00  0.00     0.035 C  
HETATM    8  H   UNL     1      -9.041  11.925  67.413  1.00  0.00     0.000 HD 
HETATM    9  O   UNL     1      -8.650  12.701  67.798  1.00  0.00    -0.157 OA 
BRANCH   7  10
HETATM   10  C   UNL     1      -9.718  13.962  66.045  1.00  0.00    -0.270 A  
HETATM   11  C   UNL     1      -9.934  15.231  65.479  1.00  0.00    -0.383 A  
HETATM   12  C   UNL     1     -11.140  15.510  64.831  1.00  0.00    -0.416 A  
HETATM   13  C   UNL     1     -12.139  14.553  64.723  1.00  0.00    -0.454 A  
HETATM   14  O   UNL     1     -11.386  16.736  64.284  1.00  0.00    -1.313 OA 
HETATM   15  H   UNL     1     -12.205  16.926  63.844  1.00  0.00     0.000 HD 
HETATM   16  C   UNL     1     -11.919  13.293  65.259  1.00  0.00    -0.388 A  
HETATM   17  O   UNL     1     -12.859  12.308  65.186  1.00  0.00    -0.522 OA 
HETATM   18  C   UNL     1     -10.723  12.989  65.903  1.00  0.00    -0.292 A  
HETATM   19  H   UNL     1     -12.709  11.445  65.553  1.00  0.00     0.000 HD 
ENDBRANCH   7  10
ENDBRANCH   6   7
ENDBRANCH   4   6
ENDBRANCH   2   4
TORSDOF 4
ENDMDL
MODEL      159
REMARK 921   NORMALIZED FREE ENERGY PREDICTED BY IDOCK:   -3.92 KCAL/MOL
REMARK 922        TOTAL FREE ENERGY PREDICTED BY IDOCK:   -5.12 KCAL/MOL
REMARK 923 INTER-LIGAND FREE ENERGY PREDICTED BY IDOCK:   -4.80 KCAL/MOL
REMARK 924 INTRA-LIGAND FREE ENERGY PREDICTED BY IDOCK:   -0.32 KCAL/MOL
REMARK 927      BINDING AFFINITY PREDICTED BY RF-SCORE:    0.00 PKD
ROOT
HETATM    1  C   UNL     1     -10.422   7.807  70.259  1.00  0.00    -0.225 C  
HETATM    2  C   UNL     1     -10.277   6.622  69.303  1.00  0.00    -0.183 C  
HETATM    3  C   UNL     1     -10.222   5.319  70.108  1.00  0.00    -0.350 C  
ENDROOT
BRANCH   2   4
HETATM    4  N   UNL     1     -11.400   6.633  68.355  1.00  0.00    -0.571 NA 
HETATM    5  H   UNL     1     -12.058   7.382  68.570  1.00  0.00     0.000 HD 
BRANCH   4   6
HETATM    6  C   UNL     1     -10.944   6.709  66.956  1.00  0.00    -0.393 C  
BRANCH   6   7
HETATM    7  C   UNL     1      -9.667   7.565  66.778  1.00  0.00    -0.216 C  
HETATM    8  H   UNL     1      -8.054   7.505  65.658  1.00  0.00     0.000 HD 
HETATM    9  O   UNL     1      -8.838   6.980  65.767  1.00  0.00    -0.144 OA 
BRANCH   7  10
HETATM   10  C   UNL     1      -9.963   9.012  66.407  1.00  0.00    -0.370 A  
HETATM   11  C   UNL     1     -10.863   9.760  67.187  1.00  0.00    -0.207 A  
HETATM   12  C   UNL     1     -11.160  11.079  66.838  1.00  0.00    -0.213 A  
HETATM   13  C   UNL     1     -10.575  11.682  65.732  1.00  0.00    -0.320 A  
HETATM   14  O   UNL     1     -12.040  11.827  67.565  1.00  0.00    -0.599 OA 
HETATM   15  H   UNL     1     -12.242  12.724  67.328  1.00  0.00     0.000 HD 
HETATM   16  C   UNL     1      -9.668  10.955  64.976  1.00  0.00    -0.267 A  
HETATM   17  O   UNL     1      -9.058  11.488  63.880  1.00  0.00    -0.424 OA 
HETATM   18  C   UNL     1      -9.352   9.641  65.309  1.00  0.00    -0.322 A  
HETATM   19  H   UNL     1      -8.437  10.990  63.361  1.00  0.00     0.000 HD 
ENDBRANCH   7  10
ENDBRANCH   6   7
ENDBRANCH   4   6
ENDBRANCH   2   4
TORSDOF 4
ENDMDL
MODEL      160
REMARK 921   NORMALIZED FREE ENERGY PREDICTED BY IDOCK:   -3.92 KCAL/MOL
REMARK 922        TOTAL FREE ENERGY PREDICTED BY IDOCK:   -5.12 KCAL/MOL
REMARK 923 INTER-LIGAND FREE ENERGY PREDICTED BY IDOCK:   -4.90 KCAL/MOL
REMARK 924 INTRA-LIGAND FREE ENERGY PREDICTED BY IDOCK:   -0.22 KCAL/MOL
REMARK 927      BINDING AFFINITY PREDICTED BY RF-SCORE:    0.00 PKD
ROOT
HETATM    1  C   UNL     1      -9.431  16.094  66.862  1.00  0.00    -0.245 C  
HETATM    2  C   UNL     1     -10.028  16.113  68.270  1.00  0.00    -0.226 C  
HETATM    3  C   UNL     1      -9.992  17.542  68.823  1.00  0.00    -0.342 C  
ENDROOT
BRANCH   2   4
HETATM    4  N   UNL     1     -11.397  15.582  68.216  1.00  0.00    -0.344 NA 
HETATM    5  H   UNL     1     -12.080  16.331  68.091  1.00  0.00     0.000 HD 
BRANCH   4   6
HETATM    6  C   UNL     1     -11.550  14.545  67.181  1.00  0.00    -0.388 C  
BRANCH   6   7
HETATM    7  C   UNL     1     -11.084  13.145  67.649  1.00  0.00    -0.270 C  
HETATM    8  H   UNL     1     -11.817  11.692  68.749  1.00  0.00     0.000 HD 
HETATM    9  O   UNL     1     -12.103  12.551  68.461  1.00  0.00    -0.266 OA 
BRANCH   7  10
HETATM   10  C   UNL     1     -10.753  12.208  66.496  1.00  0.00    -0.290 A  
HETATM   11  C   UNL     1      -9.841  11.156  66.694  1.00  0.00    -0.231 A  
HETATM   12  C   UNL     1      -9.511  10.308  65.635  1.00  0.00    -0.221 A  
HETATM   13  C   UNL     1     -10.075  10.473  64.376  1.00  0.00    -0.395 A  
HETATM   14  O   UNL     1      -8.619   9.287  65.791  1.00  0.00    -0.137 OA 
HETATM   15  H   UNL     1      -8.395   8.710  65.070  1.00  0.00     0.000 HD 
HETATM   16  C   UNL     1     -10.993  11.494  64.184  1.00  0.00    -0.366 A  
HETATM   17  O   UNL     1     -11.584  11.710  62.974  1.00  0.00    -0.803 OA 
HETATM   18  C   UNL     1     -11.342  12.347  65.227  1.00  0.00    -0.374 A  
HETATM   19  H   UNL     1     -12.213  12.409  62.842  1.00  0.00     0.000 HD 
ENDBRANCH   7  10
ENDBRANCH   6   7
ENDBRANCH   4   6
ENDBRANCH   2   4
TORSDOF 4
ENDMDL
MODEL      161
REMARK 921   NORMALIZED FREE ENERGY PREDICTED BY IDOCK:   -3.91 KCAL/MOL
REMARK 922        TOTAL FREE ENERGY PREDICTED BY IDOCK:   -5.10 KCAL/MOL
REMARK 923 INTER-LIGAND FREE ENERGY PREDICTED BY IDOCK:   -4.88 KCAL/MOL
REMARK 924 INTRA-LIGAND FREE ENERGY PREDICTED BY IDOCK:   -0.23 KCAL/MOL
REMARK 927      BINDING AFFINITY PREDICTED BY RF-SCORE:    0.00 PKD
ROOT
HETATM    1  C   UNL     1     -11.646  11.783  69.282  1.00  0.00    -0.378 C  
HETATM    2  C   UNL     1     -11.095  11.515  67.881  1.00  0.00    -0.256 C  
HETATM    3  C   UNL     1     -10.873  10.010  67.697  1.00  0.00    -0.336 C  
ENDROOT
BRANCH   2   4
HETATM    4  N   UNL     1     -12.034  12.055  66.887  1.00  0.00    -0.609 NA 
HETATM    5  H   UNL     1     -12.992  11.770  67.091  1.00  0.00     0.000 HD 
BRANCH   4   6
HETATM    6  C   UNL     1     -11.928  13.519  66.762  1.00  0.00    -0.404 C  
BRANCH   6   7
HETATM    7  C   UNL     1     -10.952  13.966  65.648  1.00  0.00    -0.290 C  
HETATM    8  H   UNL     1     -11.083  14.462  63.751  1.00  0.00     0.000 HD 
HETATM    9  O   UNL     1     -11.683  14.188  64.436  1.00  0.00    -0.399 OA 
BRANCH   7  10
HETATM   10  C   UNL     1     -10.175  15.226  66.002  1.00  0.00    -0.335 A  
HETATM   11  C   UNL     1     -10.855  16.451  66.129  1.00  0.00    -0.075 A  
HETATM   12  C   UNL     1     -10.145  17.616  66.428  1.00  0.00    -0.356 A  
HETATM   13  C   UNL     1      -8.769  17.595  66.615  1.00  0.00    -0.286 A  
HETATM   14  O   UNL     1     -10.773  18.822  66.544  1.00  0.00    -0.382 OA 
HETATM   15  H   UNL     1     -10.290  19.614  66.747  1.00  0.00     0.000 HD 
HETATM   16  C   UNL     1      -8.099  16.384  66.514  1.00  0.00    -0.310 A  
HETATM   17  O   UNL     1      -6.750  16.295  66.686  1.00  0.00    -0.250 OA 
HETATM   18  C   UNL     1      -8.787  15.209  66.224  1.00  0.00    -0.211 A  
HETATM   19  H   UNL     1      -6.291  15.466  66.617  1.00  0.00     0.000 HD 
ENDBRANCH   7  10
ENDBRANCH   6   7
ENDBRANCH   4   6
ENDBRANCH   2   4
TORSDOF 4
ENDMDL
MODEL      162
REMARK 921   NORMALIZED FREE ENERGY PREDICTED BY IDOCK:   -3.90 KCAL/MOL
REMARK 922        TOTAL FREE ENERGY PREDICTED BY IDOCK:   -5.09 KCAL/MOL
REMARK 923 INTER-LIGAND FREE ENERGY PREDICTED BY IDOCK:   -4.69 KCAL/MOL
REMARK 924 INTRA-LIGAND FREE ENERGY PREDICTED BY IDOCK:   -0.40 KCAL/MOL
REMARK 927      BINDING AFFINITY PREDICTED BY RF-SCORE:    0.00 PKD
ROOT
HETATM    1  C   UNL     1     -10.760   6.499  70.343  1.00  0.00    -0.306 C  
HETATM    2  C   UNL     1     -11.872   6.422  71.390  1.00  0.00    -0.281 C  
HETATM    3  C   UNL     1     -11.257   6.422  72.793  1.00  0.00    -0.261 C  
ENDROOT
BRANCH   2   4
HETATM    4  N   UNL     1     -12.791   7.552  71.195  1.00  0.00    -0.536 NA 
HETATM    5  H   UNL     1     -13.714   7.349  71.581  1.00  0.00     0.000 HD 
BRANCH   4   6
HETATM    6  C   UNL     1     -12.249   8.808  71.741  1.00  0.00    -0.349 C  
BRANCH   6   7
HETATM    7  C   UNL     1     -12.732  10.063  70.975  1.00  0.00    -0.362 C  
HETATM    8  H   UNL     1     -13.382  11.858  71.442  1.00  0.00     0.000 HD 
HETATM    9  O   UNL     1     -13.085  11.087  71.912  1.00  0.00    -0.486 OA 
BRANCH   7  10
HETATM   10  C   UNL     1     -11.693  10.609  70.005  1.00  0.00    -0.405 A  
HETATM   11  C   UNL     1     -10.368  10.142  70.069  1.00  0.00    -0.301 A  
HETATM   12  C   UNL     1      -9.404  10.657  69.199  1.00  0.00    -0.160 A  
HETATM   13  C   UNL     1      -9.725  11.623  68.256  1.00  0.00    -0.197 A  
HETATM   14  O   UNL     1      -8.106  10.235  69.246  1.00  0.00    -0.131 OA 
HETATM   15  H   UNL     1      -7.451  10.586  68.655  1.00  0.00     0.000 HD 
HETATM   16  C   UNL     1     -11.037  12.068  68.174  1.00  0.00    -0.245 A  
HETATM   17  O   UNL     1     -11.418  13.014  67.270  1.00  0.00    -0.295 OA 
HETATM   18  C   UNL     1     -12.016  11.564  69.025  1.00  0.00    -0.377 A  
HETATM   19  H   UNL     1     -12.317  13.318  67.214  1.00  0.00     0.000 HD 
ENDBRANCH   7  10
ENDBRANCH   6   7
ENDBRANCH   4   6
ENDBRANCH   2   4
TORSDOF 4
ENDMDL
MODEL      163
REMARK 921   NORMALIZED FREE ENERGY PREDICTED BY IDOCK:   -3.89 KCAL/MOL
REMARK 922        TOTAL FREE ENERGY PREDICTED BY IDOCK:   -5.08 KCAL/MOL
REMARK 923 INTER-LIGAND FREE ENERGY PREDICTED BY IDOCK:   -4.73 KCAL/MOL
REMARK 924 INTRA-LIGAND FREE ENERGY PREDICTED BY IDOCK:   -0.36 KCAL/MOL
REMARK 927      BINDING AFFINITY PREDICTED BY RF-SCORE:    0.00 PKD
ROOT
HETATM    1  C   UNL     1      -7.820   8.471  71.888  1.00  0.00    -0.157 C  
HETATM    2  C   UNL     1      -7.460   9.086  70.535  1.00  0.00    -0.098 C  
HETATM    3  C   UNL     1      -7.494   8.000  69.454  1.00  0.00    -0.096 C  
ENDROOT
BRANCH   2   4
HETATM    4  N   UNL     1      -8.397  10.179  70.242  1.00  0.00    -0.385 NA 
HETATM    5  H   UNL     1      -7.902  11.052  70.059  1.00  0.00     0.000 HD 
BRANCH   4   6
HETATM    6  C   UNL     1      -9.314   9.844  69.138  1.00  0.00    -0.193 C  
BRANCH   6   7
HETATM    7  C   UNL     1     -10.590  10.719  69.119  1.00  0.00    -0.222 C  
HETATM    8  H   UNL     1     -12.067  11.061  67.870  1.00  0.00     0.000 HD 
HETATM    9  O   UNL     1     -11.283  10.523  67.881  1.00  0.00    -0.296 OA 
BRANCH   7  10
HETATM   10  C   UNL     1     -11.535  10.424  70.275  1.00  0.00    -0.406 A  
HETATM   11  C   UNL     1     -11.653   9.109  70.760  1.00  0.00    -0.329 A  
HETATM   12  C   UNL     1     -12.538   8.826  71.803  1.00  0.00    -0.356 A  
HETATM   13  C   UNL     1     -13.307   9.824  72.387  1.00  0.00    -0.374 A  
HETATM   14  O   UNL     1     -12.686   7.558  72.286  1.00  0.00    -0.494 OA 
HETATM   15  H   UNL     1     -13.288   7.366  72.995  1.00  0.00     0.000 HD 
HETATM   16  C   UNL     1     -13.175  11.125  71.928  1.00  0.00    -0.382 A  
HETATM   17  O   UNL     1     -13.900  12.150  72.458  1.00  0.00    -0.456 OA 
HETATM   18  C   UNL     1     -12.294  11.432  70.894  1.00  0.00    -0.483 A  
HETATM   19  H   UNL     1     -13.810  13.042  72.144  1.00  0.00     0.000 HD 
ENDBRANCH   7  10
ENDBRANCH   6   7
ENDBRANCH   4   6
ENDBRANCH   2   4
TORSDOF 4
ENDMDL
MODEL      164
REMARK 921   NORMALIZED FREE ENERGY PREDICTED BY IDOCK:   -3.88 KCAL/MOL
REMARK 922        TOTAL FREE ENERGY PREDICTED BY IDOCK:   -5.07 KCAL/MOL
REMARK 923 INTER-LIGAND FREE ENERGY PREDICTED BY IDOCK:   -4.72 KCAL/MOL
REMARK 924 INTRA-LIGAND FREE ENERGY PREDICTED BY IDOCK:   -0.34 KCAL/MOL
REMARK 927      BINDING AFFINITY PREDICTED BY RF-SCORE:    0.00 PKD
ROOT
HETATM    1  C   UNL     1      -9.533   9.354  65.465  1.00  0.00    -0.328 C  
HETATM    2  C   UNL     1      -9.192  10.582  64.620  1.00  0.00    -0.235 C  
HETATM    3  C   UNL     1     -10.463  11.110  63.948  1.00  0.00    -0.445 C  
ENDROOT
BRANCH   2   4
HETATM    4  N   UNL     1      -8.566  11.595  65.480  1.00  0.00    -0.381 NA 
HETATM    5  H   UNL     1      -8.487  12.491  64.998  1.00  0.00     0.000 HD 
BRANCH   4   6
HETATM    6  C   UNL     1      -9.269  11.742  66.767  1.00  0.00    -0.194 C  
BRANCH   6   7
HETATM    7  C   UNL     1      -9.514  13.218  67.161  1.00  0.00    -0.240 C  
HETATM    8  H   UNL     1     -10.109  14.857  66.256  1.00  0.00     0.000 HD 
HETATM    9  O   UNL     1      -9.959  13.950  66.014  1.00  0.00    -0.298 OA 
BRANCH   7  10
HETATM   10  C   UNL     1     -10.533  13.377  68.282  1.00  0.00    -0.256 A  
HETATM   11  C   UNL     1     -10.926  12.252  69.030  1.00  0.00    -0.250 A  
HETATM   12  C   UNL     1     -11.879  12.385  70.042  1.00  0.00    -0.288 A  
HETATM   13  C   UNL     1     -12.449  13.616  70.339  1.00  0.00    -0.364 A  
HETATM   14  O   UNL     1     -12.292  11.311  70.776  1.00  0.00    -0.359 OA 
HETATM   15  H   UNL     1     -12.940  11.401  71.464  1.00  0.00     0.000 HD 
HETATM   16  C   UNL     1     -12.045  14.731  69.620  1.00  0.00    -0.304 A  
HETATM   17  O   UNL     1     -12.565  15.967  69.862  1.00  0.00    -0.505 OA 
HETATM   18  C   UNL     1     -11.092  14.624  68.612  1.00  0.00    -0.276 A  
HETATM   19  H   UNL     1     -12.288  16.732  69.370  1.00  0.00     0.000 HD 
ENDBRANCH   7  10
ENDBRANCH   6   7
ENDBRANCH   4   6
ENDBRANCH   2   4
TORSDOF 4
ENDMDL
MODEL      165
REMARK 921   NORMALIZED FREE ENERGY PREDICTED BY IDOCK:   -3.86 KCAL/MOL
REMARK 922        TOTAL FREE ENERGY PREDICTED BY IDOCK:   -5.05 KCAL/MOL
REMARK 923 INTER-LIGAND FREE ENERGY PREDICTED BY IDOCK:   -4.79 KCAL/MOL
REMARK 924 INTRA-LIGAND FREE ENERGY PREDICTED BY IDOCK:   -0.26 KCAL/MOL
REMARK 927      BINDING AFFINITY PREDICTED BY RF-SCORE:    0.00 PKD
ROOT
HETATM    1  C   UNL     1     -10.491   7.259  70.369  1.00  0.00    -0.232 C  
HETATM    2  C   UNL     1     -11.241   8.112  71.393  1.00  0.00    -0.254 C  
HETATM    3  C   UNL     1     -10.234   8.806  72.316  1.00  0.00    -0.310 C  
ENDROOT
BRANCH   2   4
HETATM    4  N   UNL     1     -12.087   9.080  70.680  1.00  0.00    -0.477 NA 
HETATM    5  H   UNL     1     -13.027   9.112  71.076  1.00  0.00     0.000 HD 
BRANCH   4   6
HETATM    6  C   UNL     1     -11.480  10.422  70.638  1.00  0.00    -0.349 C  
BRANCH   6   7
HETATM    7  C   UNL     1     -12.360  11.465  69.908  1.00  0.00    -0.214 C  
HETATM    8  H   UNL     1     -12.964  13.304  70.239  1.00  0.00     0.000 HD 
HETATM    9  O   UNL     1     -12.424  12.664  70.687  1.00  0.00    -0.318 OA 
BRANCH   7  10
HETATM   10  C   UNL     1     -11.855  11.801  68.511  1.00  0.00    -0.365 A  
HETATM   11  C   UNL     1     -11.227  10.807  67.739  1.00  0.00    -0.385 A  
HETATM   12  C   UNL     1     -10.738  11.115  66.468  1.00  0.00    -0.260 A  
HETATM   13  C   UNL     1     -10.866  12.391  65.935  1.00  0.00    -0.305 A  
HETATM   14  O   UNL     1     -10.112  10.177  65.700  1.00  0.00    -0.271 OA 
HETATM   15  H   UNL     1      -9.779  10.386  64.836  1.00  0.00     0.000 HD 
HETATM   16  C   UNL     1     -11.506  13.368  66.685  1.00  0.00    -0.344 A  
HETATM   17  O   UNL     1     -11.664  14.639  66.220  1.00  0.00    -0.370 OA 
HETATM   18  C   UNL     1     -12.007  13.082  67.951  1.00  0.00    -0.338 A  
HETATM   19  H   UNL     1     -12.103  15.308  66.733  1.00  0.00     0.000 HD 
ENDBRANCH   7  10
ENDBRANCH   6   7
ENDBRANCH   4   6
ENDBRANCH   2   4
TORSDOF 4
ENDMDL
MODEL      166
REMARK 921   NORMALIZED FREE ENERGY PREDICTED BY IDOCK:   -3.85 KCAL/MOL
REMARK 922        TOTAL FREE ENERGY PREDICTED BY IDOCK:   -5.04 KCAL/MOL
REMARK 923 INTER-LIGAND FREE ENERGY PREDICTED BY IDOCK:   -4.68 KCAL/MOL
REMARK 924 INTRA-LIGAND FREE ENERGY PREDICTED BY IDOCK:   -0.36 KCAL/MOL
REMARK 927      BINDING AFFINITY PREDICTED BY RF-SCORE:    0.00 PKD
ROOT
HETATM    1  C   UNL     1      -9.546   4.857  69.113  1.00  0.00    -0.231 C  
HETATM    2  C   UNL     1      -9.046   5.916  70.097  1.00  0.00    -0.145 C  
HETATM    3  C   UNL     1      -8.648   7.181  69.330  1.00  0.00    -0.137 C  
ENDROOT
BRANCH   2   4
HETATM    4  N   UNL     1     -10.100   6.184  71.085  1.00  0.00    -0.187 NA 
HETATM    5  H   UNL     1      -9.771   6.819  71.813  1.00  0.00     0.000 HD 
BRANCH   4   6
HETATM    6  C   UNL     1     -11.335   6.686  70.458  1.00  0.00    -0.358 C  
BRANCH   6   7
HETATM    7  C   UNL     1     -12.214   7.516  71.423  1.00  0.00    -0.335 C  
HETATM    8  H   UNL     1     -12.321   7.806  73.363  1.00  0.00     0.000 HD 
HETATM    9  O   UNL     1     -11.781   7.297  72.770  1.00  0.00    -0.219 OA 
BRANCH   7  10
HETATM   10  C   UNL     1     -12.187   9.009  71.124  1.00  0.00    -0.331 A  
HETATM   11  C   UNL     1     -11.371   9.496  70.087  1.00  0.00    -0.241 A  
HETATM   12  C   UNL     1     -11.321  10.867  69.824  1.00  0.00    -0.301 A  
HETATM   13  C   UNL     1     -12.071  11.771  70.564  1.00  0.00    -0.439 A  
HETATM   14  O   UNL     1     -10.528  11.373  68.835  1.00  0.00    -0.200 OA 
HETATM   15  H   UNL     1     -10.494  12.305  68.656  1.00  0.00     0.000 HD 
HETATM   16  C   UNL     1     -12.895  11.291  71.571  1.00  0.00    -0.414 A  
HETATM   17  O   UNL     1     -13.657  12.126  72.333  1.00  0.00    -0.594 OA 
HETATM   18  C   UNL     1     -12.967   9.929  71.846  1.00  0.00    -0.545 A  
HETATM   19  H   UNL     1     -14.222  11.797  73.023  1.00  0.00     0.000 HD 
ENDBRANCH   7  10
ENDBRANCH   6   7
ENDBRANCH   4   6
ENDBRANCH   2   4
TORSDOF 4
ENDMDL
MODEL      167
REMARK 921   NORMALIZED FREE ENERGY PREDICTED BY IDOCK:   -3.85 KCAL/MOL
REMARK 922        TOTAL FREE ENERGY PREDICTED BY IDOCK:   -5.03 KCAL/MOL
REMARK 923 INTER-LIGAND FREE ENERGY PREDICTED BY IDOCK:   -4.62 KCAL/MOL
REMARK 924 INTRA-LIGAND FREE ENERGY PREDICTED BY IDOCK:   -0.41 KCAL/MOL
REMARK 927      BINDING AFFINITY PREDICTED BY RF-SCORE:    0.00 PKD
ROOT
HETATM    1  C   UNL     1     -13.276  12.885  71.832  1.00  0.00    -0.521 C  
HETATM    2  C   UNL     1     -13.044  14.279  71.250  1.00  0.00    -0.355 C  
HETATM    3  C   UNL     1     -14.038  15.266  71.870  1.00  0.00    -0.656 C  
ENDROOT
BRANCH   2   4
HETATM    4  N   UNL     1     -11.651  14.676  71.501  1.00  0.00    -0.488 NA 
HETATM    5  H   UNL     1     -11.016  13.885  71.391  1.00  0.00     0.000 HD 
BRANCH   4   6
HETATM    6  C   UNL     1     -11.237  15.812  70.659  1.00  0.00    -0.372 C  
BRANCH   6   7
HETATM    7  C   UNL     1     -11.443  15.556  69.147  1.00  0.00    -0.348 C  
HETATM    8  H   UNL     1     -11.533  16.646  67.514  1.00  0.00     0.000 HD 
HETATM    9  O   UNL     1     -11.406  16.803  68.443  1.00  0.00    -0.283 OA 
BRANCH   7  10
HETATM   10  C   UNL     1     -10.405  14.614  68.552  1.00  0.00    -0.238 A  
HETATM   11  C   UNL     1     -10.744  13.272  68.305  1.00  0.00    -0.267 A  
HETATM   12  C   UNL     1      -9.790  12.395  67.785  1.00  0.00    -0.203 A  
HETATM   13  C   UNL     1      -8.501  12.822  67.492  1.00  0.00    -0.181 A  
HETATM   14  O   UNL     1     -10.083  11.083  67.548  1.00  0.00    -0.175 OA 
HETATM   15  H   UNL     1      -9.434  10.487  67.194  1.00  0.00     0.000 HD 
HETATM   16  C   UNL     1      -8.172  14.151  67.711  1.00  0.00    -0.169 A  
HETATM   17  O   UNL     1      -6.925  14.634  67.444  1.00  0.00    -0.186 OA 
HETATM   18  C   UNL     1      -9.108  15.045  68.223  1.00  0.00    -0.182 A  
HETATM   19  H   UNL     1      -6.699  15.545  67.594  1.00  0.00     0.000 HD 
ENDBRANCH   7  10
ENDBRANCH   6   7
ENDBRANCH   4   6
ENDBRANCH   2   4
TORSDOF 4
ENDMDL
MODEL      168
REMARK 921   NORMALIZED FREE ENERGY PREDICTED BY IDOCK:   -3.83 KCAL/MOL
REMARK 922        TOTAL FREE ENERGY PREDICTED BY IDOCK:   -5.01 KCAL/MOL
REMARK 923 INTER-LIGAND FREE ENERGY PREDICTED BY IDOCK:   -4.54 KCAL/MOL
REMARK 924 INTRA-LIGAND FREE ENERGY PREDICTED BY IDOCK:   -0.47 KCAL/MOL
REMARK 927      BINDING AFFINITY PREDICTED BY RF-SCORE:    0.00 PKD
ROOT
HETATM    1  C   UNL     1      -7.638  16.617  68.822  1.00  0.00    -0.227 C  
HETATM    2  C   UNL     1      -8.085  15.540  67.833  1.00  0.00    -0.139 C  
HETATM    3  C   UNL     1      -8.031  14.167  68.511  1.00  0.00    -0.145 C  
ENDROOT
BRANCH   2   4
HETATM    4  N   UNL     1      -9.436  15.861  67.354  1.00  0.00    -0.218 NA 
HETATM    5  H   UNL     1      -9.439  16.721  66.803  1.00  0.00     0.000 HD 
BRANCH   4   6
HETATM    6  C   UNL     1     -10.039  14.746  66.604  1.00  0.00    -0.264 C  
BRANCH   6   7
HETATM    7  C   UNL     1     -11.510  14.472  66.998  1.00  0.00    -0.370 C  
HETATM    8  H   UNL     1     -13.121  13.781  66.110  1.00  0.00     0.000 HD 
HETATM    9  O   UNL     1     -12.218  13.949  65.868  1.00  0.00    -0.412 OA 
BRANCH   7  10
HETATM   10  C   UNL     1     -11.647  13.504  68.166  1.00  0.00    -0.368 A  
HETATM   11  C   UNL     1     -12.075  13.981  69.418  1.00  0.00    -0.386 A  
HETATM   12  C   UNL     1     -12.178  13.104  70.501  1.00  0.00    -0.328 A  
HETATM   13  C   UNL     1     -11.874  11.756  70.369  1.00  0.00    -0.362 A  
HETATM   14  O   UNL     1     -12.575  13.538  71.732  1.00  0.00    -0.272 OA 
HETATM   15  H   UNL     1     -12.645  12.942  72.468  1.00  0.00     0.000 HD 
HETATM   16  C   UNL     1     -11.475  11.279  69.129  1.00  0.00    -0.297 A  
HETATM   17  O   UNL     1     -11.163   9.966  68.932  1.00  0.00    -0.402 OA 
HETATM   18  C   UNL     1     -11.373  12.132  68.034  1.00  0.00    -0.353 A  
HETATM   19  H   UNL     1     -10.890   9.639  68.083  1.00  0.00     0.000 HD 
ENDBRANCH   7  10
ENDBRANCH   6   7
ENDBRANCH   4   6
ENDBRANCH   2   4
TORSDOF 4
ENDMDL
MODEL      169
REMARK 921   NORMALIZED FREE ENERGY PREDICTED BY IDOCK:   -3.83 KCAL/MOL
REMARK 922        TOTAL FREE ENERGY PREDICTED BY IDOCK:   -5.01 KCAL/MOL
REMARK 923 INTER-LIGAND FREE ENERGY PREDICTED BY IDOCK:   -4.75 KCAL/MOL
REMARK 924 INTRA-LIGAND FREE ENERGY PREDICTED BY IDOCK:   -0.26 KCAL/MOL
REMARK 927      BINDING AFFINITY PREDICTED BY RF-SCORE:    0.00 PKD
ROOT
HETATM    1  C   UNL     1      -8.303   8.625  70.503  1.00  0.00    -0.147 C  
HETATM    2  C   UNL     1      -8.986   9.299  69.313  1.00  0.00    -0.147 C  
HETATM    3  C   UNL     1     -10.054   8.362  68.737  1.00  0.00    -0.209 C  
ENDROOT
BRANCH   2   4
HETATM    4  N   UNL     1      -9.560  10.578  69.752  1.00  0.00    -0.423 NA 
HETATM    5  H   UNL     1      -8.985  11.365  69.450  1.00  0.00     0.000 HD 
BRANCH   4   6
HETATM    6  C   UNL     1     -10.958  10.739  69.313  1.00  0.00    -0.241 C  
BRANCH   6   7
HETATM    7  C   UNL     1     -11.149  11.897  68.305  1.00  0.00    -0.239 C  
HETATM    8  H   UNL     1     -12.253  12.237  66.716  1.00  0.00     0.000 HD 
HETATM    9  O   UNL     1     -12.136  11.527  67.336  1.00  0.00    -0.593 OA 
BRANCH   7  10
HETATM   10  C   UNL     1     -11.561  13.205  68.965  1.00  0.00    -0.360 A  
HETATM   11  C   UNL     1     -11.214  14.428  68.364  1.00  0.00    -0.294 A  
HETATM   12  C   UNL     1     -11.566  15.633  68.978  1.00  0.00    -0.386 A  
HETATM   13  C   UNL     1     -12.266  15.654  70.177  1.00  0.00    -0.387 A  
HETATM   14  O   UNL     1     -11.231  16.836  68.427  1.00  0.00    -0.332 OA 
HETATM   15  H   UNL     1     -11.470  17.655  68.845  1.00  0.00     0.000 HD 
HETATM   16  C   UNL     1     -12.631  14.449  70.760  1.00  0.00    -0.357 A  
HETATM   17  O   UNL     1     -13.319  14.401  71.935  1.00  0.00    -0.327 OA 
HETATM   18  C   UNL     1     -12.297  13.237  70.162  1.00  0.00    -0.306 A  
HETATM   19  H   UNL     1     -13.570  13.576  72.334  1.00  0.00     0.000 HD 
ENDBRANCH   7  10
ENDBRANCH   6   7
ENDBRANCH   4   6
ENDBRANCH   2   4
TORSDOF 4
ENDMDL
MODEL      170
REMARK 921   NORMALIZED FREE ENERGY PREDICTED BY IDOCK:   -3.81 KCAL/MOL
REMARK 922        TOTAL FREE ENERGY PREDICTED BY IDOCK:   -4.98 KCAL/MOL
REMARK 923 INTER-LIGAND FREE ENERGY PREDICTED BY IDOCK:   -4.76 KCAL/MOL
REMARK 924 INTRA-LIGAND FREE ENERGY PREDICTED BY IDOCK:   -0.22 KCAL/MOL
REMARK 927      BINDING AFFINITY PREDICTED BY RF-SCORE:    0.00 PKD
ROOT
HETATM    1  C   UNL     1     -10.851  15.435  70.751  1.00  0.00    -0.292 C  
HETATM    2  C   UNL     1     -11.920  14.603  70.043  1.00  0.00    -0.320 C  
HETATM    3  C   UNL     1     -13.144  14.460  70.953  1.00  0.00    -0.390 C  
ENDROOT
BRANCH   2   4
HETATM    4  N   UNL     1     -12.259  15.247  68.766  1.00  0.00    -0.597 NA 
HETATM    5  H   UNL     1     -13.237  15.540  68.748  1.00  0.00     0.000 HD 
BRANCH   4   6
HETATM    6  C   UNL     1     -11.360  16.372  68.457  1.00  0.00    -0.289 C  
BRANCH   6   7
HETATM    7  C   UNL     1     -10.277  16.015  67.411  1.00  0.00    -0.273 C  
HETATM    8  H   UNL     1     -10.220  15.667  65.478  1.00  0.00     0.000 HD 
HETATM    9  O   UNL     1     -10.885  15.887  66.120  1.00  0.00    -0.296 OA 
BRANCH   7  10
HETATM   10  C   UNL     1      -9.155  17.042  67.336  1.00  0.00    -0.225 A  
HETATM   11  C   UNL     1      -8.876  17.851  68.452  1.00  0.00    -0.293 A  
HETATM   12  C   UNL     1      -7.866  18.813  68.382  1.00  0.00    -0.322 A  
HETATM   13  C   UNL     1      -7.114  18.987  67.227  1.00  0.00    -0.219 A  
HETATM   14  O   UNL     1      -7.580  19.623  69.442  1.00  0.00    -0.295 OA 
HETATM   15  H   UNL     1      -6.894  20.278  69.394  1.00  0.00     0.000 HD 
HETATM   16  C   UNL     1      -7.370  18.174  66.133  1.00  0.00    -0.274 A  
HETATM   17  O   UNL     1      -6.668  18.293  64.971  1.00  0.00    -0.416 OA 
HETATM   18  C   UNL     1      -8.367  17.204  66.183  1.00  0.00    -0.258 A  
HETATM   19  H   UNL     1      -6.844  17.736  64.221  1.00  0.00     0.000 HD 
ENDBRANCH   7  10
ENDBRANCH   6   7
ENDBRANCH   4   6
ENDBRANCH   2   4
TORSDOF 4
ENDMDL
MODEL      171
REMARK 921   NORMALIZED FREE ENERGY PREDICTED BY IDOCK:   -3.81 KCAL/MOL
REMARK 922        TOTAL FREE ENERGY PREDICTED BY IDOCK:   -4.98 KCAL/MOL
REMARK 923 INTER-LIGAND FREE ENERGY PREDICTED BY IDOCK:   -4.61 KCAL/MOL
REMARK 924 INTRA-LIGAND FREE ENERGY PREDICTED BY IDOCK:   -0.37 KCAL/MOL
REMARK 927      BINDING AFFINITY PREDICTED BY RF-SCORE:    0.00 PKD
ROOT
HETATM    1  C   UNL     1      -5.231  18.710  70.844  1.00  0.00    -0.272 C  
HETATM    2  C   UNL     1      -5.398  18.341  69.369  1.00  0.00    -0.202 C  
HETATM    3  C   UNL     1      -5.539  16.821  69.234  1.00  0.00    -0.150 C  
ENDROOT
BRANCH   2   4
HETATM    4  N   UNL     1      -6.568  19.048  68.829  1.00  0.00    -0.262 NA 
HETATM    5  H   UNL     1      -6.440  19.276  67.843  1.00  0.00     0.000 HD 
BRANCH   4   6
HETATM    6  C   UNL     1      -7.818  18.299  69.045  1.00  0.00    -0.108 C  
BRANCH   6   7
HETATM    7  C   UNL     1      -8.913  18.628  68.003  1.00  0.00    -0.302 C  
HETATM    8  H   UNL     1      -9.183  19.970  66.593  1.00  0.00     0.000 HD 
HETATM    9  O   UNL     1      -8.511  19.767  67.233  1.00  0.00    -0.294 OA 
BRANCH   7  10
HETATM   10  C   UNL     1      -9.214  17.469  67.063  1.00  0.00    -0.253 A  
HETATM   11  C   UNL     1     -10.048  17.674  65.950  1.00  0.00    -0.192 A  
HETATM   12  C   UNL     1     -10.350  16.609  65.097  1.00  0.00     0.028 A  
HETATM   13  C   UNL     1      -9.833  15.339  65.319  1.00  0.00    -0.250 A  
HETATM   14  O   UNL     1     -11.168  16.772  64.017  1.00  0.00    -1.438 OA 
HETATM   15  H   UNL     1     -11.373  16.048  63.438  1.00  0.00     0.000 HD 
HETATM   16  C   UNL     1      -8.990  15.140  66.402  1.00  0.00    -0.279 A  
HETATM   17  O   UNL     1      -8.449  13.919  66.674  1.00  0.00    -0.435 OA 
HETATM   18  C   UNL     1      -8.670  16.188  67.260  1.00  0.00    -0.202 A  
HETATM   19  H   UNL     1      -7.872  13.782  67.416  1.00  0.00     0.000 HD 
ENDBRANCH   7  10
ENDBRANCH   6   7
ENDBRANCH   4   6
ENDBRANCH   2   4
TORSDOF 4
ENDMDL
MODEL      172
REMARK 921   NORMALIZED FREE ENERGY PREDICTED BY IDOCK:   -3.79 KCAL/MOL
REMARK 922        TOTAL FREE ENERGY PREDICTED BY IDOCK:   -4.96 KCAL/MOL
REMARK 923 INTER-LIGAND FREE ENERGY PREDICTED BY IDOCK:   -4.56 KCAL/MOL
REMARK 924 INTRA-LIGAND FREE ENERGY PREDICTED BY IDOCK:   -0.40 KCAL/MOL
REMARK 927      BINDING AFFINITY PREDICTED BY RF-SCORE:    0.00 PKD
ROOT
HETATM    1  C   UNL     1     -12.770  12.891  71.240  1.00  0.00    -0.371 C  
HETATM    2  C   UNL     1     -12.749  14.217  70.479  1.00  0.00    -0.309 C  
HETATM    3  C   UNL     1     -13.470  15.291  71.299  1.00  0.00    -0.591 C  
ENDROOT
BRANCH   2   4
HETATM    4  N   UNL     1     -11.354  14.586  70.200  1.00  0.00    -0.399 NA 
HETATM    5  H   UNL     1     -10.705  13.905  70.595  1.00  0.00     0.000 HD 
BRANCH   4   6
HETATM    6  C   UNL     1     -11.109  14.782  68.760  1.00  0.00    -0.265 C  
BRANCH   6   7
HETATM    7  C   UNL     1     -11.652  13.625  67.887  1.00  0.00    -0.341 C  
HETATM    8  H   UNL     1     -12.081  13.349  65.990  1.00  0.00     0.000 HD 
HETATM    9  O   UNL     1     -11.747  14.059  66.526  1.00  0.00    -0.355 OA 
BRANCH   7  10
HETATM   10  C   UNL     1     -10.792  12.370  67.954  1.00  0.00    -0.253 A  
HETATM   11  C   UNL     1     -11.381  11.111  67.746  1.00  0.00    -0.364 A  
HETATM   12  C   UNL     1     -10.604   9.953  67.831  1.00  0.00    -0.254 A  
HETATM   13  C   UNL     1      -9.245  10.016  68.110  1.00  0.00    -0.130 A  
HETATM   14  O   UNL     1     -11.148   8.715  67.648  1.00  0.00    -0.474 OA 
HETATM   15  H   UNL     1     -10.620   7.928  67.707  1.00  0.00     0.000 HD 
HETATM   16  C   UNL     1      -8.656  11.258  68.292  1.00  0.00    -0.153 A  
HETATM   17  O   UNL     1      -7.328  11.389  68.568  1.00  0.00    -0.091 OA 
HETATM   18  C   UNL     1      -9.410  12.425  68.205  1.00  0.00    -0.209 A  
HETATM   19  H   UNL     1      -6.924  12.240  68.693  1.00  0.00     0.000 HD 
ENDBRANCH   7  10
ENDBRANCH   6   7
ENDBRANCH   4   6
ENDBRANCH   2   4
TORSDOF 4
ENDMDL
MODEL      173
REMARK 921   NORMALIZED FREE ENERGY PREDICTED BY IDOCK:   -3.79 KCAL/MOL
REMARK 922        TOTAL FREE ENERGY PREDICTED BY IDOCK:   -4.95 KCAL/MOL
REMARK 923 INTER-LIGAND FREE ENERGY PREDICTED BY IDOCK:   -4.96 KCAL/MOL
REMARK 924 INTRA-LIGAND FREE ENERGY PREDICTED BY IDOCK:    0.01 KCAL/MOL
REMARK 927      BINDING AFFINITY PREDICTED BY RF-SCORE:    0.00 PKD
ROOT
HETATM    1  C   UNL     1     -11.024  10.065  70.698  1.00  0.00    -0.392 C  
HETATM    2  C   UNL     1     -12.117  11.078  70.357  1.00  0.00    -0.373 C  
HETATM    3  C   UNL     1     -12.964  11.358  71.603  1.00  0.00    -0.523 C  
ENDROOT
BRANCH   2   4
HETATM    4  N   UNL     1     -11.489  12.301  69.836  1.00  0.00    -0.510 NA 
HETATM    5  H   UNL     1     -11.067  12.848  70.586  1.00  0.00     0.000 HD 
BRANCH   4   6
HETATM    6  C   UNL     1     -10.511  12.012  68.772  1.00  0.00    -0.183 C  
BRANCH   6   7
HETATM    7  C   UNL     1     -10.802  12.772  67.456  1.00  0.00    -0.239 C  
HETATM    8  H   UNL     1     -12.378  13.150  66.344  1.00  0.00     0.000 HD 
HETATM    9  O   UNL     1     -12.199  12.683  67.153  1.00  0.00    -0.445 OA 
BRANCH   7  10
HETATM   10  C   UNL     1     -10.393  14.237  67.507  1.00  0.00    -0.248 A  
HETATM   11  C   UNL     1      -9.533  14.755  66.522  1.00  0.00    -0.316 A  
HETATM   12  C   UNL     1      -9.132  16.092  66.577  1.00  0.00    -0.285 A  
HETATM   13  C   UNL     1      -9.573  16.936  67.588  1.00  0.00    -0.248 A  
HETATM   14  O   UNL     1      -8.287  16.621  65.645  1.00  0.00    -0.280 OA 
HETATM   15  H   UNL     1      -8.014  17.529  65.683  1.00  0.00     0.000 HD 
HETATM   16  C   UNL     1     -10.440  16.435  68.547  1.00  0.00    -0.291 A  
HETATM   17  O   UNL     1     -10.910  17.211  69.564  1.00  0.00    -0.380 OA 
HETATM   18  C   UNL     1     -10.859  15.108  68.508  1.00  0.00    -0.247 A  
HETATM   19  H   UNL     1     -11.505  16.868  70.221  1.00  0.00     0.000 HD 
ENDBRANCH   7  10
ENDBRANCH   6   7
ENDBRANCH   4   6
ENDBRANCH   2   4
TORSDOF 4
ENDMDL
MODEL      174
REMARK 921   NORMALIZED FREE ENERGY PREDICTED BY IDOCK:   -3.77 KCAL/MOL
REMARK 922        TOTAL FREE ENERGY PREDICTED BY IDOCK:   -4.94 KCAL/MOL
REMARK 923 INTER-LIGAND FREE ENERGY PREDICTED BY IDOCK:   -4.68 KCAL/MOL
REMARK 924 INTRA-LIGAND FREE ENERGY PREDICTED BY IDOCK:   -0.25 KCAL/MOL
REMARK 927      BINDING AFFINITY PREDICTED BY RF-SCORE:    0.00 PKD
ROOT
HETATM    1  C   UNL     1      -8.137   8.733  69.396  1.00  0.00    -0.106 C  
HETATM    2  C   UNL     1      -8.419  10.202  69.715  1.00  0.00    -0.128 C  
HETATM    3  C   UNL     1      -7.117  11.005  69.623  1.00  0.00    -0.089 C  
ENDROOT
BRANCH   2   4
HETATM    4  N   UNL     1      -9.440  10.705  68.786  1.00  0.00    -0.176 NA 
HETATM    5  H   UNL     1     -10.107  11.312  69.263  1.00  0.00     0.000 HD 
BRANCH   4   6
HETATM    6  C   UNL     1      -8.843  11.381  67.620  1.00  0.00    -0.139 C  
BRANCH   6   7
HETATM    7  C   UNL     1      -9.454  12.777  67.348  1.00  0.00    -0.190 C  
HETATM    8  H   UNL     1      -8.787  14.547  66.816  1.00  0.00     0.000 HD 
HETATM    9  O   UNL     1      -8.413  13.690  66.983  1.00  0.00    -0.196 OA 
BRANCH   7  10
HETATM   10  C   UNL     1     -10.514  12.764  66.255  1.00  0.00    -0.273 A  
HETATM   11  C   UNL     1     -11.647  13.588  66.375  1.00  0.00    -0.381 A  
HETATM   12  C   UNL     1     -12.637  13.562  65.390  1.00  0.00    -0.483 A  
HETATM   13  C   UNL     1     -12.525  12.740  64.276  1.00  0.00    -0.461 A  
HETATM   14  O   UNL     1     -13.755  14.339  65.484  1.00  0.00    -0.543 OA 
HETATM   15  H   UNL     1     -14.428  14.321  64.814  1.00  0.00     0.000 HD 
HETATM   16  C   UNL     1     -11.397  11.944  64.143  1.00  0.00    -0.380 A  
HETATM   17  O   UNL     1     -11.226  11.116  63.074  1.00  0.00    -0.820 OA 
HETATM   18  C   UNL     1     -10.395  11.959  65.109  1.00  0.00    -0.318 A  
HETATM   19  H   UNL     1     -10.453  10.570  62.983  1.00  0.00     0.000 HD 
ENDBRANCH   7  10
ENDBRANCH   6   7
ENDBRANCH   4   6
ENDBRANCH   2   4
TORSDOF 4
ENDMDL
MODEL      175
REMARK 921   NORMALIZED FREE ENERGY PREDICTED BY IDOCK:   -3.77 KCAL/MOL
REMARK 922        TOTAL FREE ENERGY PREDICTED BY IDOCK:   -4.94 KCAL/MOL
REMARK 923 INTER-LIGAND FREE ENERGY PREDICTED BY IDOCK:   -4.52 KCAL/MOL
REMARK 924 INTRA-LIGAND FREE ENERGY PREDICTED BY IDOCK:   -0.41 KCAL/MOL
REMARK 927      BINDING AFFINITY PREDICTED BY RF-SCORE:    0.00 PKD
ROOT
HETATM    1  C   UNL     1      -6.850  14.987  67.631  1.00  0.00    -0.203 C  
HETATM    2  C   UNL     1      -7.782  15.900  68.428  1.00  0.00    -0.140 C  
HETATM    3  C   UNL     1      -7.092  16.327  69.728  1.00  0.00     0.101 C  
ENDROOT
BRANCH   2   4
HETATM    4  N   UNL     1      -8.145  17.055  67.596  1.00  0.00    -0.179 NA 
HETATM    5  H   UNL     1      -7.350  17.682  67.465  1.00  0.00     0.000 HD 
BRANCH   4   6
HETATM    6  C   UNL     1      -8.722  16.649  66.302  1.00  0.00    -0.324 C  
BRANCH   6   7
HETATM    7  C   UNL     1     -10.267  16.564  66.325  1.00  0.00    -0.332 C  
HETATM    8  H   UNL     1     -11.750  17.268  65.246  1.00  0.00     0.000 HD 
HETATM    9  O   UNL     1     -10.801  17.320  65.232  1.00  0.00    -0.576 OA 
BRANCH   7  10
HETATM   10  C   UNL     1     -10.789  15.135  66.249  1.00  0.00    -0.333 A  
HETATM   11  C   UNL     1     -11.130  14.584  65.001  1.00  0.00    -0.393 A  
HETATM   12  C   UNL     1     -11.634  13.284  64.926  1.00  0.00    -0.325 A  
HETATM   13  C   UNL     1     -11.802  12.508  66.065  1.00  0.00    -0.478 A  
HETATM   14  O   UNL     1     -11.988  12.726  63.732  1.00  0.00    -0.429 OA 
HETATM   15  H   UNL     1     -12.331  11.842  63.681  1.00  0.00     0.000 HD 
HETATM   16  C   UNL     1     -11.444  13.041  67.295  1.00  0.00    -0.332 A  
HETATM   17  O   UNL     1     -11.583  12.332  68.451  1.00  0.00    -0.281 OA 
HETATM   18  C   UNL     1     -10.932  14.331  67.393  1.00  0.00    -0.301 A  
HETATM   19  H   UNL     1     -11.337  12.696  69.294  1.00  0.00     0.000 HD 
ENDBRANCH   7  10
ENDBRANCH   6   7
ENDBRANCH   4   6
ENDBRANCH   2   4
TORSDOF 4
ENDMDL
MODEL      176
REMARK 921   NORMALIZED FREE ENERGY PREDICTED BY IDOCK:   -3.76 KCAL/MOL
REMARK 922        TOTAL FREE ENERGY PREDICTED BY IDOCK:   -4.92 KCAL/MOL
REMARK 923 INTER-LIGAND FREE ENERGY PREDICTED BY IDOCK:   -4.63 KCAL/MOL
REMARK 924 INTRA-LIGAND FREE ENERGY PREDICTED BY IDOCK:   -0.29 KCAL/MOL
REMARK 927      BINDING AFFINITY PREDICTED BY RF-SCORE:    0.00 PKD
ROOT
HETATM    1  C   UNL     1     -12.265  14.047  70.169  1.00  0.00    -0.425 C  
HETATM    2  C   UNL     1     -12.314  15.427  70.825  1.00  0.00    -0.396 C  
HETATM    3  C   UNL     1     -11.603  15.375  72.181  1.00  0.00    -0.554 C  
ENDROOT
BRANCH   2   4
HETATM    4  N   UNL     1     -11.696  16.407  69.921  1.00  0.00    -0.292 NA 
HETATM    5  H   UNL     1     -11.225  17.147  70.443  1.00  0.00     0.000 HD 
BRANCH   4   6
HETATM    6  C   UNL     1     -10.783  15.773  68.954  1.00  0.00    -0.248 C  
BRANCH   6   7
HETATM    7  C   UNL     1     -10.074  16.790  68.028  1.00  0.00    -0.284 C  
HETATM    8  H   UNL     1     -10.460  18.579  67.313  1.00  0.00     0.000 HD 
HETATM    9  O   UNL     1     -10.895  17.954  67.883  1.00  0.00    -0.365 OA 
BRANCH   7  10
HETATM   10  C   UNL     1      -8.700  17.205  68.536  1.00  0.00    -0.261 A  
HETATM   11  C   UNL     1      -7.836  16.238  69.078  1.00  0.00    -0.235 A  
HETATM   12  C   UNL     1      -6.585  16.615  69.570  1.00  0.00    -0.212 A  
HETATM   13  C   UNL     1      -6.162  17.938  69.528  1.00  0.00    -0.237 A  
HETATM   14  O   UNL     1      -5.729  15.703  70.116  1.00  0.00    -0.142 OA 
HETATM   15  H   UNL     1      -4.879  15.960  70.450  1.00  0.00     0.000 HD 
HETATM   16  C   UNL     1      -7.002  18.891  68.971  1.00  0.00    -0.311 A  
HETATM   17  O   UNL     1      -6.648  20.205  68.899  1.00  0.00    -0.309 OA 
HETATM   18  C   UNL     1      -8.251  18.536  68.468  1.00  0.00    -0.360 A  
HETATM   19  H   UNL     1      -7.223  20.858  68.517  1.00  0.00     0.000 HD 
ENDBRANCH   7  10
ENDBRANCH   6   7
ENDBRANCH   4   6
ENDBRANCH   2   4
TORSDOF 4
ENDMDL
MODEL      177
REMARK 921   NORMALIZED FREE ENERGY PREDICTED BY IDOCK:   -3.74 KCAL/MOL
REMARK 922        TOTAL FREE ENERGY PREDICTED BY IDOCK:   -4.89 KCAL/MOL
REMARK 923 INTER-LIGAND FREE ENERGY PREDICTED BY IDOCK:   -4.54 KCAL/MOL
REMARK 924 INTRA-LIGAND FREE ENERGY PREDICTED BY IDOCK:   -0.35 KCAL/MOL
REMARK 927      BINDING AFFINITY PREDICTED BY RF-SCORE:    0.00 PKD
ROOT
HETATM    1  C   UNL     1      -9.301  11.479  66.955  1.00  0.00    -0.185 C  
HETATM    2  C   UNL     1     -10.743  10.971  66.920  1.00  0.00    -0.274 C  
HETATM    3  C   UNL     1     -10.806   9.565  67.526  1.00  0.00    -0.239 C  
ENDROOT
BRANCH   2   4
HETATM    4  N   UNL     1     -11.602  11.918  67.644  1.00  0.00    -0.454 NA 
HETATM    5  H   UNL     1     -11.289  12.037  68.608  1.00  0.00     0.000 HD 
BRANCH   4   6
HETATM    6  C   UNL     1     -11.703  13.216  66.953  1.00  0.00    -0.387 C  
BRANCH   6   7
HETATM    7  C   UNL     1     -11.995  14.395  67.911  1.00  0.00    -0.313 C  
HETATM    8  H   UNL     1     -12.385  14.616  69.824  1.00  0.00     0.000 HD 
HETATM    9  O   UNL     1     -12.205  13.892  69.235  1.00  0.00    -0.346 OA 
BRANCH   7  10
HETATM   10  C   UNL     1     -10.882  15.433  67.940  1.00  0.00    -0.300 A  
HETATM   11  C   UNL     1     -11.113  16.685  68.536  1.00  0.00    -0.301 A  
HETATM   12  C   UNL     1     -10.105  17.652  68.544  1.00  0.00    -0.375 A  
HETATM   13  C   UNL     1      -8.861  17.402  67.978  1.00  0.00    -0.252 A  
HETATM   14  O   UNL     1     -10.303  18.882  69.101  1.00  0.00    -0.508 OA 
HETATM   15  H   UNL     1      -9.618  19.540  69.106  1.00  0.00     0.000 HD 
HETATM   16  C   UNL     1      -8.622  16.159  67.411  1.00  0.00    -0.180 A  
HETATM   17  O   UNL     1      -7.424  15.850  66.841  1.00  0.00    -0.221 OA 
HETATM   18  C   UNL     1      -9.609  15.178  67.399  1.00  0.00    -0.208 A  
HETATM   19  H   UNL     1      -7.259  14.999  66.452  1.00  0.00     0.000 HD 
ENDBRANCH   7  10
ENDBRANCH   6   7
ENDBRANCH   4   6
ENDBRANCH   2   4
TORSDOF 4
ENDMDL
MODEL      178
REMARK 921   NORMALIZED FREE ENERGY PREDICTED BY IDOCK:   -3.73 KCAL/MOL
REMARK 922        TOTAL FREE ENERGY PREDICTED BY IDOCK:   -4.88 KCAL/MOL
REMARK 923 INTER-LIGAND FREE ENERGY PREDICTED BY IDOCK:   -4.71 KCAL/MOL
REMARK 924 INTRA-LIGAND FREE ENERGY PREDICTED BY IDOCK:   -0.17 KCAL/MOL
REMARK 927      BINDING AFFINITY PREDICTED BY RF-SCORE:    0.00 PKD
ROOT
HETATM    1  C   UNL     1     -11.881  12.371  65.982  1.00  0.00    -0.459 C  
HETATM    2  C   UNL     1     -11.343  12.372  67.413  1.00  0.00    -0.321 C  
HETATM    3  C   UNL     1     -12.093  13.420  68.242  1.00  0.00    -0.271 C  
ENDROOT
BRANCH   2   4
HETATM    4  N   UNL     1     -11.485  11.023  67.978  1.00  0.00    -0.443 NA 
HETATM    5  H   UNL     1     -11.579  10.322  67.243  1.00  0.00     0.000 HD 
BRANCH   4   6
HETATM    6  C   UNL     1     -10.384  10.687  68.898  1.00  0.00    -0.207 C  
BRANCH   6   7
HETATM    7  C   UNL     1     -10.082   9.171  68.959  1.00  0.00    -0.191 C  
HETATM    8  H   UNL     1      -8.582   7.995  68.483  1.00  0.00     0.000 HD 
HETATM    9  O   UNL     1      -8.767   8.926  68.446  1.00  0.00    -0.133 OA 
BRANCH   7  10
HETATM   10  C   UNL     1     -10.188   8.595  70.364  1.00  0.00    -0.218 A  
HETATM   11  C   UNL     1     -11.285   7.783  70.703  1.00  0.00    -0.278 A  
HETATM   12  C   UNL     1     -11.403   7.272  71.997  1.00  0.00    -0.260 A  
HETATM   13  C   UNL     1     -10.447   7.541  72.969  1.00  0.00    -0.396 A  
HETATM   14  O   UNL     1     -12.463   6.494  72.362  1.00  0.00    -0.534 OA 
HETATM   15  H   UNL     1     -12.543   6.147  73.242  1.00  0.00     0.000 HD 
HETATM   16  C   UNL     1      -9.351   8.322  72.630  1.00  0.00    -0.280 A  
HETATM   17  O   UNL     1      -8.378   8.622  73.536  1.00  0.00    -0.393 OA 
HETATM   18  C   UNL     1      -9.210   8.835  71.344  1.00  0.00    -0.325 A  
HETATM   19  H   UNL     1      -7.627   9.156  73.305  1.00  0.00     0.000 HD 
ENDBRANCH   7  10
ENDBRANCH   6   7
ENDBRANCH   4   6
ENDBRANCH   2   4
TORSDOF 4
ENDMDL
MODEL      179
REMARK 921   NORMALIZED FREE ENERGY PREDICTED BY IDOCK:   -3.72 KCAL/MOL
REMARK 922        TOTAL FREE ENERGY PREDICTED BY IDOCK:   -4.87 KCAL/MOL
REMARK 923 INTER-LIGAND FREE ENERGY PREDICTED BY IDOCK:   -4.56 KCAL/MOL
REMARK 924 INTRA-LIGAND FREE ENERGY PREDICTED BY IDOCK:   -0.31 KCAL/MOL
REMARK 927      BINDING AFFINITY PREDICTED BY RF-SCORE:    0.00 PKD
ROOT
HETATM    1  C   UNL     1      -8.925  15.645  66.633  1.00  0.00    -0.317 C  
HETATM    2  C   UNL     1      -9.952  15.639  67.765  1.00  0.00    -0.223 C  
HETATM    3  C   UNL     1      -9.959  17.006  68.457  1.00  0.00    -0.293 C  
ENDROOT
BRANCH   2   4
HETATM    4  N   UNL     1     -11.270  15.298  67.213  1.00  0.00    -0.330 NA 
HETATM    5  H   UNL     1     -11.782  16.136  66.934  1.00  0.00     0.000 HD 
BRANCH   4   6
HETATM    6  C   UNL     1     -11.174  14.337  66.101  1.00  0.00    -0.331 C  
BRANCH   6   7
HETATM    7  C   UNL     1     -11.174  12.862  66.569  1.00  0.00    -0.302 C  
HETATM    8  H   UNL     1     -12.512  11.447  66.830  1.00  0.00     0.000 HD 
HETATM    9  O   UNL     1     -12.512  12.353  66.541  1.00  0.00    -0.373 OA 
BRANCH   7  10
HETATM   10  C   UNL     1     -10.278  11.965  65.725  1.00  0.00    -0.276 A  
HETATM   11  C   UNL     1     -10.663  11.633  64.414  1.00  0.00    -0.387 A  
HETATM   12  C   UNL     1      -9.861  10.790  63.643  1.00  0.00    -0.350 A  
HETATM   13  C   UNL     1      -8.672  10.272  64.140  1.00  0.00    -0.214 A  
HETATM   14  O   UNL     1     -10.213  10.437  62.372  1.00  0.00    -0.722 OA 
HETATM   15  H   UNL     1      -9.668   9.864  61.848  1.00  0.00     0.000 HD 
HETATM   16  C   UNL     1      -8.278  10.617  65.424  1.00  0.00    -0.125 A  
HETATM   17  O   UNL     1      -7.123  10.143  65.971  1.00  0.00    -0.104 OA 
HETATM   18  C   UNL     1      -9.058  11.461  66.208  1.00  0.00    -0.211 A  
HETATM   19  H   UNL     1      -6.852  10.379  66.851  1.00  0.00     0.000 HD 
ENDBRANCH   7  10
ENDBRANCH   6   7
ENDBRANCH   4   6
ENDBRANCH   2   4
TORSDOF 4
ENDMDL
MODEL      180
REMARK 921   NORMALIZED FREE ENERGY PREDICTED BY IDOCK:   -3.71 KCAL/MOL
REMARK 922        TOTAL FREE ENERGY PREDICTED BY IDOCK:   -4.86 KCAL/MOL
REMARK 923 INTER-LIGAND FREE ENERGY PREDICTED BY IDOCK:   -4.75 KCAL/MOL
REMARK 924 INTRA-LIGAND FREE ENERGY PREDICTED BY IDOCK:   -0.11 KCAL/MOL
REMARK 927      BINDING AFFINITY PREDICTED BY RF-SCORE:    0.00 PKD
ROOT
HETATM    1  C   UNL     1      -7.104  14.233  68.641  1.00  0.00    -0.111 C  
HETATM    2  C   UNL     1      -6.717  13.274  67.515  1.00  0.00    -0.148 C  
HETATM    3  C   UNL     1      -5.807  12.173  68.071  1.00  0.00    -0.059 C  
ENDROOT
BRANCH   2   4
HETATM    4  N   UNL     1      -7.939  12.722  66.915  1.00  0.00    -0.396 NA 
HETATM    5  H   UNL     1      -8.030  13.001  65.938  1.00  0.00     0.000 HD 
BRANCH   4   6
HETATM    6  C   UNL     1      -8.018  11.258  67.062  1.00  0.00    -0.150 C  
BRANCH   6   7
HETATM    7  C   UNL     1      -9.471  10.730  67.130  1.00  0.00    -0.160 C  
HETATM    8  H   UNL     1     -10.817  10.434  68.529  1.00  0.00     0.000 HD 
HETATM    9  O   UNL     1      -9.925  10.759  68.488  1.00  0.00    -0.164 OA 
BRANCH   7  10
HETATM   10  C   UNL     1     -10.437  11.524  66.261  1.00  0.00    -0.294 A  
HETATM   11  C   UNL     1     -11.130  12.618  66.811  1.00  0.00    -0.318 A  
HETATM   12  C   UNL     1     -12.038  13.334  66.029  1.00  0.00    -0.436 A  
HETATM   13  C   UNL     1     -12.271  12.996  64.702  1.00  0.00    -0.477 A  
HETATM   14  O   UNL     1     -12.736  14.391  66.536  1.00  0.00    -0.493 OA 
HETATM   15  H   UNL     1     -13.354  14.878  66.004  1.00  0.00     0.000 HD 
HETATM   16  C   UNL     1     -11.572  11.933  64.150  1.00  0.00    -0.351 A  
HETATM   17  O   UNL     1     -11.753  11.551  62.855  1.00  0.00    -0.834 OA 
HETATM   18  C   UNL     1     -10.656  11.209  64.909  1.00  0.00    -0.356 A  
HETATM   19  H   UNL     1     -11.274  10.823  62.476  1.00  0.00     0.000 HD 
ENDBRANCH   7  10
ENDBRANCH   6   7
ENDBRANCH   4   6
ENDBRANCH   2   4
TORSDOF 4
ENDMDL
MODEL      181
REMARK 921   NORMALIZED FREE ENERGY PREDICTED BY IDOCK:   -3.71 KCAL/MOL
REMARK 922        TOTAL FREE ENERGY PREDICTED BY IDOCK:   -4.85 KCAL/MOL
REMARK 923 INTER-LIGAND FREE ENERGY PREDICTED BY IDOCK:   -4.49 KCAL/MOL
REMARK 924 INTRA-LIGAND FREE ENERGY PREDICTED BY IDOCK:   -0.37 KCAL/MOL
REMARK 927      BINDING AFFINITY PREDICTED BY RF-SCORE:    0.00 PKD
ROOT
HETATM    1  C   UNL     1      -9.299  14.931  69.005  1.00  0.00    -0.179 C  
HETATM    2  C   UNL     1     -10.797  15.225  69.095  1.00  0.00    -0.250 C  
HETATM    3  C   UNL     1     -11.093  15.984  70.393  1.00  0.00    -0.376 C  
ENDROOT
BRANCH   2   4
HETATM    4  N   UNL     1     -11.205  15.989  67.908  1.00  0.00    -0.316 NA 
HETATM    5  H   UNL     1     -12.221  16.008  67.812  1.00  0.00     0.000 HD 
BRANCH   4   6
HETATM    6  C   UNL     1     -10.645  17.352  67.906  1.00  0.00    -0.383 C  
BRANCH   6   7
HETATM    7  C   UNL     1      -9.778  17.652  66.660  1.00  0.00    -0.301 C  
HETATM    8  H   UNL     1     -10.043  18.507  64.910  1.00  0.00     0.000 HD 
HETATM    9  O   UNL     1     -10.575  18.323  65.676  1.00  0.00    -0.614 OA 
BRANCH   7  10
HETATM   10  C   UNL     1      -8.551  18.497  66.972  1.00  0.00    -0.273 A  
HETATM   11  C   UNL     1      -7.775  19.014  65.919  1.00  0.00    -0.182 A  
HETATM   12  C   UNL     1      -6.633  19.768  66.198  1.00  0.00    -0.216 A  
HETATM   13  C   UNL     1      -6.244  20.032  67.505  1.00  0.00    -0.227 A  
HETATM   14  O   UNL     1      -5.851  20.272  65.199  1.00  0.00    -0.180 OA 
HETATM   15  H   UNL     1      -5.075  20.784  65.389  1.00  0.00     0.000 HD 
HETATM   16  C   UNL     1      -7.021  19.544  68.545  1.00  0.00    -0.305 A  
HETATM   17  O   UNL     1      -6.694  19.767  69.849  1.00  0.00    -0.331 OA 
HETATM   18  C   UNL     1      -8.167  18.796  68.291  1.00  0.00    -0.355 A  
HETATM   19  H   UNL     1      -7.226  19.433  70.562  1.00  0.00     0.000 HD 
ENDBRANCH   7  10
ENDBRANCH   6   7
ENDBRANCH   4   6
ENDBRANCH   2   4
TORSDOF 4
ENDMDL
MODEL      182
REMARK 921   NORMALIZED FREE ENERGY PREDICTED BY IDOCK:   -3.70 KCAL/MOL
REMARK 922        TOTAL FREE ENERGY PREDICTED BY IDOCK:   -4.84 KCAL/MOL
REMARK 923 INTER-LIGAND FREE ENERGY PREDICTED BY IDOCK:   -4.32 KCAL/MOL
REMARK 924 INTRA-LIGAND FREE ENERGY PREDICTED BY IDOCK:   -0.53 KCAL/MOL
REMARK 927      BINDING AFFINITY PREDICTED BY RF-SCORE:    0.00 PKD
ROOT
HETATM    1  C   UNL     1      -8.678  15.263  69.273  1.00  0.00    -0.237 C  
HETATM    2  C   UNL     1      -9.654  14.254  68.667  1.00  0.00    -0.192 C  
HETATM    3  C   UNL     1     -11.090  14.761  68.845  1.00  0.00    -0.264 C  
ENDROOT
BRANCH   2   4
HETATM    4  N   UNL     1      -9.317  14.053  67.251  1.00  0.00    -0.221 NA 
HETATM    5  H   UNL     1      -9.100  13.075  67.058  1.00  0.00     0.000 HD 
BRANCH   4   6
HETATM    6  C   UNL     1     -10.372  14.554  66.352  1.00  0.00    -0.293 C  
BRANCH   6   7
HETATM    7  C   UNL     1      -9.900  15.718  65.449  1.00  0.00    -0.177 C  
HETATM    8  H   UNL     1     -10.735  16.979  64.194  1.00  0.00     0.000 HD 
HETATM    9  O   UNL     1     -11.024  16.264  64.749  1.00  0.00    -0.631 OA 
BRANCH   7  10
HETATM   10  C   UNL     1      -9.201  16.829  66.219  1.00  0.00    -0.313 A  
HETATM   11  C   UNL     1      -9.968  17.785  66.911  1.00  0.00    -0.332 A  
HETATM   12  C   UNL     1      -9.335  18.823  67.599  1.00  0.00    -0.292 A  
HETATM   13  C   UNL     1      -7.950  18.932  67.625  1.00  0.00    -0.273 A  
HETATM   14  O   UNL     1     -10.050  19.773  68.267  1.00  0.00    -0.418 OA 
HETATM   15  H   UNL     1      -9.619  20.479  68.735  1.00  0.00     0.000 HD 
HETATM   16  C   UNL     1      -7.192  17.977  66.964  1.00  0.00    -0.196 A  
HETATM   17  O   UNL     1      -5.830  18.027  66.952  1.00  0.00    -0.133 OA 
HETATM   18  C   UNL     1      -7.801  16.930  66.279  1.00  0.00    -0.346 A  
HETATM   19  H   UNL     1      -5.309  17.373  66.499  1.00  0.00     0.000 HD 
ENDBRANCH   7  10
ENDBRANCH   6   7
ENDBRANCH   4   6
ENDBRANCH   2   4
TORSDOF 4
ENDMDL
MODEL      183
REMARK 921   NORMALIZED FREE ENERGY PREDICTED BY IDOCK:   -3.68 KCAL/MOL
REMARK 922        TOTAL FREE ENERGY PREDICTED BY IDOCK:   -4.83 KCAL/MOL
REMARK 923 INTER-LIGAND FREE ENERGY PREDICTED BY IDOCK:   -4.83 KCAL/MOL
REMARK 924 INTRA-LIGAND FREE ENERGY PREDICTED BY IDOCK:    0.00 KCAL/MOL
REMARK 927      BINDING AFFINITY PREDICTED BY RF-SCORE:    0.00 PKD
ROOT
HETATM    1  C   UNL     1      -9.941  10.367  67.087  1.00  0.00    -0.239 C  
HETATM    2  C   UNL     1      -9.828   9.869  68.528  1.00  0.00    -0.156 C  
HETATM    3  C   UNL     1      -8.458   9.216  68.738  1.00  0.00    -0.130 C  
ENDROOT
BRANCH   2   4
HETATM    4  N   UNL     1     -10.043  10.998  69.443  1.00  0.00    -0.427 NA 
HETATM    5  H   UNL     1     -10.295  11.845  68.932  1.00  0.00     0.000 HD 
BRANCH   4   6
HETATM    6  C   UNL     1     -11.038  10.687  70.484  1.00  0.00    -0.094 C  
BRANCH   6   7
HETATM    7  C   UNL     1     -12.381  11.430  70.283  1.00  0.00    -0.297 C  
HETATM    8  H   UNL     1     -13.966  11.832  71.372  1.00  0.00     0.000 HD 
HETATM    9  O   UNL     1     -13.141  11.377  71.496  1.00  0.00    -0.416 OA 
BRANCH   7  10
HETATM   10  C   UNL     1     -12.205  12.883  69.865  1.00  0.00    -0.258 A  
HETATM   11  C   UNL     1     -11.900  13.190  68.527  1.00  0.00    -0.377 A  
HETATM   12  C   UNL     1     -11.711  14.519  68.141  1.00  0.00    -0.337 A  
HETATM   13  C   UNL     1     -11.828  15.559  69.054  1.00  0.00    -0.373 A  
HETATM   14  O   UNL     1     -11.399  14.850  66.854  1.00  0.00    -0.345 OA 
HETATM   15  H   UNL     1     -11.270  15.753  66.592  1.00  0.00     0.000 HD 
HETATM   16  C   UNL     1     -12.153  15.261  70.369  1.00  0.00    -0.348 A  
HETATM   17  O   UNL     1     -12.284  16.235  71.314  1.00  0.00    -0.584 OA 
HETATM   18  C   UNL     1     -12.353  13.944  70.775  1.00  0.00    -0.449 A  
HETATM   19  H   UNL     1     -12.507  16.031  72.215  1.00  0.00     0.000 HD 
ENDBRANCH   7  10
ENDBRANCH   6   7
ENDBRANCH   4   6
ENDBRANCH   2   4
TORSDOF 4
ENDMDL
MODEL      184
REMARK 921   NORMALIZED FREE ENERGY PREDICTED BY IDOCK:   -3.66 KCAL/MOL
REMARK 922        TOTAL FREE ENERGY PREDICTED BY IDOCK:   -4.80 KCAL/MOL
REMARK 923 INTER-LIGAND FREE ENERGY PREDICTED BY IDOCK:   -4.59 KCAL/MOL
REMARK 924 INTRA-LIGAND FREE ENERGY PREDICTED BY IDOCK:   -0.21 KCAL/MOL
REMARK 927      BINDING AFFINITY PREDICTED BY RF-SCORE:    0.00 PKD
ROOT
HETATM    1  C   UNL     1      -6.696   6.271  73.033  1.00  0.00    -0.073 C  
HETATM    2  C   UNL     1      -7.607   5.388  72.180  1.00  0.00    -0.100 C  
HETATM    3  C   UNL     1      -7.850   4.056  72.899  1.00  0.00    -0.080 C  
ENDROOT
BRANCH   2   4
HETATM    4  N   UNL     1      -8.863   6.106  71.921  1.00  0.00    -0.137 NA 
HETATM    5  H   UNL     1      -9.301   6.411  72.791  1.00  0.00     0.000 HD 
BRANCH   4   6
HETATM    6  C   UNL     1      -8.674   7.236  70.995  1.00  0.00    -0.140 C  
BRANCH   6   7
HETATM    7  C   UNL     1      -9.012   8.606  71.629  1.00  0.00    -0.235 C  
HETATM    8  H   UNL     1      -8.345  10.449  71.485  1.00  0.00     0.000 HD 
HETATM    9  O   UNL     1      -8.138   9.608  71.095  1.00  0.00    -0.259 OA 
BRANCH   7  10
HETATM   10  C   UNL     1     -10.457   9.031  71.405  1.00  0.00    -0.395 A  
HETATM   11  C   UNL     1     -11.418   8.780  72.401  1.00  0.00    -0.301 A  
HETATM   12  C   UNL     1     -12.751   9.143  72.191  1.00  0.00    -0.395 A  
HETATM   13  C   UNL     1     -13.154   9.760  71.014  1.00  0.00    -0.363 A  
HETATM   14  O   UNL     1     -13.710   8.901  73.131  1.00  0.00    -1.009 OA 
HETATM   15  H   UNL     1     -14.616   9.147  72.989  1.00  0.00     0.000 HD 
HETATM   16  C   UNL     1     -12.204  10.029  70.041  1.00  0.00     0.028 A  
HETATM   17  O   UNL     1     -12.534  10.633  68.864  1.00  0.00    -0.791 OA 
HETATM   18  C   UNL     1     -10.869   9.684  70.231  1.00  0.00    -0.339 A  
HETATM   19  H   UNL     1     -11.883  10.818  68.197  1.00  0.00     0.000 HD 
ENDBRANCH   7  10
ENDBRANCH   6   7
ENDBRANCH   4   6
ENDBRANCH   2   4
TORSDOF 4
ENDMDL
MODEL      185
REMARK 921   NORMALIZED FREE ENERGY PREDICTED BY IDOCK:   -3.65 KCAL/MOL
REMARK 922        TOTAL FREE ENERGY PREDICTED BY IDOCK:   -4.78 KCAL/MOL
REMARK 923 INTER-LIGAND FREE ENERGY PREDICTED BY IDOCK:   -4.53 KCAL/MOL
REMARK 924 INTRA-LIGAND FREE ENERGY PREDICTED BY IDOCK:   -0.25 KCAL/MOL
REMARK 927      BINDING AFFINITY PREDICTED BY RF-SCORE:    0.00 PKD
ROOT
HETATM    1  C   UNL     1     -11.392   6.549  70.040  1.00  0.00    -0.472 C  
HETATM    2  C   UNL     1     -11.585   8.057  69.872  1.00  0.00     0.270 C  
HETATM    3  C   UNL     1     -10.823   8.797  70.975  1.00  0.00    -0.321 C  
ENDROOT
BRANCH   2   4
HETATM    4  N   UNL     1     -11.127   8.450  68.532  1.00  0.00    -0.344 NA 
HETATM    5  H   UNL     1     -11.842   8.265  67.828  1.00  0.00     0.000 HD 
BRANCH   4   6
HETATM    6  C   UNL     1     -10.686   9.856  68.487  1.00  0.00    -0.226 C  
BRANCH   6   7
HETATM    7  C   UNL     1      -9.584  10.114  67.432  1.00  0.00    -0.154 C  
HETATM    8  H   UNL     1      -8.362   9.023  66.349  1.00  0.00     0.000 HD 
HETATM    9  O   UNL     1      -9.039   8.864  66.996  1.00  0.00    -0.130 OA 
BRANCH   7  10
HETATM   10  C   UNL     1     -10.084  10.891  66.222  1.00  0.00    -0.284 A  
HETATM   11  C   UNL     1     -11.279  11.628  66.313  1.00  0.00    -0.332 A  
HETATM   12  C   UNL     1     -11.758  12.322  65.199  1.00  0.00    -0.361 A  
HETATM   13  C   UNL     1     -11.071  12.311  63.992  1.00  0.00    -0.446 A  
HETATM   14  O   UNL     1     -12.921  13.034  65.251  1.00  0.00    -0.697 OA 
HETATM   15  H   UNL     1     -13.247  13.506  64.494  1.00  0.00     0.000 HD 
HETATM   16  C   UNL     1      -9.881  11.605  63.907  1.00  0.00    -0.281 A  
HETATM   17  O   UNL     1      -9.159  11.555  62.752  1.00  0.00    -0.492 OA 
HETATM   18  C   UNL     1      -9.381  10.912  65.005  1.00  0.00    -0.260 A  
HETATM   19  H   UNL     1      -8.342  11.071  62.693  1.00  0.00     0.000 HD 
ENDBRANCH   7  10
ENDBRANCH   6   7
ENDBRANCH   4   6
ENDBRANCH   2   4
TORSDOF 4
ENDMDL
MODEL      186
REMARK 921   NORMALIZED FREE ENERGY PREDICTED BY IDOCK:   -3.64 KCAL/MOL
REMARK 922        TOTAL FREE ENERGY PREDICTED BY IDOCK:   -4.78 KCAL/MOL
REMARK 923 INTER-LIGAND FREE ENERGY PREDICTED BY IDOCK:   -4.70 KCAL/MOL
REMARK 924 INTRA-LIGAND FREE ENERGY PREDICTED BY IDOCK:   -0.08 KCAL/MOL
REMARK 927      BINDING AFFINITY PREDICTED BY RF-SCORE:    0.00 PKD
ROOT
HETATM    1  C   UNL     1      -8.875   7.640  70.070  1.00  0.00    -0.143 C  
HETATM    2  C   UNL     1      -8.688   8.984  70.776  1.00  0.00    -0.224 C  
HETATM    3  C   UNL     1      -7.366   9.617  70.330  1.00  0.00    -0.153 C  
ENDROOT
BRANCH   2   4
HETATM    4  N   UNL     1      -9.838   9.847  70.472  1.00  0.00    -0.374 NA 
HETATM    5  H   UNL     1     -10.167   9.702  69.517  1.00  0.00     0.000 HD 
BRANCH   4   6
HETATM    6  C   UNL     1     -10.932   9.677  71.445  1.00  0.00    -0.284 C  
BRANCH   6   7
HETATM    7  C   UNL     1     -12.293  10.197  70.927  1.00  0.00    -0.363 C  
HETATM    8  H   UNL     1     -13.972  10.838  71.722  1.00  0.00     0.000 HD 
HETATM    9  O   UNL     1     -13.135  10.519  72.040  1.00  0.00    -0.467 OA 
BRANCH   7  10
HETATM   10  C   UNL     1     -12.165  11.419  70.027  1.00  0.00    -0.377 A  
HETATM   11  C   UNL     1     -12.071  11.250  68.634  1.00  0.00    -0.211 A  
HETATM   12  C   UNL     1     -11.926  12.363  67.803  1.00  0.00    -0.186 A  
HETATM   13  C   UNL     1     -11.881  13.650  68.324  1.00  0.00    -0.404 A  
HETATM   14  O   UNL     1     -11.819  12.232  66.449  1.00  0.00    -0.529 OA 
HETATM   15  H   UNL     1     -11.720  12.990  65.885  1.00  0.00     0.000 HD 
HETATM   16  C   UNL     1     -11.997  13.821  69.695  1.00  0.00    -0.342 A  
HETATM   17  O   UNL     1     -11.960  15.057  70.269  1.00  0.00    -0.274 OA 
HETATM   18  C   UNL     1     -12.149  12.727  70.541  1.00  0.00    -0.369 A  
HETATM   19  H   UNL     1     -12.040  15.175  71.209  1.00  0.00     0.000 HD 
ENDBRANCH   7  10
ENDBRANCH   6   7
ENDBRANCH   4   6
ENDBRANCH   2   4
TORSDOF 4
ENDMDL
MODEL      187
REMARK 921   NORMALIZED FREE ENERGY PREDICTED BY IDOCK:   -3.64 KCAL/MOL
REMARK 922        TOTAL FREE ENERGY PREDICTED BY IDOCK:   -4.77 KCAL/MOL
REMARK 923 INTER-LIGAND FREE ENERGY PREDICTED BY IDOCK:   -4.42 KCAL/MOL
REMARK 924 INTRA-LIGAND FREE ENERGY PREDICTED BY IDOCK:   -0.35 KCAL/MOL
REMARK 927      BINDING AFFINITY PREDICTED BY RF-SCORE:    0.00 PKD
ROOT
HETATM    1  C   UNL     1      -6.903  17.021  66.696  1.00  0.00    -0.279 C  
HETATM    2  C   UNL     1      -7.498  16.636  68.051  1.00  0.00    -0.164 C  
HETATM    3  C   UNL     1      -6.718  17.334  69.170  1.00  0.00    -0.243 C  
ENDROOT
BRANCH   2   4
HETATM    4  N   UNL     1      -8.922  16.999  68.068  1.00  0.00    -0.225 NA 
HETATM    5  H   UNL     1      -9.289  17.101  67.122  1.00  0.00     0.000 HD 
BRANCH   4   6
HETATM    6  C   UNL     1      -9.728  16.046  68.852  1.00  0.00    -0.232 C  
BRANCH   6   7
HETATM    7  C   UNL     1     -10.854  15.378  68.027  1.00  0.00    -0.292 C  
HETATM    8  H   UNL     1     -11.669  15.633  66.258  1.00  0.00     0.000 HD 
HETATM    9  O   UNL     1     -10.977  16.043  66.764  1.00  0.00    -0.248 OA 
BRANCH   7  10
HETATM   10  C   UNL     1     -10.622  13.892  67.790  1.00  0.00    -0.248 A  
HETATM   11  C   UNL     1      -9.456  13.466  67.128  1.00  0.00    -0.244 A  
HETATM   12  C   UNL     1      -9.249  12.107  66.884  1.00  0.00    -0.203 A  
HETATM   13  C   UNL     1     -10.171  11.152  67.291  1.00  0.00    -0.227 A  
HETATM   14  O   UNL     1      -8.136  11.662  66.231  1.00  0.00    -0.350 OA 
HETATM   15  H   UNL     1      -7.995  10.738  66.065  1.00  0.00     0.000 HD 
HETATM   16  C   UNL     1     -11.310  11.567  67.965  1.00  0.00    -0.298 A  
HETATM   17  O   UNL     1     -12.253  10.680  68.392  1.00  0.00    -0.822 OA 
HETATM   18  C   UNL     1     -11.534  12.915  68.226  1.00  0.00    -0.348 A  
HETATM   19  H   UNL     1     -13.033  10.964  68.855  1.00  0.00     0.000 HD 
ENDBRANCH   7  10
ENDBRANCH   6   7
ENDBRANCH   4   6
ENDBRANCH   2   4
TORSDOF 4
ENDMDL
MODEL      188
REMARK 921   NORMALIZED FREE ENERGY PREDICTED BY IDOCK:   -3.64 KCAL/MOL
REMARK 922        TOTAL FREE ENERGY PREDICTED BY IDOCK:   -4.77 KCAL/MOL
REMARK 923 INTER-LIGAND FREE ENERGY PREDICTED BY IDOCK:   -4.43 KCAL/MOL
REMARK 924 INTRA-LIGAND FREE ENERGY PREDICTED BY IDOCK:   -0.34 KCAL/MOL
REMARK 927      BINDING AFFINITY PREDICTED BY RF-SCORE:    0.00 PKD
ROOT
HETATM    1  C   UNL     1      -9.615   5.129  70.951  1.00  0.00    -0.235 C  
HETATM    2  C   UNL     1     -10.581   5.721  69.924  1.00  0.00    -0.318 C  
HETATM    3  C   UNL     1     -11.571   6.653  70.630  1.00  0.00    -0.439 C  
ENDROOT
BRANCH   2   4
HETATM    4  N   UNL     1      -9.808   6.424  68.891  1.00  0.00    -0.135 NA 
HETATM    5  H   UNL     1      -9.294   5.768  68.303  1.00  0.00     0.000 HD 
BRANCH   4   6
HETATM    6  C   UNL     1     -10.652   7.319  68.079  1.00  0.00    -0.189 C  
BRANCH   6   7
HETATM    7  C   UNL     1      -9.895   8.565  67.561  1.00  0.00    -0.177 C  
HETATM    8  H   UNL     1      -9.256   9.226  65.824  1.00  0.00     0.000 HD 
HETATM    9  O   UNL     1      -9.722   8.461  66.143  1.00  0.00    -0.224 OA 
BRANCH   7  10
HETATM   10  C   UNL     1     -10.603   9.873  67.885  1.00  0.00    -0.303 A  
HETATM   11  C   UNL     1     -10.910  10.773  66.849  1.00  0.00    -0.288 A  
HETATM   12  C   UNL     1     -11.535  11.987  67.141  1.00  0.00    -0.335 A  
HETATM   13  C   UNL     1     -11.874  12.329  68.444  1.00  0.00    -0.358 A  
HETATM   14  O   UNL     1     -11.833  12.889  66.160  1.00  0.00    -0.387 OA 
HETATM   15  H   UNL     1     -12.258  13.714  66.359  1.00  0.00     0.000 HD 
HETATM   16  C   UNL     1     -11.594  11.433  69.464  1.00  0.00    -0.331 A  
HETATM   17  O   UNL     1     -11.902  11.707  70.763  1.00  0.00    -0.435 OA 
HETATM   18  C   UNL     1     -10.978  10.214  69.196  1.00  0.00    -0.270 A  
HETATM   19  H   UNL     1     -11.711  11.093  71.463  1.00  0.00     0.000 HD 
ENDBRANCH   7  10
ENDBRANCH   6   7
ENDBRANCH   4   6
ENDBRANCH   2   4
TORSDOF 4
ENDMDL
MODEL      189
REMARK 921   NORMALIZED FREE ENERGY PREDICTED BY IDOCK:   -3.63 KCAL/MOL
REMARK 922        TOTAL FREE ENERGY PREDICTED BY IDOCK:   -4.76 KCAL/MOL
REMARK 923 INTER-LIGAND FREE ENERGY PREDICTED BY IDOCK:   -4.53 KCAL/MOL
REMARK 924 INTRA-LIGAND FREE ENERGY PREDICTED BY IDOCK:   -0.22 KCAL/MOL
REMARK 927      BINDING AFFINITY PREDICTED BY RF-SCORE:    0.00 PKD
ROOT
HETATM    1  C   UNL     1     -10.272   6.427  70.721  1.00  0.00    -0.228 C  
HETATM    2  C   UNL     1     -10.668   7.903  70.749  1.00  0.00    -0.223 C  
HETATM    3  C   UNL     1      -9.661   8.689  71.594  1.00  0.00    -0.344 C  
ENDROOT
BRANCH   2   4
HETATM    4  N   UNL     1     -10.735   8.406  69.370  1.00  0.00    -0.350 NA 
HETATM    5  H   UNL     1     -11.470   9.106  69.266  1.00  0.00     0.000 HD 
BRANCH   4   6
HETATM    6  C   UNL     1      -9.436   8.924  68.905  1.00  0.00    -0.152 C  
BRANCH   6   7
HETATM    7  C   UNL     1      -9.522   9.642  67.536  1.00  0.00    -0.134 C  
HETATM    8  H   UNL     1     -10.107   9.182  65.718  1.00  0.00     0.000 HD 
HETATM    9  O   UNL     1     -10.055   8.741  66.559  1.00  0.00    -0.274 OA 
BRANCH   7  10
HETATM   10  C   UNL     1     -10.374  10.903  67.573  1.00  0.00    -0.237 A  
HETATM   11  C   UNL     1     -10.427  11.672  68.749  1.00  0.00    -0.226 A  
HETATM   12  C   UNL     1     -11.228  12.816  68.800  1.00  0.00    -0.283 A  
HETATM   13  C   UNL     1     -11.975  13.223  67.702  1.00  0.00    -0.366 A  
HETATM   14  O   UNL     1     -11.312  13.576  69.930  1.00  0.00    -0.461 OA 
HETATM   15  H   UNL     1     -11.857  14.353  69.964  1.00  0.00     0.000 HD 
HETATM   16  C   UNL     1     -11.906  12.479  66.533  1.00  0.00    -0.367 A  
HETATM   17  O   UNL     1     -12.613  12.824  65.421  1.00  0.00    -0.607 OA 
HETATM   18  C   UNL     1     -11.109  11.340  66.458  1.00  0.00    -0.280 A  
HETATM   19  H   UNL     1     -12.565  12.315  64.620  1.00  0.00     0.000 HD 
ENDBRANCH   7  10
ENDBRANCH   6   7
ENDBRANCH   4   6
ENDBRANCH   2   4
TORSDOF 4
ENDMDL
MODEL      190
REMARK 921   NORMALIZED FREE ENERGY PREDICTED BY IDOCK:   -3.62 KCAL/MOL
REMARK 922        TOTAL FREE ENERGY PREDICTED BY IDOCK:   -4.75 KCAL/MOL
REMARK 923 INTER-LIGAND FREE ENERGY PREDICTED BY IDOCK:   -4.44 KCAL/MOL
REMARK 924 INTRA-LIGAND FREE ENERGY PREDICTED BY IDOCK:   -0.31 KCAL/MOL
REMARK 927      BINDING AFFINITY PREDICTED BY RF-SCORE:    0.00 PKD
ROOT
HETATM    1  C   UNL     1      -8.744  14.843  68.450  1.00  0.00    -0.172 C  
HETATM    2  C   UNL     1      -9.919  14.545  67.519  1.00  0.00    -0.224 C  
HETATM    3  C   UNL     1     -10.471  15.857  66.953  1.00  0.00    -0.309 C  
ENDROOT
BRANCH   2   4
HETATM    4  N   UNL     1      -9.467  13.637  66.455  1.00  0.00    -0.387 NA 
HETATM    5  H   UNL     1      -9.220  12.721  66.830  1.00  0.00     0.000 HD 
BRANCH   4   6
HETATM    6  C   UNL     1     -10.456  13.520  65.368  1.00  0.00    -0.315 C  
BRANCH   6   7
HETATM    7  C   UNL     1     -11.526  12.435  65.634  1.00  0.00    -0.367 C  
HETATM    8  H   UNL     1     -12.943  11.546  64.604  1.00  0.00     0.000 HD 
HETATM    9  O   UNL     1     -12.286  12.212  64.441  1.00  0.00    -0.385 OA 
BRANCH   7  10
HETATM   10  C   UNL     1     -10.935  11.113  66.106  1.00  0.00    -0.203 A  
HETATM   11  C   UNL     1     -10.028  10.423  65.282  1.00  0.00    -0.376 A  
HETATM   12  C   UNL     1      -9.502   9.197  65.696  1.00  0.00    -0.240 A  
HETATM   13  C   UNL     1      -9.848   8.640  66.920  1.00  0.00    -0.305 A  
HETATM   14  O   UNL     1      -8.631   8.496  64.913  1.00  0.00    -0.266 OA 
HETATM   15  H   UNL     1      -8.273   7.662  65.195  1.00  0.00     0.000 HD 
HETATM   16  C   UNL     1     -10.723   9.330  67.745  1.00  0.00    -0.207 A  
HETATM   17  O   UNL     1     -11.103   8.839  68.958  1.00  0.00    -0.437 OA 
HETATM   18  C   UNL     1     -11.254  10.557  67.356  1.00  0.00    -0.249 A  
HETATM   19  H   UNL     1     -11.702   9.312  69.524  1.00  0.00     0.000 HD 
ENDBRANCH   7  10
ENDBRANCH   6   7
ENDBRANCH   4   6
ENDBRANCH   2   4
TORSDOF 4
ENDMDL
MODEL      191
REMARK 921   NORMALIZED FREE ENERGY PREDICTED BY IDOCK:   -3.62 KCAL/MOL
REMARK 922        TOTAL FREE ENERGY PREDICTED BY IDOCK:   -4.75 KCAL/MOL
REMARK 923 INTER-LIGAND FREE ENERGY PREDICTED BY IDOCK:   -4.36 KCAL/MOL
REMARK 924 INTRA-LIGAND FREE ENERGY PREDICTED BY IDOCK:   -0.38 KCAL/MOL
REMARK 927      BINDING AFFINITY PREDICTED BY RF-SCORE:    0.00 PKD
ROOT
HETATM    1  C   UNL     1      -7.610   9.626  70.225  1.00  0.00    -0.175 C  
HETATM    2  C   UNL     1      -8.463   8.602  69.476  1.00  0.00    -0.129 C  
HETATM    3  C   UNL     1      -7.637   7.337  69.220  1.00  0.00    -0.102 C  
ENDROOT
BRANCH   2   4
HETATM    4  N   UNL     1      -9.670   8.318  70.263  1.00  0.00    -0.174 NA 
HETATM    5  H   UNL     1      -9.481   7.635  70.997  1.00  0.00     0.000 HD 
BRANCH   4   6
HETATM    6  C   UNL     1     -10.272   9.544  70.817  1.00  0.00    -0.293 C  
BRANCH   6   7
HETATM    7  C   UNL     1     -11.657   9.871  70.208  1.00  0.00    -0.250 C  
HETATM    8  H   UNL     1     -13.373  10.569  70.860  1.00  0.00     0.000 HD 
HETATM    9  O   UNL     1     -12.523  10.369  71.234  1.00  0.00    -0.345 OA 
BRANCH   7  10
HETATM   10  C   UNL     1     -11.588  10.885  69.075  1.00  0.00    -0.387 A  
HETATM   11  C   UNL     1     -11.976  12.216  69.307  1.00  0.00    -0.318 A  
HETATM   12  C   UNL     1     -11.940  13.146  68.266  1.00  0.00    -0.291 A  
HETATM   13  C   UNL     1     -11.518  12.788  66.992  1.00  0.00    -0.397 A  
HETATM   14  O   UNL     1     -12.324  14.442  68.455  1.00  0.00    -0.588 OA 
HETATM   15  H   UNL     1     -12.300  15.074  67.747  1.00  0.00     0.000 HD 
HETATM   16  C   UNL     1     -11.112  11.481  66.766  1.00  0.00    -0.302 A  
HETATM   17  O   UNL     1     -10.685  11.065  65.540  1.00  0.00    -0.232 OA 
HETATM   18  C   UNL     1     -11.131  10.539  67.791  1.00  0.00    -0.382 A  
HETATM   19  H   UNL     1     -10.407  10.170  65.385  1.00  0.00     0.000 HD 
ENDBRANCH   7  10
ENDBRANCH   6   7
ENDBRANCH   4   6
ENDBRANCH   2   4
TORSDOF 4
ENDMDL
MODEL      192
REMARK 921   NORMALIZED FREE ENERGY PREDICTED BY IDOCK:   -3.62 KCAL/MOL
REMARK 922        TOTAL FREE ENERGY PREDICTED BY IDOCK:   -4.74 KCAL/MOL
REMARK 923 INTER-LIGAND FREE ENERGY PREDICTED BY IDOCK:   -4.48 KCAL/MOL
REMARK 924 INTRA-LIGAND FREE ENERGY PREDICTED BY IDOCK:   -0.26 KCAL/MOL
REMARK 927      BINDING AFFINITY PREDICTED BY RF-SCORE:    0.00 PKD
ROOT
HETATM    1  C   UNL     1      -5.293  13.513  69.267  1.00  0.00    -0.074 C  
HETATM    2  C   UNL     1      -6.350  14.423  69.894  1.00  0.00    -0.155 C  
HETATM    3  C   UNL     1      -6.002  15.887  69.606  1.00  0.00    -0.154 C  
ENDROOT
BRANCH   2   4
HETATM    4  N   UNL     1      -7.671  14.060  69.362  1.00  0.00    -0.338 NA 
HETATM    5  H   UNL     1      -8.376  14.046  70.099  1.00  0.00     0.000 HD 
BRANCH   4   6
HETATM    6  C   UNL     1      -8.080  14.934  68.249  1.00  0.00    -0.132 C  
BRANCH   6   7
HETATM    7  C   UNL     1      -9.615  15.039  68.090  1.00  0.00    -0.207 C  
HETATM    8  H   UNL     1     -11.163  15.243  69.283  1.00  0.00     0.000 HD 
HETATM    9  O   UNL     1     -10.219  15.179  69.381  1.00  0.00    -0.228 OA 
BRANCH   7  10
HETATM   10  C   UNL     1     -10.048  16.199  67.205  1.00  0.00    -0.269 A  
HETATM   11  C   UNL     1      -9.999  17.513  67.705  1.00  0.00    -0.312 A  
HETATM   12  C   UNL     1     -10.419  18.580  66.909  1.00  0.00    -0.396 A  
HETATM   13  C   UNL     1     -10.882  18.377  65.615  1.00  0.00     0.055 A  
HETATM   14  O   UNL     1     -10.397  19.864  67.370  1.00  0.00    -0.412 OA 
HETATM   15  H   UNL     1     -10.683  20.590  66.829  1.00  0.00     0.000 HD 
HETATM   16  C   UNL     1     -10.909  17.085  65.111  1.00  0.00    -0.049 A  
HETATM   17  O   UNL     1     -11.351  16.818  63.849  1.00  0.00    -1.436 OA 
HETATM   18  C   UNL     1     -10.488  16.007  65.884  1.00  0.00    -0.373 A  
HETATM   19  H   UNL     1     -11.370  15.933  63.503  1.00  0.00     0.000 HD 
ENDBRANCH   7  10
ENDBRANCH   6   7
ENDBRANCH   4   6
ENDBRANCH   2   4
TORSDOF 4
ENDMDL
MODEL      193
REMARK 921   NORMALIZED FREE ENERGY PREDICTED BY IDOCK:   -3.61 KCAL/MOL
REMARK 922        TOTAL FREE ENERGY PREDICTED BY IDOCK:   -4.73 KCAL/MOL
REMARK 923 INTER-LIGAND FREE ENERGY PREDICTED BY IDOCK:   -4.46 KCAL/MOL
REMARK 924 INTRA-LIGAND FREE ENERGY PREDICTED BY IDOCK:   -0.27 KCAL/MOL
REMARK 927      BINDING AFFINITY PREDICTED BY RF-SCORE:    0.00 PKD
ROOT
HETATM    1  C   UNL     1     -10.552   4.345  73.881  1.00  0.00    -0.326 C  
HETATM    2  C   UNL     1     -10.434   5.581  72.988  1.00  0.00    -0.212 C  
HETATM    3  C   UNL     1      -9.776   5.193  71.660  1.00  0.00    -0.217 C  
ENDROOT
BRANCH   2   4
HETATM    4  N   UNL     1     -11.772   6.156  72.789  1.00  0.00    -0.508 NA 
HETATM    5  H   UNL     1     -12.434   5.800  73.478  1.00  0.00     0.000 HD 
BRANCH   4   6
HETATM    6  C   UNL     1     -11.747   7.629  72.784  1.00  0.00    -0.223 C  
BRANCH   6   7
HETATM    7  C   UNL     1     -12.677   8.250  71.715  1.00  0.00    -0.336 C  
HETATM    8  H   UNL     1     -14.416   9.165  71.693  1.00  0.00     0.000 HD 
HETATM    9  O   UNL     1     -13.844   8.784  72.350  1.00  0.00    -0.428 OA 
BRANCH   7  10
HETATM   10  C   UNL     1     -12.005   9.346  70.900  1.00  0.00    -0.351 A  
HETATM   11  C   UNL     1     -12.571  10.633  70.863  1.00  0.00    -0.503 A  
HETATM   12  C   UNL     1     -11.975  11.637  70.096  1.00  0.00    -0.359 A  
HETATM   13  C   UNL     1     -10.817  11.397  69.368  1.00  0.00    -0.214 A  
HETATM   14  O   UNL     1     -12.508  12.891  70.028  1.00  0.00    -0.157 OA 
HETATM   15  H   UNL     1     -12.102  13.574  69.506  1.00  0.00     0.000 HD 
HETATM   16  C   UNL     1     -10.243  10.136  69.422  1.00  0.00    -0.227 A  
HETATM   17  O   UNL     1      -9.106   9.835  68.732  1.00  0.00    -0.130 OA 
HETATM   18  C   UNL     1     -10.815   9.122  70.185  1.00  0.00    -0.269 A  
HETATM   19  H   UNL     1      -8.712   8.971  68.769  1.00  0.00     0.000 HD 
ENDBRANCH   7  10
ENDBRANCH   6   7
ENDBRANCH   4   6
ENDBRANCH   2   4
TORSDOF 4
ENDMDL
MODEL      194
REMARK 921   NORMALIZED FREE ENERGY PREDICTED BY IDOCK:   -3.60 KCAL/MOL
REMARK 922        TOTAL FREE ENERGY PREDICTED BY IDOCK:   -4.73 KCAL/MOL
REMARK 923 INTER-LIGAND FREE ENERGY PREDICTED BY IDOCK:   -4.48 KCAL/MOL
REMARK 924 INTRA-LIGAND FREE ENERGY PREDICTED BY IDOCK:   -0.25 KCAL/MOL
REMARK 927      BINDING AFFINITY PREDICTED BY RF-SCORE:    0.00 PKD
ROOT
HETATM    1  C   UNL     1      -8.300   8.623  70.512  1.00  0.00    -0.147 C  
HETATM    2  C   UNL     1      -9.019   9.387  69.399  1.00  0.00    -0.157 C  
HETATM    3  C   UNL     1     -10.140   8.517  68.823  1.00  0.00    -0.210 C  
ENDROOT
BRANCH   2   4
HETATM    4  N   UNL     1      -9.532  10.652  69.943  1.00  0.00    -0.326 NA 
HETATM    5  H   UNL     1      -8.958  11.442  69.647  1.00  0.00     0.000 HD 
BRANCH   4   6
HETATM    6  C   UNL     1     -10.950  10.867  69.604  1.00  0.00    -0.252 C  
BRANCH   6   7
HETATM    7  C   UNL     1     -11.180  12.101  68.700  1.00  0.00    -0.269 C  
HETATM    8  H   UNL     1     -12.396  12.592  67.237  1.00  0.00     0.000 HD 
HETATM    9  O   UNL     1     -12.256  11.834  67.793  1.00  0.00    -0.536 OA 
BRANCH   7  10
HETATM   10  C   UNL     1     -11.488  13.369  69.484  1.00  0.00    -0.308 A  
HETATM   11  C   UNL     1     -12.513  13.360  70.447  1.00  0.00    -0.322 A  
HETATM   12  C   UNL     1     -12.819  14.526  71.152  1.00  0.00    -0.338 A  
HETATM   13  C   UNL     1     -12.123  15.708  70.929  1.00  0.00    -0.452 A  
HETATM   14  O   UNL     1     -13.817  14.554  72.082  1.00  0.00    -0.396 OA 
HETATM   15  H   UNL     1     -14.026  15.347  72.561  1.00  0.00     0.000 HD 
HETATM   16  C   UNL     1     -11.096  15.713  69.997  1.00  0.00    -0.324 A  
HETATM   17  O   UNL     1     -10.374  16.838  69.733  1.00  0.00    -0.198 OA 
HETATM   18  C   UNL     1     -10.768  14.561  69.289  1.00  0.00    -0.241 A  
HETATM   19  H   UNL     1      -9.670  16.843  69.095  1.00  0.00     0.000 HD 
ENDBRANCH   7  10
ENDBRANCH   6   7
ENDBRANCH   4   6
ENDBRANCH   2   4
TORSDOF 4
ENDMDL
MODEL      195
REMARK 921   NORMALIZED FREE ENERGY PREDICTED BY IDOCK:   -3.60 KCAL/MOL
REMARK 922        TOTAL FREE ENERGY PREDICTED BY IDOCK:   -4.73 KCAL/MOL
REMARK 923 INTER-LIGAND FREE ENERGY PREDICTED BY IDOCK:   -4.44 KCAL/MOL
REMARK 924 INTRA-LIGAND FREE ENERGY PREDICTED BY IDOCK:   -0.29 KCAL/MOL
REMARK 927      BINDING AFFINITY PREDICTED BY RF-SCORE:    0.00 PKD
ROOT
HETATM    1  C   UNL     1     -12.628  14.466  70.363  1.00  0.00    -0.405 C  
HETATM    2  C   UNL     1     -12.087  15.746  71.003  1.00  0.00    -0.418 C  
HETATM    3  C   UNL     1     -12.148  15.621  72.529  1.00  0.00    -0.563 C  
ENDROOT
BRANCH   2   4
HETATM    4  N   UNL     1     -10.716  15.975  70.527  1.00  0.00    -0.218 NA 
HETATM    5  H   UNL     1     -10.030  15.725  71.240  1.00  0.00     0.000 HD 
BRANCH   4   6
HETATM    6  C   UNL     1     -10.445  15.278  69.258  1.00  0.00    -0.258 C  
BRANCH   6   7
HETATM    7  C   UNL     1      -9.864  16.207  68.165  1.00  0.00    -0.227 C  
HETATM    8  H   UNL     1     -10.488  17.755  67.129  1.00  0.00     0.000 HD 
HETATM    9  O   UNL     1     -10.845  17.185  67.801  1.00  0.00    -0.348 OA 
BRANCH   7  10
HETATM   10  C   UNL     1      -8.587  16.914  68.597  1.00  0.00    -0.267 A  
HETATM   11  C   UNL     1      -8.475  18.307  68.437  1.00  0.00    -0.319 A  
HETATM   12  C   UNL     1      -7.297  18.960  68.807  1.00  0.00    -0.322 A  
HETATM   13  C   UNL     1      -6.223  18.261  69.343  1.00  0.00    -0.261 A  
HETATM   14  O   UNL     1      -7.151  20.308  68.651  1.00  0.00    -0.242 OA 
HETATM   15  H   UNL     1      -6.350  20.751  68.902  1.00  0.00     0.000 HD 
HETATM   16  C   UNL     1      -6.340  16.891  69.525  1.00  0.00    -0.233 A  
HETATM   17  O   UNL     1      -5.323  16.148  70.047  1.00  0.00    -0.137 OA 
HETATM   18  C   UNL     1      -7.507  16.221  69.170  1.00  0.00    -0.218 A  
HETATM   19  H   UNL     1      -5.403  15.209  70.171  1.00  0.00     0.000 HD 
ENDBRANCH   7  10
ENDBRANCH   6   7
ENDBRANCH   4   6
ENDBRANCH   2   4
TORSDOF 4
ENDMDL
MODEL      196
REMARK 921   NORMALIZED FREE ENERGY PREDICTED BY IDOCK:   -3.58 KCAL/MOL
REMARK 922        TOTAL FREE ENERGY PREDICTED BY IDOCK:   -4.70 KCAL/MOL
REMARK 923 INTER-LIGAND FREE ENERGY PREDICTED BY IDOCK:   -4.32 KCAL/MOL
REMARK 924 INTRA-LIGAND FREE ENERGY PREDICTED BY IDOCK:   -0.38 KCAL/MOL
REMARK 927      BINDING AFFINITY PREDICTED BY RF-SCORE:    0.00 PKD
ROOT
HETATM    1  C   UNL     1     -11.062   8.458  72.239  1.00  0.00    -0.438 C  
HETATM    2  C   UNL     1     -12.368   8.881  71.567  1.00  0.00    -0.324 C  
HETATM    3  C   UNL     1     -12.872  10.182  72.200  1.00  0.00    -0.381 C  
ENDROOT
BRANCH   2   4
HETATM    4  N   UNL     1     -12.137   9.030  70.123  1.00  0.00    -0.312 NA 
HETATM    5  H   UNL     1     -12.933   9.474  69.665  1.00  0.00     0.000 HD 
BRANCH   4   6
HETATM    6  C   UNL     1     -10.884   9.751  69.834  1.00  0.00    -0.272 C  
BRANCH   6   7
HETATM    7  C   UNL     1     -10.279   9.390  68.456  1.00  0.00    -0.199 C  
HETATM    8  H   UNL     1      -8.617   9.777  67.482  1.00  0.00     0.000 HD 
HETATM    9  O   UNL     1      -8.989   9.999  68.329  1.00  0.00    -0.118 OA 
BRANCH   7  10
HETATM   10  C   UNL     1     -10.149   7.889  68.234  1.00  0.00    -0.225 A  
HETATM   11  C   UNL     1      -9.393   7.115  69.132  1.00  0.00    -0.141 A  
HETATM   12  C   UNL     1      -9.248   5.742  68.920  1.00  0.00    -0.115 A  
HETATM   13  C   UNL     1      -9.846   5.112  67.837  1.00  0.00    -0.199 A  
HETATM   14  O   UNL     1      -8.509   4.966  69.765  1.00  0.00    -0.082 OA 
HETATM   15  H   UNL     1      -8.410   4.033  69.621  1.00  0.00     0.000 HD 
HETATM   16  C   UNL     1     -10.612   5.869  66.962  1.00  0.00    -0.305 A  
HETATM   17  O   UNL     1     -11.225   5.312  65.880  1.00  0.00    -0.796 OA 
HETATM   18  C   UNL     1     -10.776   7.237  67.158  1.00  0.00    -0.413 A  
HETATM   19  H   UNL     1     -11.750   5.830  65.281  1.00  0.00     0.000 HD 
ENDBRANCH   7  10
ENDBRANCH   6   7
ENDBRANCH   4   6
ENDBRANCH   2   4
TORSDOF 4
ENDMDL
MODEL      197
REMARK 921   NORMALIZED FREE ENERGY PREDICTED BY IDOCK:   -3.57 KCAL/MOL
REMARK 922        TOTAL FREE ENERGY PREDICTED BY IDOCK:   -4.69 KCAL/MOL
REMARK 923 INTER-LIGAND FREE ENERGY PREDICTED BY IDOCK:   -4.47 KCAL/MOL
REMARK 924 INTRA-LIGAND FREE ENERGY PREDICTED BY IDOCK:   -0.23 KCAL/MOL
REMARK 927      BINDING AFFINITY PREDICTED BY RF-SCORE:    0.00 PKD
ROOT
HETATM    1  C   UNL     1     -12.215  14.073  71.185  1.00  0.00    -0.417 C  
HETATM    2  C   UNL     1     -12.701  12.813  70.467  1.00  0.00    -0.003 C  
HETATM    3  C   UNL     1     -11.698  12.426  69.376  1.00  0.00    -0.384 C  
ENDROOT
BRANCH   2   4
HETATM    4  N   UNL     1     -12.879  11.739  71.454  1.00  0.00    -0.386 NA 
HETATM    5  H   UNL     1     -13.735  11.871  71.994  1.00  0.00     0.000 HD 
BRANCH   4   6
HETATM    6  C   UNL     1     -12.840  10.403  70.833  1.00  0.00    -0.392 C  
BRANCH   6   7
HETATM    7  C   UNL     1     -12.999   9.252  71.855  1.00  0.00    -0.411 C  
HETATM    8  H   UNL     1     -14.320   7.847  72.228  1.00  0.00     0.000 HD 
HETATM    9  O   UNL     1     -14.222   8.553  71.600  1.00  0.00    -0.415 OA 
BRANCH   7  10
HETATM   10  C   UNL     1     -11.842   8.263  71.828  1.00  0.00    -0.357 A  
HETATM   11  C   UNL     1     -10.747   8.448  72.691  1.00  0.00    -0.312 A  
HETATM   12  C   UNL     1      -9.670   7.560  72.653  1.00  0.00    -0.178 A  
HETATM   13  C   UNL     1      -9.655   6.480  71.780  1.00  0.00    -0.158 A  
HETATM   14  O   UNL     1      -8.586   7.721  73.468  1.00  0.00    -0.175 OA 
HETATM   15  H   UNL     1      -7.854   7.117  73.442  1.00  0.00     0.000 HD 
HETATM   16  C   UNL     1     -10.744   6.282  70.945  1.00  0.00    -0.259 A  
HETATM   17  O   UNL     1     -10.793   5.241  70.066  1.00  0.00    -0.245 OA 
HETATM   18  C   UNL     1     -11.832   7.149  70.970  1.00  0.00    -0.373 A  
HETATM   19  H   UNL     1     -11.539   5.104  69.493  1.00  0.00     0.000 HD 
ENDBRANCH   7  10
ENDBRANCH   6   7
ENDBRANCH   4   6
ENDBRANCH   2   4
TORSDOF 4
ENDMDL
MODEL      198
REMARK 921   NORMALIZED FREE ENERGY PREDICTED BY IDOCK:   -3.57 KCAL/MOL
REMARK 922        TOTAL FREE ENERGY PREDICTED BY IDOCK:   -4.69 KCAL/MOL
REMARK 923 INTER-LIGAND FREE ENERGY PREDICTED BY IDOCK:   -4.42 KCAL/MOL
REMARK 924 INTRA-LIGAND FREE ENERGY PREDICTED BY IDOCK:   -0.27 KCAL/MOL
REMARK 927      BINDING AFFINITY PREDICTED BY RF-SCORE:    0.00 PKD
ROOT
HETATM    1  C   UNL     1     -13.896  14.003  72.054  1.00  0.00    -0.582 C  
HETATM    2  C   UNL     1     -13.347  15.265  71.386  1.00  0.00    -0.491 C  
HETATM    3  C   UNL     1     -12.166  15.803  72.202  1.00  0.00    -0.552 C  
ENDROOT
BRANCH   2   4
HETATM    4  N   UNL     1     -12.957  14.944  70.006  1.00  0.00    -0.603 NA 
HETATM    5  H   UNL     1     -13.414  15.566  69.339  1.00  0.00     0.000 HD 
BRANCH   4   6
HETATM    6  C   UNL     1     -11.494  14.951  69.827  1.00  0.00    -0.295 C  
BRANCH   6   7
HETATM    7  C   UNL     1     -11.054  15.464  68.435  1.00  0.00    -0.301 C  
HETATM    8  H   UNL     1     -11.110  17.169  67.460  1.00  0.00     0.000 HD 
HETATM    9  O   UNL     1     -11.380  16.854  68.315  1.00  0.00    -0.223 OA 
BRANCH   7  10
HETATM   10  C   UNL     1      -9.568  15.273  68.168  1.00  0.00    -0.204 A  
HETATM   11  C   UNL     1      -8.909  14.140  68.678  1.00  0.00    -0.132 A  
HETATM   12  C   UNL     1      -7.540  13.970  68.460  1.00  0.00    -0.130 A  
HETATM   13  C   UNL     1      -6.804  14.900  67.736  1.00  0.00    -0.193 A  
HETATM   14  O   UNL     1      -6.869  12.889  68.953  1.00  0.00    -0.093 OA 
HETATM   15  H   UNL     1      -5.938  12.774  68.805  1.00  0.00     0.000 HD 
HETATM   16  C   UNL     1      -7.456  16.006  67.212  1.00  0.00    -0.201 A  
HETATM   17  O   UNL     1      -6.792  16.954  66.492  1.00  0.00    -0.222 OA 
HETATM   18  C   UNL     1      -8.821  16.192  67.410  1.00  0.00    -0.199 A  
HETATM   19  H   UNL     1      -7.238  17.712  66.132  1.00  0.00     0.000 HD 
ENDBRANCH   7  10
ENDBRANCH   6   7
ENDBRANCH   4   6
ENDBRANCH   2   4
TORSDOF 4
ENDMDL
MODEL      199
REMARK 921   NORMALIZED FREE ENERGY PREDICTED BY IDOCK:   -3.56 KCAL/MOL
REMARK 922        TOTAL FREE ENERGY PREDICTED BY IDOCK:   -4.67 KCAL/MOL
REMARK 923 INTER-LIGAND FREE ENERGY PREDICTED BY IDOCK:   -4.46 KCAL/MOL
REMARK 924 INTRA-LIGAND FREE ENERGY PREDICTED BY IDOCK:   -0.21 KCAL/MOL
REMARK 927      BINDING AFFINITY PREDICTED BY RF-SCORE:    0.00 PKD
ROOT
HETATM    1  C   UNL     1     -12.736   9.401  71.935  1.00  0.00    -0.484 C  
HETATM    2  C   UNL     1     -11.510   8.540  71.628  1.00  0.00    -0.298 C  
HETATM    3  C   UNL     1     -11.103   7.763  72.885  1.00  0.00    -0.457 C  
ENDROOT
BRANCH   2   4
HETATM    4  N   UNL     1     -11.824   7.643  70.508  1.00  0.00    -0.488 NA 
HETATM    5  H   UNL     1     -12.750   7.839  70.125  1.00  0.00     0.000 HD 
BRANCH   4   6
HETATM    6  C   UNL     1     -10.793   7.686  69.456  1.00  0.00    -0.165 C  
BRANCH   6   7
HETATM    7  C   UNL     1      -9.818   6.485  69.511  1.00  0.00    -0.151 C  
HETATM    8  H   UNL     1      -9.691   4.795  70.504  1.00  0.00     0.000 HD 
HETATM    9  O   UNL     1     -10.290   5.532  70.470  1.00  0.00    -0.234 OA 
BRANCH   7  10
HETATM   10  C   UNL     1      -9.641   5.796  68.165  1.00  0.00    -0.132 A  
HETATM   11  C   UNL     1      -8.355   5.413  67.743  1.00  0.00    -0.099 A  
HETATM   12  C   UNL     1      -8.182   4.804  66.498  1.00  0.00    -0.107 A  
HETATM   13  C   UNL     1      -9.261   4.555  65.660  1.00  0.00    -0.149 A  
HETATM   14  O   UNL     1      -6.946   4.433  66.053  1.00  0.00    -0.063 OA 
HETATM   15  H   UNL     1      -6.828   4.020  65.207  1.00  0.00     0.000 HD 
HETATM   16  C   UNL     1     -10.532   4.910  66.084  1.00  0.00    -0.302 A  
HETATM   17  O   UNL     1     -11.633   4.693  65.309  1.00  0.00    -1.093 OA 
HETATM   18  C   UNL     1     -10.730   5.511  67.323  1.00  0.00    -0.243 A  
HETATM   19  H   UNL     1     -12.505   4.935  65.600  1.00  0.00     0.000 HD 
ENDBRANCH   7  10
ENDBRANCH   6   7
ENDBRANCH   4   6
ENDBRANCH   2   4
TORSDOF 4
ENDMDL
MODEL      200
REMARK 921   NORMALIZED FREE ENERGY PREDICTED BY IDOCK:   -3.56 KCAL/MOL
REMARK 922        TOTAL FREE ENERGY PREDICTED BY IDOCK:   -4.67 KCAL/MOL
REMARK 923 INTER-LIGAND FREE ENERGY PREDICTED BY IDOCK:   -4.43 KCAL/MOL
REMARK 924 INTRA-LIGAND FREE ENERGY PREDICTED BY IDOCK:   -0.24 KCAL/MOL
REMARK 927      BINDING AFFINITY PREDICTED BY RF-SCORE:    0.00 PKD
ROOT
HETATM    1  C   UNL     1     -12.374  15.048  72.413  1.00  0.00    -0.435 C  
HETATM    2  C   UNL     1     -12.591  14.611  70.963  1.00  0.00    -0.329 C  
HETATM    3  C   UNL     1     -11.506  15.228  70.074  1.00  0.00    -0.317 C  
ENDROOT
BRANCH   2   4
HETATM    4  N   UNL     1     -12.582  13.143  70.900  1.00  0.00    -0.330 NA 
HETATM    5  H   UNL     1     -13.523  12.773  70.770  1.00  0.00     0.000 HD 
BRANCH   4   6
HETATM    6  C   UNL     1     -11.662  12.638  69.865  1.00  0.00    -0.250 C  
BRANCH   6   7
HETATM    7  C   UNL     1     -11.975  11.187  69.428  1.00  0.00    -0.349 C  
HETATM    8  H   UNL     1     -12.278  10.241  67.733  1.00  0.00     0.000 HD 
HETATM    9  O   UNL     1     -12.086  11.132  68.001  1.00  0.00    -0.635 OA 
BRANCH   7  10
HETATM   10  C   UNL     1     -10.927  10.184  69.889  1.00  0.00    -0.344 A  
HETATM   11  C   UNL     1     -10.036   9.629  68.953  1.00  0.00    -0.186 A  
HETATM   12  C   UNL     1      -9.088   8.688  69.362  1.00  0.00    -0.149 A  
HETATM   13  C   UNL     1      -8.997   8.288  70.689  1.00  0.00    -0.161 A  
HETATM   14  O   UNL     1      -8.219   8.121  68.476  1.00  0.00    -0.122 OA 
HETATM   15  H   UNL     1      -7.575   7.481  68.755  1.00  0.00     0.000 HD 
HETATM   16  C   UNL     1      -9.858   8.851  71.619  1.00  0.00    -0.317 A  
HETATM   17  O   UNL     1      -9.820   8.502  72.936  1.00  0.00    -0.225 OA 
HETATM   18  C   UNL     1     -10.805   9.796  71.234  1.00  0.00    -0.276 A  
HETATM   19  H   UNL     1     -10.410   8.888  73.573  1.00  0.00     0.000 HD 
ENDBRANCH   7  10
ENDBRANCH   6   7
ENDBRANCH   4   6
ENDBRANCH   2   4
TORSDOF 4
ENDMDL
MODEL      201
REMARK 921   NORMALIZED FREE ENERGY PREDICTED BY IDOCK:   -3.53 KCAL/MOL
REMARK 922        TOTAL FREE ENERGY PREDICTED BY IDOCK:   -4.64 KCAL/MOL
REMARK 923 INTER-LIGAND FREE ENERGY PREDICTED BY IDOCK:   -4.34 KCAL/MOL
REMARK 924 INTRA-LIGAND FREE ENERGY PREDICTED BY IDOCK:   -0.30 KCAL/MOL
REMARK 927      BINDING AFFINITY PREDICTED BY RF-SCORE:    0.00 PKD
ROOT
HETATM    1  C   UNL     1      -9.645   5.081  68.694  1.00  0.00    -0.204 C  
HETATM    2  C   UNL     1      -9.758   5.643  67.276  1.00  0.00    -0.135 C  
HETATM    3  C   UNL     1     -11.020   6.505  67.166  1.00  0.00    -0.480 C  
ENDROOT
BRANCH   2   4
HETATM    4  N   UNL     1      -8.543   6.409  66.968  1.00  0.00    -0.111 NA 
HETATM    5  H   UNL     1      -7.775   5.793  66.700  1.00  0.00     0.000 HD 
BRANCH   4   6
HETATM    6  C   UNL     1      -8.782   7.441  65.943  1.00  0.00    -0.140 C  
BRANCH   6   7
HETATM    7  C   UNL     1      -8.425   8.868  66.421  1.00  0.00    -0.117 C  
HETATM    8  H   UNL     1      -6.869  10.063  66.308  1.00  0.00     0.000 HD 
HETATM    9  O   UNL     1      -7.089   9.187  66.014  1.00  0.00    -0.087 OA 
BRANCH   7  10
HETATM   10  C   UNL     1      -9.377   9.933  65.894  1.00  0.00    -0.245 A  
HETATM   11  C   UNL     1     -10.215  10.622  66.788  1.00  0.00    -0.284 A  
HETATM   12  C   UNL     1     -11.110  11.581  66.309  1.00  0.00    -0.263 A  
HETATM   13  C   UNL     1     -11.188  11.882  64.955  1.00  0.00    -0.350 A  
HETATM   14  O   UNL     1     -11.947  12.256  67.149  1.00  0.00    -0.564 OA 
HETATM   15  H   UNL     1     -12.556  12.908  66.823  1.00  0.00     0.000 HD 
HETATM   16  C   UNL     1     -10.345  11.221  64.074  1.00  0.00    -0.371 A  
HETATM   17  O   UNL     1     -10.371  11.471  62.734  1.00  0.00    -0.630 OA 
HETATM   18  C   UNL     1      -9.440  10.267  64.530  1.00  0.00    -0.356 A  
HETATM   19  H   UNL     1      -9.793  11.019  62.130  1.00  0.00     0.000 HD 
ENDBRANCH   7  10
ENDBRANCH   6   7
ENDBRANCH   4   6
ENDBRANCH   2   4
TORSDOF 4
ENDMDL
MODEL      202
REMARK 921   NORMALIZED FREE ENERGY PREDICTED BY IDOCK:   -3.51 KCAL/MOL
REMARK 922        TOTAL FREE ENERGY PREDICTED BY IDOCK:   -4.61 KCAL/MOL
REMARK 923 INTER-LIGAND FREE ENERGY PREDICTED BY IDOCK:   -4.42 KCAL/MOL
REMARK 924 INTRA-LIGAND FREE ENERGY PREDICTED BY IDOCK:   -0.19 KCAL/MOL
REMARK 927      BINDING AFFINITY PREDICTED BY RF-SCORE:    0.00 PKD
ROOT
HETATM    1  C   UNL     1     -10.998   3.916  64.661  1.00  0.00     0.021 C  
HETATM    2  C   UNL     1     -10.258   4.667  65.768  1.00  0.00    -0.258 C  
HETATM    3  C   UNL     1      -8.937   5.216  65.220  1.00  0.00    -0.144 C  
ENDROOT
BRANCH   2   4
HETATM    4  N   UNL     1     -11.124   5.737  66.281  1.00  0.00    -0.755 NA 
HETATM    5  H   UNL     1     -12.054   5.383  66.509  1.00  0.00     0.000 HD 
BRANCH   4   6
HETATM    6  C   UNL     1     -10.523   6.434  67.432  1.00  0.00    -0.252 C  
BRANCH   6   7
HETATM    7  C   UNL     1     -10.928   5.822  68.794  1.00  0.00    -0.153 C  
HETATM    8  H   UNL     1     -10.293   4.364  69.948  1.00  0.00     0.000 HD 
HETATM    9  O   UNL     1     -10.044   4.741  69.112  1.00  0.00    -0.192 OA 
BRANCH   7  10
HETATM   10  C   UNL     1     -10.913   6.832  69.933  1.00  0.00    -0.340 A  
HETATM   11  C   UNL     1     -10.909   8.208  69.642  1.00  0.00    -0.162 A  
HETATM   12  C   UNL     1     -10.869   9.141  70.681  1.00  0.00    -0.264 A  
HETATM   13  C   UNL     1     -10.843   8.740  72.011  1.00  0.00    -0.428 A  
HETATM   14  O   UNL     1     -10.849  10.483  70.433  1.00  0.00    -0.425 OA 
HETATM   15  H   UNL     1     -10.822  11.117  71.139  1.00  0.00     0.000 HD 
HETATM   16  C   UNL     1     -10.871   7.384  72.300  1.00  0.00    -0.247 A  
HETATM   17  O   UNL     1     -10.848   6.925  73.583  1.00  0.00    -0.502 OA 
HETATM   18  C   UNL     1     -10.919   6.437  71.282  1.00  0.00    -0.321 A  
HETATM   19  H   UNL     1     -10.868   5.996  73.782  1.00  0.00     0.000 HD 
ENDBRANCH   7  10
ENDBRANCH   6   7
ENDBRANCH   4   6
ENDBRANCH   2   4
TORSDOF 4
ENDMDL
MODEL      203
REMARK 921   NORMALIZED FREE ENERGY PREDICTED BY IDOCK:   -3.51 KCAL/MOL
REMARK 922        TOTAL FREE ENERGY PREDICTED BY IDOCK:   -4.61 KCAL/MOL
REMARK 923 INTER-LIGAND FREE ENERGY PREDICTED BY IDOCK:   -4.21 KCAL/MOL
REMARK 924 INTRA-LIGAND FREE ENERGY PREDICTED BY IDOCK:   -0.40 KCAL/MOL
REMARK 927      BINDING AFFINITY PREDICTED BY RF-SCORE:    0.00 PKD
ROOT
HETATM    1  C   UNL     1     -11.560  15.864  70.813  1.00  0.00    -0.441 C  
HETATM    2  C   UNL     1     -11.987  14.419  70.552  1.00  0.00    -0.325 C  
HETATM    3  C   UNL     1     -12.920  13.951  71.674  1.00  0.00    -0.433 C  
ENDROOT
BRANCH   2   4
HETATM    4  N   UNL     1     -12.635  14.343  69.235  1.00  0.00    -0.522 NA 
HETATM    5  H   UNL     1     -13.504  14.877  69.218  1.00  0.00     0.000 HD 
BRANCH   4   6
HETATM    6  C   UNL     1     -11.731  14.760  68.148  1.00  0.00    -0.325 C  
BRANCH   6   7
HETATM    7  C   UNL     1     -10.537  13.797  67.946  1.00  0.00    -0.252 C  
HETATM    8  H   UNL     1     -10.044  12.383  66.674  1.00  0.00     0.000 HD 
HETATM    9  O   UNL     1     -10.777  12.975  66.798  1.00  0.00    -0.260 OA 
BRANCH   7  10
HETATM   10  C   UNL     1      -9.207  14.520  67.775  1.00  0.00    -0.194 A  
HETATM   11  C   UNL     1      -9.186  15.921  67.666  1.00  0.00    -0.208 A  
HETATM   12  C   UNL     1      -7.973  16.589  67.484  1.00  0.00    -0.158 A  
HETATM   13  C   UNL     1      -6.771  15.896  67.414  1.00  0.00    -0.229 A  
HETATM   14  O   UNL     1      -7.919  17.947  67.360  1.00  0.00    -0.209 OA 
HETATM   15  H   UNL     1      -7.095  18.401  67.235  1.00  0.00     0.000 HD 
HETATM   16  C   UNL     1      -6.787  14.516  67.545  1.00  0.00    -0.143 A  
HETATM   17  O   UNL     1      -5.643  13.777  67.487  1.00  0.00    -0.336 OA 
HETATM   18  C   UNL     1      -7.983  13.830  67.736  1.00  0.00    -0.170 A  
HETATM   19  H   UNL     1      -5.654  12.831  67.577  1.00  0.00     0.000 HD 
ENDBRANCH   7  10
ENDBRANCH   6   7
ENDBRANCH   4   6
ENDBRANCH   2   4
TORSDOF 4
ENDMDL
MODEL      204
REMARK 921   NORMALIZED FREE ENERGY PREDICTED BY IDOCK:   -3.51 KCAL/MOL
REMARK 922        TOTAL FREE ENERGY PREDICTED BY IDOCK:   -4.61 KCAL/MOL
REMARK 923 INTER-LIGAND FREE ENERGY PREDICTED BY IDOCK:   -4.34 KCAL/MOL
REMARK 924 INTRA-LIGAND FREE ENERGY PREDICTED BY IDOCK:   -0.27 KCAL/MOL
REMARK 927      BINDING AFFINITY PREDICTED BY RF-SCORE:    0.00 PKD
ROOT
HETATM    1  C   UNL     1     -13.897  14.005  72.055  1.00  0.00    -0.582 C  
HETATM    2  C   UNL     1     -13.351  15.275  71.403  1.00  0.00    -0.491 C  
HETATM    3  C   UNL     1     -12.180  15.814  72.232  1.00  0.00    -0.555 C  
ENDROOT
BRANCH   2   4
HETATM    4  N   UNL     1     -12.949  14.969  70.023  1.00  0.00    -0.620 NA 
HETATM    5  H   UNL     1     -13.406  15.594  69.358  1.00  0.00     0.000 HD 
BRANCH   4   6
HETATM    6  C   UNL     1     -11.485  14.988  69.854  1.00  0.00    -0.289 C  
BRANCH   6   7
HETATM    7  C   UNL     1     -11.039  15.524  68.472  1.00  0.00    -0.307 C  
HETATM    8  H   UNL     1     -11.103  17.241  67.520  1.00  0.00     0.000 HD 
HETATM    9  O   UNL     1     -11.377  16.912  68.368  1.00  0.00    -0.230 OA 
BRANCH   7  10
HETATM   10  C   UNL     1      -9.549  15.350  68.215  1.00  0.00    -0.205 A  
HETATM   11  C   UNL     1      -8.910  16.154  67.254  1.00  0.00    -0.202 A  
HETATM   12  C   UNL     1      -7.548  15.982  66.994  1.00  0.00    -0.230 A  
HETATM   13  C   UNL     1      -6.798  15.032  67.675  1.00  0.00    -0.203 A  
HETATM   14  O   UNL     1      -6.902  16.736  66.058  1.00  0.00    -0.033 OA 
HETATM   15  H   UNL     1      -5.977  16.619  65.881  1.00  0.00     0.000 HD 
HETATM   16  C   UNL     1      -7.420  14.255  68.640  1.00  0.00    -0.127 A  
HETATM   17  O   UNL     1      -6.740  13.306  69.344  1.00  0.00    -0.197 OA 
HETATM   18  C   UNL     1      -8.774  14.414  68.921  1.00  0.00    -0.067 A  
HETATM   19  H   UNL     1      -7.166  12.773  70.006  1.00  0.00     0.000 HD 
ENDBRANCH   7  10
ENDBRANCH   6   7
ENDBRANCH   4   6
ENDBRANCH   2   4
TORSDOF 4
ENDMDL
MODEL      205
REMARK 921   NORMALIZED FREE ENERGY PREDICTED BY IDOCK:   -3.50 KCAL/MOL
REMARK 922        TOTAL FREE ENERGY PREDICTED BY IDOCK:   -4.60 KCAL/MOL
REMARK 923 INTER-LIGAND FREE ENERGY PREDICTED BY IDOCK:   -4.24 KCAL/MOL
REMARK 924 INTRA-LIGAND FREE ENERGY PREDICTED BY IDOCK:   -0.36 KCAL/MOL
REMARK 927      BINDING AFFINITY PREDICTED BY RF-SCORE:    0.00 PKD
ROOT
HETATM    1  C   UNL     1     -12.282  14.550  69.787  1.00  0.00    -0.360 C  
HETATM    2  C   UNL     1     -12.205  15.307  68.460  1.00  0.00     0.059 C  
HETATM    3  C   UNL     1     -10.876  16.065  68.379  1.00  0.00    -0.310 C  
ENDROOT
BRANCH   2   4
HETATM    4  N   UNL     1     -12.358  14.350  67.355  1.00  0.00    -0.600 NA 
HETATM    5  H   UNL     1     -12.478  14.831  66.464  1.00  0.00     0.000 HD 
BRANCH   4   6
HETATM    6  C   UNL     1     -11.243  13.388  67.296  1.00  0.00    -0.295 C  
BRANCH   6   7
HETATM    7  C   UNL     1     -11.700  11.948  66.962  1.00  0.00    -0.227 C  
HETATM    8  H   UNL     1     -11.431  10.670  65.494  1.00  0.00     0.000 HD 
HETATM    9  O   UNL     1     -11.151  11.555  65.699  1.00  0.00    -0.277 OA 
BRANCH   7  10
HETATM   10  C   UNL     1     -11.298  10.931  68.022  1.00  0.00    -0.382 A  
HETATM   11  C   UNL     1     -10.313   9.971  67.727  1.00  0.00    -0.261 A  
HETATM   12  C   UNL     1      -9.957   9.019  68.685  1.00  0.00    -0.172 A  
HETATM   13  C   UNL     1     -10.552   9.001  69.940  1.00  0.00    -0.240 A  
HETATM   14  O   UNL     1      -9.016   8.065  68.425  1.00  0.00    -0.134 OA 
HETATM   15  H   UNL     1      -8.775   7.417  69.076  1.00  0.00     0.000 HD 
HETATM   16  C   UNL     1     -11.506   9.961  70.242  1.00  0.00    -0.281 A  
HETATM   17  O   UNL     1     -12.126   9.999  71.455  1.00  0.00    -0.367 OA 
HETATM   18  C   UNL     1     -11.870  10.924  69.306  1.00  0.00    -0.395 A  
HETATM   19  H   UNL     1     -12.780  10.657  71.662  1.00  0.00     0.000 HD 
ENDBRANCH   7  10
ENDBRANCH   6   7
ENDBRANCH   4   6
ENDBRANCH   2   4
TORSDOF 4
ENDMDL
MODEL      206
REMARK 921   NORMALIZED FREE ENERGY PREDICTED BY IDOCK:   -3.49 KCAL/MOL
REMARK 922        TOTAL FREE ENERGY PREDICTED BY IDOCK:   -4.59 KCAL/MOL
REMARK 923 INTER-LIGAND FREE ENERGY PREDICTED BY IDOCK:   -4.37 KCAL/MOL
REMARK 924 INTRA-LIGAND FREE ENERGY PREDICTED BY IDOCK:   -0.22 KCAL/MOL
REMARK 927      BINDING AFFINITY PREDICTED BY RF-SCORE:    0.00 PKD
ROOT
HETATM    1  C   UNL     1     -12.314  14.845  71.327  1.00  0.00    -0.385 C  
HETATM    2  C   UNL     1     -12.778  13.640  70.508  1.00  0.00    -0.190 C  
HETATM    3  C   UNL     1     -11.811  13.411  69.341  1.00  0.00    -0.390 C  
ENDROOT
BRANCH   2   4
HETATM    4  N   UNL     1     -12.860  12.466  71.389  1.00  0.00    -0.330 NA 
HETATM    5  H   UNL     1     -13.823  12.284  71.672  1.00  0.00     0.000 HD 
BRANCH   4   6
HETATM    6  C   UNL     1     -12.248  11.272  70.781  1.00  0.00    -0.380 C  
BRANCH   6   7
HETATM    7  C   UNL     1     -12.451   9.989  71.621  1.00  0.00    -0.418 C  
HETATM    8  H   UNL     1     -13.842   8.614  71.811  1.00  0.00     0.000 HD 
HETATM    9  O   UNL     1     -13.716   9.402  71.295  1.00  0.00    -0.346 OA 
BRANCH   7  10
HETATM   10  C   UNL     1     -11.352   8.956  71.414  1.00  0.00    -0.380 A  
HETATM   11  C   UNL     1     -11.664   7.715  70.832  1.00  0.00    -0.291 A  
HETATM   12  C   UNL     1     -10.665   6.752  70.663  1.00  0.00    -0.235 A  
HETATM   13  C   UNL     1      -9.355   6.997  71.052  1.00  0.00    -0.159 A  
HETATM   14  O   UNL     1     -10.938   5.532  70.116  1.00  0.00    -0.286 OA 
HETATM   15  H   UNL     1     -10.260   4.878  70.001  1.00  0.00     0.000 HD 
HETATM   16  C   UNL     1      -9.039   8.229  71.603  1.00  0.00    -0.185 A  
HETATM   17  O   UNL     1      -7.772   8.533  72.004  1.00  0.00    -0.144 OA 
HETATM   18  C   UNL     1     -10.016   9.206  71.774  1.00  0.00    -0.257 A  
HETATM   19  H   UNL     1      -7.556   9.378  72.382  1.00  0.00     0.000 HD 
ENDBRANCH   7  10
ENDBRANCH   6   7
ENDBRANCH   4   6
ENDBRANCH   2   4
TORSDOF 4
ENDMDL
MODEL      207
REMARK 921   NORMALIZED FREE ENERGY PREDICTED BY IDOCK:   -3.49 KCAL/MOL
REMARK 922        TOTAL FREE ENERGY PREDICTED BY IDOCK:   -4.59 KCAL/MOL
REMARK 923 INTER-LIGAND FREE ENERGY PREDICTED BY IDOCK:   -4.30 KCAL/MOL
REMARK 924 INTRA-LIGAND FREE ENERGY PREDICTED BY IDOCK:   -0.29 KCAL/MOL
REMARK 927      BINDING AFFINITY PREDICTED BY RF-SCORE:    0.00 PKD
ROOT
HETATM    1  C   UNL     1      -5.550  18.697  70.103  1.00  0.00    -0.237 C  
HETATM    2  C   UNL     1      -5.702  18.058  68.722  1.00  0.00    -0.182 C  
HETATM    3  C   UNL     1      -5.526  16.540  68.838  1.00  0.00    -0.126 C  
ENDROOT
BRANCH   2   4
HETATM    4  N   UNL     1      -7.017  18.416  68.172  1.00  0.00    -0.229 NA 
HETATM    5  H   UNL     1      -7.025  18.340  67.154  1.00  0.00     0.000 HD 
BRANCH   4   6
HETATM    6  C   UNL     1      -8.104  17.625  68.775  1.00  0.00    -0.233 C  
BRANCH   6   7
HETATM    7  C   UNL     1      -9.295  17.396  67.813  1.00  0.00    -0.255 C  
HETATM    8  H   UNL     1      -9.530  16.970  65.909  1.00  0.00     0.000 HD 
HETATM    9  O   UNL     1      -8.799  17.110  66.500  1.00  0.00    -0.236 OA 
BRANCH   7  10
HETATM   10  C   UNL     1     -10.215  16.267  68.257  1.00  0.00    -0.253 A  
HETATM   11  C   UNL     1     -10.906  15.512  67.293  1.00  0.00    -0.313 A  
HETATM   12  C   UNL     1     -11.772  14.492  67.694  1.00  0.00    -0.382 A  
HETATM   13  C   UNL     1     -11.964  14.195  69.037  1.00  0.00    -0.376 A  
HETATM   14  O   UNL     1     -12.469  13.751  66.784  1.00  0.00    -0.397 OA 
HETATM   15  H   UNL     1     -13.058  13.058  67.056  1.00  0.00     0.000 HD 
HETATM   16  C   UNL     1     -11.265  14.922  69.989  1.00  0.00    -0.259 A  
HETATM   17  O   UNL     1     -11.407  14.680  71.323  1.00  0.00    -0.525 OA 
HETATM   18  C   UNL     1     -10.391  15.938  69.612  1.00  0.00    -0.299 A  
HETATM   19  H   UNL     1     -10.928  15.177  71.976  1.00  0.00     0.000 HD 
ENDBRANCH   7  10
ENDBRANCH   6   7
ENDBRANCH   4   6
ENDBRANCH   2   4
TORSDOF 4
ENDMDL
MODEL      208
REMARK 921   NORMALIZED FREE ENERGY PREDICTED BY IDOCK:   -3.49 KCAL/MOL
REMARK 922        TOTAL FREE ENERGY PREDICTED BY IDOCK:   -4.59 KCAL/MOL
REMARK 923 INTER-LIGAND FREE ENERGY PREDICTED BY IDOCK:   -4.28 KCAL/MOL
REMARK 924 INTRA-LIGAND FREE ENERGY PREDICTED BY IDOCK:   -0.31 KCAL/MOL
REMARK 927      BINDING AFFINITY PREDICTED BY RF-SCORE:    0.00 PKD
ROOT
HETATM    1  C   UNL     1      -8.689   8.676  65.867  1.00  0.00    -0.201 C  
HETATM    2  C   UNL     1      -8.416   9.866  64.947  1.00  0.00    -0.161 C  
HETATM    3  C   UNL     1      -9.702  10.248  64.208  1.00  0.00    -0.373 C  
ENDROOT
BRANCH   2   4
HETATM    4  N   UNL     1      -7.894  10.981  65.750  1.00  0.00    -0.350 NA 
HETATM    5  H   UNL     1      -7.938  11.860  65.235  1.00  0.00     0.000 HD 
BRANCH   4   6
HETATM    6  C   UNL     1      -8.574  11.092  67.053  1.00  0.00    -0.140 C  
BRANCH   6   7
HETATM    7  C   UNL     1      -8.495  12.512  67.661  1.00  0.00    -0.171 C  
HETATM    8  H   UNL     1      -7.230  14.014  67.618  1.00  0.00     0.000 HD 
HETATM    9  O   UNL     1      -7.278  13.142  67.244  1.00  0.00    -0.136 OA 
BRANCH   7  10
HETATM   10  C   UNL     1      -9.674  13.395  67.276  1.00  0.00    -0.232 A  
HETATM   11  C   UNL     1     -10.537  13.879  68.275  1.00  0.00    -0.263 A  
HETATM   12  C   UNL     1     -11.636  14.668  67.927  1.00  0.00    -0.348 A  
HETATM   13  C   UNL     1     -11.896  14.999  66.603  1.00  0.00    -0.071 A  
HETATM   14  O   UNL     1     -12.501  15.141  68.871  1.00  0.00    -0.588 OA 
HETATM   15  H   UNL     1     -13.248  15.677  68.634  1.00  0.00     0.000 HD 
HETATM   16  C   UNL     1     -11.032  14.543  65.618  1.00  0.00    -0.323 A  
HETATM   17  O   UNL     1     -11.231  14.833  64.301  1.00  0.00    -0.614 OA 
HETATM   18  C   UNL     1      -9.927  13.762  65.942  1.00  0.00    -0.308 A  
HETATM   19  H   UNL     1     -10.639  14.522  63.626  1.00  0.00     0.000 HD 
ENDBRANCH   7  10
ENDBRANCH   6   7
ENDBRANCH   4   6
ENDBRANCH   2   4
TORSDOF 4
ENDMDL
MODEL      209
REMARK 921   NORMALIZED FREE ENERGY PREDICTED BY IDOCK:   -3.49 KCAL/MOL
REMARK 922        TOTAL FREE ENERGY PREDICTED BY IDOCK:   -4.58 KCAL/MOL
REMARK 923 INTER-LIGAND FREE ENERGY PREDICTED BY IDOCK:   -4.31 KCAL/MOL
REMARK 924 INTRA-LIGAND FREE ENERGY PREDICTED BY IDOCK:   -0.27 KCAL/MOL
REMARK 927      BINDING AFFINITY PREDICTED BY RF-SCORE:    0.00 PKD
ROOT
HETATM    1  C   UNL     1      -8.117   8.934  68.449  1.00  0.00    -0.109 C  
HETATM    2  C   UNL     1      -8.030  10.051  69.491  1.00  0.00    -0.158 C  
HETATM    3  C   UNL     1      -6.561  10.308  69.844  1.00  0.00    -0.114 C  
ENDROOT
BRANCH   2   4
HETATM    4  N   UNL     1      -8.683  11.254  68.957  1.00  0.00    -0.369 NA 
HETATM    5  H   UNL     1      -8.191  11.609  68.136  1.00  0.00     0.000 HD 
BRANCH   4   6
HETATM    6  C   UNL     1     -10.110  11.028  68.667  1.00  0.00    -0.197 C  
BRANCH   6   7
HETATM    7  C   UNL     1     -10.593  11.749  67.386  1.00  0.00    -0.224 C  
HETATM    8  H   UNL     1     -12.180  11.695  66.229  1.00  0.00     0.000 HD 
HETATM    9  O   UNL     1     -11.884  11.252  67.016  1.00  0.00    -0.484 OA 
BRANCH   7  10
HETATM   10  C   UNL     1     -10.664  13.262  67.541  1.00  0.00    -0.259 A  
HETATM   11  C   UNL     1     -11.574  13.826  68.454  1.00  0.00    -0.369 A  
HETATM   12  C   UNL     1     -11.665  15.213  68.584  1.00  0.00    -0.341 A  
HETATM   13  C   UNL     1     -10.863  16.062  67.832  1.00  0.00    -0.333 A  
HETATM   14  O   UNL     1     -12.547  15.791  69.449  1.00  0.00    -0.527 OA 
HETATM   15  H   UNL     1     -12.609  16.735  69.537  1.00  0.00     0.000 HD 
HETATM   16  C   UNL     1      -9.948  15.509  66.948  1.00  0.00    -0.247 A  
HETATM   17  O   UNL     1      -9.131  16.285  66.182  1.00  0.00    -0.302 OA 
HETATM   18  C   UNL     1      -9.835  14.128  66.808  1.00  0.00    -0.275 A  
HETATM   19  H   UNL     1      -8.503  15.907  65.577  1.00  0.00     0.000 HD 
ENDBRANCH   7  10
ENDBRANCH   6   7
ENDBRANCH   4   6
ENDBRANCH   2   4
TORSDOF 4
ENDMDL
MODEL      210
REMARK 921   NORMALIZED FREE ENERGY PREDICTED BY IDOCK:   -3.48 KCAL/MOL
REMARK 922        TOTAL FREE ENERGY PREDICTED BY IDOCK:   -4.58 KCAL/MOL
REMARK 923 INTER-LIGAND FREE ENERGY PREDICTED BY IDOCK:   -4.10 KCAL/MOL
REMARK 924 INTRA-LIGAND FREE ENERGY PREDICTED BY IDOCK:   -0.48 KCAL/MOL
REMARK 927      BINDING AFFINITY PREDICTED BY RF-SCORE:    0.00 PKD
ROOT
HETATM    1  C   UNL     1      -9.185   9.334  70.235  1.00  0.00    -0.273 C  
HETATM    2  C   UNL     1      -9.746   9.391  68.814  1.00  0.00    -0.156 C  
HETATM    3  C   UNL     1      -9.164  10.605  68.082  1.00  0.00    -0.148 C  
ENDROOT
BRANCH   2   4
HETATM    4  N   UNL     1      -9.429   8.132  68.124  1.00  0.00    -0.140 NA 
HETATM    5  H   UNL     1      -9.031   7.448  68.768  1.00  0.00     0.000 HD 
BRANCH   4   6
HETATM    6  C   UNL     1     -10.596   7.580  67.413  1.00  0.00    -0.294 C  
BRANCH   6   7
HETATM    7  C   UNL     1     -11.007   6.176  67.918  1.00  0.00    -0.304 C  
HETATM    8  H   UNL     1     -10.374   4.332  67.681  1.00  0.00     0.000 HD 
HETATM    9  O   UNL     1     -10.120   5.194  67.372  1.00  0.00    -0.170 OA 
BRANCH   7  10
HETATM   10  C   UNL     1     -11.007   6.062  69.437  1.00  0.00    -0.455 A  
HETATM   11  C   UNL     1     -10.074   5.223  70.071  1.00  0.00    -0.336 A  
HETATM   12  C   UNL     1     -10.084   5.093  71.462  1.00  0.00    -0.193 A  
HETATM   13  C   UNL     1     -10.997   5.787  72.245  1.00  0.00    -0.314 A  
HETATM   14  O   UNL     1      -9.201   4.276  72.107  1.00  0.00    -0.118 OA 
HETATM   15  H   UNL     1      -9.208   4.187  73.052  1.00  0.00     0.000 HD 
HETATM   16  C   UNL     1     -11.903   6.633  71.623  1.00  0.00    -0.336 A  
HETATM   17  O   UNL     1     -12.825   7.343  72.334  1.00  0.00    -0.502 OA 
HETATM   18  C   UNL     1     -11.907   6.784  70.240  1.00  0.00    -0.359 A  
HETATM   19  H   UNL     1     -13.445   7.923  71.909  1.00  0.00     0.000 HD 
ENDBRANCH   7  10
ENDBRANCH   6   7
ENDBRANCH   4   6
ENDBRANCH   2   4
TORSDOF 4
ENDMDL
MODEL      211
REMARK 921   NORMALIZED FREE ENERGY PREDICTED BY IDOCK:   -3.45 KCAL/MOL
REMARK 922        TOTAL FREE ENERGY PREDICTED BY IDOCK:   -4.53 KCAL/MOL
REMARK 923 INTER-LIGAND FREE ENERGY PREDICTED BY IDOCK:   -4.29 KCAL/MOL
REMARK 924 INTRA-LIGAND FREE ENERGY PREDICTED BY IDOCK:   -0.24 KCAL/MOL
REMARK 927      BINDING AFFINITY PREDICTED BY RF-SCORE:    0.00 PKD
ROOT
HETATM    1  C   UNL     1     -10.558  11.410  67.349  1.00  0.00    -0.257 C  
HETATM    2  C   UNL     1      -9.287  11.788  66.587  1.00  0.00    -0.198 C  
HETATM    3  C   UNL     1      -8.908  10.653  65.630  1.00  0.00    -0.201 C  
ENDROOT
BRANCH   2   4
HETATM    4  N   UNL     1      -9.515  13.052  65.874  1.00  0.00    -0.464 NA 
HETATM    5  H   UNL     1     -10.489  13.143  65.585  1.00  0.00     0.000 HD 
BRANCH   4   6
HETATM    6  C   UNL     1      -9.081  14.219  66.662  1.00  0.00    -0.226 C  
BRANCH   6   7
HETATM    7  C   UNL     1     -10.244  15.171  67.030  1.00  0.00    -0.262 C  
HETATM    8  H   UNL     1     -11.399  15.476  68.589  1.00  0.00     0.000 HD 
HETATM    9  O   UNL     1     -10.685  14.892  68.363  1.00  0.00    -0.235 OA 
BRANCH   7  10
HETATM   10  C   UNL     1      -9.869  16.643  66.924  1.00  0.00    -0.267 A  
HETATM   11  C   UNL     1     -10.647  17.504  66.130  1.00  0.00    -0.211 A  
HETATM   12  C   UNL     1     -10.294  18.850  66.007  1.00  0.00    -0.429 A  
HETATM   13  C   UNL     1      -9.187  19.369  66.665  1.00  0.00    -0.393 A  
HETATM   14  O   UNL     1     -11.019  19.708  65.232  1.00  0.00    -0.422 OA 
HETATM   15  H   UNL     1     -10.779  20.623  65.148  1.00  0.00     0.000 HD 
HETATM   16  C   UNL     1      -8.432  18.527  67.469  1.00  0.00    -0.261 A  
HETATM   17  O   UNL     1      -7.334  18.974  68.142  1.00  0.00    -0.253 OA 
HETATM   18  C   UNL     1      -8.769  17.184  67.612  1.00  0.00    -0.213 A  
HETATM   19  H   UNL     1      -6.817  18.397  68.693  1.00  0.00     0.000 HD 
ENDBRANCH   7  10
ENDBRANCH   6   7
ENDBRANCH   4   6
ENDBRANCH   2   4
TORSDOF 4
ENDMDL
MODEL      212
REMARK 921   NORMALIZED FREE ENERGY PREDICTED BY IDOCK:   -3.44 KCAL/MOL
REMARK 922        TOTAL FREE ENERGY PREDICTED BY IDOCK:   -4.53 KCAL/MOL
REMARK 923 INTER-LIGAND FREE ENERGY PREDICTED BY IDOCK:   -4.26 KCAL/MOL
REMARK 924 INTRA-LIGAND FREE ENERGY PREDICTED BY IDOCK:   -0.27 KCAL/MOL
REMARK 927      BINDING AFFINITY PREDICTED BY RF-SCORE:    0.00 PKD
ROOT
HETATM    1  C   UNL     1      -8.558   9.986  66.382  1.00  0.00    -0.136 C  
HETATM    2  C   UNL     1     -10.026   9.575  66.496  1.00  0.00    -0.261 C  
HETATM    3  C   UNL     1     -10.117   8.069  66.768  1.00  0.00    -0.357 C  
ENDROOT
BRANCH   2   4
HETATM    4  N   UNL     1     -10.661  10.362  67.562  1.00  0.00    -0.266 NA 
HETATM    5  H   UNL     1     -11.655  10.145  67.640  1.00  0.00     0.000 HD 
BRANCH   4   6
HETATM    6  C   UNL     1      -9.977  10.198  68.857  1.00  0.00    -0.199 C  
BRANCH   6   7
HETATM    7  C   UNL     1     -10.862  10.581  70.066  1.00  0.00    -0.259 C  
HETATM    8  H   UNL     1     -12.720  11.152  70.350  1.00  0.00     0.000 HD 
HETATM    9  O   UNL     1     -12.177  10.917  69.607  1.00  0.00    -0.328 OA 
BRANCH   7  10
HETATM   10  C   UNL     1     -10.963   9.475  71.109  1.00  0.00    -0.438 A  
HETATM   11  C   UNL     1     -12.149   8.727  71.217  1.00  0.00    -0.344 A  
HETATM   12  C   UNL     1     -12.258   7.729  72.188  1.00  0.00    -0.285 A  
HETATM   13  C   UNL     1     -11.210   7.447  73.055  1.00  0.00    -0.345 A  
HETATM   14  O   UNL     1     -13.400   6.995  72.329  1.00  0.00    -0.519 OA 
HETATM   15  H   UNL     1     -13.475   6.316  72.989  1.00  0.00     0.000 HD 
HETATM   16  C   UNL     1     -10.031   8.167  72.934  1.00  0.00    -0.266 A  
HETATM   17  O   UNL     1      -8.965   7.939  73.752  1.00  0.00    -0.261 OA 
HETATM   18  C   UNL     1      -9.897   9.161  71.969  1.00  0.00     0.005 A  
HETATM   19  H   UNL     1      -8.157   8.432  73.670  1.00  0.00     0.000 HD 
ENDBRANCH   7  10
ENDBRANCH   6   7
ENDBRANCH   4   6
ENDBRANCH   2   4
TORSDOF 4
ENDMDL
MODEL      213
REMARK 921   NORMALIZED FREE ENERGY PREDICTED BY IDOCK:   -3.44 KCAL/MOL
REMARK 922        TOTAL FREE ENERGY PREDICTED BY IDOCK:   -4.53 KCAL/MOL
REMARK 923 INTER-LIGAND FREE ENERGY PREDICTED BY IDOCK:   -4.55 KCAL/MOL
REMARK 924 INTRA-LIGAND FREE ENERGY PREDICTED BY IDOCK:    0.02 KCAL/MOL
REMARK 927      BINDING AFFINITY PREDICTED BY RF-SCORE:    0.00 PKD
ROOT
HETATM    1  C   UNL     1      -6.673  20.090  68.427  1.00  0.00    -0.337 C  
HETATM    2  C   UNL     1      -7.769  20.008  67.363  1.00  0.00    -0.295 C  
HETATM    3  C   UNL     1      -7.143  20.133  65.971  1.00  0.00    -0.312 C  
ENDROOT
BRANCH   2   4
HETATM    4  N   UNL     1      -8.498  18.742  67.524  1.00  0.00    -0.268 NA 
HETATM    5  H   UNL     1      -8.303  18.316  68.430  1.00  0.00     0.000 HD 
BRANCH   4   6
HETATM    6  C   UNL     1      -9.947  18.905  67.312  1.00  0.00    -0.334 C  
BRANCH   6   7
HETATM    7  C   UNL     1     -10.617  17.651  66.701  1.00  0.00    -0.211 C  
HETATM    8  H   UNL     1     -10.815  16.868  64.910  1.00  0.00     0.000 HD 
HETATM    9  O   UNL     1     -10.404  17.638  65.285  1.00  0.00    -0.554 OA 
BRANCH   7  10
HETATM   10  C   UNL     1     -10.103  16.347  67.297  1.00  0.00    -0.270 A  
HETATM   11  C   UNL     1      -8.917  15.776  66.802  1.00  0.00    -0.289 A  
HETATM   12  C   UNL     1      -8.453  14.567  67.326  1.00  0.00    -0.215 A  
HETATM   13  C   UNL     1      -9.136  13.911  68.341  1.00  0.00    -0.184 A  
HETATM   14  O   UNL     1      -7.313  13.979  66.858  1.00  0.00    -0.313 OA 
HETATM   15  H   UNL     1      -6.998  13.157  67.213  1.00  0.00     0.000 HD 
HETATM   16  C   UNL     1     -10.293  14.484  68.848  1.00  0.00    -0.237 A  
HETATM   17  O   UNL     1     -11.010  13.892  69.844  1.00  0.00    -0.457 OA 
HETATM   18  C   UNL     1     -10.770  15.692  68.347  1.00  0.00    -0.271 A  
HETATM   19  H   UNL     1     -11.802  14.285  70.192  1.00  0.00     0.000 HD 
ENDBRANCH   7  10
ENDBRANCH   6   7
ENDBRANCH   4   6
ENDBRANCH   2   4
TORSDOF 4
ENDMDL
MODEL      214
REMARK 921   NORMALIZED FREE ENERGY PREDICTED BY IDOCK:   -3.44 KCAL/MOL
REMARK 922        TOTAL FREE ENERGY PREDICTED BY IDOCK:   -4.52 KCAL/MOL
REMARK 923 INTER-LIGAND FREE ENERGY PREDICTED BY IDOCK:   -4.17 KCAL/MOL
REMARK 924 INTRA-LIGAND FREE ENERGY PREDICTED BY IDOCK:   -0.35 KCAL/MOL
REMARK 927      BINDING AFFINITY PREDICTED BY RF-SCORE:    0.00 PKD
ROOT
HETATM    1  C   UNL     1      -6.744  18.542  65.663  1.00  0.00    -0.300 C  
HETATM    2  C   UNL     1      -7.309  19.717  66.463  1.00  0.00    -0.249 C  
HETATM    3  C   UNL     1      -6.375  20.924  66.329  1.00  0.00    -0.305 C  
ENDROOT
BRANCH   2   4
HETATM    4  N   UNL     1      -8.664  20.016  65.980  1.00  0.00    -0.529 NA 
HETATM    5  H   UNL     1      -8.678  20.131  64.967  1.00  0.00     0.000 HD 
BRANCH   4   6
HETATM    6  C   UNL     1      -9.644  19.007  66.417  1.00  0.00    -0.353 C  
BRANCH   6   7
HETATM    7  C   UNL     1      -9.427  18.539  67.876  1.00  0.00    -0.296 C  
HETATM    8  H   UNL     1     -10.284  18.847  69.617  1.00  0.00     0.000 HD 
HETATM    9  O   UNL     1     -10.418  19.135  68.721  1.00  0.00    -0.233 OA 
BRANCH   7  10
HETATM   10  C   UNL     1      -9.479  17.025  68.033  1.00  0.00    -0.256 A  
HETATM   11  C   UNL     1     -10.672  16.337  67.749  1.00  0.00    -0.325 A  
HETATM   12  C   UNL     1     -10.735  14.951  67.916  1.00  0.00    -0.265 A  
HETATM   13  C   UNL     1      -9.634  14.226  68.352  1.00  0.00    -0.221 A  
HETATM   14  O   UNL     1     -11.882  14.256  67.664  1.00  0.00    -0.363 OA 
HETATM   15  H   UNL     1     -11.925  13.314  67.778  1.00  0.00     0.000 HD 
HETATM   16  C   UNL     1      -8.449  14.899  68.610  1.00  0.00    -0.166 A  
HETATM   17  O   UNL     1      -7.333  14.247  69.039  1.00  0.00    -0.124 OA 
HETATM   18  C   UNL     1      -8.361  16.278  68.443  1.00  0.00    -0.190 A  
HETATM   19  H   UNL     1      -6.520  14.707  69.215  1.00  0.00     0.000 HD 
ENDBRANCH   7  10
ENDBRANCH   6   7
ENDBRANCH   4   6
ENDBRANCH   2   4
TORSDOF 4
ENDMDL
MODEL      215
REMARK 921   NORMALIZED FREE ENERGY PREDICTED BY IDOCK:   -3.44 KCAL/MOL
REMARK 922        TOTAL FREE ENERGY PREDICTED BY IDOCK:   -4.52 KCAL/MOL
REMARK 923 INTER-LIGAND FREE ENERGY PREDICTED BY IDOCK:   -4.26 KCAL/MOL
REMARK 924 INTRA-LIGAND FREE ENERGY PREDICTED BY IDOCK:   -0.26 KCAL/MOL
REMARK 927      BINDING AFFINITY PREDICTED BY RF-SCORE:    0.00 PKD
ROOT
HETATM    1  C   UNL     1     -12.060  14.919  70.895  1.00  0.00    -0.377 C  
HETATM    2  C   UNL     1     -12.367  13.822  69.875  1.00  0.00    -0.275 C  
HETATM    3  C   UNL     1     -11.397  13.934  68.694  1.00  0.00    -0.310 C  
ENDROOT
BRANCH   2   4
HETATM    4  N   UNL     1     -12.275  12.514  70.537  1.00  0.00    -0.404 NA 
HETATM    5  H   UNL     1     -13.071  12.356  71.156  1.00  0.00     0.000 HD 
BRANCH   4   6
HETATM    6  C   UNL     1     -12.122  11.412  69.571  1.00  0.00    -0.302 C  
BRANCH   6   7
HETATM    7  C   UNL     1     -10.799  10.629  69.745  1.00  0.00    -0.261 C  
HETATM    8  H   UNL     1     -10.222   8.988  70.660  1.00  0.00     0.000 HD 
HETATM    9  O   UNL     1     -11.035   9.469  70.553  1.00  0.00    -0.243 OA 
BRANCH   7  10
HETATM   10  C   UNL     1     -10.178  10.200  68.423  1.00  0.00    -0.192 A  
HETATM   11  C   UNL     1      -9.323  11.082  67.738  1.00  0.00    -0.162 A  
HETATM   12  C   UNL     1      -8.770  10.707  66.511  1.00  0.00    -0.146 A  
HETATM   13  C   UNL     1      -9.040   9.466  65.948  1.00  0.00    -0.242 A  
HETATM   14  O   UNL     1      -7.948  11.545  65.815  1.00  0.00    -0.365 OA 
HETATM   15  H   UNL     1      -7.573  11.289  64.981  1.00  0.00     0.000 HD 
HETATM   16  C   UNL     1      -9.864   8.586  66.633  1.00  0.00    -0.272 A  
HETATM   17  O   UNL     1     -10.167   7.353  66.135  1.00  0.00    -0.430 OA 
HETATM   18  C   UNL     1     -10.419   8.935  67.860  1.00  0.00    -0.281 A  
HETATM   19  H   UNL     1     -10.731   6.749  66.604  1.00  0.00     0.000 HD 
ENDBRANCH   7  10
ENDBRANCH   6   7
ENDBRANCH   4   6
ENDBRANCH   2   4
TORSDOF 4
ENDMDL
MODEL      216
REMARK 921   NORMALIZED FREE ENERGY PREDICTED BY IDOCK:   -3.43 KCAL/MOL
REMARK 922        TOTAL FREE ENERGY PREDICTED BY IDOCK:   -4.51 KCAL/MOL
REMARK 923 INTER-LIGAND FREE ENERGY PREDICTED BY IDOCK:   -4.27 KCAL/MOL
REMARK 924 INTRA-LIGAND FREE ENERGY PREDICTED BY IDOCK:   -0.24 KCAL/MOL
REMARK 927      BINDING AFFINITY PREDICTED BY RF-SCORE:    0.00 PKD
ROOT
HETATM    1  C   UNL     1     -12.146  14.407  68.358  1.00  0.00    -0.278 C  
HETATM    2  C   UNL     1     -10.670  14.620  68.695  1.00  0.00    -0.250 C  
HETATM    3  C   UNL     1     -10.551  15.350  70.037  1.00  0.00    -0.319 C  
ENDROOT
BRANCH   2   4
HETATM    4  N   UNL     1      -9.992  13.317  68.718  1.00  0.00    -0.423 NA 
HETATM    5  H   UNL     1     -10.653  12.559  68.892  1.00  0.00     0.000 HD 
BRANCH   4   6
HETATM    6  C   UNL     1      -9.213  13.074  67.492  1.00  0.00    -0.195 C  
BRANCH   6   7
HETATM    7  C   UNL     1      -8.867  11.582  67.275  1.00  0.00    -0.160 C  
HETATM    8  H   UNL     1      -9.419   9.862  68.050  1.00  0.00     0.000 HD 
HETATM    9  O   UNL     1      -9.632  10.779  68.182  1.00  0.00    -0.153 OA 
BRANCH   7  10
HETATM   10  C   UNL     1      -9.121  11.108  65.851  1.00  0.00    -0.218 A  
HETATM   11  C   UNL     1     -10.227  11.607  65.139  1.00  0.00    -0.319 A  
HETATM   12  C   UNL     1     -10.482  11.158  63.841  1.00  0.00    -0.381 A  
HETATM   13  C   UNL     1      -9.657  10.226  63.225  1.00  0.00    -0.305 A  
HETATM   14  O   UNL     1     -11.554  11.611  63.129  1.00  0.00    -0.796 OA 
HETATM   15  H   UNL     1     -11.728  11.306  62.247  1.00  0.00     0.000 HD 
HETATM   16  C   UNL     1      -8.552   9.751  63.916  1.00  0.00    -0.199 A  
HETATM   17  O   UNL     1      -7.703   8.836  63.368  1.00  0.00    -0.118 OA 
HETATM   18  C   UNL     1      -8.274  10.190  65.207  1.00  0.00    -0.157 A  
HETATM   19  H   UNL     1      -6.946   8.510  63.841  1.00  0.00     0.000 HD 
ENDBRANCH   7  10
ENDBRANCH   6   7
ENDBRANCH   4   6
ENDBRANCH   2   4
TORSDOF 4
ENDMDL
MODEL      217
REMARK 921   NORMALIZED FREE ENERGY PREDICTED BY IDOCK:   -3.42 KCAL/MOL
REMARK 922        TOTAL FREE ENERGY PREDICTED BY IDOCK:   -4.50 KCAL/MOL
REMARK 923 INTER-LIGAND FREE ENERGY PREDICTED BY IDOCK:   -4.32 KCAL/MOL
REMARK 924 INTRA-LIGAND FREE ENERGY PREDICTED BY IDOCK:   -0.18 KCAL/MOL
REMARK 927      BINDING AFFINITY PREDICTED BY RF-SCORE:    0.00 PKD
ROOT
HETATM    1  C   UNL     1      -6.444  17.676  66.047  1.00  0.00    -0.265 C  
HETATM    2  C   UNL     1      -7.073  17.214  67.362  1.00  0.00    -0.155 C  
HETATM    3  C   UNL     1      -6.235  17.727  68.538  1.00  0.00    -0.184 C  
ENDROOT
BRANCH   2   4
HETATM    4  N   UNL     1      -8.459  17.699  67.425  1.00  0.00    -0.219 NA 
HETATM    5  H   UNL     1      -8.896  17.689  66.503  1.00  0.00     0.000 HD 
BRANCH   4   6
HETATM    6  C   UNL     1      -9.265  16.949  68.405  1.00  0.00    -0.253 C  
BRANCH   6   7
HETATM    7  C   UNL     1     -10.364  16.079  67.750  1.00  0.00    -0.279 C  
HETATM    8  H   UNL     1     -10.441  14.658  66.395  1.00  0.00     0.000 HD 
HETATM    9  O   UNL     1      -9.766  15.193  66.797  1.00  0.00    -0.227 OA 
BRANCH   7  10
HETATM   10  C   UNL     1     -11.163  15.264  68.758  1.00  0.00    -0.293 A  
HETATM   11  C   UNL     1     -10.869  13.902  68.942  1.00  0.00    -0.278 A  
HETATM   12  C   UNL     1     -11.614  13.142  69.846  1.00  0.00    -0.185 A  
HETATM   13  C   UNL     1     -12.646  13.706  70.584  1.00  0.00    -0.366 A  
HETATM   14  O   UNL     1     -11.363  11.814  70.037  1.00  0.00    -0.477 OA 
HETATM   15  H   UNL     1     -11.871  11.297  70.651  1.00  0.00     0.000 HD 
HETATM   16  C   UNL     1     -12.923  15.056  70.423  1.00  0.00    -0.240 A  
HETATM   17  O   UNL     1     -13.922  15.671  71.117  1.00  0.00    -0.719 OA 
HETATM   18  C   UNL     1     -12.188  15.834  69.533  1.00  0.00    -0.178 A  
HETATM   19  H   UNL     1     -14.111  16.596  71.007  1.00  0.00     0.000 HD 
ENDBRANCH   7  10
ENDBRANCH   6   7
ENDBRANCH   4   6
ENDBRANCH   2   4
TORSDOF 4
ENDMDL
MODEL      218
REMARK 921   NORMALIZED FREE ENERGY PREDICTED BY IDOCK:   -3.41 KCAL/MOL
REMARK 922        TOTAL FREE ENERGY PREDICTED BY IDOCK:   -4.49 KCAL/MOL
REMARK 923 INTER-LIGAND FREE ENERGY PREDICTED BY IDOCK:   -4.28 KCAL/MOL
REMARK 924 INTRA-LIGAND FREE ENERGY PREDICTED BY IDOCK:   -0.21 KCAL/MOL
REMARK 927      BINDING AFFINITY PREDICTED BY RF-SCORE:    0.00 PKD
ROOT
HETATM    1  C   UNL     1     -11.784  12.300  66.062  1.00  0.00    -0.451 C  
HETATM    2  C   UNL     1     -11.266  11.983  67.465  1.00  0.00    -0.294 C  
HETATM    3  C   UNL     1     -11.769  13.044  68.449  1.00  0.00    -0.386 C  
ENDROOT
BRANCH   2   4
HETATM    4  N   UNL     1     -11.707  10.633  67.844  1.00  0.00    -0.724 NA 
HETATM    5  H   UNL     1     -12.346  10.244  67.149  1.00  0.00     0.000 HD 
BRANCH   4   6
HETATM    6  C   UNL     1     -10.571   9.727  68.090  1.00  0.00    -0.231 C  
BRANCH   6   7
HETATM    7  C   UNL     1     -10.747   8.338  67.431  1.00  0.00    -0.166 C  
HETATM    8  H   UNL     1      -9.906   7.338  65.963  1.00  0.00     0.000 HD 
HETATM    9  O   UNL     1      -9.798   8.191  66.368  1.00  0.00    -0.236 OA 
BRANCH   7  10
HETATM   10  C   UNL     1     -10.584   7.185  68.411  1.00  0.00    -0.223 A  
HETATM   11  C   UNL     1     -11.020   7.334  69.740  1.00  0.00    -0.235 A  
HETATM   12  C   UNL     1     -10.851   6.290  70.652  1.00  0.00    -0.280 A  
HETATM   13  C   UNL     1     -10.263   5.090  70.274  1.00  0.00    -0.328 A  
HETATM   14  O   UNL     1     -11.250   6.408  71.952  1.00  0.00    -0.253 OA 
HETATM   15  H   UNL     1     -11.134   5.699  72.572  1.00  0.00     0.000 HD 
HETATM   16  C   UNL     1      -9.854   4.931  68.958  1.00  0.00    -0.180 A  
HETATM   17  O   UNL     1      -9.271   3.778  68.523  1.00  0.00    -0.131 OA 
HETATM   18  C   UNL     1     -10.020   5.955  68.030  1.00  0.00    -0.161 A  
HETATM   19  H   UNL     1      -8.991   3.669  67.621  1.00  0.00     0.000 HD 
ENDBRANCH   7  10
ENDBRANCH   6   7
ENDBRANCH   4   6
ENDBRANCH   2   4
TORSDOF 4
ENDMDL
MODEL      219
REMARK 921   NORMALIZED FREE ENERGY PREDICTED BY IDOCK:   -3.41 KCAL/MOL
REMARK 922        TOTAL FREE ENERGY PREDICTED BY IDOCK:   -4.49 KCAL/MOL
REMARK 923 INTER-LIGAND FREE ENERGY PREDICTED BY IDOCK:   -4.17 KCAL/MOL
REMARK 924 INTRA-LIGAND FREE ENERGY PREDICTED BY IDOCK:   -0.32 KCAL/MOL
REMARK 927      BINDING AFFINITY PREDICTED BY RF-SCORE:    0.00 PKD
ROOT
HETATM    1  C   UNL     1     -10.585   8.730  71.800  1.00  0.00    -0.417 C  
HETATM    2  C   UNL     1     -11.827   8.876  70.920  1.00  0.00    -0.240 C  
HETATM    3  C   UNL     1     -12.731   9.974  71.489  1.00  0.00    -0.532 C  
ENDROOT
BRANCH   2   4
HETATM    4  N   UNL     1     -11.406   9.171  69.544  1.00  0.00    -0.435 NA 
HETATM    5  H   UNL     1     -11.988   8.680  68.865  1.00  0.00     0.000 HD 
BRANCH   4   6
HETATM    6  C   UNL     1     -11.378  10.620  69.272  1.00  0.00    -0.282 C  
BRANCH   6   7
HETATM    7  C   UNL     1     -10.036  11.099  68.669  1.00  0.00    -0.205 C  
HETATM    8  H   UNL     1      -8.135  11.001  69.158  1.00  0.00     0.000 HD 
HETATM    9  O   UNL     1      -8.960  10.706  69.528  1.00  0.00    -0.104 OA 
BRANCH   7  10
HETATM   10  C   UNL     1      -9.781  10.558  67.268  1.00  0.00    -0.197 A  
HETATM   11  C   UNL     1      -8.884   9.490  67.087  1.00  0.00    -0.141 A  
HETATM   12  C   UNL     1      -8.625   9.006  65.803  1.00  0.00    -0.160 A  
HETATM   13  C   UNL     1      -9.246   9.552  64.687  1.00  0.00    -0.247 A  
HETATM   14  O   UNL     1      -7.750   7.980  65.592  1.00  0.00    -0.086 OA 
HETATM   15  H   UNL     1      -7.573   7.651  64.719  1.00  0.00     0.000 HD 
HETATM   16  C   UNL     1     -10.149  10.590  64.865  1.00  0.00    -0.333 A  
HETATM   17  O   UNL     1     -10.792  11.169  63.812  1.00  0.00    -0.489 OA 
HETATM   18  C   UNL     1     -10.428  11.084  66.136  1.00  0.00    -0.301 A  
HETATM   19  H   UNL     1     -11.411  11.880  63.934  1.00  0.00     0.000 HD 
ENDBRANCH   7  10
ENDBRANCH   6   7
ENDBRANCH   4   6
ENDBRANCH   2   4
TORSDOF 4
ENDMDL
MODEL      220
REMARK 921   NORMALIZED FREE ENERGY PREDICTED BY IDOCK:   -3.39 KCAL/MOL
REMARK 922        TOTAL FREE ENERGY PREDICTED BY IDOCK:   -4.47 KCAL/MOL
REMARK 923 INTER-LIGAND FREE ENERGY PREDICTED BY IDOCK:   -4.17 KCAL/MOL
REMARK 924 INTRA-LIGAND FREE ENERGY PREDICTED BY IDOCK:   -0.30 KCAL/MOL
REMARK 927      BINDING AFFINITY PREDICTED BY RF-SCORE:    0.00 PKD
ROOT
HETATM    1  C   UNL     1      -6.379  11.831  67.816  1.00  0.00    -0.067 C  
HETATM    2  C   UNL     1      -7.254  12.888  68.490  1.00  0.00    -0.107 C  
HETATM    3  C   UNL     1      -7.394  14.102  67.566  1.00  0.00    -0.193 C  
ENDROOT
BRANCH   2   4
HETATM    4  N   UNL     1      -8.558  12.293  68.814  1.00  0.00    -0.367 NA 
HETATM    5  H   UNL     1      -8.812  12.465  69.787  1.00  0.00     0.000 HD 
BRANCH   4   6
HETATM    6  C   UNL     1      -9.619  12.750  67.898  1.00  0.00    -0.211 C  
BRANCH   6   7
HETATM    7  C   UNL     1     -10.775  11.733  67.751  1.00  0.00    -0.205 C  
HETATM    8  H   UNL     1     -11.010   9.940  66.982  1.00  0.00     0.000 HD 
HETATM    9  O   UNL     1     -10.299  10.565  67.073  1.00  0.00    -0.215 OA 
BRANCH   7  10
HETATM   10  C   UNL     1     -11.386  11.324  69.084  1.00  0.00    -0.349 A  
HETATM   11  C   UNL     1     -11.267   9.993  69.526  1.00  0.00    -0.254 A  
HETATM   12  C   UNL     1     -11.848   9.604  70.735  1.00  0.00    -0.300 A  
HETATM   13  C   UNL     1     -12.540  10.511  71.528  1.00  0.00    -0.529 A  
HETATM   14  O   UNL     1     -11.763   8.318  71.184  1.00  0.00    -0.277 OA 
HETATM   15  H   UNL     1     -12.158   8.054  72.006  1.00  0.00     0.000 HD 
HETATM   16  C   UNL     1     -12.638  11.828  71.107  1.00  0.00    -0.309 A  
HETATM   17  O   UNL     1     -13.302  12.767  71.838  1.00  0.00    -0.463 OA 
HETATM   18  C   UNL     1     -12.061  12.240  69.909  1.00  0.00    -0.319 A  
HETATM   19  H   UNL     1     -13.369  13.670  71.551  1.00  0.00     0.000 HD 
ENDBRANCH   7  10
ENDBRANCH   6   7
ENDBRANCH   4   6
ENDBRANCH   2   4
TORSDOF 4
ENDMDL
MODEL      221
REMARK 921   NORMALIZED FREE ENERGY PREDICTED BY IDOCK:   -3.39 KCAL/MOL
REMARK 922        TOTAL FREE ENERGY PREDICTED BY IDOCK:   -4.47 KCAL/MOL
REMARK 923 INTER-LIGAND FREE ENERGY PREDICTED BY IDOCK:   -3.82 KCAL/MOL
REMARK 924 INTRA-LIGAND FREE ENERGY PREDICTED BY IDOCK:   -0.64 KCAL/MOL
REMARK 927      BINDING AFFINITY PREDICTED BY RF-SCORE:    0.00 PKD
ROOT
HETATM    1  C   UNL     1      -8.374   7.153  69.167  1.00  0.00    -0.129 C  
HETATM    2  C   UNL     1      -9.197   8.100  68.294  1.00  0.00    -0.134 C  
HETATM    3  C   UNL     1     -10.579   7.490  68.037  1.00  0.00    -0.217 C  
ENDROOT
BRANCH   2   4
HETATM    4  N   UNL     1      -9.292   9.406  68.962  1.00  0.00    -0.150 NA 
HETATM    5  H   UNL     1      -8.854  10.139  68.404  1.00  0.00     0.000 HD 
BRANCH   4   6
HETATM    6  C   UNL     1     -10.682   9.754  69.304  1.00  0.00    -0.224 C  
BRANCH   6   7
HETATM    7  C   UNL     1     -10.891  10.006  70.817  1.00  0.00    -0.260 C  
HETATM    8  H   UNL     1     -12.336  10.682  71.964  1.00  0.00     0.000 HD 
HETATM    9  O   UNL     1     -12.208  10.527  71.035  1.00  0.00    -0.335 OA 
BRANCH   7  10
HETATM   10  C   UNL     1     -10.700   8.755  71.664  1.00  0.00    -0.397 A  
HETATM   11  C   UNL     1      -9.479   8.545  72.329  1.00  0.00    -0.365 A  
HETATM   12  C   UNL     1      -9.287   7.388  73.087  1.00  0.00    -0.188 A  
HETATM   13  C   UNL     1     -10.286   6.431  73.209  1.00  0.00    -0.251 A  
HETATM   14  O   UNL     1      -8.109   7.147  73.732  1.00  0.00    -0.107 OA 
HETATM   15  H   UNL     1      -7.978   6.360  74.247  1.00  0.00     0.000 HD 
HETATM   16  C   UNL     1     -11.500   6.647  72.574  1.00  0.00    -0.231 A  
HETATM   17  O   UNL     1     -12.522   5.749  72.655  1.00  0.00    -0.511 OA 
HETATM   18  C   UNL     1     -11.717   7.797  71.820  1.00  0.00    -0.323 A  
HETATM   19  H   UNL     1     -13.354   5.897  72.220  1.00  0.00     0.000 HD 
ENDBRANCH   7  10
ENDBRANCH   6   7
ENDBRANCH   4   6
ENDBRANCH   2   4
TORSDOF 4
ENDMDL
MODEL      222
REMARK 921   NORMALIZED FREE ENERGY PREDICTED BY IDOCK:   -3.38 KCAL/MOL
REMARK 922        TOTAL FREE ENERGY PREDICTED BY IDOCK:   -4.45 KCAL/MOL
REMARK 923 INTER-LIGAND FREE ENERGY PREDICTED BY IDOCK:   -4.26 KCAL/MOL
REMARK 924 INTRA-LIGAND FREE ENERGY PREDICTED BY IDOCK:   -0.19 KCAL/MOL
REMARK 927      BINDING AFFINITY PREDICTED BY RF-SCORE:    0.00 PKD
ROOT
HETATM    1  C   UNL     1     -10.641   7.761  72.728  1.00  0.00    -0.401 C  
HETATM    2  C   UNL     1     -11.533   8.183  71.560  1.00  0.00    -0.267 C  
HETATM    3  C   UNL     1     -12.927   8.543  72.084  1.00  0.00    -0.403 C  
ENDROOT
BRANCH   2   4
HETATM    4  N   UNL     1     -10.902   9.312  70.862  1.00  0.00    -0.269 NA 
HETATM    5  H   UNL     1      -9.968   9.498  71.228  1.00  0.00     0.000 HD 
BRANCH   4   6
HETATM    6  C   UNL     1     -10.874   9.116  69.402  1.00  0.00    -0.151 C  
BRANCH   6   7
HETATM    7  C   UNL     1      -9.738   9.901  68.704  1.00  0.00    -0.157 C  
HETATM    8  H   UNL     1      -7.957   9.494  67.982  1.00  0.00     0.000 HD 
HETATM    9  O   UNL     1      -8.655   9.012  68.410  1.00  0.00    -0.128 OA 
BRANCH   7  10
HETATM   10  C   UNL     1     -10.185  10.588  67.421  1.00  0.00    -0.253 A  
HETATM   11  C   UNL     1     -11.199  11.561  67.469  1.00  0.00    -0.360 A  
HETATM   12  C   UNL     1     -11.633  12.176  66.292  1.00  0.00    -0.360 A  
HETATM   13  C   UNL     1     -11.075  11.855  65.062  1.00  0.00    -0.360 A  
HETATM   14  O   UNL     1     -12.625  13.113  66.303  1.00  0.00    -0.366 OA 
HETATM   15  H   UNL     1     -12.920  13.531  65.503  1.00  0.00     0.000 HD 
HETATM   16  C   UNL     1     -10.057  10.913  65.015  1.00  0.00    -0.300 A  
HETATM   17  O   UNL     1      -9.467  10.554  63.840  1.00  0.00    -0.241 OA 
HETATM   18  C   UNL     1      -9.604  10.293  66.175  1.00  0.00    -0.248 A  
HETATM   19  H   UNL     1      -8.770   9.909  63.807  1.00  0.00     0.000 HD 
ENDBRANCH   7  10
ENDBRANCH   6   7
ENDBRANCH   4   6
ENDBRANCH   2   4
TORSDOF 4
ENDMDL
MODEL      223
REMARK 921   NORMALIZED FREE ENERGY PREDICTED BY IDOCK:   -3.36 KCAL/MOL
REMARK 922        TOTAL FREE ENERGY PREDICTED BY IDOCK:   -4.43 KCAL/MOL
REMARK 923 INTER-LIGAND FREE ENERGY PREDICTED BY IDOCK:   -4.06 KCAL/MOL
REMARK 924 INTRA-LIGAND FREE ENERGY PREDICTED BY IDOCK:   -0.37 KCAL/MOL
REMARK 927      BINDING AFFINITY PREDICTED BY RF-SCORE:    0.00 PKD
ROOT
HETATM    1  C   UNL     1     -11.365  15.789  70.746  1.00  0.00    -0.419 C  
HETATM    2  C   UNL     1     -11.889  15.859  69.311  1.00  0.00    -0.318 C  
HETATM    3  C   UNL     1     -10.780  16.371  68.385  1.00  0.00    -0.327 C  
ENDROOT
BRANCH   2   4
HETATM    4  N   UNL     1     -12.365  14.527  68.911  1.00  0.00    -0.582 NA 
HETATM    5  H   UNL     1     -13.369  14.533  68.729  1.00  0.00     0.000 HD 
BRANCH   4   6
HETATM    6  C   UNL     1     -11.617  13.994  67.758  1.00  0.00    -0.345 C  
BRANCH   6   7
HETATM    7  C   UNL     1     -11.618  12.448  67.695  1.00  0.00    -0.357 C  
HETATM    8  H   UNL     1     -11.899  11.077  66.316  1.00  0.00     0.000 HD 
HETATM    9  O   UNL     1     -11.898  12.027  66.355  1.00  0.00    -0.578 OA 
BRANCH   7  10
HETATM   10  C   UNL     1     -10.304  11.829  68.151  1.00  0.00    -0.213 A  
HETATM   11  C   UNL     1     -10.234  10.445  68.393  1.00  0.00    -0.186 A  
HETATM   12  C   UNL     1      -9.039   9.874  68.837  1.00  0.00    -0.156 A  
HETATM   13  C   UNL     1      -7.902  10.645  69.039  1.00  0.00    -0.137 A  
HETATM   14  O   UNL     1      -8.942   8.537  69.095  1.00  0.00    -0.144 OA 
HETATM   15  H   UNL     1      -8.130   8.149  69.398  1.00  0.00     0.000 HD 
HETATM   16  C   UNL     1      -7.962  12.006  68.778  1.00  0.00    -0.014 A  
HETATM   17  O   UNL     1      -6.882  12.818  68.955  1.00  0.00    -0.097 OA 
HETATM   18  C   UNL     1      -9.139  12.596  68.328  1.00  0.00    -0.181 A  
HETATM   19  H   UNL     1      -6.922  13.750  68.776  1.00  0.00     0.000 HD 
ENDBRANCH   7  10
ENDBRANCH   6   7
ENDBRANCH   4   6
ENDBRANCH   2   4
TORSDOF 4
ENDMDL
MODEL      224
REMARK 921   NORMALIZED FREE ENERGY PREDICTED BY IDOCK:   -3.33 KCAL/MOL
REMARK 922        TOTAL FREE ENERGY PREDICTED BY IDOCK:   -4.40 KCAL/MOL
REMARK 923 INTER-LIGAND FREE ENERGY PREDICTED BY IDOCK:   -4.04 KCAL/MOL
REMARK 924 INTRA-LIGAND FREE ENERGY PREDICTED BY IDOCK:   -0.36 KCAL/MOL
REMARK 927      BINDING AFFINITY PREDICTED BY RF-SCORE:    0.00 PKD
ROOT
HETATM    1  C   UNL     1     -10.475   3.928  74.193  1.00  0.00    -0.272 C  
HETATM    2  C   UNL     1     -10.199   4.960  73.099  1.00  0.00    -0.169 C  
HETATM    3  C   UNL     1      -9.968   4.243  71.764  1.00  0.00    -0.254 C  
ENDROOT
BRANCH   2   4
HETATM    4  N   UNL     1     -11.330   5.895  73.028  1.00  0.00    -0.460 NA 
HETATM    5  H   UNL     1     -11.832   5.937  73.916  1.00  0.00     0.000 HD 
BRANCH   4   6
HETATM    6  C   UNL     1     -10.913   7.238  72.587  1.00  0.00    -0.299 C  
BRANCH   6   7
HETATM    7  C   UNL     1     -11.837   7.837  71.500  1.00  0.00    -0.293 C  
HETATM    8  H   UNL     1     -12.638   9.589  71.115  1.00  0.00     0.000 HD 
HETATM    9  O   UNL     1     -12.070   9.221  71.783  1.00  0.00    -0.346 OA 
BRANCH   7  10
HETATM   10  C   UNL     1     -11.273   7.700  70.093  1.00  0.00    -0.193 A  
HETATM   11  C   UNL     1     -10.625   8.795  69.494  1.00  0.00    -0.224 A  
HETATM   12  C   UNL     1     -10.128   8.686  68.193  1.00  0.00    -0.197 A  
HETATM   13  C   UNL     1     -10.251   7.506  67.470  1.00  0.00    -0.288 A  
HETATM   14  O   UNL     1      -9.507   9.734  67.578  1.00  0.00    -0.145 OA 
HETATM   15  H   UNL     1      -9.170   9.660  66.693  1.00  0.00     0.000 HD 
HETATM   16  C   UNL     1     -10.869   6.417  68.068  1.00  0.00    -0.316 A  
HETATM   17  O   UNL     1     -11.020   5.231  67.413  1.00  0.00    -0.184 OA 
HETATM   18  C   UNL     1     -11.365   6.501  69.365  1.00  0.00    -0.395 A  
HETATM   19  H   UNL     1     -11.443   4.485  67.823  1.00  0.00     0.000 HD 
ENDBRANCH   7  10
ENDBRANCH   6   7
ENDBRANCH   4   6
ENDBRANCH   2   4
TORSDOF 4
ENDMDL
MODEL      225
REMARK 921   NORMALIZED FREE ENERGY PREDICTED BY IDOCK:   -3.33 KCAL/MOL
REMARK 922        TOTAL FREE ENERGY PREDICTED BY IDOCK:   -4.39 KCAL/MOL
REMARK 923 INTER-LIGAND FREE ENERGY PREDICTED BY IDOCK:   -4.15 KCAL/MOL
REMARK 924 INTRA-LIGAND FREE ENERGY PREDICTED BY IDOCK:   -0.25 KCAL/MOL
REMARK 927      BINDING AFFINITY PREDICTED BY RF-SCORE:    0.00 PKD
ROOT
HETATM    1  C   UNL     1     -10.525   4.249  74.000  1.00  0.00    -0.302 C  
HETATM    2  C   UNL     1      -9.841   5.047  72.890  1.00  0.00    -0.153 C  
HETATM    3  C   UNL     1      -9.243   4.084  71.859  1.00  0.00    -0.179 C  
ENDROOT
BRANCH   2   4
HETATM    4  N   UNL     1     -10.822   5.958  72.283  1.00  0.00    -0.233 NA 
HETATM    5  H   UNL     1     -11.488   6.300  72.976  1.00  0.00     0.000 HD 
BRANCH   4   6
HETATM    6  C   UNL     1     -10.176   7.073  71.568  1.00  0.00    -0.198 C  
BRANCH   6   7
HETATM    7  C   UNL     1     -10.912   7.469  70.265  1.00  0.00    -0.250 C  
HETATM    8  H   UNL     1     -12.415   6.774  69.208  1.00  0.00     0.000 HD 
HETATM    9  O   UNL     1     -11.963   6.531  70.008  1.00  0.00    -0.358 OA 
BRANCH   7  10
HETATM   10  C   UNL     1     -11.495   8.875  70.310  1.00  0.00    -0.123 A  
HETATM   11  C   UNL     1     -12.204   9.298  71.448  1.00  0.00    -0.426 A  
HETATM   12  C   UNL     1     -12.764  10.577  71.486  1.00  0.00    -0.452 A  
HETATM   13  C   UNL     1     -12.629  11.456  70.420  1.00  0.00    -0.267 A  
HETATM   14  O   UNL     1     -13.471  11.013  72.570  1.00  0.00    -0.500 OA 
HETATM   15  H   UNL     1     -13.852  11.882  72.595  1.00  0.00     0.000 HD 
HETATM   16  C   UNL     1     -11.909  11.050  69.306  1.00  0.00    -0.340 A  
HETATM   17  O   UNL     1     -11.738  11.864  68.226  1.00  0.00    -0.305 OA 
HETATM   18  C   UNL     1     -11.336   9.782  69.249  1.00  0.00    -0.059 A  
HETATM   19  H   UNL     1     -11.245  11.586  67.463  1.00  0.00     0.000 HD 
ENDBRANCH   7  10
ENDBRANCH   6   7
ENDBRANCH   4   6
ENDBRANCH   2   4
TORSDOF 4
ENDMDL
MODEL      226
REMARK 921   NORMALIZED FREE ENERGY PREDICTED BY IDOCK:   -3.33 KCAL/MOL
REMARK 922        TOTAL FREE ENERGY PREDICTED BY IDOCK:   -4.39 KCAL/MOL
REMARK 923 INTER-LIGAND FREE ENERGY PREDICTED BY IDOCK:   -4.28 KCAL/MOL
REMARK 924 INTRA-LIGAND FREE ENERGY PREDICTED BY IDOCK:   -0.11 KCAL/MOL
REMARK 927      BINDING AFFINITY PREDICTED BY RF-SCORE:    0.00 PKD
ROOT
HETATM    1  C   UNL     1     -10.453  18.166  68.257  1.00  0.00    -0.333 C  
HETATM    2  C   UNL     1     -10.420  19.377  67.324  1.00  0.00    -0.467 C  
HETATM    3  C   UNL     1      -9.110  20.145  67.528  1.00  0.00    -0.465 C  
ENDROOT
BRANCH   2   4
HETATM    4  N   UNL     1     -10.575  18.916  65.938  1.00  0.00    -0.510 NA 
HETATM    5  H   UNL     1      -9.746  19.131  65.382  1.00  0.00     0.000 HD 
BRANCH   4   6
HETATM    6  C   UNL     1     -10.911  17.484  65.863  1.00  0.00     0.014 C  
BRANCH   6   7
HETATM    7  C   UNL     1      -9.727  16.604  65.393  1.00  0.00     0.319 C  
HETATM    8  H   UNL     1      -7.766  16.706  65.446  1.00  0.00     0.000 HD 
HETATM    9  O   UNL     1      -8.493  17.246  65.734  1.00  0.00    -0.532 OA 
BRANCH   7  10
HETATM   10  C   UNL     1      -9.747  15.204  65.991  1.00  0.00    -0.361 A  
HETATM   11  C   UNL     1     -10.853  14.366  65.766  1.00  0.00    -0.308 A  
HETATM   12  C   UNL     1     -10.890  13.091  66.333  1.00  0.00    -0.278 A  
HETATM   13  C   UNL     1      -9.845  12.619  67.116  1.00  0.00    -0.212 A  
HETATM   14  O   UNL     1     -11.956  12.259  66.145  1.00  0.00    -0.579 OA 
HETATM   15  H   UNL     1     -11.981  11.392  66.531  1.00  0.00     0.000 HD 
HETATM   16  C   UNL     1      -8.742  13.434  67.321  1.00  0.00    -0.218 A  
HETATM   17  O   UNL     1      -7.683  13.031  68.078  1.00  0.00    -0.118 OA 
HETATM   18  C   UNL     1      -8.680  14.706  66.759  1.00  0.00    -0.233 A  
HETATM   19  H   UNL     1      -6.927  13.589  68.218  1.00  0.00     0.000 HD 
ENDBRANCH   7  10
ENDBRANCH   6   7
ENDBRANCH   4   6
ENDBRANCH   2   4
TORSDOF 4
ENDMDL
MODEL      227
REMARK 921   NORMALIZED FREE ENERGY PREDICTED BY IDOCK:   -3.31 KCAL/MOL
REMARK 922        TOTAL FREE ENERGY PREDICTED BY IDOCK:   -4.37 KCAL/MOL
REMARK 923 INTER-LIGAND FREE ENERGY PREDICTED BY IDOCK:   -3.93 KCAL/MOL
REMARK 924 INTRA-LIGAND FREE ENERGY PREDICTED BY IDOCK:   -0.43 KCAL/MOL
REMARK 927      BINDING AFFINITY PREDICTED BY RF-SCORE:    0.00 PKD
ROOT
HETATM    1  C   UNL     1      -7.873   8.963  70.995  1.00  0.00    -0.164 C  
HETATM    2  C   UNL     1      -8.730   7.859  71.614  1.00  0.00    -0.124 C  
HETATM    3  C   UNL     1      -7.822   6.779  72.211  1.00  0.00    -0.095 C  
ENDROOT
BRANCH   2   4
HETATM    4  N   UNL     1      -9.614   8.452  72.628  1.00  0.00    -0.283 NA 
HETATM    5  H   UNL     1      -9.626   9.469  72.558  1.00  0.00     0.000 HD 
BRANCH   4   6
HETATM    6  C   UNL     1     -10.977   7.896  72.568  1.00  0.00    -0.350 C  
BRANCH   6   7
HETATM    7  C   UNL     1     -11.627   8.027  71.170  1.00  0.00    -0.282 C  
HETATM    8  H   UNL     1     -13.173   7.253  70.237  1.00  0.00     0.000 HD 
HETATM    9  O   UNL     1     -12.774   7.174  71.096  1.00  0.00    -0.367 OA 
BRANCH   7  10
HETATM   10  C   UNL     1     -12.040   9.453  70.832  1.00  0.00    -0.327 A  
HETATM   11  C   UNL     1     -12.648  10.253  71.816  1.00  0.00    -0.488 A  
HETATM   12  C   UNL     1     -13.053  11.553  71.506  1.00  0.00    -0.326 A  
HETATM   13  C   UNL     1     -12.861  12.086  70.238  1.00  0.00     0.233 A  
HETATM   14  O   UNL     1     -13.659  12.350  72.434  1.00  0.00    -0.604 OA 
HETATM   15  H   UNL     1     -13.935  13.233  72.224  1.00  0.00     0.000 HD 
HETATM   16  C   UNL     1     -12.240  11.308  69.273  1.00  0.00    -0.222 A  
HETATM   17  O   UNL     1     -12.021  11.771  68.010  1.00  0.00    -0.553 OA 
HETATM   18  C   UNL     1     -11.821  10.012  69.561  1.00  0.00     0.017 A  
HETATM   19  H   UNL     1     -11.596  11.238  67.348  1.00  0.00     0.000 HD 
ENDBRANCH   7  10
ENDBRANCH   6   7
ENDBRANCH   4   6
ENDBRANCH   2   4
TORSDOF 4
ENDMDL
MODEL      228
REMARK 921   NORMALIZED FREE ENERGY PREDICTED BY IDOCK:   -3.31 KCAL/MOL
REMARK 922        TOTAL FREE ENERGY PREDICTED BY IDOCK:   -4.37 KCAL/MOL
REMARK 923 INTER-LIGAND FREE ENERGY PREDICTED BY IDOCK:   -4.14 KCAL/MOL
REMARK 924 INTRA-LIGAND FREE ENERGY PREDICTED BY IDOCK:   -0.23 KCAL/MOL
REMARK 927      BINDING AFFINITY PREDICTED BY RF-SCORE:    0.00 PKD
ROOT
HETATM    1  C   UNL     1     -12.528  15.585  69.504  1.00  0.00    -0.081 C  
HETATM    2  C   UNL     1     -11.487  16.339  70.332  1.00  0.00    -0.248 C  
HETATM    3  C   UNL     1     -11.209  15.571  71.628  1.00  0.00    -0.388 C  
ENDROOT
BRANCH   2   4
HETATM    4  N   UNL     1     -10.270  16.512  69.527  1.00  0.00    -0.248 NA 
HETATM    5  H   UNL     1      -9.485  16.000  69.928  1.00  0.00     0.000 HD 
BRANCH   4   6
HETATM    6  C   UNL     1     -10.482  16.144  68.116  1.00  0.00    -0.279 C  
BRANCH   6   7
HETATM    7  C   UNL     1     -10.397  17.351  67.152  1.00  0.00    -0.325 C  
HETATM    8  H   UNL     1     -10.938  19.240  67.180  1.00  0.00     0.000 HD 
HETATM    9  O   UNL     1     -10.990  18.498  67.772  1.00  0.00    -0.329 OA 
BRANCH   7  10
HETATM   10  C   UNL     1      -8.971  17.687  66.737  1.00  0.00    -0.272 A  
HETATM   11  C   UNL     1      -7.963  16.714  66.859  1.00  0.00    -0.255 A  
HETATM   12  C   UNL     1      -6.648  17.023  66.505  1.00  0.00    -0.219 A  
HETATM   13  C   UNL     1      -6.307  18.279  66.020  1.00  0.00    -0.273 A  
HETATM   14  O   UNL     1      -5.644  16.106  66.625  1.00  0.00    -0.238 OA 
HETATM   15  H   UNL     1      -4.750  16.316  66.385  1.00  0.00     0.000 HD 
HETATM   16  C   UNL     1      -7.304  19.233  65.876  1.00  0.00    -0.273 A  
HETATM   17  O   UNL     1      -7.036  20.484  65.406  1.00  0.00    -0.440 OA 
HETATM   18  C   UNL     1      -8.622  18.945  66.216  1.00  0.00    -0.267 A  
HETATM   19  H   UNL     1      -7.718  21.138  65.307  1.00  0.00     0.000 HD 
ENDBRANCH   7  10
ENDBRANCH   6   7
ENDBRANCH   4   6
ENDBRANCH   2   4
TORSDOF 4
ENDMDL
MODEL      229
REMARK 921   NORMALIZED FREE ENERGY PREDICTED BY IDOCK:   -3.30 KCAL/MOL
REMARK 922        TOTAL FREE ENERGY PREDICTED BY IDOCK:   -4.35 KCAL/MOL
REMARK 923 INTER-LIGAND FREE ENERGY PREDICTED BY IDOCK:   -4.11 KCAL/MOL
REMARK 924 INTRA-LIGAND FREE ENERGY PREDICTED BY IDOCK:   -0.24 KCAL/MOL
REMARK 927      BINDING AFFINITY PREDICTED BY RF-SCORE:    0.00 PKD
ROOT
HETATM    1  C   UNL     1      -8.238   7.729  67.626  1.00  0.00    -0.125 C  
HETATM    2  C   UNL     1      -9.695   7.867  68.069  1.00  0.00    -0.159 C  
HETATM    3  C   UNL     1      -9.767   7.874  69.600  1.00  0.00    -0.173 C  
ENDROOT
BRANCH   2   4
HETATM    4  N   UNL     1     -10.256   9.096  67.490  1.00  0.00    -0.228 NA 
HETATM    5  H   UNL     1     -11.124   8.906  66.989  1.00  0.00     0.000 HD 
BRANCH   4   6
HETATM    6  C   UNL     1     -10.444  10.151  68.502  1.00  0.00    -0.195 C  
BRANCH   6   7
HETATM    7  C   UNL     1     -11.772  10.927  68.331  1.00  0.00    -0.218 C  
HETATM    8  H   UNL     1     -13.317  11.376  69.458  1.00  0.00     0.000 HD 
HETATM    9  O   UNL     1     -12.502  10.900  69.563  1.00  0.00    -0.305 OA 
BRANCH   7  10
HETATM   10  C   UNL     1     -11.568  12.374  67.902  1.00  0.00    -0.415 A  
HETATM   11  C   UNL     1     -10.985  13.290  68.795  1.00  0.00    -0.294 A  
HETATM   12  C   UNL     1     -10.819  14.624  68.418  1.00  0.00    -0.245 A  
HETATM   13  C   UNL     1     -11.212  15.074  67.164  1.00  0.00    -0.336 A  
HETATM   14  O   UNL     1     -10.269  15.541  69.266  1.00  0.00    -0.220 OA 
HETATM   15  H   UNL     1     -10.156  16.448  69.010  1.00  0.00     0.000 HD 
HETATM   16  C   UNL     1     -11.766  14.167  66.272  1.00  0.00    -0.390 A  
HETATM   17  O   UNL     1     -12.172  14.544  65.027  1.00  0.00    -0.399 OA 
HETATM   18  C   UNL     1     -11.934  12.831  66.624  1.00  0.00    -0.411 A  
HETATM   19  H   UNL     1     -12.551  13.923  64.415  1.00  0.00     0.000 HD 
ENDBRANCH   7  10
ENDBRANCH   6   7
ENDBRANCH   4   6
ENDBRANCH   2   4
TORSDOF 4
ENDMDL
MODEL      230
REMARK 921   NORMALIZED FREE ENERGY PREDICTED BY IDOCK:   -3.29 KCAL/MOL
REMARK 922        TOTAL FREE ENERGY PREDICTED BY IDOCK:   -4.35 KCAL/MOL
REMARK 923 INTER-LIGAND FREE ENERGY PREDICTED BY IDOCK:   -4.04 KCAL/MOL
REMARK 924 INTRA-LIGAND FREE ENERGY PREDICTED BY IDOCK:   -0.31 KCAL/MOL
REMARK 927      BINDING AFFINITY PREDICTED BY RF-SCORE:    0.00 PKD
ROOT
HETATM    1  C   UNL     1      -6.865   9.646  66.005  1.00  0.00    -0.088 C  
HETATM    2  C   UNL     1      -6.906  10.309  67.382  1.00  0.00    -0.077 C  
HETATM    3  C   UNL     1      -7.727  11.601  67.304  1.00  0.00    -0.154 C  
ENDROOT
BRANCH   2   4
HETATM    4  N   UNL     1      -7.468   9.361  68.353  1.00  0.00    -0.077 NA 
HETATM    5  H   UNL     1      -6.790   8.640  68.602  1.00  0.00     0.000 HD 
BRANCH   4   6
HETATM    6  C   UNL     1      -7.990  10.039  69.553  1.00  0.00    -0.158 C  
BRANCH   6   7
HETATM    7  C   UNL     1      -8.863   9.120  70.440  1.00  0.00    -0.220 C  
HETATM    8  H   UNL     1      -8.784   8.410  72.270  1.00  0.00     0.000 HD 
HETATM    9  O   UNL     1      -8.248   8.975  71.725  1.00  0.00    -0.351 OA 
BRANCH   7  10
HETATM   10  C   UNL     1     -10.284   9.635  70.620  1.00  0.00    -0.346 A  
HETATM   11  C   UNL     1     -11.062   9.170  71.695  1.00  0.00    -0.445 A  
HETATM   12  C   UNL     1     -12.376   9.617  71.852  1.00  0.00    -0.357 A  
HETATM   13  C   UNL     1     -12.938  10.528  70.967  1.00  0.00    -0.475 A  
HETATM   14  O   UNL     1     -13.161   9.175  72.877  1.00  0.00    -0.649 OA 
HETATM   15  H   UNL     1     -14.054   9.479  72.983  1.00  0.00     0.000 HD 
HETATM   16  C   UNL     1     -12.165  11.006  69.919  1.00  0.00    -0.336 A  
HETATM   17  O   UNL     1     -12.657  11.901  69.016  1.00  0.00     0.032 OA 
HETATM   18  C   UNL     1     -10.852  10.580  69.748  1.00  0.00    -0.335 A  
HETATM   19  H   UNL     1     -12.128  12.230  68.298  1.00  0.00     0.000 HD 
ENDBRANCH   7  10
ENDBRANCH   6   7
ENDBRANCH   4   6
ENDBRANCH   2   4
TORSDOF 4
ENDMDL
MODEL      231
REMARK 921   NORMALIZED FREE ENERGY PREDICTED BY IDOCK:   -3.29 KCAL/MOL
REMARK 922        TOTAL FREE ENERGY PREDICTED BY IDOCK:   -4.34 KCAL/MOL
REMARK 923 INTER-LIGAND FREE ENERGY PREDICTED BY IDOCK:   -4.15 KCAL/MOL
REMARK 924 INTRA-LIGAND FREE ENERGY PREDICTED BY IDOCK:   -0.18 KCAL/MOL
REMARK 927      BINDING AFFINITY PREDICTED BY RF-SCORE:    0.00 PKD
ROOT
HETATM    1  C   UNL     1      -8.736   5.443  65.469  1.00  0.00    -0.154 C  
HETATM    2  C   UNL     1      -9.875   5.805  66.423  1.00  0.00    -0.138 C  
HETATM    3  C   UNL     1      -9.747   4.983  67.710  1.00  0.00    -0.192 C  
ENDROOT
BRANCH   2   4
HETATM    4  N   UNL     1      -9.834   7.250  66.689  1.00  0.00    -0.323 NA 
HETATM    5  H   UNL     1     -10.033   7.787  65.845  1.00  0.00     0.000 HD 
BRANCH   4   6
HETATM    6  C   UNL     1     -10.733   7.636  67.792  1.00  0.00    -0.145 C  
BRANCH   6   7
HETATM    7  C   UNL     1      -9.994   8.322  68.966  1.00  0.00    -0.189 C  
HETATM    8  H   UNL     1      -8.399   9.447  69.186  1.00  0.00     0.000 HD 
HETATM    9  O   UNL     1      -8.852   9.026  68.465  1.00  0.00    -0.132 OA 
BRANCH   7  10
HETATM   10  C   UNL     1     -10.876   9.289  69.745  1.00  0.00    -0.239 A  
HETATM   11  C   UNL     1     -11.721   8.799  70.757  1.00  0.00    -0.253 A  
HETATM   12  C   UNL     1     -12.553   9.675  71.458  1.00  0.00    -0.391 A  
HETATM   13  C   UNL     1     -12.560  11.037  71.184  1.00  0.00    -0.522 A  
HETATM   14  O   UNL     1     -13.395   9.230  72.435  1.00  0.00    -0.445 OA 
HETATM   15  H   UNL     1     -13.960   9.826  72.911  1.00  0.00     0.000 HD 
HETATM   16  C   UNL     1     -11.710  11.526  70.203  1.00  0.00    -0.309 A  
HETATM   17  O   UNL     1     -11.667  12.851  69.887  1.00  0.00    -0.417 OA 
HETATM   18  C   UNL     1     -10.867  10.672  69.497  1.00  0.00    -0.303 A  
HETATM   19  H   UNL     1     -11.085  13.187  69.216  1.00  0.00     0.000 HD 
ENDBRANCH   7  10
ENDBRANCH   6   7
ENDBRANCH   4   6
ENDBRANCH   2   4
TORSDOF 4
ENDMDL
MODEL      232
REMARK 921   NORMALIZED FREE ENERGY PREDICTED BY IDOCK:   -3.28 KCAL/MOL
REMARK 922        TOTAL FREE ENERGY PREDICTED BY IDOCK:   -4.33 KCAL/MOL
REMARK 923 INTER-LIGAND FREE ENERGY PREDICTED BY IDOCK:   -3.98 KCAL/MOL
REMARK 924 INTRA-LIGAND FREE ENERGY PREDICTED BY IDOCK:   -0.35 KCAL/MOL
REMARK 927      BINDING AFFINITY PREDICTED BY RF-SCORE:    0.00 PKD
ROOT
HETATM    1  C   UNL     1     -10.317   8.273  72.348  1.00  0.00    -0.402 C  
HETATM    2  C   UNL     1     -11.139   8.464  71.072  1.00  0.00    -0.258 C  
HETATM    3  C   UNL     1     -10.863   9.854  70.489  1.00  0.00    -0.391 C  
ENDROOT
BRANCH   2   4
HETATM    4  N   UNL     1     -10.801   7.395  70.122  1.00  0.00    -0.252 NA 
HETATM    5  H   UNL     1     -11.578   6.743  70.008  1.00  0.00     0.000 HD 
BRANCH   4   6
HETATM    6  C   UNL     1     -10.357   7.928  68.822  1.00  0.00    -0.203 C  
BRANCH   6   7
HETATM    7  C   UNL     1      -9.000   7.347  68.357  1.00  0.00    -0.134 C  
HETATM    8  H   UNL     1      -7.358   6.696  69.217  1.00  0.00     0.000 HD 
HETATM    9  O   UNL     1      -8.192   7.052  69.502  1.00  0.00    -0.128 OA 
BRANCH   7  10
HETATM   10  C   UNL     1      -9.145   6.092  67.509  1.00  0.00    -0.109 A  
HETATM   11  C   UNL     1     -10.321   5.886  66.765  1.00  0.00    -0.302 A  
HETATM   12  C   UNL     1     -10.473   4.724  66.005  1.00  0.00    -0.292 A  
HETATM   13  C   UNL     1      -9.476   3.758  65.957  1.00  0.00    -0.178 A  
HETATM   14  O   UNL     1     -11.607   4.488  65.284  1.00  0.00    -1.061 OA 
HETATM   15  H   UNL     1     -11.710   3.698  64.768  1.00  0.00     0.000 HD 
HETATM   16  C   UNL     1      -8.305   3.970  66.670  1.00  0.00    -0.104 A  
HETATM   17  O   UNL     1      -7.288   3.062  66.665  1.00  0.00    -0.068 OA 
HETATM   18  C   UNL     1      -8.129   5.124  67.428  1.00  0.00    -0.100 A  
HETATM   19  H   UNL     1      -6.486   3.207  67.153  1.00  0.00     0.000 HD 
ENDBRANCH   7  10
ENDBRANCH   6   7
ENDBRANCH   4   6
ENDBRANCH   2   4
TORSDOF 4
ENDMDL
MODEL      233
REMARK 921   NORMALIZED FREE ENERGY PREDICTED BY IDOCK:   -3.27 KCAL/MOL
REMARK 922        TOTAL FREE ENERGY PREDICTED BY IDOCK:   -4.31 KCAL/MOL
REMARK 923 INTER-LIGAND FREE ENERGY PREDICTED BY IDOCK:   -4.14 KCAL/MOL
REMARK 924 INTRA-LIGAND FREE ENERGY PREDICTED BY IDOCK:   -0.17 KCAL/MOL
REMARK 927      BINDING AFFINITY PREDICTED BY RF-SCORE:    0.00 PKD
ROOT
HETATM    1  C   UNL     1      -9.547  11.650  65.433  1.00  0.00    -0.228 C  
HETATM    2  C   UNL     1     -10.117  12.913  66.078  1.00  0.00    -0.285 C  
HETATM    3  C   UNL     1     -11.226  12.530  67.064  1.00  0.00    -0.353 C  
ENDROOT
BRANCH   2   4
HETATM    4  N   UNL     1      -9.027  13.646  66.738  1.00  0.00    -0.382 NA 
HETATM    5  H   UNL     1      -8.131  13.461  66.286  1.00  0.00     0.000 HD 
BRANCH   4   6
HETATM    6  C   UNL     1      -9.298  15.092  66.816  1.00  0.00    -0.247 C  
BRANCH   6   7
HETATM    7  C   UNL     1      -8.261  15.860  67.669  1.00  0.00    -0.150 C  
HETATM    8  H   UNL     1      -6.307  15.867  67.876  1.00  0.00     0.000 HD 
HETATM    9  O   UNL     1      -6.944  15.395  67.352  1.00  0.00    -0.182 OA 
BRANCH   7  10
HETATM   10  C   UNL     1      -8.321  17.369  67.470  1.00  0.00    -0.212 A  
HETATM   11  C   UNL     1      -9.308  18.120  68.134  1.00  0.00    -0.295 A  
HETATM   12  C   UNL     1      -9.386  19.500  67.937  1.00  0.00    -0.333 A  
HETATM   13  C   UNL     1      -8.498  20.160  67.097  1.00  0.00    -0.403 A  
HETATM   14  O   UNL     1     -10.340  20.255  68.555  1.00  0.00    -0.351 OA 
HETATM   15  H   UNL     1     -10.393  21.193  68.420  1.00  0.00     0.000 HD 
HETATM   16  C   UNL     1      -7.509  19.425  66.460  1.00  0.00    -0.246 A  
HETATM   17  O   UNL     1      -6.606  20.012  65.625  1.00  0.00    -0.224 OA 
HETATM   18  C   UNL     1      -7.407  18.050  66.648  1.00  0.00    -0.254 A  
HETATM   19  H   UNL     1      -5.928  19.510  65.188  1.00  0.00     0.000 HD 
ENDBRANCH   7  10
ENDBRANCH   6   7
ENDBRANCH   4   6
ENDBRANCH   2   4
TORSDOF 4
ENDMDL
MODEL      234
REMARK 921   NORMALIZED FREE ENERGY PREDICTED BY IDOCK:   -3.25 KCAL/MOL
REMARK 922        TOTAL FREE ENERGY PREDICTED BY IDOCK:   -4.29 KCAL/MOL
REMARK 923 INTER-LIGAND FREE ENERGY PREDICTED BY IDOCK:   -4.04 KCAL/MOL
REMARK 924 INTRA-LIGAND FREE ENERGY PREDICTED BY IDOCK:   -0.25 KCAL/MOL
REMARK 927      BINDING AFFINITY PREDICTED BY RF-SCORE:    0.00 PKD
ROOT
HETATM    1  C   UNL     1      -7.305   9.973  69.374  1.00  0.00    -0.100 C  
HETATM    2  C   UNL     1      -6.334   9.168  68.509  1.00  0.00    -0.053 C  
HETATM    3  C   UNL     1      -6.347   7.702  68.954  1.00  0.00    -0.036 C  
ENDROOT
BRANCH   2   4
HETATM    4  N   UNL     1      -6.716   9.316  67.098  1.00  0.00    -0.075 NA 
HETATM    5  H   UNL     1      -6.847   8.407  66.653  1.00  0.00     0.000 HD 
BRANCH   4   6
HETATM    6  C   UNL     1      -7.907  10.167  66.932  1.00  0.00    -0.107 C  
BRANCH   6   7
HETATM    7  C   UNL     1      -8.410  10.231  65.470  1.00  0.00    -0.164 C  
HETATM    8  H   UNL     1      -8.975   8.944  64.097  1.00  0.00     0.000 HD 
HETATM    9  O   UNL     1      -8.666   8.904  64.995  1.00  0.00    -0.182 OA 
BRANCH   7  10
HETATM   10  C   UNL     1      -9.668  11.074  65.305  1.00  0.00    -0.286 A  
HETATM   11  C   UNL     1     -10.059  11.949  66.334  1.00  0.00    -0.241 A  
HETATM   12  C   UNL     1     -11.225  12.706  66.202  1.00  0.00    -0.309 A  
HETATM   13  C   UNL     1     -12.014  12.621  65.062  1.00  0.00    -0.467 A  
HETATM   14  O   UNL     1     -11.639  13.553  67.188  1.00  0.00    -0.320 OA 
HETATM   15  H   UNL     1     -12.433  14.067  67.098  1.00  0.00     0.000 HD 
HETATM   16  C   UNL     1     -11.618  11.777  64.035  1.00  0.00    -0.339 A  
HETATM   17  O   UNL     1     -12.347  11.649  62.891  1.00  0.00    -0.923 OA 
HETATM   18  C   UNL     1     -10.456  11.019  64.142  1.00  0.00    -0.434 A  
HETATM   19  H   UNL     1     -12.076  11.071  62.187  1.00  0.00     0.000 HD 
ENDBRANCH   7  10
ENDBRANCH   6   7
ENDBRANCH   4   6
ENDBRANCH   2   4
TORSDOF 4
ENDMDL
MODEL      235
REMARK 921   NORMALIZED FREE ENERGY PREDICTED BY IDOCK:   -3.24 KCAL/MOL
REMARK 922        TOTAL FREE ENERGY PREDICTED BY IDOCK:   -4.27 KCAL/MOL
REMARK 923 INTER-LIGAND FREE ENERGY PREDICTED BY IDOCK:   -4.08 KCAL/MOL
REMARK 924 INTRA-LIGAND FREE ENERGY PREDICTED BY IDOCK:   -0.19 KCAL/MOL
REMARK 927      BINDING AFFINITY PREDICTED BY RF-SCORE:    0.00 PKD
ROOT
HETATM    1  C   UNL     1      -9.787   8.184  71.269  1.00  0.00    -0.207 C  
HETATM    2  C   UNL     1     -10.808   7.789  70.202  1.00  0.00    -0.244 C  
HETATM    3  C   UNL     1     -12.059   7.218  70.877  1.00  0.00    -0.326 C  
ENDROOT
BRANCH   2   4
HETATM    4  N   UNL     1     -11.119   8.965  69.378  1.00  0.00    -0.436 NA 
HETATM    5  H   UNL     1     -11.610   9.677  69.920  1.00  0.00     0.000 HD 
BRANCH   4   6
HETATM    6  C   UNL     1      -9.918   9.522  68.731  1.00  0.00    -0.174 C  
BRANCH   6   7
HETATM    7  C   UNL     1     -10.172  10.887  68.048  1.00  0.00    -0.178 C  
HETATM    8  H   UNL     1      -9.536  12.733  68.268  1.00  0.00     0.000 HD 
HETATM    9  O   UNL     1      -9.379  11.895  68.687  1.00  0.00    -0.165 OA 
BRANCH   7  10
HETATM   10  C   UNL     1      -9.864  10.878  66.557  1.00  0.00    -0.245 A  
HETATM   11  C   UNL     1     -10.882  11.176  65.634  1.00  0.00    -0.206 A  
HETATM   12  C   UNL     1     -10.614  11.144  64.264  1.00  0.00    -0.357 A  
HETATM   13  C   UNL     1      -9.349  10.829  63.783  1.00  0.00    -0.295 A  
HETATM   14  O   UNL     1     -11.583  11.414  63.342  1.00  0.00    -0.752 OA 
HETATM   15  H   UNL     1     -11.401  11.392  62.411  1.00  0.00     0.000 HD 
HETATM   16  C   UNL     1      -8.337  10.558  64.692  1.00  0.00    -0.114 A  
HETATM   17  O   UNL     1      -7.075  10.243  64.286  1.00  0.00    -0.216 OA 
HETATM   18  C   UNL     1      -8.580  10.592  66.062  1.00  0.00    -0.166 A  
HETATM   19  H   UNL     1      -6.381  10.058  64.909  1.00  0.00     0.000 HD 
ENDBRANCH   7  10
ENDBRANCH   6   7
ENDBRANCH   4   6
ENDBRANCH   2   4
TORSDOF 4
ENDMDL
MODEL      236
REMARK 921   NORMALIZED FREE ENERGY PREDICTED BY IDOCK:   -3.22 KCAL/MOL
REMARK 922        TOTAL FREE ENERGY PREDICTED BY IDOCK:   -4.26 KCAL/MOL
REMARK 923 INTER-LIGAND FREE ENERGY PREDICTED BY IDOCK:   -4.04 KCAL/MOL
REMARK 924 INTRA-LIGAND FREE ENERGY PREDICTED BY IDOCK:   -0.21 KCAL/MOL
REMARK 927      BINDING AFFINITY PREDICTED BY RF-SCORE:    0.00 PKD
ROOT
HETATM    1  C   UNL     1      -5.309  19.329  69.183  1.00  0.00    -0.212 C  
HETATM    2  C   UNL     1      -6.086  19.296  67.867  1.00  0.00    -0.203 C  
HETATM    3  C   UNL     1      -5.355  18.400  66.862  1.00  0.00    -0.148 C  
ENDROOT
BRANCH   2   4
HETATM    4  N   UNL     1      -7.452  18.821  68.131  1.00  0.00    -0.258 NA 
HETATM    5  H   UNL     1      -7.566  18.546  69.107  1.00  0.00     0.000 HD 
BRANCH   4   6
HETATM    6  C   UNL     1      -8.470  19.810  67.733  1.00  0.00    -0.317 C  
BRANCH   6   7
HETATM    7  C   UNL     1      -9.667  19.181  66.981  1.00  0.00    -0.325 C  
HETATM    8  H   UNL     1     -10.072  18.650  65.133  1.00  0.00     0.000 HD 
HETATM    9  O   UNL     1      -9.336  19.036  65.595  1.00  0.00    -0.287 OA 
BRANCH   7  10
HETATM   10  C   UNL     1     -10.083  17.828  67.541  1.00  0.00    -0.340 A  
HETATM   11  C   UNL     1     -10.552  17.737  68.863  1.00  0.00    -0.084 A  
HETATM   12  C   UNL     1     -10.910  16.495  69.393  1.00  0.00    -0.311 A  
HETATM   13  C   UNL     1     -10.823  15.335  68.635  1.00  0.00    -0.253 A  
HETATM   14  O   UNL     1     -11.355  16.371  70.677  1.00  0.00    -0.486 OA 
HETATM   15  H   UNL     1     -11.599  15.526  71.038  1.00  0.00     0.000 HD 
HETATM   16  C   UNL     1     -10.383  15.425  67.323  1.00  0.00    -0.271 A  
HETATM   17  O   UNL     1     -10.276  14.325  66.525  1.00  0.00    -0.265 OA 
HETATM   18  C   UNL     1     -10.028  16.653  66.771  1.00  0.00    -0.284 A  
HETATM   19  H   UNL     1      -9.975  14.387  65.626  1.00  0.00     0.000 HD 
ENDBRANCH   7  10
ENDBRANCH   6   7
ENDBRANCH   4   6
ENDBRANCH   2   4
TORSDOF 4
ENDMDL
MODEL      237
REMARK 921   NORMALIZED FREE ENERGY PREDICTED BY IDOCK:   -3.21 KCAL/MOL
REMARK 922        TOTAL FREE ENERGY PREDICTED BY IDOCK:   -4.24 KCAL/MOL
REMARK 923 INTER-LIGAND FREE ENERGY PREDICTED BY IDOCK:   -3.95 KCAL/MOL
REMARK 924 INTRA-LIGAND FREE ENERGY PREDICTED BY IDOCK:   -0.29 KCAL/MOL
REMARK 927      BINDING AFFINITY PREDICTED BY RF-SCORE:    0.00 PKD
ROOT
HETATM    1  C   UNL     1     -10.628  19.358  66.677  1.00  0.00    -0.566 C  
HETATM    2  C   UNL     1      -9.276  18.655  66.550  1.00  0.00    -0.320 C  
HETATM    3  C   UNL     1      -8.640  18.515  67.937  1.00  0.00    -0.304 C  
ENDROOT
BRANCH   2   4
HETATM    4  N   UNL     1      -9.475  17.349  65.906  1.00  0.00    -0.529 NA 
HETATM    5  H   UNL     1      -9.153  17.361  64.938  1.00  0.00     0.000 HD 
BRANCH   4   6
HETATM    6  C   UNL     1      -8.845  16.254  66.664  1.00  0.00    -0.254 C  
BRANCH   6   7
HETATM    7  C   UNL     1      -9.840  15.140  67.066  1.00  0.00    -0.230 C  
HETATM    8  H   UNL     1     -11.770  14.817  66.883  1.00  0.00     0.000 HD 
HETATM    9  O   UNL     1     -11.158  15.501  66.636  1.00  0.00    -0.293 OA 
BRANCH   7  10
HETATM   10  C   UNL     1      -9.480  13.778  66.487  1.00  0.00    -0.282 A  
HETATM   11  C   UNL     1     -10.136  13.318  65.331  1.00  0.00    -0.267 A  
HETATM   12  C   UNL     1      -9.830  12.059  64.810  1.00  0.00    -0.163 A  
HETATM   13  C   UNL     1      -8.877  11.243  65.405  1.00  0.00    -0.055 A  
HETATM   14  O   UNL     1     -10.459  11.577  63.698  1.00  0.00    -0.348 OA 
HETATM   15  H   UNL     1     -10.251  10.721  63.344  1.00  0.00     0.000 HD 
HETATM   16  C   UNL     1      -8.212  11.705  66.531  1.00  0.00    -0.101 A  
HETATM   17  O   UNL     1      -7.265  10.954  67.163  1.00  0.00    -0.093 OA 
HETATM   18  C   UNL     1      -8.495  12.959  67.064  1.00  0.00    -0.146 A  
HETATM   19  H   UNL     1      -6.809  11.270  67.934  1.00  0.00     0.000 HD 
ENDBRANCH   7  10
ENDBRANCH   6   7
ENDBRANCH   4   6
ENDBRANCH   2   4
TORSDOF 4
ENDMDL
MODEL      238
REMARK 921   NORMALIZED FREE ENERGY PREDICTED BY IDOCK:   -3.21 KCAL/MOL
REMARK 922        TOTAL FREE ENERGY PREDICTED BY IDOCK:   -4.24 KCAL/MOL
REMARK 923 INTER-LIGAND FREE ENERGY PREDICTED BY IDOCK:   -3.84 KCAL/MOL
REMARK 924 INTRA-LIGAND FREE ENERGY PREDICTED BY IDOCK:   -0.39 KCAL/MOL
REMARK 927      BINDING AFFINITY PREDICTED BY RF-SCORE:    0.00 PKD
ROOT
HETATM    1  C   UNL     1     -10.860   9.971  69.165  1.00  0.00    -0.253 C  
HETATM    2  C   UNL     1      -9.568   9.731  68.383  1.00  0.00    -0.148 C  
HETATM    3  C   UNL     1      -9.193   8.247  68.456  1.00  0.00    -0.136 C  
ENDROOT
BRANCH   2   4
HETATM    4  N   UNL     1      -9.760  10.179  66.996  1.00  0.00    -0.174 NA 
HETATM    5  H   UNL     1      -9.590   9.420  66.336  1.00  0.00     0.000 HD 
BRANCH   4   6
HETATM    6  C   UNL     1     -11.088  10.782  66.786  1.00  0.00    -0.082 C  
BRANCH   6   7
HETATM    7  C   UNL     1     -11.025  12.294  66.463  1.00  0.00    -0.279 C  
HETATM    8  H   UNL     1     -12.143  13.597  65.507  1.00  0.00     0.000 HD 
HETATM    9  O   UNL     1     -12.182  12.668  65.706  1.00  0.00    -0.532 OA 
BRANCH   7  10
HETATM   10  C   UNL     1     -10.936  13.169  67.706  1.00  0.00    -0.272 A  
HETATM   11  C   UNL     1     -12.104  13.477  68.426  1.00  0.00    -0.293 A  
HETATM   12  C   UNL     1     -12.034  14.300  69.553  1.00  0.00    -0.336 A  
HETATM   13  C   UNL     1     -10.824  14.822  69.990  1.00  0.00    -0.146 A  
HETATM   14  O   UNL     1     -13.151  14.629  70.264  1.00  0.00    -0.566 OA 
HETATM   15  H   UNL     1     -13.103  15.189  71.030  1.00  0.00     0.000 HD 
HETATM   16  C   UNL     1      -9.667  14.501  69.296  1.00  0.00     0.017 A  
HETATM   17  O   UNL     1      -8.448  14.980  69.674  1.00  0.00    -0.416 OA 
HETATM   18  C   UNL     1      -9.712  13.676  68.176  1.00  0.00    -0.229 A  
HETATM   19  H   UNL     1      -7.655  14.759  69.199  1.00  0.00     0.000 HD 
ENDBRANCH   7  10
ENDBRANCH   6   7
ENDBRANCH   4   6
ENDBRANCH   2   4
TORSDOF 4
ENDMDL
MODEL      239
REMARK 921   NORMALIZED FREE ENERGY PREDICTED BY IDOCK:   -3.21 KCAL/MOL
REMARK 922        TOTAL FREE ENERGY PREDICTED BY IDOCK:   -4.24 KCAL/MOL
REMARK 923 INTER-LIGAND FREE ENERGY PREDICTED BY IDOCK:   -4.06 KCAL/MOL
REMARK 924 INTRA-LIGAND FREE ENERGY PREDICTED BY IDOCK:   -0.18 KCAL/MOL
REMARK 927      BINDING AFFINITY PREDICTED BY RF-SCORE:    0.00 PKD
ROOT
HETATM    1  C   UNL     1     -10.496  11.127  67.737  1.00  0.00    -0.225 C  
HETATM    2  C   UNL     1      -9.083  11.678  67.546  1.00  0.00    -0.172 C  
HETATM    3  C   UNL     1      -8.112  10.520  67.291  1.00  0.00    -0.115 C  
ENDROOT
BRANCH   2   4
HETATM    4  N   UNL     1      -9.092  12.640  66.435  1.00  0.00    -0.398 NA 
HETATM    5  H   UNL     1      -9.407  12.202  65.569  1.00  0.00     0.000 HD 
BRANCH   4   6
HETATM    6  C   UNL     1      -9.888  13.840  66.747  1.00  0.00    -0.275 C  
BRANCH   6   7
HETATM    7  C   UNL     1      -9.734  14.963  65.693  1.00  0.00    -0.291 C  
HETATM    8  H   UNL     1     -10.866  15.795  64.320  1.00  0.00     0.000 HD 
HETATM    9  O   UNL     1     -10.961  15.106  64.967  1.00  0.00    -0.381 OA 
BRANCH   7  10
HETATM   10  C   UNL     1      -9.352  16.306  66.301  1.00  0.00    -0.360 A  
HETATM   11  C   UNL     1      -8.098  16.871  66.006  1.00  0.00    -0.164 A  
HETATM   12  C   UNL     1      -7.730  18.090  66.580  1.00  0.00    -0.238 A  
HETATM   13  C   UNL     1      -8.584  18.771  67.438  1.00  0.00    -0.289 A  
HETATM   14  O   UNL     1      -6.515  18.657  66.326  1.00  0.00    -0.181 OA 
HETATM   15  H   UNL     1      -6.264  19.486  66.717  1.00  0.00     0.000 HD 
HETATM   16  C   UNL     1      -9.830  18.228  67.711  1.00  0.00    -0.318 A  
HETATM   17  O   UNL     1     -10.715  18.846  68.543  1.00  0.00    -0.343 OA 
HETATM   18  C   UNL     1     -10.222  17.018  67.144  1.00  0.00    -0.306 A  
HETATM   19  H   UNL     1     -11.570  18.475  68.730  1.00  0.00     0.000 HD 
ENDBRANCH   7  10
ENDBRANCH   6   7
ENDBRANCH   4   6
ENDBRANCH   2   4
TORSDOF 4
ENDMDL
MODEL      240
REMARK 921   NORMALIZED FREE ENERGY PREDICTED BY IDOCK:   -3.17 KCAL/MOL
REMARK 922        TOTAL FREE ENERGY PREDICTED BY IDOCK:   -4.19 KCAL/MOL
REMARK 923 INTER-LIGAND FREE ENERGY PREDICTED BY IDOCK:   -4.39 KCAL/MOL
REMARK 924 INTRA-LIGAND FREE ENERGY PREDICTED BY IDOCK:    0.20 KCAL/MOL
REMARK 927      BINDING AFFINITY PREDICTED BY RF-SCORE:    0.00 PKD
ROOT
HETATM    1  C   UNL     1      -5.733   8.363  65.188  1.00  0.00    -0.044 C  
HETATM    2  C   UNL     1      -7.260   8.358  65.107  1.00  0.00    -0.080 C  
HETATM    3  C   UNL     1      -7.829   7.464  66.214  1.00  0.00    -0.106 C  
ENDROOT
BRANCH   2   4
HETATM    4  N   UNL     1      -7.749   9.740  65.214  1.00  0.00    -0.116 NA 
HETATM    5  H   UNL     1      -7.044  10.406  64.897  1.00  0.00     0.000 HD 
BRANCH   4   6
HETATM    6  C   UNL     1      -9.025   9.933  64.503  1.00  0.00    -0.234 C  
BRANCH   6   7
HETATM    7  C   UNL     1     -10.245  10.006  65.451  1.00  0.00    -0.156 C  
HETATM    8  H   UNL     1     -10.613   9.594  67.337  1.00  0.00     0.000 HD 
HETATM    9  O   UNL     1      -9.863   9.550  66.754  1.00  0.00    -0.187 OA 
BRANCH   7  10
HETATM   10  C   UNL     1     -10.835  11.405  65.563  1.00  0.00    -0.282 A  
HETATM   11  C   UNL     1     -11.305  12.056  64.409  1.00  0.00    -0.411 A  
HETATM   12  C   UNL     1     -11.823  13.350  64.499  1.00  0.00    -0.398 A  
HETATM   13  C   UNL     1     -11.896  14.015  65.716  1.00  0.00    -0.393 A  
HETATM   14  O   UNL     1     -12.273  14.015  63.395  1.00  0.00    -1.039 OA 
HETATM   15  H   UNL     1     -12.625  14.895  63.457  1.00  0.00     0.000 HD 
HETATM   16  C   UNL     1     -11.455  13.366  66.860  1.00  0.00    -0.342 A  
HETATM   17  O   UNL     1     -11.500  13.962  68.085  1.00  0.00    -0.277 OA 
HETATM   18  C   UNL     1     -10.942  12.073  66.795  1.00  0.00    -0.329 A  
HETATM   19  H   UNL     1     -11.199  13.517  68.869  1.00  0.00     0.000 HD 
ENDBRANCH   7  10
ENDBRANCH   6   7
ENDBRANCH   4   6
ENDBRANCH   2   4
TORSDOF 4
ENDMDL
MODEL      241
REMARK 921   NORMALIZED FREE ENERGY PREDICTED BY IDOCK:   -3.15 KCAL/MOL
REMARK 922        TOTAL FREE ENERGY PREDICTED BY IDOCK:   -4.17 KCAL/MOL
REMARK 923 INTER-LIGAND FREE ENERGY PREDICTED BY IDOCK:   -3.93 KCAL/MOL
REMARK 924 INTRA-LIGAND FREE ENERGY PREDICTED BY IDOCK:   -0.24 KCAL/MOL
REMARK 927      BINDING AFFINITY PREDICTED BY RF-SCORE:    0.00 PKD
ROOT
HETATM    1  C   UNL     1     -10.475   3.928  74.193  1.00  0.00    -0.272 C  
HETATM    2  C   UNL     1     -10.199   4.960  73.099  1.00  0.00    -0.169 C  
HETATM    3  C   UNL     1      -9.968   4.243  71.764  1.00  0.00    -0.254 C  
ENDROOT
BRANCH   2   4
HETATM    4  N   UNL     1     -11.330   5.895  73.028  1.00  0.00    -0.460 NA 
HETATM    5  H   UNL     1     -11.832   5.937  73.916  1.00  0.00     0.000 HD 
BRANCH   4   6
HETATM    6  C   UNL     1     -10.913   7.238  72.587  1.00  0.00    -0.299 C  
BRANCH   6   7
HETATM    7  C   UNL     1     -11.837   7.837  71.500  1.00  0.00    -0.293 C  
HETATM    8  H   UNL     1     -12.638   9.589  71.115  1.00  0.00     0.000 HD 
HETATM    9  O   UNL     1     -12.070   9.221  71.783  1.00  0.00    -0.346 OA 
BRANCH   7  10
HETATM   10  C   UNL     1     -11.273   7.700  70.093  1.00  0.00    -0.193 A  
HETATM   11  C   UNL     1     -11.176   6.427  69.502  1.00  0.00    -0.477 A  
HETATM   12  C   UNL     1     -10.636   6.291  68.222  1.00  0.00    -0.258 A  
HETATM   13  C   UNL     1     -10.194   7.395  67.504  1.00  0.00    -0.289 A  
HETATM   14  O   UNL     1     -10.515   5.069  67.627  1.00  0.00    -0.117 OA 
HETATM   15  H   UNL     1     -10.147   4.976  66.757  1.00  0.00     0.000 HD 
HETATM   16  C   UNL     1     -10.311   8.654  68.074  1.00  0.00    -0.223 A  
HETATM   17  O   UNL     1      -9.897   9.777  67.422  1.00  0.00    -0.160 OA 
HETATM   18  C   UNL     1     -10.853   8.814  69.346  1.00  0.00    -0.123 A  
HETATM   19  H   UNL     1      -9.977  10.640  67.813  1.00  0.00     0.000 HD 
ENDBRANCH   7  10
ENDBRANCH   6   7
ENDBRANCH   4   6
ENDBRANCH   2   4
TORSDOF 4
ENDMDL
MODEL      242
REMARK 921   NORMALIZED FREE ENERGY PREDICTED BY IDOCK:   -3.14 KCAL/MOL
REMARK 922        TOTAL FREE ENERGY PREDICTED BY IDOCK:   -4.16 KCAL/MOL
REMARK 923 INTER-LIGAND FREE ENERGY PREDICTED BY IDOCK:   -3.96 KCAL/MOL
REMARK 924 INTRA-LIGAND FREE ENERGY PREDICTED BY IDOCK:   -0.20 KCAL/MOL
REMARK 927      BINDING AFFINITY PREDICTED BY RF-SCORE:    0.00 PKD
ROOT
HETATM    1  C   UNL     1     -11.831  12.286  66.058  1.00  0.00    -0.409 C  
HETATM    2  C   UNL     1     -11.295  12.252  67.490  1.00  0.00    -0.325 C  
HETATM    3  C   UNL     1     -11.895  13.413  68.289  1.00  0.00    -0.393 C  
ENDROOT
BRANCH   2   4
HETATM    4  N   UNL     1     -11.617  10.950  68.090  1.00  0.00    -0.554 NA 
HETATM    5  H   UNL     1     -12.338  10.465  67.555  1.00  0.00     0.000 HD 
BRANCH   4   6
HETATM    6  C   UNL     1     -10.421  10.106  68.261  1.00  0.00    -0.211 C  
BRANCH   6   7
HETATM    7  C   UNL     1     -10.703   8.600  68.043  1.00  0.00    -0.074 C  
HETATM    8  H   UNL     1      -9.912   7.138  66.995  1.00  0.00     0.000 HD 
HETATM    9  O   UNL     1      -9.739   8.063  67.129  1.00  0.00    -0.165 OA 
BRANCH   7  10
HETATM   10  C   UNL     1     -10.674   7.793  69.333  1.00  0.00    -0.177 A  
HETATM   11  C   UNL     1      -9.764   6.729  69.469  1.00  0.00    -0.154 A  
HETATM   12  C   UNL     1      -9.750   5.967  70.639  1.00  0.00    -0.174 A  
HETATM   13  C   UNL     1     -10.617   6.242  71.689  1.00  0.00    -0.271 A  
HETATM   14  O   UNL     1      -8.889   4.920  70.796  1.00  0.00    -0.120 OA 
HETATM   15  H   UNL     1      -8.880   4.401  71.592  1.00  0.00     0.000 HD 
HETATM   16  C   UNL     1     -11.499   7.305  71.568  1.00  0.00    -0.263 A  
HETATM   17  O   UNL     1     -12.374   7.627  72.562  1.00  0.00    -0.526 OA 
HETATM   18  C   UNL     1     -11.525   8.083  70.414  1.00  0.00    -0.140 A  
HETATM   19  H   UNL     1     -12.978   8.356  72.479  1.00  0.00     0.000 HD 
ENDBRANCH   7  10
ENDBRANCH   6   7
ENDBRANCH   4   6
ENDBRANCH   2   4
TORSDOF 4
ENDMDL
MODEL      243
REMARK 921   NORMALIZED FREE ENERGY PREDICTED BY IDOCK:   -3.14 KCAL/MOL
REMARK 922        TOTAL FREE ENERGY PREDICTED BY IDOCK:   -4.15 KCAL/MOL
REMARK 923 INTER-LIGAND FREE ENERGY PREDICTED BY IDOCK:   -3.76 KCAL/MOL
REMARK 924 INTRA-LIGAND FREE ENERGY PREDICTED BY IDOCK:   -0.39 KCAL/MOL
REMARK 927      BINDING AFFINITY PREDICTED BY RF-SCORE:    0.00 PKD
ROOT
HETATM    1  C   UNL     1     -12.516  12.198  70.746  1.00  0.00    -0.362 C  
HETATM    2  C   UNL     1     -11.634  11.042  70.273  1.00  0.00    -0.322 C  
HETATM    3  C   UNL     1     -11.850   9.827  71.181  1.00  0.00    -0.466 C  
ENDROOT
BRANCH   2   4
HETATM    4  N   UNL     1     -11.953  10.741  68.870  1.00  0.00    -0.672 NA 
HETATM    5  H   UNL     1     -12.543  11.466  68.461  1.00  0.00     0.000 HD 
BRANCH   4   6
HETATM    6  C   UNL     1     -10.742  10.520  68.060  1.00  0.00    -0.245 C  
BRANCH   6   7
HETATM    7  C   UNL     1     -10.771   9.189  67.273  1.00  0.00    -0.154 C  
HETATM    8  H   UNL     1     -10.146   8.552  65.522  1.00  0.00     0.000 HD 
HETATM    9  O   UNL     1     -10.128   9.370  66.006  1.00  0.00    -0.300 OA 
BRANCH   7  10
HETATM   10  C   UNL     1     -10.101   8.040  68.014  1.00  0.00    -0.238 A  
HETATM   11  C   UNL     1      -8.727   7.801  67.832  1.00  0.00    -0.124 A  
HETATM   12  C   UNL     1      -8.111   6.733  68.488  1.00  0.00    -0.120 A  
HETATM   13  C   UNL     1      -8.827   5.896  69.334  1.00  0.00    -0.122 A  
HETATM   14  O   UNL     1      -6.783   6.465  68.321  1.00  0.00    -0.063 OA 
HETATM   15  H   UNL     1      -6.364   5.739  68.767  1.00  0.00     0.000 HD 
HETATM   16  C   UNL     1     -10.177   6.144  69.534  1.00  0.00    -0.198 A  
HETATM   17  O   UNL     1     -10.936   5.361  70.352  1.00  0.00    -0.212 OA 
HETATM   18  C   UNL     1     -10.810   7.206  68.897  1.00  0.00    -0.160 A  
HETATM   19  H   UNL     1     -11.861   5.530  70.490  1.00  0.00     0.000 HD 
ENDBRANCH   7  10
ENDBRANCH   6   7
ENDBRANCH   4   6
ENDBRANCH   2   4
TORSDOF 4
ENDMDL
MODEL      244
REMARK 921   NORMALIZED FREE ENERGY PREDICTED BY IDOCK:   -3.13 KCAL/MOL
REMARK 922        TOTAL FREE ENERGY PREDICTED BY IDOCK:   -4.15 KCAL/MOL
REMARK 923 INTER-LIGAND FREE ENERGY PREDICTED BY IDOCK:   -3.91 KCAL/MOL
REMARK 924 INTRA-LIGAND FREE ENERGY PREDICTED BY IDOCK:   -0.24 KCAL/MOL
REMARK 927      BINDING AFFINITY PREDICTED BY RF-SCORE:    0.00 PKD
ROOT
HETATM    1  C   UNL     1      -7.307   6.942  68.952  1.00  0.00    -0.094 C  
HETATM    2  C   UNL     1      -7.898   8.186  68.287  1.00  0.00    -0.122 C  
HETATM    3  C   UNL     1      -8.607   7.785  66.989  1.00  0.00    -0.129 C  
ENDROOT
BRANCH   2   4
HETATM    4  N   UNL     1      -8.814   8.843  69.230  1.00  0.00    -0.138 NA 
HETATM    5  H   UNL     1      -8.568   9.824  69.361  1.00  0.00     0.000 HD 
BRANCH   4   6
HETATM    6  C   UNL     1     -10.224   8.695  68.829  1.00  0.00    -0.207 C  
BRANCH   6   7
HETATM    7  C   UNL     1     -11.152   9.756  69.466  1.00  0.00    -0.192 C  
HETATM    8  H   UNL     1     -11.344  10.614  71.223  1.00  0.00     0.000 HD 
HETATM    9  O   UNL     1     -10.774   9.962  70.832  1.00  0.00    -0.311 OA 
BRANCH   7  10
HETATM   10  C   UNL     1     -11.128  11.090  68.733  1.00  0.00    -0.293 A  
HETATM   11  C   UNL     1     -10.399  11.214  67.536  1.00  0.00    -0.228 A  
HETATM   12  C   UNL     1     -10.351  12.441  66.871  1.00  0.00    -0.224 A  
HETATM   13  C   UNL     1     -11.019  13.555  67.363  1.00  0.00    -0.286 A  
HETATM   14  O   UNL     1      -9.641  12.598  65.716  1.00  0.00    -0.389 OA 
HETATM   15  H   UNL     1      -9.607  13.432  65.265  1.00  0.00     0.000 HD 
HETATM   16  C   UNL     1     -11.758  13.430  68.530  1.00  0.00    -0.357 A  
HETATM   17  O   UNL     1     -12.438  14.484  69.064  1.00  0.00    -0.571 OA 
HETATM   18  C   UNL     1     -11.827  12.215  69.205  1.00  0.00    -0.370 A  
HETATM   19  H   UNL     1     -12.944  14.398  69.864  1.00  0.00     0.000 HD 
ENDBRANCH   7  10
ENDBRANCH   6   7
ENDBRANCH   4   6
ENDBRANCH   2   4
TORSDOF 4
ENDMDL
MODEL      245
REMARK 921   NORMALIZED FREE ENERGY PREDICTED BY IDOCK:   -3.11 KCAL/MOL
REMARK 922        TOTAL FREE ENERGY PREDICTED BY IDOCK:   -4.12 KCAL/MOL
REMARK 923 INTER-LIGAND FREE ENERGY PREDICTED BY IDOCK:   -4.00 KCAL/MOL
REMARK 924 INTRA-LIGAND FREE ENERGY PREDICTED BY IDOCK:   -0.12 KCAL/MOL
REMARK 927      BINDING AFFINITY PREDICTED BY RF-SCORE:    0.00 PKD
ROOT
HETATM    1  C   UNL     1      -6.668   6.432  73.064  1.00  0.00    -0.073 C  
HETATM    2  C   UNL     1      -7.483   5.505  72.162  1.00  0.00    -0.099 C  
HETATM    3  C   UNL     1      -7.442   4.080  72.722  1.00  0.00    -0.073 C  
ENDROOT
BRANCH   2   4
HETATM    4  N   UNL     1      -8.858   6.017  72.069  1.00  0.00    -0.137 NA 
HETATM    5  H   UNL     1      -9.146   6.464  72.940  1.00  0.00     0.000 HD 
BRANCH   4   6
HETATM    6  C   UNL     1      -9.036   6.923  70.921  1.00  0.00    -0.149 C  
BRANCH   6   7
HETATM    7  C   UNL     1      -9.367   8.376  71.337  1.00  0.00    -0.190 C  
HETATM    8  H   UNL     1      -9.022  10.177  70.631  1.00  0.00     0.000 HD 
HETATM    9  O   UNL     1      -8.819   9.284  70.375  1.00  0.00    -0.195 OA 
BRANCH   7  10
HETATM   10  C   UNL     1     -10.862   8.633  71.475  1.00  0.00    -0.352 A  
HETATM   11  C   UNL     1     -11.364   9.933  71.284  1.00  0.00    -0.404 A  
HETATM   12  C   UNL     1     -12.730  10.182  71.434  1.00  0.00    -0.425 A  
HETATM   13  C   UNL     1     -13.618   9.166  71.762  1.00  0.00    -0.476 A  
HETATM   14  O   UNL     1     -13.247  11.435  71.271  1.00  0.00    -0.264 OA 
HETATM   15  H   UNL     1     -14.176  11.604  71.373  1.00  0.00     0.000 HD 
HETATM   16  C   UNL     1     -13.128   7.878  71.927  1.00  0.00    -0.289 A  
HETATM   17  O   UNL     1     -13.946   6.836  72.248  1.00  0.00    -0.556 OA 
HETATM   18  C   UNL     1     -11.772   7.605  71.775  1.00  0.00    -0.319 A  
HETATM   19  H   UNL     1     -13.611   5.954  72.360  1.00  0.00     0.000 HD 
ENDBRANCH   7  10
ENDBRANCH   6   7
ENDBRANCH   4   6
ENDBRANCH   2   4
TORSDOF 4
ENDMDL
MODEL      246
REMARK 921   NORMALIZED FREE ENERGY PREDICTED BY IDOCK:   -3.11 KCAL/MOL
REMARK 922        TOTAL FREE ENERGY PREDICTED BY IDOCK:   -4.12 KCAL/MOL
REMARK 923 INTER-LIGAND FREE ENERGY PREDICTED BY IDOCK:   -3.83 KCAL/MOL
REMARK 924 INTRA-LIGAND FREE ENERGY PREDICTED BY IDOCK:   -0.28 KCAL/MOL
REMARK 927      BINDING AFFINITY PREDICTED BY RF-SCORE:    0.00 PKD
ROOT
HETATM    1  C   UNL     1      -7.374  10.156  68.999  1.00  0.00    -0.087 C  
HETATM    2  C   UNL     1      -7.508  11.521  68.323  1.00  0.00    -0.103 C  
HETATM    3  C   UNL     1      -7.249  11.376  66.819  1.00  0.00    -0.131 C  
ENDROOT
BRANCH   2   4
HETATM    4  N   UNL     1      -8.846  12.061  68.598  1.00  0.00    -0.367 NA 
HETATM    5  H   UNL     1      -8.830  12.704  69.390  1.00  0.00     0.000 HD 
BRANCH   4   6
HETATM    6  C   UNL     1      -9.444  12.695  67.409  1.00  0.00    -0.189 C  
BRANCH   6   7
HETATM    7  C   UNL     1     -10.561  13.709  67.757  1.00  0.00    -0.242 C  
HETATM    8  H   UNL     1     -11.735  14.068  69.291  1.00  0.00     0.000 HD 
HETATM    9  O   UNL     1     -11.049  13.446  69.077  1.00  0.00    -0.255 OA 
BRANCH   7  10
HETATM   10  C   UNL     1     -10.102  15.158  67.672  1.00  0.00    -0.231 A  
HETATM   11  C   UNL     1      -9.160  15.534  66.698  1.00  0.00    -0.310 A  
HETATM   12  C   UNL     1      -8.714  16.856  66.630  1.00  0.00    -0.247 A  
HETATM   13  C   UNL     1      -9.190  17.823  67.506  1.00  0.00    -0.244 A  
HETATM   14  O   UNL     1      -7.790  17.249  65.706  1.00  0.00    -0.495 OA 
HETATM   15  H   UNL     1      -7.487  18.148  65.660  1.00  0.00     0.000 HD 
HETATM   16  C   UNL     1     -10.137  17.460  68.452  1.00  0.00    -0.347 A  
HETATM   17  O   UNL     1     -10.644  18.361  69.340  1.00  0.00    -0.298 OA 
HETATM   18  C   UNL     1     -10.601  16.151  68.533  1.00  0.00    -0.284 A  
HETATM   19  H   UNL     1     -11.293  18.113  69.988  1.00  0.00     0.000 HD 
ENDBRANCH   7  10
ENDBRANCH   6   7
ENDBRANCH   4   6
ENDBRANCH   2   4
TORSDOF 4
ENDMDL
MODEL      247
REMARK 921   NORMALIZED FREE ENERGY PREDICTED BY IDOCK:   -3.10 KCAL/MOL
REMARK 922        TOTAL FREE ENERGY PREDICTED BY IDOCK:   -4.10 KCAL/MOL
REMARK 923 INTER-LIGAND FREE ENERGY PREDICTED BY IDOCK:   -4.10 KCAL/MOL
REMARK 924 INTRA-LIGAND FREE ENERGY PREDICTED BY IDOCK:   -0.00 KCAL/MOL
REMARK 927      BINDING AFFINITY PREDICTED BY RF-SCORE:    0.00 PKD
ROOT
HETATM    1  C   UNL     1     -11.587  11.825  65.666  1.00  0.00    -0.190 C  
HETATM    2  C   UNL     1     -10.949  13.104  65.124  1.00  0.00    -0.298 C  
HETATM    3  C   UNL     1     -11.852  13.710  64.045  1.00  0.00    -0.444 C  
ENDROOT
BRANCH   2   4
HETATM    4  N   UNL     1     -10.727  14.036  66.238  1.00  0.00    -0.286 NA 
HETATM    5  H   UNL     1      -9.843  13.844  66.710  1.00  0.00     0.000 HD 
BRANCH   4   6
HETATM    6  C   UNL     1     -10.807  15.444  65.809  1.00  0.00    -0.343 C  
BRANCH   6   7
HETATM    7  C   UNL     1     -10.662  16.446  66.979  1.00  0.00    -0.217 C  
HETATM    8  H   UNL     1     -11.216  16.532  68.861  1.00  0.00     0.000 HD 
HETATM    9  O   UNL     1     -11.305  15.916  68.143  1.00  0.00    -0.345 OA 
BRANCH   7  10
HETATM   10  C   UNL     1      -9.212  16.771  67.312  1.00  0.00    -0.234 A  
HETATM   11  C   UNL     1      -8.214  15.804  67.095  1.00  0.00    -0.237 A  
HETATM   12  C   UNL     1      -6.886  16.085  67.423  1.00  0.00    -0.189 A  
HETATM   13  C   UNL     1      -6.519  17.315  67.955  1.00  0.00    -0.161 A  
HETATM   14  O   UNL     1      -5.897  15.163  67.239  1.00  0.00    -0.326 OA 
HETATM   15  H   UNL     1      -4.994  15.354  67.462  1.00  0.00     0.000 HD 
HETATM   16  C   UNL     1      -7.497  18.279  68.146  1.00  0.00    -0.263 A  
HETATM   17  O   UNL     1      -7.203  19.505  68.664  1.00  0.00    -0.312 OA 
HETATM   18  C   UNL     1      -8.826  18.023  67.820  1.00  0.00    -0.255 A  
HETATM   19  H   UNL     1      -7.873  20.167  68.795  1.00  0.00     0.000 HD 
ENDBRANCH   7  10
ENDBRANCH   6   7
ENDBRANCH   4   6
ENDBRANCH   2   4
TORSDOF 4
ENDMDL
MODEL      248
REMARK 921   NORMALIZED FREE ENERGY PREDICTED BY IDOCK:   -3.10 KCAL/MOL
REMARK 922        TOTAL FREE ENERGY PREDICTED BY IDOCK:   -4.10 KCAL/MOL
REMARK 923 INTER-LIGAND FREE ENERGY PREDICTED BY IDOCK:   -3.68 KCAL/MOL
REMARK 924 INTRA-LIGAND FREE ENERGY PREDICTED BY IDOCK:   -0.42 KCAL/MOL
REMARK 927      BINDING AFFINITY PREDICTED BY RF-SCORE:    0.00 PKD
ROOT
HETATM    1  C   UNL     1     -12.510  12.395  70.835  1.00  0.00    -0.367 C  
HETATM    2  C   UNL     1     -11.915  11.047  70.425  1.00  0.00    -0.368 C  
HETATM    3  C   UNL     1     -12.522   9.936  71.288  1.00  0.00    -0.479 C  
ENDROOT
BRANCH   2   4
HETATM    4  N   UNL     1     -12.167  10.829  68.994  1.00  0.00    -0.761 NA 
HETATM    5  H   UNL     1     -12.359  11.709  68.514  1.00  0.00     0.000 HD 
BRANCH   4   6
HETATM    6  C   UNL     1     -11.067  10.095  68.343  1.00  0.00    -0.218 C  
BRANCH   6   7
HETATM    7  C   UNL     1      -9.695  10.332  69.017  1.00  0.00    -0.205 C  
HETATM    8  H   UNL     1      -8.095   9.261  69.410  1.00  0.00     0.000 HD 
HETATM    9  O   UNL     1      -8.938   9.116  68.996  1.00  0.00    -0.139 OA 
BRANCH   7  10
HETATM   10  C   UNL     1      -8.885  11.437  68.353  1.00  0.00    -0.167 A  
HETATM   11  C   UNL     1      -7.775  11.104  67.556  1.00  0.00    -0.116 A  
HETATM   12  C   UNL     1      -7.011  12.114  66.966  1.00  0.00    -0.068 A  
HETATM   13  C   UNL     1      -7.329  13.455  67.140  1.00  0.00     0.098 A  
HETATM   14  O   UNL     1      -5.920  11.825  66.199  1.00  0.00    -0.491 OA 
HETATM   15  H   UNL     1      -5.401  12.511  65.798  1.00  0.00     0.000 HD 
HETATM   16  C   UNL     1      -8.437  13.785  67.906  1.00  0.00    -0.176 A  
HETATM   17  O   UNL     1      -8.804  15.081  68.115  1.00  0.00    -0.161 OA 
HETATM   18  C   UNL     1      -9.217  12.795  68.498  1.00  0.00    -0.062 A  
HETATM   19  H   UNL     1      -9.563  15.308  68.640  1.00  0.00     0.000 HD 
ENDBRANCH   7  10
ENDBRANCH   6   7
ENDBRANCH   4   6
ENDBRANCH   2   4
TORSDOF 4
ENDMDL
MODEL      249
REMARK 921   NORMALIZED FREE ENERGY PREDICTED BY IDOCK:   -3.08 KCAL/MOL
REMARK 922        TOTAL FREE ENERGY PREDICTED BY IDOCK:   -4.09 KCAL/MOL
REMARK 923 INTER-LIGAND FREE ENERGY PREDICTED BY IDOCK:   -3.78 KCAL/MOL
REMARK 924 INTRA-LIGAND FREE ENERGY PREDICTED BY IDOCK:   -0.30 KCAL/MOL
REMARK 927      BINDING AFFINITY PREDICTED BY RF-SCORE:    0.00 PKD
ROOT
HETATM    1  C   UNL     1     -12.298  14.291  70.210  1.00  0.00    -0.418 C  
HETATM    2  C   UNL     1     -11.775  15.706  70.464  1.00  0.00    -0.366 C  
HETATM    3  C   UNL     1     -12.006  16.081  71.932  1.00  0.00    -0.606 C  
ENDROOT
BRANCH   2   4
HETATM    4  N   UNL     1     -10.351  15.761  70.103  1.00  0.00    -0.278 NA 
HETATM    5  H   UNL     1     -10.010  14.847  69.804  1.00  0.00     0.000 HD 
BRANCH   4   6
HETATM    6  C   UNL     1     -10.077  16.792  69.087  1.00  0.00    -0.280 C  
BRANCH   6   7
HETATM    7  C   UNL     1      -8.864  16.452  68.187  1.00  0.00    -0.192 C  
HETATM    8  H   UNL     1      -6.917  16.706  68.261  1.00  0.00     0.000 HD 
HETATM    9  O   UNL     1      -7.662  16.914  68.814  1.00  0.00    -0.227 OA 
BRANCH   7  10
HETATM   10  C   UNL     1      -8.736  14.964  67.893  1.00  0.00    -0.164 A  
HETATM   11  C   UNL     1      -9.700  14.327  67.092  1.00  0.00    -0.254 A  
HETATM   12  C   UNL     1      -9.604  12.957  66.838  1.00  0.00    -0.240 A  
HETATM   13  C   UNL     1      -8.561  12.200  67.356  1.00  0.00    -0.175 A  
HETATM   14  O   UNL     1     -10.532  12.307  66.078  1.00  0.00    -0.243 OA 
HETATM   15  H   UNL     1     -10.466  11.375  65.906  1.00  0.00     0.000 HD 
HETATM   16  C   UNL     1      -7.595  12.830  68.126  1.00  0.00    -0.134 A  
HETATM   17  O   UNL     1      -6.546  12.144  68.663  1.00  0.00    -0.066 OA 
HETATM   18  C   UNL     1      -7.667  14.195  68.385  1.00  0.00    -0.140 A  
HETATM   19  H   UNL     1      -5.884  12.575  69.190  1.00  0.00     0.000 HD 
ENDBRANCH   7  10
ENDBRANCH   6   7
ENDBRANCH   4   6
ENDBRANCH   2   4
TORSDOF 4
ENDMDL
MODEL      250
REMARK 921   NORMALIZED FREE ENERGY PREDICTED BY IDOCK:   -3.08 KCAL/MOL
REMARK 922        TOTAL FREE ENERGY PREDICTED BY IDOCK:   -4.08 KCAL/MOL
REMARK 923 INTER-LIGAND FREE ENERGY PREDICTED BY IDOCK:   -3.87 KCAL/MOL
REMARK 924 INTRA-LIGAND FREE ENERGY PREDICTED BY IDOCK:   -0.21 KCAL/MOL
REMARK 927      BINDING AFFINITY PREDICTED BY RF-SCORE:    0.00 PKD
ROOT
HETATM    1  C   UNL     1     -10.577  11.662  68.134  1.00  0.00    -0.230 C  
HETATM    2  C   UNL     1     -10.839  10.231  67.664  1.00  0.00    -0.307 C  
HETATM    3  C   UNL     1     -10.212  10.024  66.281  1.00  0.00    -0.285 C  
ENDROOT
BRANCH   2   4
HETATM    4  N   UNL     1     -10.296   9.295  68.657  1.00  0.00    -0.200 NA 
HETATM    5  H   UNL     1      -9.509   8.767  68.277  1.00  0.00     0.000 HD 
BRANCH   4   6
HETATM    6  C   UNL     1      -9.927   9.971  69.914  1.00  0.00    -0.237 C  
BRANCH   6   7
HETATM    7  C   UNL     1     -10.842   9.589  71.101  1.00  0.00    -0.355 C  
HETATM    8  H   UNL     1     -12.769   9.613  71.482  1.00  0.00     0.000 HD 
HETATM    9  O   UNL     1     -12.207   9.847  70.753  1.00  0.00    -0.293 OA 
BRANCH   7  10
HETATM   10  C   UNL     1     -10.699   8.134  71.525  1.00  0.00    -0.286 A  
HETATM   11  C   UNL     1      -9.442   7.508  71.449  1.00  0.00    -0.159 A  
HETATM   12  C   UNL     1      -9.308   6.165  71.811  1.00  0.00    -0.151 A  
HETATM   13  C   UNL     1     -10.396   5.426  72.257  1.00  0.00    -0.260 A  
HETATM   14  O   UNL     1      -8.105   5.525  71.736  1.00  0.00    -0.114 OA 
HETATM   15  H   UNL     1      -8.014   4.612  71.981  1.00  0.00     0.000 HD 
HETATM   16  C   UNL     1     -11.631   6.048  72.355  1.00  0.00    -0.300 A  
HETATM   17  O   UNL     1     -12.738   5.379  72.786  1.00  0.00    -0.358 OA 
HETATM   18  C   UNL     1     -11.787   7.386  72.007  1.00  0.00    -0.335 A  
HETATM   19  H   UNL     1     -13.585   5.805  72.854  1.00  0.00     0.000 HD 
ENDBRANCH   7  10
ENDBRANCH   6   7
ENDBRANCH   4   6
ENDBRANCH   2   4
TORSDOF 4
ENDMDL
MODEL      251
REMARK 921   NORMALIZED FREE ENERGY PREDICTED BY IDOCK:   -3.07 KCAL/MOL
REMARK 922        TOTAL FREE ENERGY PREDICTED BY IDOCK:   -4.06 KCAL/MOL
REMARK 923 INTER-LIGAND FREE ENERGY PREDICTED BY IDOCK:   -3.72 KCAL/MOL
REMARK 924 INTRA-LIGAND FREE ENERGY PREDICTED BY IDOCK:   -0.35 KCAL/MOL
REMARK 927      BINDING AFFINITY PREDICTED BY RF-SCORE:    0.00 PKD
ROOT
HETATM    1  C   UNL     1      -8.799  10.284  65.639  1.00  0.00    -0.186 C  
HETATM    2  C   UNL     1      -8.750   9.694  67.048  1.00  0.00    -0.128 C  
HETATM    3  C   UNL     1      -8.624  10.825  68.074  1.00  0.00    -0.128 C  
ENDROOT
BRANCH   2   4
HETATM    4  N   UNL     1      -9.958   8.886  67.270  1.00  0.00    -0.197 NA 
HETATM    5  H   UNL     1     -10.552   8.874  66.440  1.00  0.00     0.000 HD 
BRANCH   4   6
HETATM    6  C   UNL     1      -9.638   7.519  67.717  1.00  0.00    -0.142 C  
BRANCH   6   7
HETATM    7  C   UNL     1     -10.703   6.925  68.670  1.00  0.00    -0.216 C  
HETATM    8  H   UNL     1     -11.183   5.141  69.338  1.00  0.00     0.000 HD 
HETATM    9  O   UNL     1     -10.529   5.506  68.753  1.00  0.00    -0.209 OA 
BRANCH   7  10
HETATM   10  C   UNL     1     -10.652   7.519  70.071  1.00  0.00    -0.242 A  
HETATM   11  C   UNL     1      -9.414   7.896  70.622  1.00  0.00    -0.162 A  
HETATM   12  C   UNL     1      -9.356   8.417  71.917  1.00  0.00    -0.244 A  
HETATM   13  C   UNL     1     -10.505   8.584  72.680  1.00  0.00    -0.225 A  
HETATM   14  O   UNL     1      -8.169   8.778  72.486  1.00  0.00    -0.387 OA 
HETATM   15  H   UNL     1      -8.130   9.132  73.366  1.00  0.00     0.000 HD 
HETATM   16  C   UNL     1     -11.729   8.236  72.129  1.00  0.00    -0.365 A  
HETATM   17  O   UNL     1     -12.893   8.376  72.824  1.00  0.00    -0.626 OA 
HETATM   18  C   UNL     1     -11.812   7.722  70.838  1.00  0.00    -0.257 A  
HETATM   19  H   UNL     1     -13.733   8.138  72.447  1.00  0.00     0.000 HD 
ENDBRANCH   7  10
ENDBRANCH   6   7
ENDBRANCH   4   6
ENDBRANCH   2   4
TORSDOF 4
ENDMDL
MODEL      252
REMARK 921   NORMALIZED FREE ENERGY PREDICTED BY IDOCK:   -3.05 KCAL/MOL
REMARK 922        TOTAL FREE ENERGY PREDICTED BY IDOCK:   -4.04 KCAL/MOL
REMARK 923 INTER-LIGAND FREE ENERGY PREDICTED BY IDOCK:   -3.74 KCAL/MOL
REMARK 924 INTRA-LIGAND FREE ENERGY PREDICTED BY IDOCK:   -0.31 KCAL/MOL
REMARK 927      BINDING AFFINITY PREDICTED BY RF-SCORE:    0.00 PKD
ROOT
HETATM    1  C   UNL     1     -10.300  11.393  63.123  1.00  0.00    -0.357 C  
HETATM    2  C   UNL     1     -10.718  11.615  64.577  1.00  0.00    -0.322 C  
HETATM    3  C   UNL     1      -9.603  11.134  65.511  1.00  0.00    -0.263 C  
ENDROOT
BRANCH   2   4
HETATM    4  N   UNL     1     -11.022  13.039  64.775  1.00  0.00    -0.311 NA 
HETATM    5  H   UNL     1     -12.028  13.199  64.824  1.00  0.00     0.000 HD 
BRANCH   4   6
HETATM    6  C   UNL     1     -10.336  13.594  65.955  1.00  0.00    -0.304 C  
BRANCH   6   7
HETATM    7  C   UNL     1      -9.948  15.082  65.790  1.00  0.00    -0.346 C  
HETATM    8  H   UNL     1     -10.790  16.823  66.140  1.00  0.00     0.000 HD 
HETATM    9  O   UNL     1     -11.027  15.909  66.242  1.00  0.00    -0.244 OA 
BRANCH   7  10
HETATM   10  C   UNL     1      -8.680  15.459  66.543  1.00  0.00    -0.335 A  
HETATM   11  C   UNL     1      -8.277  16.805  66.599  1.00  0.00    -0.296 A  
HETATM   12  C   UNL     1      -7.100  17.155  67.266  1.00  0.00    -0.165 A  
HETATM   13  C   UNL     1      -6.313  16.196  67.891  1.00  0.00    -0.156 A  
HETATM   14  O   UNL     1      -6.674  18.450  67.326  1.00  0.00    -0.193 OA 
HETATM   15  H   UNL     1      -5.874  18.687  67.779  1.00  0.00     0.000 HD 
HETATM   16  C   UNL     1      -6.721  14.871  67.859  1.00  0.00    -0.160 A  
HETATM   17  O   UNL     1      -5.995  13.883  68.453  1.00  0.00    -0.084 OA 
HETATM   18  C   UNL     1      -7.894  14.500  67.206  1.00  0.00    -0.199 A  
HETATM   19  H   UNL     1      -6.274  12.975  68.431  1.00  0.00     0.000 HD 
ENDBRANCH   7  10
ENDBRANCH   6   7
ENDBRANCH   4   6
ENDBRANCH   2   4
TORSDOF 4
ENDMDL
MODEL      253
REMARK 921   NORMALIZED FREE ENERGY PREDICTED BY IDOCK:   -3.04 KCAL/MOL
REMARK 922        TOTAL FREE ENERGY PREDICTED BY IDOCK:   -4.03 KCAL/MOL
REMARK 923 INTER-LIGAND FREE ENERGY PREDICTED BY IDOCK:   -3.82 KCAL/MOL
REMARK 924 INTRA-LIGAND FREE ENERGY PREDICTED BY IDOCK:   -0.21 KCAL/MOL
REMARK 927      BINDING AFFINITY PREDICTED BY RF-SCORE:    0.00 PKD
ROOT
HETATM    1  C   UNL     1      -7.263  10.454  66.010  1.00  0.00    -0.134 C  
HETATM    2  C   UNL     1      -8.654  10.054  65.518  1.00  0.00    -0.151 C  
HETATM    3  C   UNL     1      -8.529   9.283  64.200  1.00  0.00    -0.203 C  
ENDROOT
BRANCH   2   4
HETATM    4  N   UNL     1      -9.317   9.256  66.558  1.00  0.00    -0.165 NA 
HETATM    5  H   UNL     1      -8.683   8.561  66.952  1.00  0.00     0.000 HD 
BRANCH   4   6
HETATM    6  C   UNL     1      -9.906  10.099  67.614  1.00  0.00    -0.172 C  
BRANCH   6   7
HETATM    7  C   UNL     1      -9.190   9.955  68.978  1.00  0.00    -0.168 C  
HETATM    8  H   UNL     1      -8.110  11.103  70.150  1.00  0.00     0.000 HD 
HETATM    9  O   UNL     1      -8.550  11.192  69.313  1.00  0.00    -0.016 OA 
BRANCH   7  10
HETATM   10  C   UNL     1     -10.128   9.554  70.108  1.00  0.00    -0.293 A  
HETATM   11  C   UNL     1      -9.625   8.841  71.211  1.00  0.00    -0.323 A  
HETATM   12  C   UNL     1     -10.484   8.447  72.239  1.00  0.00    -0.337 A  
HETATM   13  C   UNL     1     -11.838   8.752  72.204  1.00  0.00    -0.436 A  
HETATM   14  O   UNL     1     -10.029   7.742  73.315  1.00  0.00    -0.288 OA 
HETATM   15  H   UNL     1     -10.614   7.474  74.014  1.00  0.00     0.000 HD 
HETATM   16  C   UNL     1     -12.333   9.475  71.129  1.00  0.00    -0.326 A  
HETATM   17  O   UNL     1     -13.652   9.808  71.034  1.00  0.00    -0.496 OA 
HETATM   18  C   UNL     1     -11.494   9.885  70.097  1.00  0.00    -0.309 A  
HETATM   19  H   UNL     1     -13.991  10.304  70.298  1.00  0.00     0.000 HD 
ENDBRANCH   7  10
ENDBRANCH   6   7
ENDBRANCH   4   6
ENDBRANCH   2   4
TORSDOF 4
ENDMDL
MODEL      254
REMARK 921   NORMALIZED FREE ENERGY PREDICTED BY IDOCK:   -3.03 KCAL/MOL
REMARK 922        TOTAL FREE ENERGY PREDICTED BY IDOCK:   -4.01 KCAL/MOL
REMARK 923 INTER-LIGAND FREE ENERGY PREDICTED BY IDOCK:   -3.72 KCAL/MOL
REMARK 924 INTRA-LIGAND FREE ENERGY PREDICTED BY IDOCK:   -0.29 KCAL/MOL
REMARK 927      BINDING AFFINITY PREDICTED BY RF-SCORE:    0.00 PKD
ROOT
HETATM    1  C   UNL     1      -9.127  12.524  67.301  1.00  0.00    -0.189 C  
HETATM    2  C   UNL     1     -10.144  13.424  66.599  1.00  0.00    -0.275 C  
HETATM    3  C   UNL     1     -11.037  12.575  65.689  1.00  0.00    -0.338 C  
ENDROOT
BRANCH   2   4
HETATM    4  N   UNL     1     -10.925  14.145  67.614  1.00  0.00    -0.263 NA 
HETATM    5  H   UNL     1     -11.552  13.515  68.115  1.00  0.00     0.000 HD 
BRANCH   4   6
HETATM    6  C   UNL     1     -10.065  14.895  68.547  1.00  0.00    -0.232 C  
BRANCH   6   7
HETATM    7  C   UNL     1     -10.286  16.425  68.483  1.00  0.00    -0.270 C  
HETATM    8  H   UNL     1     -10.925  17.826  69.703  1.00  0.00     0.000 HD 
HETATM    9  O   UNL     1     -10.788  16.886  69.743  1.00  0.00    -0.281 OA 
BRANCH   7  10
HETATM   10  C   UNL     1      -9.023  17.199  68.133  1.00  0.00    -0.240 A  
HETATM   11  C   UNL     1      -8.337  17.903  69.139  1.00  0.00     0.111 A  
HETATM   12  C   UNL     1      -7.192  18.637  68.821  1.00  0.00    -0.305 A  
HETATM   13  C   UNL     1      -6.702  18.682  67.522  1.00  0.00    -0.201 A  
HETATM   14  O   UNL     1      -6.512  19.342  69.771  1.00  0.00    -0.296 OA 
HETATM   15  H   UNL     1      -5.734  19.841  69.555  1.00  0.00     0.000 HD 
HETATM   16  C   UNL     1      -7.363  17.970  66.533  1.00  0.00    -0.238 A  
HETATM   17  O   UNL     1      -6.933  17.972  65.239  1.00  0.00    -0.430 OA 
HETATM   18  C   UNL     1      -8.501  17.225  66.828  1.00  0.00    -0.275 A  
HETATM   19  H   UNL     1      -7.386  17.484  64.561  1.00  0.00     0.000 HD 
ENDBRANCH   7  10
ENDBRANCH   6   7
ENDBRANCH   4   6
ENDBRANCH   2   4
TORSDOF 4
ENDMDL
MODEL      255
REMARK 921   NORMALIZED FREE ENERGY PREDICTED BY IDOCK:   -3.02 KCAL/MOL
REMARK 922        TOTAL FREE ENERGY PREDICTED BY IDOCK:   -4.00 KCAL/MOL
REMARK 923 INTER-LIGAND FREE ENERGY PREDICTED BY IDOCK:   -3.79 KCAL/MOL
REMARK 924 INTRA-LIGAND FREE ENERGY PREDICTED BY IDOCK:   -0.21 KCAL/MOL
REMARK 927      BINDING AFFINITY PREDICTED BY RF-SCORE:    0.00 PKD
ROOT
HETATM    1  C   UNL     1     -10.248   8.345  72.062  1.00  0.00    -0.364 C  
HETATM    2  C   UNL     1     -11.558   8.493  71.287  1.00  0.00    -0.283 C  
HETATM    3  C   UNL     1     -11.921   9.977  71.174  1.00  0.00    -0.484 C  
ENDROOT
BRANCH   2   4
HETATM    4  N   UNL     1     -11.406   7.864  69.968  1.00  0.00    -0.456 NA 
HETATM    5  H   UNL     1     -12.311   7.596  69.580  1.00  0.00     0.000 HD 
BRANCH   4   6
HETATM    6  C   UNL     1     -10.656   8.718  69.029  1.00  0.00    -0.171 C  
BRANCH   6   7
HETATM    7  C   UNL     1      -9.990   7.922  67.882  1.00  0.00    -0.178 C  
HETATM    8  H   UNL     1     -10.489   6.436  66.698  1.00  0.00     0.000 HD 
HETATM    9  O   UNL     1     -10.899   6.925  67.403  1.00  0.00    -0.287 OA 
BRANCH   7  10
HETATM   10  C   UNL     1      -9.551   8.802  66.719  1.00  0.00    -0.267 A  
HETATM   11  C   UNL     1     -10.452   9.733  66.173  1.00  0.00    -0.128 A  
HETATM   12  C   UNL     1     -10.065  10.525  65.089  1.00  0.00    -0.314 A  
HETATM   13  C   UNL     1      -8.796  10.421  64.536  1.00  0.00    -0.225 A  
HETATM   14  O   UNL     1     -10.921  11.427  64.526  1.00  0.00    -0.326 OA 
HETATM   15  H   UNL     1     -10.658  11.965  63.789  1.00  0.00     0.000 HD 
HETATM   16  C   UNL     1      -7.897   9.520  65.088  1.00  0.00    -0.113 A  
HETATM   17  O   UNL     1      -6.636   9.371  64.594  1.00  0.00    -0.079 OA 
HETATM   18  C   UNL     1      -8.258   8.727  66.173  1.00  0.00    -0.117 A  
HETATM   19  H   UNL     1      -6.020   8.754  64.972  1.00  0.00     0.000 HD 
ENDBRANCH   7  10
ENDBRANCH   6   7
ENDBRANCH   4   6
ENDBRANCH   2   4
TORSDOF 4
ENDMDL
MODEL      256
REMARK 921   NORMALIZED FREE ENERGY PREDICTED BY IDOCK:   -3.01 KCAL/MOL
REMARK 922        TOTAL FREE ENERGY PREDICTED BY IDOCK:   -3.99 KCAL/MOL
REMARK 923 INTER-LIGAND FREE ENERGY PREDICTED BY IDOCK:   -4.10 KCAL/MOL
REMARK 924 INTRA-LIGAND FREE ENERGY PREDICTED BY IDOCK:    0.11 KCAL/MOL
REMARK 927      BINDING AFFINITY PREDICTED BY RF-SCORE:    0.00 PKD
ROOT
HETATM    1  C   UNL     1     -10.949   5.781  67.493  1.00  0.00    -0.147 C  
HETATM    2  C   UNL     1     -10.726   6.382  68.881  1.00  0.00    -0.288 C  
HETATM    3  C   UNL     1      -9.603   5.620  69.594  1.00  0.00    -0.197 C  
ENDROOT
BRANCH   2   4
HETATM    4  N   UNL     1     -10.413   7.811  68.739  1.00  0.00    -0.262 NA 
HETATM    5  H   UNL     1     -10.581   8.133  67.786  1.00  0.00     0.000 HD 
BRANCH   4   6
HETATM    6  C   UNL     1     -11.140   8.638  69.718  1.00  0.00    -0.067 C  
BRANCH   6   7
HETATM    7  C   UNL     1     -10.598  10.084  69.816  1.00  0.00    -0.267 C  
HETATM    8  H   UNL     1      -8.840  10.937  70.024  1.00  0.00     0.000 HD 
HETATM    9  O   UNL     1      -9.173  10.049  69.964  1.00  0.00    -0.208 OA 
BRANCH   7  10
HETATM   10  C   UNL     1     -10.955  10.940  68.609  1.00  0.00    -0.274 A  
HETATM   11  C   UNL     1     -11.507  12.219  68.801  1.00  0.00    -0.360 A  
HETATM   12  C   UNL     1     -11.862  13.000  67.699  1.00  0.00    -0.351 A  
HETATM   13  C   UNL     1     -11.673  12.544  66.401  1.00  0.00    -0.458 A  
HETATM   14  O   UNL     1     -12.413  14.239  67.853  1.00  0.00    -0.556 OA 
HETATM   15  H   UNL     1     -12.655  14.770  67.103  1.00  0.00     0.000 HD 
HETATM   16  C   UNL     1     -11.106  11.293  66.208  1.00  0.00    -0.166 A  
HETATM   17  O   UNL     1     -10.893  10.788  64.960  1.00  0.00    -0.169 OA 
HETATM   18  C   UNL     1     -10.738  10.501  67.291  1.00  0.00    -0.333 A  
HETATM   19  H   UNL     1     -10.504   9.931  64.827  1.00  0.00     0.000 HD 
ENDBRANCH   7  10
ENDBRANCH   6   7
ENDBRANCH   4   6
ENDBRANCH   2   4
TORSDOF 4
ENDMDL
MODEL      257
REMARK 921   NORMALIZED FREE ENERGY PREDICTED BY IDOCK:   -2.98 KCAL/MOL
REMARK 922        TOTAL FREE ENERGY PREDICTED BY IDOCK:   -3.96 KCAL/MOL
REMARK 923 INTER-LIGAND FREE ENERGY PREDICTED BY IDOCK:   -3.56 KCAL/MOL
REMARK 924 INTRA-LIGAND FREE ENERGY PREDICTED BY IDOCK:   -0.40 KCAL/MOL
REMARK 927      BINDING AFFINITY PREDICTED BY RF-SCORE:    0.00 PKD
ROOT
HETATM    1  C   UNL     1      -7.834   8.032  74.335  1.00  0.00    -0.287 C  
HETATM    2  C   UNL     1      -8.289   7.305  73.069  1.00  0.00    -0.110 C  
HETATM    3  C   UNL     1      -7.152   6.419  72.550  1.00  0.00    -0.078 C  
ENDROOT
BRANCH   2   4
HETATM    4  N   UNL     1      -9.496   6.524  73.374  1.00  0.00    -0.136 NA 
HETATM    5  H   UNL     1     -10.211   7.105  73.814  1.00  0.00     0.000 HD 
BRANCH   4   6
HETATM    6  C   UNL     1     -10.027   5.836  72.183  1.00  0.00    -0.176 C  
BRANCH   6   7
HETATM    7  C   UNL     1     -11.264   6.540  71.575  1.00  0.00    -0.276 C  
HETATM    8  H   UNL     1     -12.620   7.823  72.187  1.00  0.00     0.000 HD 
HETATM    9  O   UNL     1     -11.860   7.392  72.560  1.00  0.00    -0.263 OA 
BRANCH   7  10
HETATM   10  C   UNL     1     -10.936   7.361  70.335  1.00  0.00    -0.269 A  
HETATM   11  C   UNL     1     -10.604   8.721  70.469  1.00  0.00    -0.252 A  
HETATM   12  C   UNL     1     -10.328   9.487  69.334  1.00  0.00    -0.214 A  
HETATM   13  C   UNL     1     -10.365   8.931  68.062  1.00  0.00    -0.271 A  
HETATM   14  O   UNL     1     -10.017  10.812  69.428  1.00  0.00    -0.347 OA 
HETATM   15  H   UNL     1      -9.830  11.333  68.657  1.00  0.00     0.000 HD 
HETATM   16  C   UNL     1     -10.668   7.584  67.929  1.00  0.00    -0.133 A  
HETATM   17  O   UNL     1     -10.720   6.978  66.710  1.00  0.00    -0.463 OA 
HETATM   18  C   UNL     1     -10.940   6.800  69.046  1.00  0.00    -0.281 A  
HETATM   19  H   UNL     1     -10.928   6.055  66.618  1.00  0.00     0.000 HD 
ENDBRANCH   7  10
ENDBRANCH   6   7
ENDBRANCH   4   6
ENDBRANCH   2   4
TORSDOF 4
ENDMDL
MODEL      258
REMARK 921   NORMALIZED FREE ENERGY PREDICTED BY IDOCK:   -2.98 KCAL/MOL
REMARK 922        TOTAL FREE ENERGY PREDICTED BY IDOCK:   -3.96 KCAL/MOL
REMARK 923 INTER-LIGAND FREE ENERGY PREDICTED BY IDOCK:   -3.69 KCAL/MOL
REMARK 924 INTRA-LIGAND FREE ENERGY PREDICTED BY IDOCK:   -0.27 KCAL/MOL
REMARK 927      BINDING AFFINITY PREDICTED BY RF-SCORE:    0.00 PKD
ROOT
HETATM    1  C   UNL     1      -9.002  10.243  65.714  1.00  0.00    -0.185 C  
HETATM    2  C   UNL     1      -9.258   9.829  67.163  1.00  0.00    -0.138 C  
HETATM    3  C   UNL     1      -9.575  11.072  68.003  1.00  0.00    -0.175 C  
ENDROOT
BRANCH   2   4
HETATM    4  N   UNL     1     -10.357   8.853  67.195  1.00  0.00    -0.271 NA 
HETATM    5  H   UNL     1     -11.142   9.162  66.621  1.00  0.00     0.000 HD 
BRANCH   4   6
HETATM    6  C   UNL     1      -9.911   7.504  66.805  1.00  0.00    -0.225 C  
BRANCH   6   7
HETATM    7  C   UNL     1     -10.729   6.375  67.478  1.00  0.00    -0.319 C  
HETATM    8  H   UNL     1     -10.937   4.435  67.252  1.00  0.00     0.000 HD 
HETATM    9  O   UNL     1     -10.434   5.128  66.839  1.00  0.00    -0.242 OA 
BRANCH   7  10
HETATM   10  C   UNL     1     -10.460   6.249  68.971  1.00  0.00    -0.287 A  
HETATM   11  C   UNL     1     -11.523   6.379  69.883  1.00  0.00    -0.483 A  
HETATM   12  C   UNL     1     -11.280   6.291  71.256  1.00  0.00    -0.297 A  
HETATM   13  C   UNL     1     -10.002   6.067  71.749  1.00  0.00    -0.199 A  
HETATM   14  O   UNL     1     -12.287   6.426  72.167  1.00  0.00    -0.471 OA 
HETATM   15  H   UNL     1     -12.122   6.367  73.100  1.00  0.00     0.000 HD 
HETATM   16  C   UNL     1      -8.955   5.915  70.852  1.00  0.00    -0.146 A  
HETATM   17  O   UNL     1      -7.678   5.692  71.271  1.00  0.00    -0.103 OA 
HETATM   18  C   UNL     1      -9.175   5.991  69.479  1.00  0.00    -0.145 A  
HETATM   19  H   UNL     1      -6.961   5.587  70.656  1.00  0.00     0.000 HD 
ENDBRANCH   7  10
ENDBRANCH   6   7
ENDBRANCH   4   6
ENDBRANCH   2   4
TORSDOF 4
ENDMDL
MODEL      259
REMARK 921   NORMALIZED FREE ENERGY PREDICTED BY IDOCK:   -2.97 KCAL/MOL
REMARK 922        TOTAL FREE ENERGY PREDICTED BY IDOCK:   -3.94 KCAL/MOL
REMARK 923 INTER-LIGAND FREE ENERGY PREDICTED BY IDOCK:   -3.54 KCAL/MOL
REMARK 924 INTRA-LIGAND FREE ENERGY PREDICTED BY IDOCK:   -0.40 KCAL/MOL
REMARK 927      BINDING AFFINITY PREDICTED BY RF-SCORE:    0.00 PKD
ROOT
HETATM    1  C   UNL     1      -9.585  11.721  67.445  1.00  0.00    -0.173 C  
HETATM    2  C   UNL     1     -10.546  12.453  66.508  1.00  0.00    -0.235 C  
HETATM    3  C   UNL     1     -11.063  11.480  65.443  1.00  0.00    -0.250 C  
ENDROOT
BRANCH   2   4
HETATM    4  N   UNL     1     -11.641  13.029  67.301  1.00  0.00    -0.335 NA 
HETATM    5  H   UNL     1     -12.269  12.303  67.645  1.00  0.00     0.000 HD 
BRANCH   4   6
HETATM    6  C   UNL     1     -11.144  13.872  68.403  1.00  0.00    -0.255 C  
BRANCH   6   7
HETATM    7  C   UNL     1     -10.841  15.326  67.968  1.00  0.00    -0.288 C  
HETATM    8  H   UNL     1     -11.619  17.102  68.286  1.00  0.00     0.000 HD 
HETATM    9  O   UNL     1     -11.804  16.209  68.553  1.00  0.00    -0.300 OA 
BRANCH   7  10
HETATM   10  C   UNL     1      -9.441  15.786  68.352  1.00  0.00    -0.196 A  
HETATM   11  C   UNL     1      -8.967  17.028  67.894  1.00  0.00    -0.228 A  
HETATM   12  C   UNL     1      -7.675  17.446  68.220  1.00  0.00    -0.241 A  
HETATM   13  C   UNL     1      -6.838  16.660  69.002  1.00  0.00    -0.207 A  
HETATM   14  O   UNL     1      -7.180  18.639  67.779  1.00  0.00    -0.223 OA 
HETATM   15  H   UNL     1      -6.301  18.922  68.000  1.00  0.00     0.000 HD 
HETATM   16  C   UNL     1      -7.312  15.445  69.475  1.00  0.00    -0.209 A  
HETATM   17  O   UNL     1      -6.542  14.628  70.248  1.00  0.00    -0.214 OA 
HETATM   18  C   UNL     1      -8.599  15.012  69.169  1.00  0.00    -0.188 A  
HETATM   19  H   UNL     1      -6.867  13.796  70.573  1.00  0.00     0.000 HD 
ENDBRANCH   7  10
ENDBRANCH   6   7
ENDBRANCH   4   6
ENDBRANCH   2   4
TORSDOF 4
ENDMDL
MODEL      260
REMARK 921   NORMALIZED FREE ENERGY PREDICTED BY IDOCK:   -2.96 KCAL/MOL
REMARK 922        TOTAL FREE ENERGY PREDICTED BY IDOCK:   -3.93 KCAL/MOL
REMARK 923 INTER-LIGAND FREE ENERGY PREDICTED BY IDOCK:   -3.75 KCAL/MOL
REMARK 924 INTRA-LIGAND FREE ENERGY PREDICTED BY IDOCK:   -0.18 KCAL/MOL
REMARK 927      BINDING AFFINITY PREDICTED BY RF-SCORE:    0.00 PKD
ROOT
HETATM    1  C   UNL     1      -8.626   5.576  65.343  1.00  0.00    -0.151 C  
HETATM    2  C   UNL     1      -9.721   6.075  66.287  1.00  0.00    -0.078 C  
HETATM    3  C   UNL     1     -10.298   4.893  67.073  1.00  0.00    -0.209 C  
ENDROOT
BRANCH   2   4
HETATM    4  N   UNL     1      -9.154   7.099  67.176  1.00  0.00    -0.126 NA 
HETATM    5  H   UNL     1      -8.287   7.479  66.797  1.00  0.00     0.000 HD 
BRANCH   4   6
HETATM    6  C   UNL     1     -10.121   8.171  67.475  1.00  0.00    -0.224 C  
BRANCH   6   7
HETATM    7  C   UNL     1      -9.464   9.425  68.100  1.00  0.00    -0.133 C  
HETATM    8  H   UNL     1      -7.782  10.415  67.878  1.00  0.00     0.000 HD 
HETATM    9  O   UNL     1      -8.185   9.645  67.494  1.00  0.00    -0.113 OA 
BRANCH   7  10
HETATM   10  C   UNL     1     -10.312  10.681  67.952  1.00  0.00    -0.231 A  
HETATM   11  C   UNL     1     -10.942  10.955  66.725  1.00  0.00    -0.248 A  
HETATM   12  C   UNL     1     -11.700  12.118  66.573  1.00  0.00    -0.321 A  
HETATM   13  C   UNL     1     -11.856  13.019  67.619  1.00  0.00    -0.401 A  
HETATM   14  O   UNL     1     -12.312  12.420  65.391  1.00  0.00    -0.596 OA 
HETATM   15  H   UNL     1     -12.827  13.211  65.288  1.00  0.00     0.000 HD 
HETATM   16  C   UNL     1     -11.255  12.739  68.837  1.00  0.00    -0.283 A  
HETATM   17  O   UNL     1     -11.371  13.581  69.903  1.00  0.00    -0.461 OA 
HETATM   18  C   UNL     1     -10.502  11.582  69.013  1.00  0.00    -0.175 A  
HETATM   19  H   UNL     1     -10.960  13.390  70.738  1.00  0.00     0.000 HD 
ENDBRANCH   7  10
ENDBRANCH   6   7
ENDBRANCH   4   6
ENDBRANCH   2   4
TORSDOF 4
ENDMDL
MODEL      261
REMARK 921   NORMALIZED FREE ENERGY PREDICTED BY IDOCK:   -2.95 KCAL/MOL
REMARK 922        TOTAL FREE ENERGY PREDICTED BY IDOCK:   -3.92 KCAL/MOL
REMARK 923 INTER-LIGAND FREE ENERGY PREDICTED BY IDOCK:   -3.60 KCAL/MOL
REMARK 924 INTRA-LIGAND FREE ENERGY PREDICTED BY IDOCK:   -0.33 KCAL/MOL
REMARK 927      BINDING AFFINITY PREDICTED BY RF-SCORE:    0.00 PKD
ROOT
HETATM    1  C   UNL     1      -8.904  10.548  66.977  1.00  0.00    -0.142 C  
HETATM    2  C   UNL     1     -10.401  10.236  66.978  1.00  0.00    -0.243 C  
HETATM    3  C   UNL     1     -10.640   8.874  67.636  1.00  0.00    -0.292 C  
ENDROOT
BRANCH   2   4
HETATM    4  N   UNL     1     -11.112  11.315  67.679  1.00  0.00    -0.257 NA 
HETATM    5  H   UNL     1     -10.765  11.429  68.631  1.00  0.00     0.000 HD 
BRANCH   4   6
HETATM    6  C   UNL     1     -11.061  12.587  66.936  1.00  0.00    -0.278 C  
BRANCH   6   7
HETATM    7  C   UNL     1     -11.130  13.830  67.854  1.00  0.00    -0.264 C  
HETATM    8  H   UNL     1     -11.391  14.177  69.770  1.00  0.00     0.000 HD 
HETATM    9  O   UNL     1     -11.349  13.413  69.206  1.00  0.00    -0.261 OA 
BRANCH   7  10
HETATM   10  C   UNL     1      -9.875  14.690  67.791  1.00  0.00    -0.216 A  
HETATM   11  C   UNL     1      -8.880  14.543  68.775  1.00  0.00    -0.153 A  
HETATM   12  C   UNL     1      -7.738  15.346  68.739  1.00  0.00    -0.150 A  
HETATM   13  C   UNL     1      -7.553  16.293  67.740  1.00  0.00    -0.151 A  
HETATM   14  O   UNL     1      -6.762  15.237  69.687  1.00  0.00    -0.157 OA 
HETATM   15  H   UNL     1      -5.986  15.784  69.663  1.00  0.00     0.000 HD 
HETATM   16  C   UNL     1      -8.521  16.424  66.756  1.00  0.00    -0.244 A  
HETATM   17  O   UNL     1      -8.400  17.333  65.748  1.00  0.00    -0.535 OA 
HETATM   18  C   UNL     1      -9.663  15.629  66.767  1.00  0.00    -0.255 A  
HETATM   19  H   UNL     1      -9.062  17.423  65.073  1.00  0.00     0.000 HD 
ENDBRANCH   7  10
ENDBRANCH   6   7
ENDBRANCH   4   6
ENDBRANCH   2   4
TORSDOF 4
ENDMDL
MODEL      262
REMARK 921   NORMALIZED FREE ENERGY PREDICTED BY IDOCK:   -2.95 KCAL/MOL
REMARK 922        TOTAL FREE ENERGY PREDICTED BY IDOCK:   -3.92 KCAL/MOL
REMARK 923 INTER-LIGAND FREE ENERGY PREDICTED BY IDOCK:   -3.67 KCAL/MOL
REMARK 924 INTRA-LIGAND FREE ENERGY PREDICTED BY IDOCK:   -0.25 KCAL/MOL
REMARK 927      BINDING AFFINITY PREDICTED BY RF-SCORE:    0.00 PKD
ROOT
HETATM    1  C   UNL     1      -8.270   9.130  70.616  1.00  0.00    -0.220 C  
HETATM    2  C   UNL     1      -8.749   8.271  71.787  1.00  0.00    -0.164 C  
HETATM    3  C   UNL     1      -7.653   8.205  72.856  1.00  0.00    -0.181 C  
ENDROOT
BRANCH   2   4
HETATM    4  N   UNL     1      -9.997   8.838  72.317  1.00  0.00    -0.290 NA 
HETATM    5  H   UNL     1      -9.900   9.837  72.499  1.00  0.00     0.000 HD 
BRANCH   4   6
HETATM    6  C   UNL     1     -11.148   8.565  71.438  1.00  0.00    -0.265 C  
BRANCH   6   7
HETATM    7  C   UNL     1     -11.827   7.205  71.730  1.00  0.00    -0.303 C  
HETATM    8  H   UNL     1     -13.536   6.341  71.293  1.00  0.00     0.000 HD 
HETATM    9  O   UNL     1     -13.119   7.176  71.114  1.00  0.00    -0.361 OA 
BRANCH   7  10
HETATM   10  C   UNL     1     -11.013   6.013  71.244  1.00  0.00    -0.340 A  
HETATM   11  C   UNL     1     -10.705   5.891  69.877  1.00  0.00    -0.406 A  
HETATM   12  C   UNL     1      -9.982   4.788  69.420  1.00  0.00    -0.199 A  
HETATM   13  C   UNL     1      -9.546   3.799  70.292  1.00  0.00    -0.257 A  
HETATM   14  O   UNL     1      -9.680   4.633  68.098  1.00  0.00    -0.152 OA 
HETATM   15  H   UNL     1      -9.188   3.882  67.787  1.00  0.00     0.000 HD 
HETATM   16  C   UNL     1      -9.827   3.929  71.644  1.00  0.00    -0.177 A  
HETATM   17  O   UNL     1      -9.427   2.995  72.553  1.00  0.00    -0.099 OA 
HETATM   18  C   UNL     1     -10.540   5.024  72.124  1.00  0.00    -0.259 A  
HETATM   19  H   UNL     1      -9.619   3.084  73.479  1.00  0.00     0.000 HD 
ENDBRANCH   7  10
ENDBRANCH   6   7
ENDBRANCH   4   6
ENDBRANCH   2   4
TORSDOF 4
ENDMDL
MODEL      263
REMARK 921   NORMALIZED FREE ENERGY PREDICTED BY IDOCK:   -2.94 KCAL/MOL
REMARK 922        TOTAL FREE ENERGY PREDICTED BY IDOCK:   -3.90 KCAL/MOL
REMARK 923 INTER-LIGAND FREE ENERGY PREDICTED BY IDOCK:   -3.50 KCAL/MOL
REMARK 924 INTRA-LIGAND FREE ENERGY PREDICTED BY IDOCK:   -0.40 KCAL/MOL
REMARK 927      BINDING AFFINITY PREDICTED BY RF-SCORE:    0.00 PKD
ROOT
HETATM    1  C   UNL     1      -6.528  18.191  65.675  1.00  0.00    -0.287 C  
HETATM    2  C   UNL     1      -7.227  19.357  66.375  1.00  0.00    -0.241 C  
HETATM    3  C   UNL     1      -6.391  20.630  66.209  1.00  0.00    -0.288 C  
ENDROOT
BRANCH   2   4
HETATM    4  N   UNL     1      -8.576  19.511  65.814  1.00  0.00    -0.370 NA 
HETATM    5  H   UNL     1      -8.584  19.321  64.812  1.00  0.00     0.000 HD 
BRANCH   4   6
HETATM    6  C   UNL     1      -9.569  18.683  66.522  1.00  0.00    -0.337 C  
BRANCH   6   7
HETATM    7  C   UNL     1      -9.279  18.545  68.035  1.00  0.00    -0.297 C  
HETATM    8  H   UNL     1     -10.214  18.965  69.711  1.00  0.00     0.000 HD 
HETATM    9  O   UNL     1     -10.393  19.049  68.782  1.00  0.00    -0.332 OA 
BRANCH   7  10
HETATM   10  C   UNL     1      -8.997  17.112  68.463  1.00  0.00    -0.265 A  
HETATM   11  C   UNL     1      -7.737  16.778  68.990  1.00  0.00    -0.213 A  
HETATM   12  C   UNL     1      -7.462  15.459  69.360  1.00  0.00    -0.218 A  
HETATM   13  C   UNL     1      -8.416  14.459  69.228  1.00  0.00     0.171 A  
HETATM   14  O   UNL     1      -6.244  15.100  69.861  1.00  0.00    -0.135 OA 
HETATM   15  H   UNL     1      -6.057  14.204  70.113  1.00  0.00     0.000 HD 
HETATM   16  C   UNL     1      -9.667  14.790  68.732  1.00  0.00    -0.222 A  
HETATM   17  O   UNL     1     -10.648  13.856  68.578  1.00  0.00    -0.241 OA 
HETATM   18  C   UNL     1      -9.966  16.098  68.363  1.00  0.00    -0.230 A  
HETATM   19  H   UNL     1     -11.506  14.082  68.238  1.00  0.00     0.000 HD 
ENDBRANCH   7  10
ENDBRANCH   6   7
ENDBRANCH   4   6
ENDBRANCH   2   4
TORSDOF 4
ENDMDL
MODEL      264
REMARK 921   NORMALIZED FREE ENERGY PREDICTED BY IDOCK:   -2.92 KCAL/MOL
REMARK 922        TOTAL FREE ENERGY PREDICTED BY IDOCK:   -3.89 KCAL/MOL
REMARK 923 INTER-LIGAND FREE ENERGY PREDICTED BY IDOCK:   -3.45 KCAL/MOL
REMARK 924 INTRA-LIGAND FREE ENERGY PREDICTED BY IDOCK:   -0.44 KCAL/MOL
REMARK 927      BINDING AFFINITY PREDICTED BY RF-SCORE:    0.00 PKD
ROOT
HETATM    1  C   UNL     1      -8.419   5.756  69.094  1.00  0.00    -0.107 C  
HETATM    2  C   UNL     1      -8.836   7.221  69.219  1.00  0.00    -0.136 C  
HETATM    3  C   UNL     1      -9.633   7.418  70.513  1.00  0.00    -0.172 C  
ENDROOT
BRANCH   2   4
HETATM    4  N   UNL     1      -7.634   8.065  69.183  1.00  0.00    -0.095 NA 
HETATM    5  H   UNL     1      -7.419   8.362  68.231  1.00  0.00     0.000 HD 
BRANCH   4   6
HETATM    6  C   UNL     1      -7.740   9.221  70.091  1.00  0.00    -0.120 C  
BRANCH   6   7
HETATM    7  C   UNL     1      -7.561  10.579  69.371  1.00  0.00    -0.145 C  
HETATM    8  H   UNL     1      -6.240  11.390  68.163  1.00  0.00     0.000 HD 
HETATM    9  O   UNL     1      -6.351  10.556  68.605  1.00  0.00    -0.047 OA 
BRANCH   7  10
HETATM   10  C   UNL     1      -8.726  10.930  68.456  1.00  0.00    -0.153 A  
HETATM   11  C   UNL     1     -10.045  10.726  68.900  1.00  0.00    -0.217 A  
HETATM   12  C   UNL     1     -11.119  11.021  68.057  1.00  0.00    -0.286 A  
HETATM   13  C   UNL     1     -10.915  11.526  66.779  1.00  0.00    -0.347 A  
HETATM   14  O   UNL     1     -12.410  10.821  68.451  1.00  0.00    -0.813 OA 
HETATM   15  H   UNL     1     -13.140  11.021  67.878  1.00  0.00     0.000 HD 
HETATM   16  C   UNL     1      -9.616  11.751  66.348  1.00  0.00    -0.218 A  
HETATM   17  O   UNL     1      -9.348  12.245  65.106  1.00  0.00    -0.437 OA 
HETATM   18  C   UNL     1      -8.531  11.471  67.174  1.00  0.00    -0.158 A  
HETATM   19  H   UNL     1      -8.459  12.400  64.811  1.00  0.00     0.000 HD 
ENDBRANCH   7  10
ENDBRANCH   6   7
ENDBRANCH   4   6
ENDBRANCH   2   4
TORSDOF 4
ENDMDL
MODEL      265
REMARK 921   NORMALIZED FREE ENERGY PREDICTED BY IDOCK:   -2.91 KCAL/MOL
REMARK 922        TOTAL FREE ENERGY PREDICTED BY IDOCK:   -3.87 KCAL/MOL
REMARK 923 INTER-LIGAND FREE ENERGY PREDICTED BY IDOCK:   -3.63 KCAL/MOL
REMARK 924 INTRA-LIGAND FREE ENERGY PREDICTED BY IDOCK:   -0.24 KCAL/MOL
REMARK 927      BINDING AFFINITY PREDICTED BY RF-SCORE:    0.00 PKD
ROOT
HETATM    1  C   UNL     1      -9.070   6.859  70.143  1.00  0.00    -0.152 C  
HETATM    2  C   UNL     1     -10.297   7.458  69.454  1.00  0.00    -0.210 C  
HETATM    3  C   UNL     1     -11.545   7.178  70.297  1.00  0.00    -0.260 C  
ENDROOT
BRANCH   2   4
HETATM    4  N   UNL     1     -10.080   8.898  69.258  1.00  0.00    -0.197 NA 
HETATM    5  H   UNL     1     -10.236   9.167  68.287  1.00  0.00     0.000 HD 
BRANCH   4   6
HETATM    6  C   UNL     1     -10.898   9.712  70.175  1.00  0.00    -0.280 C  
BRANCH   6   7
HETATM    7  C   UNL     1     -11.785  10.746  69.443  1.00  0.00    -0.306 C  
HETATM    8  H   UNL     1     -12.858  12.314  69.944  1.00  0.00     0.000 HD 
HETATM    9  O   UNL     1     -12.313  11.679  70.393  1.00  0.00    -0.321 OA 
BRANCH   7  10
HETATM   10  C   UNL     1     -11.043  11.507  68.353  1.00  0.00    -0.288 A  
HETATM   11  C   UNL     1      -9.950  12.323  68.694  1.00  0.00    -0.127 A  
HETATM   12  C   UNL     1      -9.280  13.045  67.703  1.00  0.00    -0.200 A  
HETATM   13  C   UNL     1      -9.666  12.969  66.371  1.00  0.00    -0.268 A  
HETATM   14  O   UNL     1      -8.225  13.857  68.004  1.00  0.00    -0.138 OA 
HETATM   15  H   UNL     1      -7.770  14.347  67.331  1.00  0.00     0.000 HD 
HETATM   16  C   UNL     1     -10.728  12.147  66.028  1.00  0.00    -0.273 A  
HETATM   17  O   UNL     1     -11.156  12.028  64.739  1.00  0.00    -0.301 OA 
HETATM   18  C   UNL     1     -11.405  11.413  66.998  1.00  0.00    -0.309 A  
HETATM   19  H   UNL     1     -11.883  11.464  64.504  1.00  0.00     0.000 HD 
ENDBRANCH   7  10
ENDBRANCH   6   7
ENDBRANCH   4   6
ENDBRANCH   2   4
TORSDOF 4
ENDMDL
MODEL      266
REMARK 921   NORMALIZED FREE ENERGY PREDICTED BY IDOCK:   -2.90 KCAL/MOL
REMARK 922        TOTAL FREE ENERGY PREDICTED BY IDOCK:   -3.85 KCAL/MOL
REMARK 923 INTER-LIGAND FREE ENERGY PREDICTED BY IDOCK:   -3.46 KCAL/MOL
REMARK 924 INTRA-LIGAND FREE ENERGY PREDICTED BY IDOCK:   -0.39 KCAL/MOL
REMARK 927      BINDING AFFINITY PREDICTED BY RF-SCORE:    0.00 PKD
ROOT
HETATM    1  C   UNL     1      -6.888   9.423  70.582  1.00  0.00    -0.104 C  
HETATM    2  C   UNL     1      -7.004   8.302  71.616  1.00  0.00    -0.079 C  
HETATM    3  C   UNL     1      -5.737   8.265  72.476  1.00  0.00    -0.050 C  
ENDROOT
BRANCH   2   4
HETATM    4  N   UNL     1      -8.210   8.522  72.426  1.00  0.00    -0.329 NA 
HETATM    5  H   UNL     1      -8.036   9.197  73.172  1.00  0.00     0.000 HD 
BRANCH   4   6
HETATM    6  C   UNL     1      -9.366   8.921  71.604  1.00  0.00    -0.258 C  
BRANCH   6   7
HETATM    7  C   UNL     1     -10.136   7.717  71.012  1.00  0.00    -0.185 C  
HETATM    8  H   UNL     1     -11.871   6.845  71.313  1.00  0.00     0.000 HD 
HETATM    9  O   UNL     1     -11.398   7.584  71.677  1.00  0.00    -0.244 OA 
BRANCH   7  10
HETATM   10  C   UNL     1     -10.371   7.835  69.512  1.00  0.00    -0.219 A  
HETATM   11  C   UNL     1     -10.712   6.692  68.769  1.00  0.00    -0.302 A  
HETATM   12  C   UNL     1     -10.903   6.787  67.388  1.00  0.00    -0.347 A  
HETATM   13  C   UNL     1     -10.771   8.000  66.724  1.00  0.00    -0.077 A  
HETATM   14  O   UNL     1     -11.220   5.693  66.636  1.00  0.00    -0.555 OA 
HETATM   15  H   UNL     1     -11.350   5.758  65.698  1.00  0.00     0.000 HD 
HETATM   16  C   UNL     1     -10.458   9.134  67.458  1.00  0.00    -0.270 A  
HETATM   17  O   UNL     1     -10.316  10.354  66.867  1.00  0.00    -0.221 OA 
HETATM   18  C   UNL     1     -10.271   9.064  68.836  1.00  0.00    -0.223 A  
HETATM   19  H   UNL     1     -10.102  11.131  67.370  1.00  0.00     0.000 HD 
ENDBRANCH   7  10
ENDBRANCH   6   7
ENDBRANCH   4   6
ENDBRANCH   2   4
TORSDOF 4
ENDMDL
MODEL      267
REMARK 921   NORMALIZED FREE ENERGY PREDICTED BY IDOCK:   -2.88 KCAL/MOL
REMARK 922        TOTAL FREE ENERGY PREDICTED BY IDOCK:   -3.83 KCAL/MOL
REMARK 923 INTER-LIGAND FREE ENERGY PREDICTED BY IDOCK:   -3.54 KCAL/MOL
REMARK 924 INTRA-LIGAND FREE ENERGY PREDICTED BY IDOCK:   -0.30 KCAL/MOL
REMARK 927      BINDING AFFINITY PREDICTED BY RF-SCORE:    0.00 PKD
ROOT
HETATM    1  C   UNL     1      -7.972   3.965  66.817  1.00  0.00    -0.096 C  
HETATM    2  C   UNL     1      -7.665   3.845  68.310  1.00  0.00    -0.065 C  
HETATM    3  C   UNL     1      -6.394   4.636  68.637  1.00  0.00    -0.036 C  
ENDROOT
BRANCH   2   4
HETATM    4  N   UNL     1      -8.823   4.329  69.076  1.00  0.00    -0.090 NA 
HETATM    5  H   UNL     1      -8.543   5.022  69.771  1.00  0.00     0.000 HD 
BRANCH   4   6
HETATM    6  C   UNL     1      -9.888   4.852  68.201  1.00  0.00    -0.138 C  
BRANCH   6   7
HETATM    7  C   UNL     1     -10.062   6.385  68.304  1.00  0.00    -0.153 C  
HETATM    8  H   UNL     1     -11.177   7.756  67.444  1.00  0.00     0.000 HD 
HETATM    9  O   UNL     1     -11.070   6.814  67.381  1.00  0.00    -0.328 OA 
BRANCH   7  10
HETATM   10  C   UNL     1     -10.436   6.853  69.705  1.00  0.00    -0.240 A  
HETATM   11  C   UNL     1     -11.702   6.537  70.229  1.00  0.00    -0.430 A  
HETATM   12  C   UNL     1     -12.061   6.985  71.503  1.00  0.00    -0.353 A  
HETATM   13  C   UNL     1     -11.186   7.734  72.278  1.00  0.00    -0.365 A  
HETATM   14  O   UNL     1     -13.288   6.708  72.034  1.00  0.00    -0.500 OA 
HETATM   15  H   UNL     1     -13.532   7.013  72.900  1.00  0.00     0.000 HD 
HETATM   16  C   UNL     1      -9.928   8.026  71.773  1.00  0.00    -0.187 A  
HETATM   17  O   UNL     1      -9.022   8.757  72.482  1.00  0.00    -0.386 OA 
HETATM   18  C   UNL     1      -9.545   7.585  70.509  1.00  0.00    -0.168 A  
HETATM   19  H   UNL     1      -8.160   8.956  72.137  1.00  0.00     0.000 HD 
ENDBRANCH   7  10
ENDBRANCH   6   7
ENDBRANCH   4   6
ENDBRANCH   2   4
TORSDOF 4
ENDMDL
MODEL      268
REMARK 921   NORMALIZED FREE ENERGY PREDICTED BY IDOCK:   -2.88 KCAL/MOL
REMARK 922        TOTAL FREE ENERGY PREDICTED BY IDOCK:   -3.83 KCAL/MOL
REMARK 923 INTER-LIGAND FREE ENERGY PREDICTED BY IDOCK:   -3.38 KCAL/MOL
REMARK 924 INTRA-LIGAND FREE ENERGY PREDICTED BY IDOCK:   -0.45 KCAL/MOL
REMARK 927      BINDING AFFINITY PREDICTED BY RF-SCORE:    0.00 PKD
ROOT
HETATM    1  C   UNL     1      -9.696   4.934  68.820  1.00  0.00    -0.232 C  
HETATM    2  C   UNL     1      -9.815   5.295  67.339  1.00  0.00    -0.160 C  
HETATM    3  C   UNL     1     -11.088   6.117  67.112  1.00  0.00    -0.335 C  
ENDROOT
BRANCH   2   4
HETATM    4  N   UNL     1      -8.610   6.028  66.928  1.00  0.00    -0.108 NA 
HETATM    5  H   UNL     1      -7.819   5.397  66.796  1.00  0.00     0.000 HD 
BRANCH   4   6
HETATM    6  C   UNL     1      -8.843   6.850  65.727  1.00  0.00    -0.067 C  
BRANCH   6   7
HETATM    7  C   UNL     1      -8.164   8.239  65.799  1.00  0.00    -0.123 C  
HETATM    8  H   UNL     1      -7.918   9.771  64.594  1.00  0.00     0.000 HD 
HETATM    9  O   UNL     1      -8.336   8.918  64.550  1.00  0.00    -0.158 OA 
BRANCH   7  10
HETATM   10  C   UNL     1      -8.704   9.112  66.923  1.00  0.00    -0.133 A  
HETATM   11  C   UNL     1      -7.833   9.569  67.929  1.00  0.00    -0.091 A  
HETATM   12  C   UNL     1      -8.326  10.349  68.978  1.00  0.00    -0.150 A  
HETATM   13  C   UNL     1      -9.669  10.697  69.049  1.00  0.00    -0.214 A  
HETATM   14  O   UNL     1      -7.511  10.796  69.976  1.00  0.00    -0.355 OA 
HETATM   15  H   UNL     1      -7.846  11.326  70.690  1.00  0.00     0.000 HD 
HETATM   16  C   UNL     1     -10.525  10.268  68.045  1.00  0.00    -0.196 A  
HETATM   17  O   UNL     1     -11.853  10.575  68.056  1.00  0.00    -0.765 OA 
HETATM   18  C   UNL     1     -10.054   9.496  66.987  1.00  0.00    -0.297 A  
HETATM   19  H   UNL     1     -12.439  10.282  67.368  1.00  0.00     0.000 HD 
ENDBRANCH   7  10
ENDBRANCH   6   7
ENDBRANCH   4   6
ENDBRANCH   2   4
TORSDOF 4
ENDMDL
MODEL      269
REMARK 921   NORMALIZED FREE ENERGY PREDICTED BY IDOCK:   -2.83 KCAL/MOL
REMARK 922        TOTAL FREE ENERGY PREDICTED BY IDOCK:   -3.77 KCAL/MOL
REMARK 923 INTER-LIGAND FREE ENERGY PREDICTED BY IDOCK:   -3.37 KCAL/MOL
REMARK 924 INTRA-LIGAND FREE ENERGY PREDICTED BY IDOCK:   -0.40 KCAL/MOL
REMARK 927      BINDING AFFINITY PREDICTED BY RF-SCORE:    0.00 PKD
ROOT
HETATM    1  C   UNL     1      -8.665   4.990  68.199  1.00  0.00    -0.106 C  
HETATM    2  C   UNL     1      -9.706   5.995  68.694  1.00  0.00    -0.127 C  
HETATM    3  C   UNL     1     -10.887   6.030  67.718  1.00  0.00    -0.380 C  
ENDROOT
BRANCH   2   4
HETATM    4  N   UNL     1     -10.127   5.617  70.050  1.00  0.00    -0.208 NA 
HETATM    5  H   UNL     1      -9.325   5.521  70.673  1.00  0.00     0.000 HD 
BRANCH   4   6
HETATM    6  C   UNL     1     -11.122   6.554  70.603  1.00  0.00    -0.309 C  
BRANCH   6   7
HETATM    7  C   UNL     1     -10.485   7.811  71.241  1.00  0.00    -0.206 C  
HETATM    8  H   UNL     1      -8.820   8.241  72.191  1.00  0.00     0.000 HD 
HETATM    9  O   UNL     1      -9.211   7.469  71.798  1.00  0.00    -0.139 OA 
BRANCH   7  10
HETATM   10  C   UNL     1     -10.309   8.959  70.257  1.00  0.00    -0.235 A  
HETATM   11  C   UNL     1      -9.020   9.446  69.978  1.00  0.00    -0.234 A  
HETATM   12  C   UNL     1      -8.852  10.516  69.096  1.00  0.00    -0.151 A  
HETATM   13  C   UNL     1      -9.940  11.114  68.472  1.00  0.00    -0.204 A  
HETATM   14  O   UNL     1      -7.616  11.021  68.817  1.00  0.00    -0.110 OA 
HETATM   15  H   UNL     1      -7.502  11.749  68.217  1.00  0.00     0.000 HD 
HETATM   16  C   UNL     1     -11.211  10.620  68.727  1.00  0.00    -0.279 A  
HETATM   17  O   UNL     1     -12.319  11.160  68.146  1.00  0.00    -0.615 OA 
HETATM   18  C   UNL     1     -11.401   9.550  69.596  1.00  0.00    -0.069 A  
HETATM   19  H   UNL     1     -13.190  10.822  68.320  1.00  0.00     0.000 HD 
ENDBRANCH   7  10
ENDBRANCH   6   7
ENDBRANCH   4   6
ENDBRANCH   2   4
TORSDOF 4
ENDMDL
MODEL      270
REMARK 921   NORMALIZED FREE ENERGY PREDICTED BY IDOCK:   -2.83 KCAL/MOL
REMARK 922        TOTAL FREE ENERGY PREDICTED BY IDOCK:   -3.77 KCAL/MOL
REMARK 923 INTER-LIGAND FREE ENERGY PREDICTED BY IDOCK:   -3.54 KCAL/MOL
REMARK 924 INTRA-LIGAND FREE ENERGY PREDICTED BY IDOCK:   -0.23 KCAL/MOL
REMARK 927      BINDING AFFINITY PREDICTED BY RF-SCORE:    0.00 PKD
ROOT
HETATM    1  C   UNL     1      -8.082   2.197  64.114  1.00  0.00    -0.077 C  
HETATM    2  C   UNL     1      -9.186   3.254  64.143  1.00  0.00    -0.127 C  
HETATM    3  C   UNL     1     -10.138   3.033  62.964  1.00  0.00    -0.124 C  
ENDROOT
BRANCH   2   4
HETATM    4  N   UNL     1      -9.886   3.179  65.433  1.00  0.00    -0.384 NA 
HETATM    5  H   UNL     1      -9.278   2.804  66.162  1.00  0.00     0.000 HD 
BRANCH   4   6
HETATM    6  C   UNL     1     -10.457   4.478  65.831  1.00  0.00    -0.226 C  
BRANCH   6   7
HETATM    7  C   UNL     1      -9.490   5.331  66.687  1.00  0.00    -0.144 C  
HETATM    8  H   UNL     1      -8.735   7.143  66.607  1.00  0.00     0.000 HD 
HETATM    9  O   UNL     1      -9.329   6.619  66.082  1.00  0.00    -0.146 OA 
BRANCH   7  10
HETATM   10  C   UNL     1      -9.960   5.508  68.124  1.00  0.00    -0.197 A  
HETATM   11  C   UNL     1     -10.799   6.587  68.454  1.00  0.00    -0.357 A  
HETATM   12  C   UNL     1     -11.213   6.771  69.776  1.00  0.00    -0.315 A  
HETATM   13  C   UNL     1     -10.819   5.900  70.783  1.00  0.00    -0.352 A  
HETATM   14  O   UNL     1     -12.015   7.816  70.131  1.00  0.00    -0.467 OA 
HETATM   15  H   UNL     1     -12.296   7.942  71.029  1.00  0.00     0.000 HD 
HETATM   16  C   UNL     1     -10.011   4.821  70.456  1.00  0.00    -0.236 A  
HETATM   17  O   UNL     1      -9.591   3.929  71.397  1.00  0.00    -0.144 OA 
HETATM   18  C   UNL     1      -9.593   4.614  69.145  1.00  0.00    -0.245 A  
HETATM   19  H   UNL     1      -9.037   3.190  71.173  1.00  0.00     0.000 HD 
ENDBRANCH   7  10
ENDBRANCH   6   7
ENDBRANCH   4   6
ENDBRANCH   2   4
TORSDOF 4
ENDMDL
MODEL      271
REMARK 921   NORMALIZED FREE ENERGY PREDICTED BY IDOCK:   -2.82 KCAL/MOL
REMARK 922        TOTAL FREE ENERGY PREDICTED BY IDOCK:   -3.77 KCAL/MOL
REMARK 923 INTER-LIGAND FREE ENERGY PREDICTED BY IDOCK:   -3.50 KCAL/MOL
REMARK 924 INTRA-LIGAND FREE ENERGY PREDICTED BY IDOCK:   -0.26 KCAL/MOL
REMARK 927      BINDING AFFINITY PREDICTED BY RF-SCORE:    0.00 PKD
ROOT
HETATM    1  C   UNL     1      -7.177   9.942  69.425  1.00  0.00    -0.083 C  
HETATM    2  C   UNL     1      -6.499   9.000  68.429  1.00  0.00    -0.055 C  
HETATM    3  C   UNL     1      -6.607   7.557  68.934  1.00  0.00    -0.048 C  
ENDROOT
BRANCH   2   4
HETATM    4  N   UNL     1      -7.126   9.167  67.110  1.00  0.00    -0.082 NA 
HETATM    5  H   UNL     1      -7.626   8.323  66.829  1.00  0.00     0.000 HD 
BRANCH   4   6
HETATM    6  C   UNL     1      -8.006  10.349  67.060  1.00  0.00    -0.116 C  
BRANCH   6   7
HETATM    7  C   UNL     1      -9.094  10.251  65.964  1.00  0.00    -0.161 C  
HETATM    8  H   UNL     1     -10.565   9.027  65.520  1.00  0.00     0.000 HD 
HETATM    9  O   UNL     1      -9.897   9.087  66.193  1.00  0.00    -0.271 OA 
BRANCH   7  10
HETATM   10  C   UNL     1      -9.995  11.477  65.904  1.00  0.00    -0.267 A  
HETATM   11  C   UNL     1     -10.800  11.694  64.771  1.00  0.00    -0.367 A  
HETATM   12  C   UNL     1     -11.609  12.830  64.696  1.00  0.00    -0.338 A  
HETATM   13  C   UNL     1     -11.646  13.758  65.729  1.00  0.00    -0.342 A  
HETATM   14  O   UNL     1     -12.390  13.076  63.605  1.00  0.00    -0.621 OA 
HETATM   15  H   UNL     1     -12.940  13.849  63.554  1.00  0.00     0.000 HD 
HETATM   16  C   UNL     1     -10.872  13.534  66.857  1.00  0.00    -0.282 A  
HETATM   17  O   UNL     1     -10.864  14.405  67.906  1.00  0.00    -0.245 OA 
HETATM   18  C   UNL     1     -10.064  12.405  66.957  1.00  0.00    -0.223 A  
HETATM   19  H   UNL     1     -10.333  14.252  68.679  1.00  0.00     0.000 HD 
ENDBRANCH   7  10
ENDBRANCH   6   7
ENDBRANCH   4   6
ENDBRANCH   2   4
TORSDOF 4
ENDMDL
MODEL      272
REMARK 921   NORMALIZED FREE ENERGY PREDICTED BY IDOCK:   -2.80 KCAL/MOL
REMARK 922        TOTAL FREE ENERGY PREDICTED BY IDOCK:   -3.74 KCAL/MOL
REMARK 923 INTER-LIGAND FREE ENERGY PREDICTED BY IDOCK:   -3.41 KCAL/MOL
REMARK 924 INTRA-LIGAND FREE ENERGY PREDICTED BY IDOCK:   -0.33 KCAL/MOL
REMARK 927      BINDING AFFINITY PREDICTED BY RF-SCORE:    0.00 PKD
ROOT
HETATM    1  C   UNL     1      -9.471   4.550  68.391  1.00  0.00    -0.209 C  
HETATM    2  C   UNL     1      -9.482   5.275  67.045  1.00  0.00    -0.134 C  
HETATM    3  C   UNL     1     -10.812   6.015  66.873  1.00  0.00    -0.396 C  
ENDROOT
BRANCH   2   4
HETATM    4  N   UNL     1      -8.334   6.191  66.986  1.00  0.00    -0.106 NA 
HETATM    5  H   UNL     1      -7.603   5.828  66.373  1.00  0.00     0.000 HD 
BRANCH   4   6
HETATM    6  C   UNL     1      -8.732   7.554  66.592  1.00  0.00    -0.138 C  
BRANCH   6   7
HETATM    7  C   UNL     1      -8.519   8.598  67.714  1.00  0.00    -0.125 C  
HETATM    8  H   UNL     1      -7.141   9.913  68.197  1.00  0.00     0.000 HD 
HETATM    9  O   UNL     1      -7.272   9.272  67.508  1.00  0.00    -0.079 OA 
BRANCH   7  10
HETATM   10  C   UNL     1      -9.638   9.628  67.795  1.00  0.00    -0.161 A  
HETATM   11  C   UNL     1     -10.562   9.570  68.853  1.00  0.00    -0.239 A  
HETATM   12  C   UNL     1     -11.607  10.495  68.920  1.00  0.00    -0.196 A  
HETATM   13  C   UNL     1     -11.753  11.488  67.960  1.00  0.00    -0.343 A  
HETATM   14  O   UNL     1     -12.528  10.457  69.925  1.00  0.00    -0.519 OA 
HETATM   15  H   UNL     1     -13.238  11.085  69.970  1.00  0.00     0.000 HD 
HETATM   16  C   UNL     1     -10.829  11.562  66.928  1.00  0.00    -0.284 A  
HETATM   17  O   UNL     1     -10.915  12.513  65.956  1.00  0.00    -0.268 OA 
HETATM   18  C   UNL     1      -9.776  10.656  66.846  1.00  0.00    -0.213 A  
HETATM   19  H   UNL     1     -10.282  12.565  65.249  1.00  0.00     0.000 HD 
ENDBRANCH   7  10
ENDBRANCH   6   7
ENDBRANCH   4   6
ENDBRANCH   2   4
TORSDOF 4
ENDMDL
MODEL      273
REMARK 921   NORMALIZED FREE ENERGY PREDICTED BY IDOCK:   -2.76 KCAL/MOL
REMARK 922        TOTAL FREE ENERGY PREDICTED BY IDOCK:   -3.68 KCAL/MOL
REMARK 923 INTER-LIGAND FREE ENERGY PREDICTED BY IDOCK:   -3.64 KCAL/MOL
REMARK 924 INTRA-LIGAND FREE ENERGY PREDICTED BY IDOCK:   -0.04 KCAL/MOL
REMARK 927      BINDING AFFINITY PREDICTED BY RF-SCORE:    0.00 PKD
ROOT
HETATM    1  C   UNL     1      -9.915  11.167  68.570  1.00  0.00    -0.204 C  
HETATM    2  C   UNL     1     -10.908  10.015  68.728  1.00  0.00    -0.219 C  
HETATM    3  C   UNL     1     -10.625   8.946  67.667  1.00  0.00    -0.292 C  
ENDROOT
BRANCH   2   4
HETATM    4  N   UNL     1     -10.802   9.475  70.090  1.00  0.00    -0.242 NA 
HETATM    5  H   UNL     1      -9.950   9.798  70.550  1.00  0.00     0.000 HD 
BRANCH   4   6
HETATM    6  C   UNL     1     -11.994   9.779  70.902  1.00  0.00    -0.328 C  
BRANCH   6   7
HETATM    7  C   UNL     1     -12.099   8.909  72.177  1.00  0.00    -0.359 C  
HETATM    8  H   UNL     1     -13.441   7.726  72.989  1.00  0.00     0.000 HD 
HETATM    9  O   UNL     1     -13.376   8.260  72.206  1.00  0.00    -0.286 OA 
BRANCH   7  10
HETATM   10  C   UNL     1     -11.001   7.860  72.279  1.00  0.00    -0.359 A  
HETATM   11  C   UNL     1     -11.149   6.630  71.612  1.00  0.00    -0.290 A  
HETATM   12  C   UNL     1     -10.158   5.652  71.722  1.00  0.00    -0.192 A  
HETATM   13  C   UNL     1      -9.011   5.869  72.475  1.00  0.00    -0.132 A  
HETATM   14  O   UNL     1     -10.278   4.444  71.099  1.00  0.00    -0.157 OA 
HETATM   15  H   UNL     1      -9.604   3.779  71.175  1.00  0.00     0.000 HD 
HETATM   16  C   UNL     1      -8.852   7.089  73.114  1.00  0.00    -0.127 A  
HETATM   17  O   UNL     1      -7.750   7.366  73.868  1.00  0.00    -0.104 OA 
HETATM   18  C   UNL     1      -9.823   8.081  73.013  1.00  0.00    -0.352 A  
HETATM   19  H   UNL     1      -7.640   8.202  74.305  1.00  0.00     0.000 HD 
ENDBRANCH   7  10
ENDBRANCH   6   7
ENDBRANCH   4   6
ENDBRANCH   2   4
TORSDOF 4
ENDMDL
MODEL      274
REMARK 921   NORMALIZED FREE ENERGY PREDICTED BY IDOCK:   -2.75 KCAL/MOL
REMARK 922        TOTAL FREE ENERGY PREDICTED BY IDOCK:   -3.67 KCAL/MOL
REMARK 923 INTER-LIGAND FREE ENERGY PREDICTED BY IDOCK:   -3.37 KCAL/MOL
REMARK 924 INTRA-LIGAND FREE ENERGY PREDICTED BY IDOCK:   -0.30 KCAL/MOL
REMARK 927      BINDING AFFINITY PREDICTED BY RF-SCORE:    0.00 PKD
ROOT
HETATM    1  C   UNL     1      -6.275   6.929  70.332  1.00  0.00    -0.027 C  
HETATM    2  C   UNL     1      -7.403   6.477  69.403  1.00  0.00    -0.092 C  
HETATM    3  C   UNL     1      -7.161   5.027  68.972  1.00  0.00    -0.053 C  
ENDROOT
BRANCH   2   4
HETATM    4  N   UNL     1      -8.687   6.634  70.099  1.00  0.00    -0.140 NA 
HETATM    5  H   UNL     1      -8.549   6.824  71.092  1.00  0.00     0.000 HD 
BRANCH   4   6
HETATM    6  C   UNL     1      -9.537   7.662  69.473  1.00  0.00    -0.163 C  
BRANCH   6   7
HETATM    7  C   UNL     1      -9.572   7.563  67.929  1.00  0.00    -0.143 C  
HETATM    8  H   UNL     1     -10.492   6.458  66.591  1.00  0.00     0.000 HD 
HETATM    9  O   UNL     1     -10.471   6.518  67.539  1.00  0.00    -0.177 OA 
BRANCH   7  10
HETATM   10  C   UNL     1      -9.992   8.863  67.255  1.00  0.00    -0.277 A  
HETATM   11  C   UNL     1      -9.558   9.140  65.947  1.00  0.00    -0.343 A  
HETATM   12  C   UNL     1      -9.917  10.342  65.332  1.00  0.00    -0.302 A  
HETATM   13  C   UNL     1     -10.710  11.277  65.984  1.00  0.00    -0.301 A  
HETATM   14  O   UNL     1      -9.500  10.648  64.069  1.00  0.00    -0.235 OA 
HETATM   15  H   UNL     1      -9.744  11.465  63.651  1.00  0.00     0.000 HD 
HETATM   16  C   UNL     1     -11.160  10.995  67.265  1.00  0.00    -0.294 A  
HETATM   17  O   UNL     1     -11.941  11.870  67.960  1.00  0.00    -0.527 OA 
HETATM   18  C   UNL     1     -10.820   9.801  67.895  1.00  0.00    -0.298 A  
HETATM   19  H   UNL     1     -12.250  11.677  68.837  1.00  0.00     0.000 HD 
ENDBRANCH   7  10
ENDBRANCH   6   7
ENDBRANCH   4   6
ENDBRANCH   2   4
TORSDOF 4
ENDMDL
MODEL      275
REMARK 921   NORMALIZED FREE ENERGY PREDICTED BY IDOCK:   -2.73 KCAL/MOL
REMARK 922        TOTAL FREE ENERGY PREDICTED BY IDOCK:   -3.66 KCAL/MOL
REMARK 923 INTER-LIGAND FREE ENERGY PREDICTED BY IDOCK:   -3.14 KCAL/MOL
REMARK 924 INTRA-LIGAND FREE ENERGY PREDICTED BY IDOCK:   -0.52 KCAL/MOL
REMARK 927      BINDING AFFINITY PREDICTED BY RF-SCORE:    0.00 PKD
ROOT
HETATM    1  C   UNL     1      -7.439   6.828  68.752  1.00  0.00    -0.096 C  
HETATM    2  C   UNL     1      -8.021   7.948  67.889  1.00  0.00    -0.128 C  
HETATM    3  C   UNL     1      -9.521   7.711  67.684  1.00  0.00    -0.165 C  
ENDROOT
BRANCH   2   4
HETATM    4  N   UNL     1      -7.755   9.239  68.539  1.00  0.00    -0.085 NA 
HETATM    5  H   UNL     1      -7.481   9.113  69.513  1.00  0.00     0.000 HD 
BRANCH   4   6
HETATM    6  C   UNL     1      -6.758  10.037  67.802  1.00  0.00    -0.071 C  
BRANCH   6   7
HETATM    7  C   UNL     1      -7.307  11.398  67.315  1.00  0.00    -0.130 C  
HETATM    8  H   UNL     1      -6.599  12.964  66.363  1.00  0.00     0.000 HD 
HETATM    9  O   UNL     1      -6.262  12.128  66.662  1.00  0.00    -0.148 OA 
BRANCH   7  10
HETATM   10  C   UNL     1      -8.491  11.262  66.367  1.00  0.00    -0.169 A  
HETATM   11  C   UNL     1      -8.330  10.585  65.145  1.00  0.00    -0.150 A  
HETATM   12  C   UNL     1      -9.404  10.478  64.259  1.00  0.00    -0.267 A  
HETATM   13  C   UNL     1     -10.645  11.024  64.560  1.00  0.00    -0.383 A  
HETATM   14  O   UNL     1      -9.276   9.840  63.059  1.00  0.00    -0.267 OA 
HETATM   15  H   UNL     1     -10.006   9.768  62.456  1.00  0.00     0.000 HD 
HETATM   16  C   UNL     1     -10.813  11.672  65.775  1.00  0.00    -0.281 A  
HETATM   17  O   UNL     1     -12.006  12.228  66.132  1.00  0.00    -0.579 OA 
HETATM   18  C   UNL     1      -9.759  11.783  66.677  1.00  0.00    -0.219 A  
HETATM   19  H   UNL     1     -12.121  12.671  66.964  1.00  0.00     0.000 HD 
ENDBRANCH   7  10
ENDBRANCH   6   7
ENDBRANCH   4   6
ENDBRANCH   2   4
TORSDOF 4
ENDMDL
MODEL      276
REMARK 921   NORMALIZED FREE ENERGY PREDICTED BY IDOCK:   -2.73 KCAL/MOL
REMARK 922        TOTAL FREE ENERGY PREDICTED BY IDOCK:   -3.65 KCAL/MOL
REMARK 923 INTER-LIGAND FREE ENERGY PREDICTED BY IDOCK:   -3.27 KCAL/MOL
REMARK 924 INTRA-LIGAND FREE ENERGY PREDICTED BY IDOCK:   -0.38 KCAL/MOL
REMARK 927      BINDING AFFINITY PREDICTED BY RF-SCORE:    0.00 PKD
ROOT
HETATM    1  C   UNL     1      -7.236   7.993  73.638  1.00  0.00    -0.174 C  
HETATM    2  C   UNL     1      -7.332   8.405  72.168  1.00  0.00    -0.098 C  
HETATM    3  C   UNL     1      -6.052   9.138  71.756  1.00  0.00    -0.055 C  
ENDROOT
BRANCH   2   4
HETATM    4  N   UNL     1      -7.564   7.206  71.350  1.00  0.00    -0.087 NA 
HETATM    5  H   UNL     1      -8.212   6.565  71.809  1.00  0.00     0.000 HD 
BRANCH   4   6
HETATM    6  C   UNL     1      -8.018   7.542  69.989  1.00  0.00    -0.112 C  
BRANCH   6   7
HETATM    7  C   UNL     1      -9.527   7.277  69.769  1.00  0.00    -0.149 C  
HETATM    8  H   UNL     1     -10.904   6.125  70.566  1.00  0.00     0.000 HD 
HETATM    9  O   UNL     1      -9.978   6.288  70.702  1.00  0.00    -0.182 OA 
BRANCH   7  10
HETATM   10  C   UNL     1     -10.382   8.528  69.913  1.00  0.00    -0.210 A  
HETATM   11  C   UNL     1     -11.144   8.721  71.079  1.00  0.00    -0.328 A  
HETATM   12  C   UNL     1     -11.951   9.853  71.207  1.00  0.00    -0.402 A  
HETATM   13  C   UNL     1     -12.014  10.811  70.204  1.00  0.00    -0.432 A  
HETATM   14  O   UNL     1     -12.713  10.062  72.320  1.00  0.00    -0.318 OA 
HETATM   15  H   UNL     1     -13.262  10.832  72.407  1.00  0.00     0.000 HD 
HETATM   16  C   UNL     1     -11.246  10.636  69.063  1.00  0.00    -0.265 A  
HETATM   17  O   UNL     1     -11.262  11.539  68.042  1.00  0.00    -0.228 OA 
HETATM   18  C   UNL     1     -10.428   9.519  68.917  1.00  0.00    -0.235 A  
HETATM   19  H   UNL     1     -10.735  11.420  67.260  1.00  0.00     0.000 HD 
ENDBRANCH   7  10
ENDBRANCH   6   7
ENDBRANCH   4   6
ENDBRANCH   2   4
TORSDOF 4
ENDMDL
MODEL      277
REMARK 921   NORMALIZED FREE ENERGY PREDICTED BY IDOCK:   -2.72 KCAL/MOL
REMARK 922        TOTAL FREE ENERGY PREDICTED BY IDOCK:   -3.64 KCAL/MOL
REMARK 923 INTER-LIGAND FREE ENERGY PREDICTED BY IDOCK:   -3.38 KCAL/MOL
REMARK 924 INTRA-LIGAND FREE ENERGY PREDICTED BY IDOCK:   -0.26 KCAL/MOL
REMARK 927      BINDING AFFINITY PREDICTED BY RF-SCORE:    0.00 PKD
ROOT
HETATM    1  C   UNL     1      -8.272   5.318  65.923  1.00  0.00    -0.117 C  
HETATM    2  C   UNL     1      -7.427   4.539  66.932  1.00  0.00    -0.082 C  
HETATM    3  C   UNL     1      -6.311   5.440  67.470  1.00  0.00    -0.039 C  
ENDROOT
BRANCH   2   4
HETATM    4  N   UNL     1      -8.299   4.047  68.007  1.00  0.00    -0.092 NA 
HETATM    5  H   UNL     1      -7.764   3.834  68.849  1.00  0.00     0.000 HD 
BRANCH   4   6
HETATM    6  C   UNL     1      -9.402   4.980  68.298  1.00  0.00    -0.126 C  
BRANCH   6   7
HETATM    7  C   UNL     1     -10.048   4.746  69.684  1.00  0.00    -0.205 C  
HETATM    8  H   UNL     1      -9.543   3.855  71.361  1.00  0.00     0.000 HD 
HETATM    9  O   UNL     1      -9.147   3.999  70.510  1.00  0.00    -0.093 OA 
BRANCH   7  10
HETATM   10  C   UNL     1     -10.425   6.038  70.395  1.00  0.00    -0.307 A  
HETATM   11  C   UNL     1      -9.423   6.816  71.002  1.00  0.00    -0.165 A  
HETATM   12  C   UNL     1      -9.764   7.990  71.679  1.00  0.00    -0.171 A  
HETATM   13  C   UNL     1     -11.082   8.418  71.761  1.00  0.00    -0.358 A  
HETATM   14  O   UNL     1      -8.817   8.759  72.291  1.00  0.00    -0.367 OA 
HETATM   15  H   UNL     1      -9.049   9.556  72.751  1.00  0.00     0.000 HD 
HETATM   16  C   UNL     1     -12.069   7.665  71.143  1.00  0.00    -0.298 A  
HETATM   17  O   UNL     1     -13.382   8.031  71.185  1.00  0.00    -0.523 OA 
HETATM   18  C   UNL     1     -11.752   6.497  70.457  1.00  0.00    -0.438 A  
HETATM   19  H   UNL     1     -14.059   7.516  70.762  1.00  0.00     0.000 HD 
ENDBRANCH   7  10
ENDBRANCH   6   7
ENDBRANCH   4   6
ENDBRANCH   2   4
TORSDOF 4
ENDMDL
MODEL      278
REMARK 921   NORMALIZED FREE ENERGY PREDICTED BY IDOCK:   -2.72 KCAL/MOL
REMARK 922        TOTAL FREE ENERGY PREDICTED BY IDOCK:   -3.64 KCAL/MOL
REMARK 923 INTER-LIGAND FREE ENERGY PREDICTED BY IDOCK:   -3.24 KCAL/MOL
REMARK 924 INTRA-LIGAND FREE ENERGY PREDICTED BY IDOCK:   -0.40 KCAL/MOL
REMARK 927      BINDING AFFINITY PREDICTED BY RF-SCORE:    0.00 PKD
ROOT
HETATM    1  C   UNL     1      -7.972   5.244  65.986  1.00  0.00    -0.104 C  
HETATM    2  C   UNL     1      -7.666   5.735  67.401  1.00  0.00    -0.097 C  
HETATM    3  C   UNL     1      -6.220   6.240  67.466  1.00  0.00    -0.029 C  
ENDROOT
BRANCH   2   4
HETATM    4  N   UNL     1      -8.629   6.785  67.762  1.00  0.00    -0.122 NA 
HETATM    5  H   UNL     1      -8.192   7.508  68.334  1.00  0.00     0.000 HD 
BRANCH   4   6
HETATM    6  C   UNL     1      -9.284   7.367  66.577  1.00  0.00    -0.165 C  
BRANCH   6   7
HETATM    7  C   UNL     1      -9.397   8.909  66.640  1.00  0.00    -0.185 C  
HETATM    8  H   UNL     1      -8.488  10.368  67.591  1.00  0.00     0.000 HD 
HETATM    9  O   UNL     1      -8.419   9.421  67.552  1.00  0.00    -0.121 OA 
BRANCH   7  10
HETATM   10  C   UNL     1      -9.218   9.578  65.284  1.00  0.00    -0.307 A  
HETATM   11  C   UNL     1      -8.088   9.276  64.503  1.00  0.00    -0.139 A  
HETATM   12  C   UNL     1      -7.903   9.906  63.270  1.00  0.00    -0.146 A  
HETATM   13  C   UNL     1      -8.822  10.828  62.786  1.00  0.00    -0.291 A  
HETATM   14  O   UNL     1      -6.811   9.645  62.494  1.00  0.00    -0.099 OA 
HETATM   15  H   UNL     1      -6.685  10.073  61.656  1.00  0.00     0.000 HD 
HETATM   16  C   UNL     1      -9.949  11.110  63.544  1.00  0.00    -0.379 A  
HETATM   17  O   UNL     1     -10.889  12.004  63.125  1.00  0.00    -0.649 OA 
HETATM   18  C   UNL     1     -10.158  10.489  64.771  1.00  0.00    -0.406 A  
HETATM   19  H   UNL     1     -11.661  12.197  63.644  1.00  0.00     0.000 HD 
ENDBRANCH   7  10
ENDBRANCH   6   7
ENDBRANCH   4   6
ENDBRANCH   2   4
TORSDOF 4
ENDMDL
MODEL      279
REMARK 921   NORMALIZED FREE ENERGY PREDICTED BY IDOCK:   -2.71 KCAL/MOL
REMARK 922        TOTAL FREE ENERGY PREDICTED BY IDOCK:   -3.62 KCAL/MOL
REMARK 923 INTER-LIGAND FREE ENERGY PREDICTED BY IDOCK:   -3.32 KCAL/MOL
REMARK 924 INTRA-LIGAND FREE ENERGY PREDICTED BY IDOCK:   -0.30 KCAL/MOL
REMARK 927      BINDING AFFINITY PREDICTED BY RF-SCORE:    0.00 PKD
ROOT
HETATM    1  C   UNL     1      -9.979  16.494  65.888  1.00  0.00    -0.342 C  
HETATM    2  C   UNL     1      -8.516  16.914  66.036  1.00  0.00    -0.151 C  
HETATM    3  C   UNL     1      -8.444  18.406  66.378  1.00  0.00    -0.264 C  
ENDROOT
BRANCH   2   4
HETATM    4  N   UNL     1      -7.883  16.085  67.070  1.00  0.00    -0.204 NA 
HETATM    5  H   UNL     1      -7.455  16.661  67.796  1.00  0.00     0.000 HD 
BRANCH   4   6
HETATM    6  C   UNL     1      -8.822  15.108  67.650  1.00  0.00    -0.173 C  
BRANCH   6   7
HETATM    7  C   UNL     1      -8.256  13.668  67.685  1.00  0.00    -0.178 C  
HETATM    8  H   UNL     1      -7.335  12.528  68.994  1.00  0.00     0.000 HD 
HETATM    9  O   UNL     1      -7.683  13.413  68.972  1.00  0.00    -0.007 OA 
BRANCH   7  10
HETATM   10  C   UNL     1      -9.304  12.605  67.384  1.00  0.00    -0.189 A  
HETATM   11  C   UNL     1     -10.162  12.164  68.408  1.00  0.00    -0.212 A  
HETATM   12  C   UNL     1     -11.108  11.170  68.146  1.00  0.00    -0.264 A  
HETATM   13  C   UNL     1     -11.232  10.607  66.882  1.00  0.00    -0.052 A  
HETATM   14  O   UNL     1     -11.945  10.710  69.121  1.00  0.00    -0.477 OA 
HETATM   15  H   UNL     1     -12.588  10.034  68.943  1.00  0.00     0.000 HD 
HETATM   16  C   UNL     1     -10.405  11.058  65.865  1.00  0.00    -0.257 A  
HETATM   17  O   UNL     1     -10.476  10.548  64.603  1.00  0.00    -0.311 OA 
HETATM   18  C   UNL     1      -9.459  12.052  66.101  1.00  0.00    -0.241 A  
HETATM   19  H   UNL     1      -9.909  10.857  63.906  1.00  0.00     0.000 HD 
ENDBRANCH   7  10
ENDBRANCH   6   7
ENDBRANCH   4   6
ENDBRANCH   2   4
TORSDOF 4
ENDMDL
MODEL      280
REMARK 921   NORMALIZED FREE ENERGY PREDICTED BY IDOCK:   -2.69 KCAL/MOL
REMARK 922        TOTAL FREE ENERGY PREDICTED BY IDOCK:   -3.60 KCAL/MOL
REMARK 923 INTER-LIGAND FREE ENERGY PREDICTED BY IDOCK:   -3.34 KCAL/MOL
REMARK 924 INTRA-LIGAND FREE ENERGY PREDICTED BY IDOCK:   -0.27 KCAL/MOL
REMARK 927      BINDING AFFINITY PREDICTED BY RF-SCORE:    0.00 PKD
ROOT
HETATM    1  C   UNL     1      -5.309  13.520  70.281  1.00  0.00    -0.112 C  
HETATM    2  C   UNL     1      -6.162  14.737  69.923  1.00  0.00    -0.150 C  
HETATM    3  C   UNL     1      -5.385  16.019  70.243  1.00  0.00    -0.159 C  
ENDROOT
BRANCH   2   4
HETATM    4  N   UNL     1      -6.530  14.662  68.502  1.00  0.00    -0.084 NA 
HETATM    5  H   UNL     1      -7.310  14.020  68.356  1.00  0.00     0.000 HD 
BRANCH   4   6
HETATM    6  C   UNL     1      -6.818  15.990  67.932  1.00  0.00    -0.141 C  
BRANCH   6   7
HETATM    7  C   UNL     1      -8.297  16.165  67.514  1.00  0.00    -0.159 C  
HETATM    8  H   UNL     1     -10.056  15.937  68.360  1.00  0.00     0.000 HD 
HETATM    9  O   UNL     1      -9.147  15.830  68.617  1.00  0.00    -0.185 OA 
BRANCH   7  10
HETATM   10  C   UNL     1      -8.623  17.575  67.040  1.00  0.00    -0.251 A  
HETATM   11  C   UNL     1      -7.691  18.609  67.240  1.00  0.00    -0.238 A  
HETATM   12  C   UNL     1      -7.994  19.910  66.832  1.00  0.00    -0.306 A  
HETATM   13  C   UNL     1      -9.203  20.211  66.218  1.00  0.00    -0.383 A  
HETATM   14  O   UNL     1      -7.117  20.938  67.025  1.00  0.00    -0.359 OA 
HETATM   15  H   UNL     1      -7.323  21.823  66.748  1.00  0.00     0.000 HD 
HETATM   16  C   UNL     1     -10.113  19.188  65.998  1.00  0.00    -0.373 A  
HETATM   17  O   UNL     1     -11.317  19.416  65.399  1.00  0.00    -0.098 OA 
HETATM   18  C   UNL     1      -9.830  17.883  66.389  1.00  0.00    -0.339 A  
HETATM   19  H   UNL     1     -11.941  18.716  65.248  1.00  0.00     0.000 HD 
ENDBRANCH   7  10
ENDBRANCH   6   7
ENDBRANCH   4   6
ENDBRANCH   2   4
TORSDOF 4
ENDMDL
MODEL      281
REMARK 921   NORMALIZED FREE ENERGY PREDICTED BY IDOCK:   -2.65 KCAL/MOL
REMARK 922        TOTAL FREE ENERGY PREDICTED BY IDOCK:   -3.55 KCAL/MOL
REMARK 923 INTER-LIGAND FREE ENERGY PREDICTED BY IDOCK:   -3.26 KCAL/MOL
REMARK 924 INTRA-LIGAND FREE ENERGY PREDICTED BY IDOCK:   -0.30 KCAL/MOL
REMARK 927      BINDING AFFINITY PREDICTED BY RF-SCORE:    0.00 PKD
ROOT
HETATM    1  C   UNL     1      -7.633   9.171  70.852  1.00  0.00    -0.146 C  
HETATM    2  C   UNL     1      -8.104   8.115  71.853  1.00  0.00    -0.134 C  
HETATM    3  C   UNL     1      -6.961   7.777  72.816  1.00  0.00    -0.085 C  
ENDROOT
BRANCH   2   4
HETATM    4  N   UNL     1      -9.286   8.624  72.563  1.00  0.00    -0.342 NA 
HETATM    5  H   UNL     1      -9.142   9.583  72.880  1.00  0.00     0.000 HD 
BRANCH   4   6
HETATM    6  C   UNL     1     -10.512   8.508  71.753  1.00  0.00    -0.300 C  
BRANCH   6   7
HETATM    7  C   UNL     1     -11.390   7.297  72.150  1.00  0.00    -0.265 C  
HETATM    8  H   UNL     1     -13.249   6.728  71.864  1.00  0.00     0.000 HD 
HETATM    9  O   UNL     1     -12.709   7.472  71.620  1.00  0.00    -0.331 OA 
BRANCH   7  10
HETATM   10  C   UNL     1     -10.829   5.966  71.668  1.00  0.00    -0.321 A  
HETATM   11  C   UNL     1     -10.806   4.864  72.540  1.00  0.00    -0.234 A  
HETATM   12  C   UNL     1     -10.269   3.647  72.115  1.00  0.00    -0.100 A  
HETATM   13  C   UNL     1      -9.758   3.493  70.832  1.00  0.00    -0.213 A  
HETATM   14  O   UNL     1     -10.219   2.562  72.942  1.00  0.00    -0.130 OA 
HETATM   15  H   UNL     1      -9.853   1.735  72.652  1.00  0.00     0.000 HD 
HETATM   16  C   UNL     1      -9.801   4.572  69.962  1.00  0.00    -0.226 A  
HETATM   17  O   UNL     1      -9.317   4.487  68.690  1.00  0.00    -0.122 OA 
HETATM   18  C   UNL     1     -10.338   5.792  70.362  1.00  0.00    -0.310 A  
HETATM   19  H   UNL     1      -9.346   5.226  68.094  1.00  0.00     0.000 HD 
ENDBRANCH   7  10
ENDBRANCH   6   7
ENDBRANCH   4   6
ENDBRANCH   2   4
TORSDOF 4
ENDMDL
MODEL      282
REMARK 921   NORMALIZED FREE ENERGY PREDICTED BY IDOCK:   -2.65 KCAL/MOL
REMARK 922        TOTAL FREE ENERGY PREDICTED BY IDOCK:   -3.55 KCAL/MOL
REMARK 923 INTER-LIGAND FREE ENERGY PREDICTED BY IDOCK:   -3.21 KCAL/MOL
REMARK 924 INTRA-LIGAND FREE ENERGY PREDICTED BY IDOCK:   -0.34 KCAL/MOL
REMARK 927      BINDING AFFINITY PREDICTED BY RF-SCORE:    0.00 PKD
ROOT
HETATM    1  C   UNL     1      -7.024  20.002  65.288  1.00  0.00    -0.299 C  
HETATM    2  C   UNL     1      -6.528  18.809  66.106  1.00  0.00    -0.208 C  
HETATM    3  C   UNL     1      -5.213  18.293  65.513  1.00  0.00    -0.219 C  
ENDROOT
BRANCH   2   4
HETATM    4  N   UNL     1      -6.372  19.222  67.507  1.00  0.00    -0.202 NA 
HETATM    5  H   UNL     1      -6.552  20.219  67.621  1.00  0.00     0.000 HD 
BRANCH   4   6
HETATM    6  C   UNL     1      -7.210  18.422  68.418  1.00  0.00    -0.268 C  
BRANCH   6   7
HETATM    7  C   UNL     1      -6.728  16.958  68.561  1.00  0.00    -0.168 C  
HETATM    8  H   UNL     1      -6.021  15.823  70.000  1.00  0.00     0.000 HD 
HETATM    9  O   UNL     1      -6.317  16.722  69.912  1.00  0.00    -0.215 OA 
BRANCH   7  10
HETATM   10  C   UNL     1      -7.790  15.937  68.174  1.00  0.00    -0.134 A  
HETATM   11  C   UNL     1      -7.409  14.618  67.872  1.00  0.00    -0.164 A  
HETATM   12  C   UNL     1      -8.373  13.682  67.491  1.00  0.00    -0.188 A  
HETATM   13  C   UNL     1      -9.717  14.024  67.410  1.00  0.00    -0.233 A  
HETATM   14  O   UNL     1      -8.035  12.398  67.177  1.00  0.00    -0.175 OA 
HETATM   15  H   UNL     1      -8.690  11.762  66.917  1.00  0.00     0.000 HD 
HETATM   16  C   UNL     1     -10.099  15.318  67.731  1.00  0.00    -0.230 A  
HETATM   17  O   UNL     1     -11.401  15.717  67.673  1.00  0.00    -0.313 OA 
HETATM   18  C   UNL     1      -9.156  16.265  68.120  1.00  0.00    -0.188 A  
HETATM   19  H   UNL     1     -11.662  16.604  67.893  1.00  0.00     0.000 HD 
ENDBRANCH   7  10
ENDBRANCH   6   7
ENDBRANCH   4   6
ENDBRANCH   2   4
TORSDOF 4
ENDMDL
MODEL      283
REMARK 921   NORMALIZED FREE ENERGY PREDICTED BY IDOCK:   -2.60 KCAL/MOL
REMARK 922        TOTAL FREE ENERGY PREDICTED BY IDOCK:   -3.49 KCAL/MOL
REMARK 923 INTER-LIGAND FREE ENERGY PREDICTED BY IDOCK:   -3.11 KCAL/MOL
REMARK 924 INTRA-LIGAND FREE ENERGY PREDICTED BY IDOCK:   -0.38 KCAL/MOL
REMARK 927      BINDING AFFINITY PREDICTED BY RF-SCORE:    0.00 PKD
ROOT
HETATM    1  C   UNL     1      -8.341   4.182  65.728  1.00  0.00    -0.109 C  
HETATM    2  C   UNL     1      -8.905   4.557  67.099  1.00  0.00    -0.109 C  
HETATM    3  C   UNL     1      -9.480   3.307  67.775  1.00  0.00    -0.217 C  
ENDROOT
BRANCH   2   4
HETATM    4  N   UNL     1      -7.841   5.173  67.903  1.00  0.00    -0.091 NA 
HETATM    5  H   UNL     1      -7.818   6.184  67.773  1.00  0.00     0.000 HD 
BRANCH   4   6
HETATM    6  C   UNL     1      -7.947   4.820  69.329  1.00  0.00    -0.070 C  
BRANCH   6   7
HETATM    7  C   UNL     1      -7.899   6.050  70.266  1.00  0.00    -0.102 C  
HETATM    8  H   UNL     1      -7.516   7.969  70.083  1.00  0.00     0.000 HD 
HETATM    9  O   UNL     1      -7.546   7.213  69.507  1.00  0.00    -0.096 OA 
BRANCH   7  10
HETATM   10  C   UNL     1      -9.215   6.305  70.989  1.00  0.00    -0.160 A  
HETATM   11  C   UNL     1      -9.255   6.267  72.394  1.00  0.00    -0.138 A  
HETATM   12  C   UNL     1     -10.463   6.473  73.064  1.00  0.00    -0.234 A  
HETATM   13  C   UNL     1     -11.639   6.727  72.370  1.00  0.00    -0.284 A  
HETATM   14  O   UNL     1     -10.538   6.428  74.426  1.00  0.00    -0.402 OA 
HETATM   15  H   UNL     1     -11.360   6.568  74.882  1.00  0.00     0.000 HD 
HETATM   16  C   UNL     1     -11.597   6.788  70.985  1.00  0.00    -0.339 A  
HETATM   17  O   UNL     1     -12.715   7.034  70.245  1.00  0.00    -0.525 OA 
HETATM   18  C   UNL     1     -10.403   6.594  70.297  1.00  0.00    -0.235 A  
HETATM   19  H   UNL     1     -12.687   7.077  69.296  1.00  0.00     0.000 HD 
ENDBRANCH   7  10
ENDBRANCH   6   7
ENDBRANCH   4   6
ENDBRANCH   2   4
TORSDOF 4
ENDMDL
MODEL      284
REMARK 921   NORMALIZED FREE ENERGY PREDICTED BY IDOCK:   -2.58 KCAL/MOL
REMARK 922        TOTAL FREE ENERGY PREDICTED BY IDOCK:   -3.47 KCAL/MOL
REMARK 923 INTER-LIGAND FREE ENERGY PREDICTED BY IDOCK:   -3.70 KCAL/MOL
REMARK 924 INTRA-LIGAND FREE ENERGY PREDICTED BY IDOCK:    0.23 KCAL/MOL
REMARK 927      BINDING AFFINITY PREDICTED BY RF-SCORE:    0.00 PKD
ROOT
HETATM    1  C   UNL     1      -5.274  13.185  69.665  1.00  0.00    -0.086 C  
HETATM    2  C   UNL     1      -5.790  14.606  69.439  1.00  0.00    -0.097 C  
HETATM    3  C   UNL     1      -5.210  15.538  70.507  1.00  0.00    -0.141 C  
ENDROOT
BRANCH   2   4
HETATM    4  N   UNL     1      -5.426  15.036  68.081  1.00  0.00    -0.119 NA 
HETATM    5  H   UNL     1      -5.310  14.236  67.459  1.00  0.00     0.000 HD 
BRANCH   4   6
HETATM    6  C   UNL     1      -6.389  16.006  67.530  1.00  0.00    -0.170 C  
BRANCH   6   7
HETATM    7  C   UNL     1      -6.624  17.223  68.456  1.00  0.00    -0.174 C  
HETATM    8  H   UNL     1      -5.671  18.882  68.903  1.00  0.00     0.000 HD 
HETATM    9  O   UNL     1      -5.526  18.134  68.334  1.00  0.00    -0.160 OA 
BRANCH   7  10
HETATM   10  C   UNL     1      -7.923  17.960  68.157  1.00  0.00    -0.265 A  
HETATM   11  C   UNL     1      -8.555  17.780  66.914  1.00  0.00    -0.260 A  
HETATM   12  C   UNL     1      -9.733  18.473  66.623  1.00  0.00    -0.341 A  
HETATM   13  C   UNL     1     -10.307  19.339  67.545  1.00  0.00    -0.542 A  
HETATM   14  O   UNL     1     -10.363  18.332  65.421  1.00  0.00    -0.509 OA 
HETATM   15  H   UNL     1     -11.163  18.803  65.223  1.00  0.00     0.000 HD 
HETATM   16  C   UNL     1      -9.698  19.500  68.780  1.00  0.00    -0.438 A  
HETATM   17  O   UNL     1     -10.211  20.333  69.729  1.00  0.00    -0.383 OA 
HETATM   18  C   UNL     1      -8.529  18.814  69.095  1.00  0.00    -0.016 A  
HETATM   19  H   UNL     1      -9.795  20.444  70.576  1.00  0.00     0.000 HD 
ENDBRANCH   7  10
ENDBRANCH   6   7
ENDBRANCH   4   6
ENDBRANCH   2   4
TORSDOF 4
ENDMDL
MODEL      285
REMARK 921   NORMALIZED FREE ENERGY PREDICTED BY IDOCK:   -2.58 KCAL/MOL
REMARK 922        TOTAL FREE ENERGY PREDICTED BY IDOCK:   -3.46 KCAL/MOL
REMARK 923 INTER-LIGAND FREE ENERGY PREDICTED BY IDOCK:   -3.25 KCAL/MOL
REMARK 924 INTRA-LIGAND FREE ENERGY PREDICTED BY IDOCK:   -0.21 KCAL/MOL
REMARK 927      BINDING AFFINITY PREDICTED BY RF-SCORE:    0.00 PKD
ROOT
HETATM    1  C   UNL     1      -6.936   7.859  73.733  1.00  0.00    -0.135 C  
HETATM    2  C   UNL     1      -7.162   8.619  72.425  1.00  0.00     0.023 C  
HETATM    3  C   UNL     1      -5.809   8.960  71.790  1.00  0.00    -0.062 C  
ENDROOT
BRANCH   2   4
HETATM    4  N   UNL     1      -7.993   7.798  71.533  1.00  0.00    -0.089 NA 
HETATM    5  H   UNL     1      -8.861   7.518  71.991  1.00  0.00     0.000 HD 
BRANCH   4   6
HETATM    6  C   UNL     1      -8.259   8.470  70.249  1.00  0.00    -0.115 C  
BRANCH   6   7
HETATM    7  C   UNL     1      -9.769   8.640  69.953  1.00  0.00    -0.173 C  
HETATM    8  H   UNL     1     -11.303   9.511  70.817  1.00  0.00     0.000 HD 
HETATM    9  O   UNL     1     -10.376   9.407  70.999  1.00  0.00    -0.286 OA 
BRANCH   7  10
HETATM   10  C   UNL     1     -10.044   9.311  68.614  1.00  0.00    -0.207 A  
HETATM   11  C   UNL     1      -9.485   8.777  67.440  1.00  0.00    -0.183 A  
HETATM   12  C   UNL     1      -9.712   9.402  66.211  1.00  0.00    -0.264 A  
HETATM   13  C   UNL     1     -10.493  10.546  66.117  1.00  0.00    -0.237 A  
HETATM   14  O   UNL     1      -9.172   8.917  65.055  1.00  0.00    -0.419 OA 
HETATM   15  H   UNL     1      -9.326   9.342  64.221  1.00  0.00     0.000 HD 
HETATM   16  C   UNL     1     -11.066  11.061  67.271  1.00  0.00    -0.294 A  
HETATM   17  O   UNL     1     -11.843  12.180  67.247  1.00  0.00    -0.530 OA 
HETATM   18  C   UNL     1     -10.859  10.451  68.505  1.00  0.00    -0.278 A  
HETATM   19  H   UNL     1     -12.236  12.533  68.037  1.00  0.00     0.000 HD 
ENDBRANCH   7  10
ENDBRANCH   6   7
ENDBRANCH   4   6
ENDBRANCH   2   4
TORSDOF 4
ENDMDL
MODEL      286
REMARK 921   NORMALIZED FREE ENERGY PREDICTED BY IDOCK:   -2.47 KCAL/MOL
REMARK 922        TOTAL FREE ENERGY PREDICTED BY IDOCK:   -3.33 KCAL/MOL
REMARK 923 INTER-LIGAND FREE ENERGY PREDICTED BY IDOCK:   -3.32 KCAL/MOL
REMARK 924 INTRA-LIGAND FREE ENERGY PREDICTED BY IDOCK:   -0.01 KCAL/MOL
REMARK 927      BINDING AFFINITY PREDICTED BY RF-SCORE:    0.00 PKD
ROOT
HETATM    1  C   UNL     1     -10.856  10.464  68.461  1.00  0.00    -0.278 C  
HETATM    2  C   UNL     1      -9.341  10.530  68.266  1.00  0.00    -0.156 C  
HETATM    3  C   UNL     1      -8.640   9.935  69.492  1.00  0.00    -0.194 C  
ENDROOT
BRANCH   2   4
HETATM    4  N   UNL     1      -8.986   9.815  67.032  1.00  0.00    -0.137 NA 
HETATM    5  H   UNL     1      -8.749   8.841  67.224  1.00  0.00     0.000 HD 
BRANCH   4   6
HETATM    6  C   UNL     1     -10.044   9.914  66.010  1.00  0.00    -0.244 C  
BRANCH   6   7
HETATM    7  C   UNL     1      -9.808  11.062  65.001  1.00  0.00    -0.269 C  
HETATM    8  H   UNL     1     -10.424  11.521  63.192  1.00  0.00     0.000 HD 
HETATM    9  O   UNL     1     -10.568  10.815  63.812  1.00  0.00    -0.287 OA 
BRANCH   7  10
HETATM   10  C   UNL     1     -10.176  12.432  65.555  1.00  0.00    -0.297 A  
HETATM   11  C   UNL     1     -11.428  12.622  66.166  1.00  0.00    -0.413 A  
HETATM   12  C   UNL     1     -11.784  13.881  66.654  1.00  0.00    -0.395 A  
HETATM   13  C   UNL     1     -10.918  14.963  66.558  1.00  0.00    -0.327 A  
HETATM   14  O   UNL     1     -12.997  14.102  67.240  1.00  0.00     0.002 OA 
HETATM   15  H   UNL     1     -13.238  14.958  67.571  1.00  0.00     0.000 HD 
HETATM   16  C   UNL     1      -9.673  14.773  65.977  1.00  0.00    -0.321 A  
HETATM   17  O   UNL     1      -8.776  15.792  65.852  1.00  0.00    -0.333 OA 
HETATM   18  C   UNL     1      -9.294  13.525  65.491  1.00  0.00     0.325 A  
HETATM   19  H   UNL     1      -7.923  15.662  65.455  1.00  0.00     0.000 HD 
ENDBRANCH   7  10
ENDBRANCH   6   7
ENDBRANCH   4   6
ENDBRANCH   2   4
TORSDOF 4
ENDMDL
MODEL      287
REMARK 921   NORMALIZED FREE ENERGY PREDICTED BY IDOCK:   -2.43 KCAL/MOL
REMARK 922        TOTAL FREE ENERGY PREDICTED BY IDOCK:   -3.28 KCAL/MOL
REMARK 923 INTER-LIGAND FREE ENERGY PREDICTED BY IDOCK:   -2.89 KCAL/MOL
REMARK 924 INTRA-LIGAND FREE ENERGY PREDICTED BY IDOCK:   -0.39 KCAL/MOL
REMARK 927      BINDING AFFINITY PREDICTED BY RF-SCORE:    0.00 PKD
ROOT
HETATM    1  C   UNL     1     -11.011  10.583  68.528  1.00  0.00    -0.300 C  
HETATM    2  C   UNL     1      -9.655  10.130  67.987  1.00  0.00    -0.145 C  
HETATM    3  C   UNL     1      -9.398   8.677  68.400  1.00  0.00    -0.141 C  
ENDROOT
BRANCH   2   4
HETATM    4  N   UNL     1      -9.644  10.294  66.527  1.00  0.00    -0.175 NA 
HETATM    5  H   UNL     1      -9.887   9.423  66.055  1.00  0.00     0.000 HD 
BRANCH   4   6
HETATM    6  C   UNL     1     -10.513  11.400  66.086  1.00  0.00    -0.255 C  
BRANCH   6   7
HETATM    7  C   UNL     1      -9.731  12.694  65.758  1.00  0.00    -0.175 C  
HETATM    8  H   UNL     1     -10.106  14.396  64.851  1.00  0.00     0.000 HD 
HETATM    9  O   UNL     1     -10.586  13.601  65.053  1.00  0.00    -0.337 OA 
BRANCH   7  10
HETATM   10  C   UNL     1      -9.175  13.387  66.994  1.00  0.00    -0.242 A  
HETATM   11  C   UNL     1     -10.034  14.137  67.817  1.00  0.00    -0.235 A  
HETATM   12  C   UNL     1      -9.526  14.798  68.938  1.00  0.00    -0.191 A  
HETATM   13  C   UNL     1      -8.179  14.725  69.270  1.00  0.00    -0.065 A  
HETATM   14  O   UNL     1     -10.330  15.546  69.748  1.00  0.00    -0.275 OA 
HETATM   15  H   UNL     1      -9.985  15.995  70.510  1.00  0.00     0.000 HD 
HETATM   16  C   UNL     1      -7.334  13.967  68.473  1.00  0.00    -0.116 A  
HETATM   17  O   UNL     1      -6.003  13.854  68.744  1.00  0.00    -0.079 OA 
HETATM   18  C   UNL     1      -7.820  13.294  67.356  1.00  0.00    -0.159 A  
HETATM   19  H   UNL     1      -5.424  13.334  68.199  1.00  0.00     0.000 HD 
ENDBRANCH   7  10
ENDBRANCH   6   7
ENDBRANCH   4   6
ENDBRANCH   2   4
TORSDOF 4
ENDMDL
MODEL      288
REMARK 921   NORMALIZED FREE ENERGY PREDICTED BY IDOCK:   -2.43 KCAL/MOL
REMARK 922        TOTAL FREE ENERGY PREDICTED BY IDOCK:   -3.28 KCAL/MOL
REMARK 923 INTER-LIGAND FREE ENERGY PREDICTED BY IDOCK:   -3.25 KCAL/MOL
REMARK 924 INTRA-LIGAND FREE ENERGY PREDICTED BY IDOCK:   -0.03 KCAL/MOL
REMARK 927      BINDING AFFINITY PREDICTED BY RF-SCORE:    0.00 PKD
ROOT
HETATM    1  C   UNL     1      -8.947   5.121  68.165  1.00  0.00    -0.118 C  
HETATM    2  C   UNL     1     -10.018   6.122  68.600  1.00  0.00    -0.148 C  
HETATM    3  C   UNL     1     -11.215   6.039  67.648  1.00  0.00    -0.023 C  
ENDROOT
BRANCH   2   4
HETATM    4  N   UNL     1     -10.403   5.835  69.989  1.00  0.00    -0.235 NA 
HETATM    5  H   UNL     1      -9.598   5.541  70.543  1.00  0.00     0.000 HD 
BRANCH   4   6
HETATM    6  C   UNL     1     -11.096   6.973  70.619  1.00  0.00    -0.272 C  
BRANCH   6   7
HETATM    7  C   UNL     1     -10.138   8.117  71.030  1.00  0.00    -0.187 C  
HETATM    8  H   UNL     1      -8.205   8.456  70.952  1.00  0.00     0.000 HD 
HETATM    9  O   UNL     1      -8.793   7.754  70.700  1.00  0.00    -0.141 OA 
BRANCH   7  10
HETATM   10  C   UNL     1     -10.475   9.446  70.369  1.00  0.00    -0.311 A  
HETATM   11  C   UNL     1     -11.537  10.223  70.868  1.00  0.00    -0.454 A  
HETATM   12  C   UNL     1     -11.869  11.431  70.251  1.00  0.00    -0.350 A  
HETATM   13  C   UNL     1     -11.163  11.896  69.149  1.00  0.00    -0.314 A  
HETATM   14  O   UNL     1     -12.902  12.200  70.702  1.00  0.00    -0.110 OA 
HETATM   15  H   UNL     1     -13.128  13.021  70.282  1.00  0.00     0.000 HD 
HETATM   16  C   UNL     1     -10.100  11.144  68.670  1.00  0.00    -0.200 A  
HETATM   17  O   UNL     1      -9.367  11.545  67.593  1.00  0.00    -0.166 OA 
HETATM   18  C   UNL     1      -9.747   9.941  69.274  1.00  0.00    -0.218 A  
HETATM   19  H   UNL     1      -8.639  11.031  67.265  1.00  0.00     0.000 HD 
ENDBRANCH   7  10
ENDBRANCH   6   7
ENDBRANCH   4   6
ENDBRANCH   2   4
TORSDOF 4
ENDMDL
MODEL      289
REMARK 921   NORMALIZED FREE ENERGY PREDICTED BY IDOCK:   -2.42 KCAL/MOL
REMARK 922        TOTAL FREE ENERGY PREDICTED BY IDOCK:   -3.27 KCAL/MOL
REMARK 923 INTER-LIGAND FREE ENERGY PREDICTED BY IDOCK:   -3.07 KCAL/MOL
REMARK 924 INTRA-LIGAND FREE ENERGY PREDICTED BY IDOCK:   -0.20 KCAL/MOL
REMARK 927      BINDING AFFINITY PREDICTED BY RF-SCORE:    0.00 PKD
ROOT
HETATM    1  C   UNL     1      -6.451   6.920  69.847  1.00  0.00    -0.043 C  
HETATM    2  C   UNL     1      -7.451   7.318  68.761  1.00  0.00    -0.102 C  
HETATM    3  C   UNL     1      -7.980   6.058  68.066  1.00  0.00    -0.109 C  
ENDROOT
BRANCH   2   4
HETATM    4  N   UNL     1      -8.533   8.101  69.371  1.00  0.00    -0.126 NA 
HETATM    5  H   UNL     1      -8.360   8.260  70.364  1.00  0.00     0.000 HD 
BRANCH   4   6
HETATM    6  C   UNL     1      -8.768   9.371  68.661  1.00  0.00    -0.131 C  
BRANCH   6   7
HETATM    7  C   UNL     1     -10.240   9.559  68.223  1.00  0.00    -0.193 C  
HETATM    8  H   UNL     1     -11.557   8.548  67.172  1.00  0.00     0.000 HD 
HETATM    9  O   UNL     1     -10.653   8.432  67.442  1.00  0.00    -0.281 OA 
BRANCH   7  10
HETATM   10  C   UNL     1     -11.197   9.734  69.394  1.00  0.00    -0.154 A  
HETATM   11  C   UNL     1     -11.559  11.028  69.810  1.00  0.00    -0.401 A  
HETATM   12  C   UNL     1     -12.415  11.197  70.900  1.00  0.00    -0.409 A  
HETATM   13  C   UNL     1     -12.931  10.107  71.589  1.00  0.00    -0.561 A  
HETATM   14  O   UNL     1     -12.775  12.439  71.337  1.00  0.00    -0.348 OA 
HETATM   15  H   UNL     1     -13.356  12.554  72.079  1.00  0.00     0.000 HD 
HETATM   16  C   UNL     1     -12.594   8.830  71.166  1.00  0.00    -0.168 A  
HETATM   17  O   UNL     1     -13.067   7.718  71.798  1.00  0.00    -0.326 OA 
HETATM   18  C   UNL     1     -11.749   8.637  70.077  1.00  0.00     0.283 A  
HETATM   19  H   UNL     1     -12.837   6.842  71.508  1.00  0.00     0.000 HD 
ENDBRANCH   7  10
ENDBRANCH   6   7
ENDBRANCH   4   6
ENDBRANCH   2   4
TORSDOF 4
ENDMDL
MODEL      290
REMARK 921   NORMALIZED FREE ENERGY PREDICTED BY IDOCK:   -2.42 KCAL/MOL
REMARK 922        TOTAL FREE ENERGY PREDICTED BY IDOCK:   -3.26 KCAL/MOL
REMARK 923 INTER-LIGAND FREE ENERGY PREDICTED BY IDOCK:   -2.92 KCAL/MOL
REMARK 924 INTRA-LIGAND FREE ENERGY PREDICTED BY IDOCK:   -0.34 KCAL/MOL
REMARK 927      BINDING AFFINITY PREDICTED BY RF-SCORE:    0.00 PKD
ROOT
HETATM    1  C   UNL     1     -10.362   8.222  71.275  1.00  0.00    -0.256 C  
HETATM    2  C   UNL     1     -10.389   6.922  70.470  1.00  0.00    -0.204 C  
HETATM    3  C   UNL     1     -10.709   5.749  71.403  1.00  0.00    -0.319 C  
ENDROOT
BRANCH   2   4
HETATM    4  N   UNL     1     -11.378   7.049  69.391  1.00  0.00    -0.512 NA 
HETATM    5  H   UNL     1     -11.550   8.028  69.160  1.00  0.00     0.000 HD 
BRANCH   4   6
HETATM    6  C   UNL     1     -10.996   6.278  68.195  1.00  0.00    -0.323 C  
BRANCH   6   7
HETATM    7  C   UNL     1     -10.555   7.171  67.011  1.00  0.00    -0.343 C  
HETATM    8  H   UNL     1     -10.469   9.097  66.630  1.00  0.00     0.000 HD 
HETATM    9  O   UNL     1     -10.740   8.548  67.358  1.00  0.00    -0.264 OA 
BRANCH   7  10
HETATM   10  C   UNL     1      -9.106   6.948  66.600  1.00  0.00    -0.172 A  
HETATM   11  C   UNL     1      -8.085   7.698  67.213  1.00  0.00    -0.119 A  
HETATM   12  C   UNL     1      -6.756   7.518  66.823  1.00  0.00    -0.062 A  
HETATM   13  C   UNL     1      -6.411   6.600  65.840  1.00  0.00    -0.045 A  
HETATM   14  O   UNL     1      -5.745   8.240  67.387  1.00  0.00    -0.037 OA 
HETATM   15  H   UNL     1      -4.842   8.118  67.122  1.00  0.00     0.000 HD 
HETATM   16  C   UNL     1      -7.412   5.841  65.252  1.00  0.00    -0.078 A  
HETATM   17  O   UNL     1      -7.140   4.923  64.282  1.00  0.00    -0.048 OA 
HETATM   18  C   UNL     1      -8.742   5.999  65.630  1.00  0.00    -0.142 A  
HETATM   19  H   UNL     1      -7.825   4.403  63.879  1.00  0.00     0.000 HD 
ENDBRANCH   7  10
ENDBRANCH   6   7
ENDBRANCH   4   6
ENDBRANCH   2   4
TORSDOF 4
ENDMDL
MODEL      291
REMARK 921   NORMALIZED FREE ENERGY PREDICTED BY IDOCK:   -2.39 KCAL/MOL
REMARK 922        TOTAL FREE ENERGY PREDICTED BY IDOCK:   -3.23 KCAL/MOL
REMARK 923 INTER-LIGAND FREE ENERGY PREDICTED BY IDOCK:   -2.69 KCAL/MOL
REMARK 924 INTRA-LIGAND FREE ENERGY PREDICTED BY IDOCK:   -0.54 KCAL/MOL
REMARK 927      BINDING AFFINITY PREDICTED BY RF-SCORE:    0.00 PKD
ROOT
HETATM    1  C   UNL     1      -9.446   4.282  68.295  1.00  0.00    -0.212 C  
HETATM    2  C   UNL     1      -9.611   4.706  66.836  1.00  0.00    -0.181 C  
HETATM    3  C   UNL     1     -10.864   5.577  66.694  1.00  0.00    -0.257 C  
ENDROOT
BRANCH   2   4
HETATM    4  N   UNL     1      -8.400   5.416  66.404  1.00  0.00    -0.109 NA 
HETATM    5  H   UNL     1      -8.039   5.035  65.529  1.00  0.00     0.000 HD 
BRANCH   4   6
HETATM    6  C   UNL     1      -8.616   6.871  66.302  1.00  0.00    -0.136 C  
BRANCH   6   7
HETATM    7  C   UNL     1      -7.629   7.694  67.163  1.00  0.00    -0.104 C  
HETATM    8  H   UNL     1      -6.570   9.335  66.945  1.00  0.00     0.000 HD 
HETATM    9  O   UNL     1      -7.177   8.829  66.416  1.00  0.00    -0.081 OA 
BRANCH   7  10
HETATM   10  C   UNL     1      -8.232   8.168  68.478  1.00  0.00    -0.125 A  
HETATM   11  C   UNL     1      -8.020   7.421  69.651  1.00  0.00    -0.126 A  
HETATM   12  C   UNL     1      -8.592   7.835  70.856  1.00  0.00    -0.128 A  
HETATM   13  C   UNL     1      -9.368   8.985  70.929  1.00  0.00    -0.326 A  
HETATM   14  O   UNL     1      -8.418   7.125  72.008  1.00  0.00    -0.108 OA 
HETATM   15  H   UNL     1      -8.807   7.406  72.827  1.00  0.00     0.000 HD 
HETATM   16  C   UNL     1      -9.559   9.737  69.779  1.00  0.00    -0.230 A  
HETATM   17  O   UNL     1     -10.308  10.875  69.783  1.00  0.00    -0.440 OA 
HETATM   18  C   UNL     1      -8.992   9.347  68.569  1.00  0.00    -0.128 A  
HETATM   19  H   UNL     1     -10.439  11.391  68.995  1.00  0.00     0.000 HD 
ENDBRANCH   7  10
ENDBRANCH   6   7
ENDBRANCH   4   6
ENDBRANCH   2   4
TORSDOF 4
ENDMDL
MODEL      292
REMARK 921   NORMALIZED FREE ENERGY PREDICTED BY IDOCK:   -2.37 KCAL/MOL
REMARK 922        TOTAL FREE ENERGY PREDICTED BY IDOCK:   -3.21 KCAL/MOL
REMARK 923 INTER-LIGAND FREE ENERGY PREDICTED BY IDOCK:   -2.85 KCAL/MOL
REMARK 924 INTRA-LIGAND FREE ENERGY PREDICTED BY IDOCK:   -0.35 KCAL/MOL
REMARK 927      BINDING AFFINITY PREDICTED BY RF-SCORE:    0.00 PKD
ROOT
HETATM    1  C   UNL     1     -10.020  10.979  68.453  1.00  0.00    -0.194 C  
HETATM    2  C   UNL     1     -10.646   9.584  68.428  1.00  0.00    -0.219 C  
HETATM    3  C   UNL     1     -10.271   8.877  67.122  1.00  0.00    -0.339 C  
ENDROOT
BRANCH   2   4
HETATM    4  N   UNL     1     -10.190   8.835  69.607  1.00  0.00    -0.204 NA 
HETATM    5  H   UNL     1      -9.631   9.423  70.225  1.00  0.00     0.000 HD 
BRANCH   4   6
HETATM    6  C   UNL     1     -11.309   8.209  70.334  1.00  0.00    -0.181 C  
BRANCH   6   7
HETATM    7  C   UNL     1     -11.235   6.664  70.351  1.00  0.00    -0.344 C  
HETATM    8  H   UNL     1     -11.285   5.218  69.022  1.00  0.00     0.000 HD 
HETATM    9  O   UNL     1     -11.330   6.167  69.011  1.00  0.00    -0.390 OA 
BRANCH   7  10
HETATM   10  C   UNL     1      -9.962   6.132  70.994  1.00  0.00    -0.221 A  
HETATM   11  C   UNL     1      -9.648   6.489  72.317  1.00  0.00    -0.149 A  
HETATM   12  C   UNL     1      -8.469   6.027  72.905  1.00  0.00    -0.117 A  
HETATM   13  C   UNL     1      -7.590   5.206  72.210  1.00  0.00    -0.096 A  
HETATM   14  O   UNL     1      -8.129   6.367  74.182  1.00  0.00    -0.110 OA 
HETATM   15  H   UNL     1      -7.327   6.053  74.582  1.00  0.00     0.000 HD 
HETATM   16  C   UNL     1      -7.908   4.832  70.913  1.00  0.00    -0.081 A  
HETATM   17  O   UNL     1      -7.090   4.028  70.177  1.00  0.00    -0.040 OA 
HETATM   18  C   UNL     1      -9.082   5.275  70.310  1.00  0.00    -0.169 A  
HETATM   19  H   UNL     1      -7.308   3.772  69.288  1.00  0.00     0.000 HD 
ENDBRANCH   7  10
ENDBRANCH   6   7
ENDBRANCH   4   6
ENDBRANCH   2   4
TORSDOF 4
ENDMDL
MODEL      293
REMARK 921   NORMALIZED FREE ENERGY PREDICTED BY IDOCK:   -2.36 KCAL/MOL
REMARK 922        TOTAL FREE ENERGY PREDICTED BY IDOCK:   -3.19 KCAL/MOL
REMARK 923 INTER-LIGAND FREE ENERGY PREDICTED BY IDOCK:   -2.80 KCAL/MOL
REMARK 924 INTRA-LIGAND FREE ENERGY PREDICTED BY IDOCK:   -0.38 KCAL/MOL
REMARK 927      BINDING AFFINITY PREDICTED BY RF-SCORE:    0.00 PKD
ROOT
HETATM    1  C   UNL     1      -9.869  11.620  65.714  1.00  0.00    -0.268 C  
HETATM    2  C   UNL     1      -9.511  11.450  67.191  1.00  0.00    -0.175 C  
HETATM    3  C   UNL     1      -9.005  12.783  67.752  1.00  0.00    -0.190 C  
ENDROOT
BRANCH   2   4
HETATM    4  N   UNL     1     -10.694  10.965  67.917  1.00  0.00    -0.212 NA 
HETATM    5  H   UNL     1     -11.448  10.724  67.274  1.00  0.00     0.000 HD 
BRANCH   4   6
HETATM    6  C   UNL     1     -10.373   9.838  68.810  1.00  0.00    -0.208 C  
BRANCH   6   7
HETATM    7  C   UNL     1      -9.098   9.069  68.386  1.00  0.00    -0.133 C  
HETATM    8  H   UNL     1      -7.362   8.629  69.194  1.00  0.00     0.000 HD 
HETATM    9  O   UNL     1      -8.145   9.101  69.454  1.00  0.00    -0.095 OA 
BRANCH   7  10
HETATM   10  C   UNL     1      -9.372   7.622  68.002  1.00  0.00    -0.144 A  
HETATM   11  C   UNL     1      -9.719   6.691  68.997  1.00  0.00    -0.142 A  
HETATM   12  C   UNL     1      -9.946   5.356  68.656  1.00  0.00    -0.170 A  
HETATM   13  C   UNL     1      -9.846   4.920  67.341  1.00  0.00    -0.213 A  
HETATM   14  O   UNL     1     -10.270   4.425  69.600  1.00  0.00    -0.133 OA 
HETATM   15  H   UNL     1     -10.424   3.517  69.369  1.00  0.00     0.000 HD 
HETATM   16  C   UNL     1      -9.528   5.841  66.354  1.00  0.00    -0.156 A  
HETATM   17  O   UNL     1      -9.416   5.478  65.045  1.00  0.00    -0.356 OA 
HETATM   18  C   UNL     1      -9.305   7.178  66.670  1.00  0.00    -0.207 A  
HETATM   19  H   UNL     1      -9.198   6.109  64.368  1.00  0.00     0.000 HD 
ENDBRANCH   7  10
ENDBRANCH   6   7
ENDBRANCH   4   6
ENDBRANCH   2   4
TORSDOF 4
ENDMDL
MODEL      294
REMARK 921   NORMALIZED FREE ENERGY PREDICTED BY IDOCK:   -2.34 KCAL/MOL
REMARK 922        TOTAL FREE ENERGY PREDICTED BY IDOCK:   -3.16 KCAL/MOL
REMARK 923 INTER-LIGAND FREE ENERGY PREDICTED BY IDOCK:   -2.74 KCAL/MOL
REMARK 924 INTRA-LIGAND FREE ENERGY PREDICTED BY IDOCK:   -0.43 KCAL/MOL
REMARK 927      BINDING AFFINITY PREDICTED BY RF-SCORE:    0.00 PKD
ROOT
HETATM    1  C   UNL     1      -8.770   5.106  68.211  1.00  0.00    -0.104 C  
HETATM    2  C   UNL     1      -9.555   6.384  68.506  1.00  0.00    -0.122 C  
HETATM    3  C   UNL     1     -10.709   6.518  67.507  1.00  0.00    -0.395 C  
ENDROOT
BRANCH   2   4
HETATM    4  N   UNL     1     -10.035   6.341  69.894  1.00  0.00    -0.166 NA 
HETATM    5  H   UNL     1      -9.269   6.161  70.544  1.00  0.00     0.000 HD 
BRANCH   4   6
HETATM    6  C   UNL     1     -10.774   7.561  70.264  1.00  0.00    -0.238 C  
BRANCH   6   7
HETATM    7  C   UNL     1      -9.872   8.654  70.885  1.00  0.00    -0.205 C  
HETATM    8  H   UNL     1      -8.185   8.710  71.891  1.00  0.00     0.000 HD 
HETATM    9  O   UNL     1      -8.739   8.039  71.510  1.00  0.00    -0.121 OA 
BRANCH   7  10
HETATM   10  C   UNL     1      -9.388   9.680  69.869  1.00  0.00    -0.256 A  
HETATM   11  C   UNL     1     -10.320  10.342  69.051  1.00  0.00    -0.232 A  
HETATM   12  C   UNL     1      -9.882  11.265  68.098  1.00  0.00    -0.183 A  
HETATM   13  C   UNL     1      -8.533  11.556  67.943  1.00  0.00    -0.142 A  
HETATM   14  O   UNL     1     -10.760  11.914  67.279  1.00  0.00    -0.220 OA 
HETATM   15  H   UNL     1     -10.462  12.541  66.632  1.00  0.00     0.000 HD 
HETATM   16  C   UNL     1      -7.614  10.922  68.765  1.00  0.00    -0.121 A  
HETATM   17  O   UNL     1      -6.276  11.163  68.664  1.00  0.00    -0.043 OA 
HETATM   18  C   UNL     1      -8.028  10.004  69.726  1.00  0.00    -0.190 A  
HETATM   19  H   UNL     1      -5.645  10.729  69.227  1.00  0.00     0.000 HD 
ENDBRANCH   7  10
ENDBRANCH   6   7
ENDBRANCH   4   6
ENDBRANCH   2   4
TORSDOF 4
ENDMDL
MODEL      295
REMARK 921   NORMALIZED FREE ENERGY PREDICTED BY IDOCK:   -2.33 KCAL/MOL
REMARK 922        TOTAL FREE ENERGY PREDICTED BY IDOCK:   -3.16 KCAL/MOL
REMARK 923 INTER-LIGAND FREE ENERGY PREDICTED BY IDOCK:   -2.76 KCAL/MOL
REMARK 924 INTRA-LIGAND FREE ENERGY PREDICTED BY IDOCK:   -0.40 KCAL/MOL
REMARK 927      BINDING AFFINITY PREDICTED BY RF-SCORE:    0.00 PKD
ROOT
HETATM    1  C   UNL     1      -7.323   8.370  71.465  1.00  0.00    -0.103 C  
HETATM    2  C   UNL     1      -6.780   8.483  70.040  1.00  0.00    -0.042 C  
HETATM    3  C   UNL     1      -5.284   8.809  70.086  1.00  0.00    -0.028 C  
ENDROOT
BRANCH   2   4
HETATM    4  N   UNL     1      -7.044   7.226  69.327  1.00  0.00    -0.076 NA 
HETATM    5  H   UNL     1      -6.393   7.096  68.552  1.00  0.00     0.000 HD 
BRANCH   4   6
HETATM    6  C   UNL     1      -7.036   6.063  70.231  1.00  0.00    -0.074 C  
BRANCH   6   7
HETATM    7  C   UNL     1      -8.203   5.080  69.970  1.00  0.00    -0.081 C  
HETATM    8  H   UNL     1      -8.513   3.150  70.162  1.00  0.00     0.000 HD 
HETATM    9  O   UNL     1      -7.797   3.753  70.323  1.00  0.00    -0.047 OA 
BRANCH   7  10
HETATM   10  C   UNL     1      -9.469   5.437  70.736  1.00  0.00    -0.215 A  
HETATM   11  C   UNL     1      -9.811   4.712  71.892  1.00  0.00    -0.241 A  
HETATM   12  C   UNL     1     -10.984   5.016  72.586  1.00  0.00    -0.216 A  
HETATM   13  C   UNL     1     -11.829   6.034  72.163  1.00  0.00    -0.304 A  
HETATM   14  O   UNL     1     -11.352   4.322  73.702  1.00  0.00    -0.268 OA 
HETATM   15  H   UNL     1     -12.150   4.528  74.173  1.00  0.00     0.000 HD 
HETATM   16  C   UNL     1     -11.482   6.767  71.038  1.00  0.00    -0.324 A  
HETATM   17  O   UNL     1     -12.267   7.779  70.572  1.00  0.00    -0.500 OA 
HETATM   18  C   UNL     1     -10.314   6.487  70.335  1.00  0.00    -0.237 A  
HETATM   19  H   UNL     1     -12.029   8.282  69.801  1.00  0.00     0.000 HD 
ENDBRANCH   7  10
ENDBRANCH   6   7
ENDBRANCH   4   6
ENDBRANCH   2   4
TORSDOF 4
ENDMDL
MODEL      296
REMARK 921   NORMALIZED FREE ENERGY PREDICTED BY IDOCK:   -2.30 KCAL/MOL
REMARK 922        TOTAL FREE ENERGY PREDICTED BY IDOCK:   -3.12 KCAL/MOL
REMARK 923 INTER-LIGAND FREE ENERGY PREDICTED BY IDOCK:   -3.20 KCAL/MOL
REMARK 924 INTRA-LIGAND FREE ENERGY PREDICTED BY IDOCK:    0.09 KCAL/MOL
REMARK 927      BINDING AFFINITY PREDICTED BY RF-SCORE:    0.00 PKD
ROOT
HETATM    1  C   UNL     1      -9.138   7.422  70.356  1.00  0.00    -0.157 C  
HETATM    2  C   UNL     1      -8.017   7.327  69.320  1.00  0.00    -0.118 C  
HETATM    3  C   UNL     1      -8.378   6.271  68.270  1.00  0.00    -0.115 C  
ENDROOT
BRANCH   2   4
HETATM    4  N   UNL     1      -7.812   8.651  68.716  1.00  0.00    -0.104 NA 
HETATM    5  H   UNL     1      -7.841   8.601  67.697  1.00  0.00     0.000 HD 
BRANCH   4   6
HETATM    6  C   UNL     1      -8.767   9.649  69.229  1.00  0.00    -0.159 C  
BRANCH   6   7
HETATM    7  C   UNL     1     -10.106   9.664  68.453  1.00  0.00    -0.176 C  
HETATM    8  H   UNL     1     -11.996   9.999  68.875  1.00  0.00     0.000 HD 
HETATM    9  O   UNL     1     -11.173   9.991  69.351  1.00  0.00    -0.231 OA 
BRANCH   7  10
HETATM   10  C   UNL     1     -10.114  10.645  67.289  1.00  0.00    -0.238 A  
HETATM   11  C   UNL     1     -10.423  11.997  67.519  1.00  0.00    -0.234 A  
HETATM   12  C   UNL     1     -10.457  12.897  66.452  1.00  0.00    -0.267 A  
HETATM   13  C   UNL     1     -10.182  12.488  65.154  1.00  0.00    -0.299 A  
HETATM   14  O   UNL     1     -10.768  14.213  66.641  1.00  0.00    -0.285 OA 
HETATM   15  H   UNL     1     -10.792  14.825  65.915  1.00  0.00     0.000 HD 
HETATM   16  C   UNL     1      -9.852  11.160  64.927  1.00  0.00    -0.266 A  
HETATM   17  O   UNL     1      -9.570  10.695  63.678  1.00  0.00    -0.260 OA 
HETATM   18  C   UNL     1      -9.805  10.247  65.976  1.00  0.00    -0.292 A  
HETATM   19  H   UNL     1      -9.344   9.785  63.522  1.00  0.00     0.000 HD 
ENDBRANCH   7  10
ENDBRANCH   6   7
ENDBRANCH   4   6
ENDBRANCH   2   4
TORSDOF 4
ENDMDL
MODEL      297
REMARK 921   NORMALIZED FREE ENERGY PREDICTED BY IDOCK:   -2.27 KCAL/MOL
REMARK 922        TOTAL FREE ENERGY PREDICTED BY IDOCK:   -3.08 KCAL/MOL
REMARK 923 INTER-LIGAND FREE ENERGY PREDICTED BY IDOCK:   -2.91 KCAL/MOL
REMARK 924 INTRA-LIGAND FREE ENERGY PREDICTED BY IDOCK:   -0.17 KCAL/MOL
REMARK 927      BINDING AFFINITY PREDICTED BY RF-SCORE:    0.00 PKD
ROOT
HETATM    1  C   UNL     1      -7.841   5.987  67.554  1.00  0.00    -0.098 C  
HETATM    2  C   UNL     1      -7.084   7.219  68.054  1.00  0.00    -0.081 C  
HETATM    3  C   UNL     1      -6.361   7.887  66.880  1.00  0.00    -0.055 C  
ENDROOT
BRANCH   2   4
HETATM    4  N   UNL     1      -8.034   8.133  68.702  1.00  0.00    -0.114 NA 
HETATM    5  H   UNL     1      -8.366   8.844  68.051  1.00  0.00     0.000 HD 
BRANCH   4   6
HETATM    6  C   UNL     1      -9.160   7.413  69.325  1.00  0.00    -0.135 C  
BRANCH   6   7
HETATM    7  C   UNL     1     -10.514   8.144  69.162  1.00  0.00    -0.206 C  
HETATM    8  H   UNL     1     -11.900   8.863  70.355  1.00  0.00     0.000 HD 
HETATM    9  O   UNL     1     -11.068   8.414  70.455  1.00  0.00    -0.245 OA 
BRANCH   7  10
HETATM   10  C   UNL     1     -10.401   9.447  68.383  1.00  0.00    -0.238 A  
HETATM   11  C   UNL     1     -10.107  10.642  69.064  1.00  0.00    -0.226 A  
HETATM   12  C   UNL     1     -10.028  11.846  68.360  1.00  0.00    -0.203 A  
HETATM   13  C   UNL     1     -10.227  11.892  66.986  1.00  0.00    -0.233 A  
HETATM   14  O   UNL     1      -9.759  13.024  68.993  1.00  0.00    -0.400 OA 
HETATM   15  H   UNL     1      -9.706  13.843  68.514  1.00  0.00     0.000 HD 
HETATM   16  C   UNL     1     -10.493  10.712  66.308  1.00  0.00    -0.203 A  
HETATM   17  O   UNL     1     -10.697  10.689  64.961  1.00  0.00    -0.203 OA 
HETATM   18  C   UNL     1     -10.569   9.500  66.988  1.00  0.00    -0.271 A  
HETATM   19  H   UNL     1     -10.879   9.880  64.496  1.00  0.00     0.000 HD 
ENDBRANCH   7  10
ENDBRANCH   6   7
ENDBRANCH   4   6
ENDBRANCH   2   4
TORSDOF 4
ENDMDL
MODEL      298
REMARK 921   NORMALIZED FREE ENERGY PREDICTED BY IDOCK:   -2.22 KCAL/MOL
REMARK 922        TOTAL FREE ENERGY PREDICTED BY IDOCK:   -3.02 KCAL/MOL
REMARK 923 INTER-LIGAND FREE ENERGY PREDICTED BY IDOCK:   -2.79 KCAL/MOL
REMARK 924 INTRA-LIGAND FREE ENERGY PREDICTED BY IDOCK:   -0.24 KCAL/MOL
REMARK 927      BINDING AFFINITY PREDICTED BY RF-SCORE:    0.00 PKD
ROOT
HETATM    1  C   UNL     1      -9.588   8.428  71.361  1.00  0.00    -0.254 C  
HETATM    2  C   UNL     1     -10.621   8.955  70.364  1.00  0.00    -0.217 C  
HETATM    3  C   UNL     1     -11.421  10.091  71.008  1.00  0.00    -0.463 C  
ENDROOT
BRANCH   2   4
HETATM    4  N   UNL     1      -9.927   9.396  69.146  1.00  0.00    -0.175 NA 
HETATM    5  H   UNL     1      -9.046   8.896  69.020  1.00  0.00     0.000 HD 
BRANCH   4   6
HETATM    6  C   UNL     1     -10.780   9.281  67.949  1.00  0.00    -0.188 C  
BRANCH   6   7
HETATM    7  C   UNL     1     -10.362   8.122  67.013  1.00  0.00    -0.333 C  
HETATM    8  H   UNL     1      -9.381   7.938  65.321  1.00  0.00     0.000 HD 
HETATM    9  O   UNL     1      -9.638   8.650  65.896  1.00  0.00    -0.220 OA 
BRANCH   7  10
HETATM   10  C   UNL     1      -9.513   7.067  67.708  1.00  0.00    -0.132 A  
HETATM   11  C   UNL     1     -10.140   6.018  68.404  1.00  0.00    -0.198 A  
HETATM   12  C   UNL     1      -9.368   5.060  69.066  1.00  0.00    -0.126 A  
HETATM   13  C   UNL     1      -7.980   5.113  69.047  1.00  0.00    -0.085 A  
HETATM   14  O   UNL     1      -9.945   4.038  69.762  1.00  0.00    -0.180 OA 
HETATM   15  H   UNL     1      -9.420   3.387  70.213  1.00  0.00     0.000 HD 
HETATM   16  C   UNL     1      -7.360   6.133  68.342  1.00  0.00    -0.086 A  
HETATM   17  O   UNL     1      -6.002   6.242  68.283  1.00  0.00    -0.015 OA 
HETATM   18  C   UNL     1      -8.109   7.094  67.668  1.00  0.00    -0.114 A  
HETATM   19  H   UNL     1      -5.577   6.941  67.799  1.00  0.00     0.000 HD 
ENDBRANCH   7  10
ENDBRANCH   6   7
ENDBRANCH   4   6
ENDBRANCH   2   4
TORSDOF 4
ENDMDL
MODEL      299
REMARK 921   NORMALIZED FREE ENERGY PREDICTED BY IDOCK:   -2.21 KCAL/MOL
REMARK 922        TOTAL FREE ENERGY PREDICTED BY IDOCK:   -3.01 KCAL/MOL
REMARK 923 INTER-LIGAND FREE ENERGY PREDICTED BY IDOCK:   -2.83 KCAL/MOL
REMARK 924 INTRA-LIGAND FREE ENERGY PREDICTED BY IDOCK:   -0.18 KCAL/MOL
REMARK 927      BINDING AFFINITY PREDICTED BY RF-SCORE:    0.00 PKD
ROOT
HETATM    1  C   UNL     1      -9.217  10.971  65.223  1.00  0.00    -0.229 C  
HETATM    2  C   UNL     1      -9.445  10.535  66.671  1.00  0.00    -0.168 C  
HETATM    3  C   UNL     1     -10.077  11.686  67.459  1.00  0.00    -0.209 C  
ENDROOT
BRANCH   2   4
HETATM    4  N   UNL     1     -10.293   9.335  66.680  1.00  0.00    -0.248 NA 
HETATM    5  H   UNL     1     -11.091   9.441  66.053  1.00  0.00     0.000 HD 
BRANCH   4   6
HETATM    6  C   UNL     1      -9.529   8.113  66.370  1.00  0.00    -0.218 C  
BRANCH   6   7
HETATM    7  C   UNL     1      -9.975   6.889  67.204  1.00  0.00    -0.183 C  
HETATM    8  H   UNL     1     -11.664   5.960  67.585  1.00  0.00     0.000 HD 
HETATM    9  O   UNL     1     -11.390   6.712  67.072  1.00  0.00    -0.348 OA 
BRANCH   7  10
HETATM   10  C   UNL     1      -9.270   5.601  66.802  1.00  0.00    -0.130 A  
HETATM   11  C   UNL     1      -8.082   5.663  66.051  1.00  0.00    -0.109 A  
HETATM   12  C   UNL     1      -7.443   4.486  65.656  1.00  0.00    -0.081 A  
HETATM   13  C   UNL     1      -7.952   3.239  65.997  1.00  0.00    -0.088 A  
HETATM   14  O   UNL     1      -6.298   4.512  64.915  1.00  0.00    -0.033 OA 
HETATM   15  H   UNL     1      -5.863   3.711  64.646  1.00  0.00     0.000 HD 
HETATM   16  C   UNL     1      -9.110   3.175  66.757  1.00  0.00    -0.167 A  
HETATM   17  O   UNL     1      -9.661   1.984  67.126  1.00  0.00    -0.387 OA 
HETATM   18  C   UNL     1      -9.760   4.335  67.169  1.00  0.00    -0.232 A  
HETATM   19  H   UNL     1     -10.454   1.940  67.647  1.00  0.00     0.000 HD 
ENDBRANCH   7  10
ENDBRANCH   6   7
ENDBRANCH   4   6
ENDBRANCH   2   4
TORSDOF 4
ENDMDL
MODEL      300
REMARK 921   NORMALIZED FREE ENERGY PREDICTED BY IDOCK:   -2.19 KCAL/MOL
REMARK 922        TOTAL FREE ENERGY PREDICTED BY IDOCK:   -2.98 KCAL/MOL
REMARK 923 INTER-LIGAND FREE ENERGY PREDICTED BY IDOCK:   -2.81 KCAL/MOL
REMARK 924 INTRA-LIGAND FREE ENERGY PREDICTED BY IDOCK:   -0.17 KCAL/MOL
REMARK 927      BINDING AFFINITY PREDICTED BY RF-SCORE:    0.00 PKD
ROOT
HETATM    1  C   UNL     1      -6.748   8.494  65.917  1.00  0.00    -0.057 C  
HETATM    2  C   UNL     1      -8.179   8.341  66.433  1.00  0.00    -0.107 C  
HETATM    3  C   UNL     1      -8.497   6.854  66.629  1.00  0.00    -0.121 C  
ENDROOT
BRANCH   2   4
HETATM    4  N   UNL     1      -8.320   9.100  67.683  1.00  0.00    -0.116 NA 
HETATM    5  H   UNL     1      -9.138   8.794  68.211  1.00  0.00     0.000 HD 
BRANCH   4   6
HETATM    6  C   UNL     1      -7.101   9.043  68.508  1.00  0.00    -0.072 C  
BRANCH   6   7
HETATM    7  C   UNL     1      -7.395   8.953  70.024  1.00  0.00    -0.056 C  
HETATM    8  H   UNL     1      -7.212  10.131  71.585  1.00  0.00     0.000 HD 
HETATM    9  O   UNL     1      -7.031  10.187  70.654  1.00  0.00    -0.298 OA 
BRANCH   7  10
HETATM   10  C   UNL     1      -8.853   8.643  70.334  1.00  0.00    -0.170 A  
HETATM   11  C   UNL     1      -9.246   7.314  70.574  1.00  0.00    -0.158 A  
HETATM   12  C   UNL     1     -10.587   7.018  70.833  1.00  0.00    -0.217 A  
HETATM   13  C   UNL     1     -11.552   8.017  70.869  1.00  0.00    -0.284 A  
HETATM   14  O   UNL     1     -11.003   5.738  71.055  1.00  0.00    -0.271 OA 
HETATM   15  H   UNL     1     -11.914   5.537  71.230  1.00  0.00     0.000 HD 
HETATM   16  C   UNL     1     -11.162   9.331  70.657  1.00  0.00    -0.276 A  
HETATM   17  O   UNL     1     -12.060  10.357  70.680  1.00  0.00    -0.293 OA 
HETATM   18  C   UNL     1      -9.831   9.650  70.404  1.00  0.00    -0.315 A  
HETATM   19  H   UNL     1     -11.793  11.257  70.535  1.00  0.00     0.000 HD 
ENDBRANCH   7  10
ENDBRANCH   6   7
ENDBRANCH   4   6
ENDBRANCH   2   4
TORSDOF 4
ENDMDL
MODEL      301
REMARK 921   NORMALIZED FREE ENERGY PREDICTED BY IDOCK:   -2.18 KCAL/MOL
REMARK 922        TOTAL FREE ENERGY PREDICTED BY IDOCK:   -2.97 KCAL/MOL
REMARK 923 INTER-LIGAND FREE ENERGY PREDICTED BY IDOCK:   -2.71 KCAL/MOL
REMARK 924 INTRA-LIGAND FREE ENERGY PREDICTED BY IDOCK:   -0.25 KCAL/MOL
REMARK 927      BINDING AFFINITY PREDICTED BY RF-SCORE:    0.00 PKD
ROOT
HETATM    1  C   UNL     1      -9.508   5.041  71.884  1.00  0.00    -0.189 C  
HETATM    2  C   UNL     1     -10.180   5.830  70.760  1.00  0.00    -0.219 C  
HETATM    3  C   UNL     1     -10.672   7.176  71.301  1.00  0.00    -0.245 C  
ENDROOT
BRANCH   2   4
HETATM    4  N   UNL     1      -9.222   6.000  69.658  1.00  0.00    -0.137 NA 
HETATM    5  H   UNL     1      -9.207   5.180  69.052  1.00  0.00     0.000 HD 
BRANCH   4   6
HETATM    6  C   UNL     1      -9.478   7.229  68.886  1.00  0.00    -0.143 C  
BRANCH   6   7
HETATM    7  C   UNL     1      -8.192   7.856  68.297  1.00  0.00    -0.124 C  
HETATM    8  H   UNL     1      -6.915   7.417  66.870  1.00  0.00     0.000 HD 
HETATM    9  O   UNL     1      -7.705   7.032  67.231  1.00  0.00    -0.105 OA 
BRANCH   7  10
HETATM   10  C   UNL     1      -8.398   9.273  67.780  1.00  0.00    -0.116 A  
HETATM   11  C   UNL     1      -9.701   9.739  67.529  1.00  0.00    -0.192 A  
HETATM   12  C   UNL     1      -9.898  11.029  67.030  1.00  0.00    -0.182 A  
HETATM   13  C   UNL     1      -8.826  11.877  66.781  1.00  0.00    -0.193 A  
HETATM   14  O   UNL     1     -11.148  11.506  66.761  1.00  0.00    -0.286 OA 
HETATM   15  H   UNL     1     -11.281  12.382  66.422  1.00  0.00     0.000 HD 
HETATM   16  C   UNL     1      -7.542  11.429  67.050  1.00  0.00    -0.151 A  
HETATM   17  O   UNL     1      -6.448  12.211  66.829  1.00  0.00    -0.344 OA 
HETATM   18  C   UNL     1      -7.323  10.150  67.555  1.00  0.00    -0.089 A  
HETATM   19  H   UNL     1      -5.568  11.905  67.014  1.00  0.00     0.000 HD 
ENDBRANCH   7  10
ENDBRANCH   6   7
ENDBRANCH   4   6
ENDBRANCH   2   4
TORSDOF 4
ENDMDL
MODEL      302
REMARK 921   NORMALIZED FREE ENERGY PREDICTED BY IDOCK:   -2.17 KCAL/MOL
REMARK 922        TOTAL FREE ENERGY PREDICTED BY IDOCK:   -2.96 KCAL/MOL
REMARK 923 INTER-LIGAND FREE ENERGY PREDICTED BY IDOCK:   -2.71 KCAL/MOL
REMARK 924 INTRA-LIGAND FREE ENERGY PREDICTED BY IDOCK:   -0.25 KCAL/MOL
REMARK 927      BINDING AFFINITY PREDICTED BY RF-SCORE:    0.00 PKD
ROOT
HETATM    1  C   UNL     1      -9.508   5.041  71.884  1.00  0.00    -0.189 C  
HETATM    2  C   UNL     1     -10.180   5.830  70.760  1.00  0.00    -0.219 C  
HETATM    3  C   UNL     1     -10.672   7.176  71.301  1.00  0.00    -0.245 C  
ENDROOT
BRANCH   2   4
HETATM    4  N   UNL     1      -9.222   6.000  69.658  1.00  0.00    -0.137 NA 
HETATM    5  H   UNL     1      -9.207   5.180  69.052  1.00  0.00     0.000 HD 
BRANCH   4   6
HETATM    6  C   UNL     1      -9.478   7.229  68.886  1.00  0.00    -0.143 C  
BRANCH   6   7
HETATM    7  C   UNL     1      -8.192   7.856  68.297  1.00  0.00    -0.124 C  
HETATM    8  H   UNL     1      -6.915   7.417  66.870  1.00  0.00     0.000 HD 
HETATM    9  O   UNL     1      -7.705   7.032  67.231  1.00  0.00    -0.105 OA 
BRANCH   7  10
HETATM   10  C   UNL     1      -8.398   9.273  67.780  1.00  0.00    -0.116 A  
HETATM   11  C   UNL     1      -7.282  10.070  67.467  1.00  0.00    -0.089 A  
HETATM   12  C   UNL     1      -7.463  11.380  67.017  1.00  0.00    -0.147 A  
HETATM   13  C   UNL     1      -8.733  11.920  66.861  1.00  0.00    -0.191 A  
HETATM   14  O   UNL     1      -6.401  12.183  66.718  1.00  0.00    -0.363 OA 
HETATM   15  H   UNL     1      -6.524  13.073  66.413  1.00  0.00     0.000 HD 
HETATM   16  C   UNL     1      -9.836  11.129  67.146  1.00  0.00    -0.187 A  
HETATM   17  O   UNL     1     -11.109  11.598  67.013  1.00  0.00    -0.271 OA 
HETATM   18  C   UNL     1      -9.680   9.818  67.589  1.00  0.00    -0.186 A  
HETATM   19  H   UNL     1     -11.865  11.057  67.208  1.00  0.00     0.000 HD 
ENDBRANCH   7  10
ENDBRANCH   6   7
ENDBRANCH   4   6
ENDBRANCH   2   4
TORSDOF 4
ENDMDL
MODEL      303
REMARK 921   NORMALIZED FREE ENERGY PREDICTED BY IDOCK:   -2.16 KCAL/MOL
REMARK 922        TOTAL FREE ENERGY PREDICTED BY IDOCK:   -2.95 KCAL/MOL
REMARK 923 INTER-LIGAND FREE ENERGY PREDICTED BY IDOCK:   -3.49 KCAL/MOL
REMARK 924 INTRA-LIGAND FREE ENERGY PREDICTED BY IDOCK:    0.54 KCAL/MOL
REMARK 927      BINDING AFFINITY PREDICTED BY RF-SCORE:    0.00 PKD
ROOT
HETATM    1  C   UNL     1      -6.210  18.951  65.351  1.00  0.00    -0.313 C  
HETATM    2  C   UNL     1      -6.155  18.070  66.600  1.00  0.00    -0.166 C  
HETATM    3  C   UNL     1      -5.183  16.909  66.366  1.00  0.00     0.071 C  
ENDROOT
BRANCH   2   4
HETATM    4  N   UNL     1      -5.757  18.895  67.749  1.00  0.00    -0.188 NA 
HETATM    5  H   UNL     1      -6.070  19.859  67.639  1.00  0.00     0.000 HD 
BRANCH   4   6
HETATM    6  C   UNL     1      -6.221  18.326  69.027  1.00  0.00    -0.234 C  
BRANCH   6   7
HETATM    7  C   UNL     1      -6.839  16.916  68.877  1.00  0.00    -0.209 C  
HETATM    8  H   UNL     1      -6.871  15.253  69.923  1.00  0.00     0.000 HD 
HETATM    9  O   UNL     1      -6.491  16.119  70.015  1.00  0.00    -0.154 OA 
BRANCH   7  10
HETATM   10  C   UNL     1      -8.354  16.939  68.727  1.00  0.00    -0.240 A  
HETATM   11  C   UNL     1      -9.108  15.811  69.095  1.00  0.00    -0.262 A  
HETATM   12  C   UNL     1     -10.495  15.814  68.936  1.00  0.00    -0.223 A  
HETATM   13  C   UNL     1     -11.159  16.922  68.424  1.00  0.00    -0.216 A  
HETATM   14  O   UNL     1     -11.253  14.730  69.270  1.00  0.00    -0.256 OA 
HETATM   15  H   UNL     1     -12.197  14.733  69.161  1.00  0.00     0.000 HD 
HETATM   16  C   UNL     1     -10.421  18.045  68.082  1.00  0.00    -0.361 A  
HETATM   17  O   UNL     1     -11.012  19.164  67.576  1.00  0.00    -0.456 OA 
HETATM   18  C   UNL     1      -9.039  18.066  68.240  1.00  0.00    -0.284 A  
HETATM   19  H   UNL     1     -10.507  19.934  67.342  1.00  0.00     0.000 HD 
ENDBRANCH   7  10
ENDBRANCH   6   7
ENDBRANCH   4   6
ENDBRANCH   2   4
TORSDOF 4
ENDMDL
MODEL      304
REMARK 921   NORMALIZED FREE ENERGY PREDICTED BY IDOCK:   -2.14 KCAL/MOL
REMARK 922        TOTAL FREE ENERGY PREDICTED BY IDOCK:   -2.92 KCAL/MOL
REMARK 923 INTER-LIGAND FREE ENERGY PREDICTED BY IDOCK:   -2.66 KCAL/MOL
REMARK 924 INTRA-LIGAND FREE ENERGY PREDICTED BY IDOCK:   -0.26 KCAL/MOL
REMARK 927      BINDING AFFINITY PREDICTED BY RF-SCORE:    0.00 PKD
ROOT
HETATM    1  C   UNL     1      -6.582   9.979  66.711  1.00  0.00    -0.072 C  
HETATM    2  C   UNL     1      -6.379  10.291  68.194  1.00  0.00    -0.056 C  
HETATM    3  C   UNL     1      -7.456  11.275  68.662  1.00  0.00    -0.118 C  
ENDROOT
BRANCH   2   4
HETATM    4  N   UNL     1      -6.417   9.035  68.956  1.00  0.00    -0.047 NA 
HETATM    5  H   UNL     1      -5.499   8.591  68.983  1.00  0.00     0.000 HD 
BRANCH   4   6
HETATM    6  C   UNL     1      -6.957   9.227  70.314  1.00  0.00    -0.076 C  
BRANCH   6   7
HETATM    7  C   UNL     1      -7.061   7.909  71.119  1.00  0.00    -0.054 C  
HETATM    8  H   UNL     1      -6.474   7.261  72.878  1.00  0.00     0.000 HD 
HETATM    9  O   UNL     1      -6.410   8.070  72.384  1.00  0.00    -0.053 OA 
BRANCH   7  10
HETATM   10  C   UNL     1      -8.498   7.460  71.349  1.00  0.00    -0.113 A  
HETATM   11  C   UNL     1      -9.211   6.846  70.303  1.00  0.00    -0.156 A  
HETATM   12  C   UNL     1     -10.538   6.455  70.498  1.00  0.00    -0.239 A  
HETATM   13  C   UNL     1     -11.176   6.651  71.716  1.00  0.00    -0.299 A  
HETATM   14  O   UNL     1     -11.261   5.870  69.500  1.00  0.00    -0.389 OA 
HETATM   15  H   UNL     1     -12.163   5.605  69.632  1.00  0.00     0.000 HD 
HETATM   16  C   UNL     1     -10.468   7.235  72.756  1.00  0.00    -0.260 A  
HETATM   17  O   UNL     1     -11.035   7.454  73.975  1.00  0.00    -0.520 OA 
HETATM   18  C   UNL     1      -9.143   7.625  72.587  1.00  0.00    -0.209 A  
HETATM   19  H   UNL     1     -10.550   7.853  74.688  1.00  0.00     0.000 HD 
ENDBRANCH   7  10
ENDBRANCH   6   7
ENDBRANCH   4   6
ENDBRANCH   2   4
TORSDOF 4
ENDMDL
MODEL      305
REMARK 921   NORMALIZED FREE ENERGY PREDICTED BY IDOCK:   -2.12 KCAL/MOL
REMARK 922        TOTAL FREE ENERGY PREDICTED BY IDOCK:   -2.89 KCAL/MOL
REMARK 923 INTER-LIGAND FREE ENERGY PREDICTED BY IDOCK:   -2.75 KCAL/MOL
REMARK 924 INTRA-LIGAND FREE ENERGY PREDICTED BY IDOCK:   -0.14 KCAL/MOL
REMARK 927      BINDING AFFINITY PREDICTED BY RF-SCORE:    0.00 PKD
ROOT
HETATM    1  C   UNL     1      -8.964   5.199  68.173  1.00  0.00    -0.118 C  
HETATM    2  C   UNL     1     -10.089   6.210  68.399  1.00  0.00    -0.158 C  
HETATM    3  C   UNL     1     -10.963   6.293  67.144  1.00  0.00    -0.453 C  
ENDROOT
BRANCH   2   4
HETATM    4  N   UNL     1     -10.865   5.805  69.580  1.00  0.00    -0.353 NA 
HETATM    5  H   UNL     1     -10.253   5.568  70.361  1.00  0.00     0.000 HD 
BRANCH   4   6
HETATM    6  C   UNL     1     -11.856   6.824  69.969  1.00  0.00    -0.206 C  
BRANCH   6   7
HETATM    7  C   UNL     1     -11.491   7.557  71.283  1.00  0.00    -0.274 C  
HETATM    8  H   UNL     1     -12.279   7.755  73.072  1.00  0.00     0.000 HD 
HETATM    9  O   UNL     1     -12.503   7.305  72.265  1.00  0.00    -0.202 OA 
BRANCH   7  10
HETATM   10  C   UNL     1     -10.136   7.146  71.842  1.00  0.00    -0.197 A  
HETATM   11  C   UNL     1      -8.979   7.838  71.442  1.00  0.00    -0.151 A  
HETATM   12  C   UNL     1      -7.729   7.450  71.930  1.00  0.00    -0.085 A  
HETATM   13  C   UNL     1      -7.599   6.391  72.819  1.00  0.00    -0.102 A  
HETATM   14  O   UNL     1      -6.586   8.092  71.550  1.00  0.00    -0.041 OA 
HETATM   15  H   UNL     1      -5.737   7.828  71.882  1.00  0.00     0.000 HD 
HETATM   16  C   UNL     1      -8.741   5.722  73.233  1.00  0.00    -0.118 A  
HETATM   17  O   UNL     1      -8.682   4.675  74.104  1.00  0.00    -0.107 OA 
HETATM   18  C   UNL     1      -9.998   6.096  72.766  1.00  0.00    -0.185 A  
HETATM   19  H   UNL     1      -9.464   4.216  74.389  1.00  0.00     0.000 HD 
ENDBRANCH   7  10
ENDBRANCH   6   7
ENDBRANCH   4   6
ENDBRANCH   2   4
TORSDOF 4
ENDMDL
MODEL      306
REMARK 921   NORMALIZED FREE ENERGY PREDICTED BY IDOCK:   -2.07 KCAL/MOL
REMARK 922        TOTAL FREE ENERGY PREDICTED BY IDOCK:   -2.83 KCAL/MOL
REMARK 923 INTER-LIGAND FREE ENERGY PREDICTED BY IDOCK:   -2.48 KCAL/MOL
REMARK 924 INTRA-LIGAND FREE ENERGY PREDICTED BY IDOCK:   -0.35 KCAL/MOL
REMARK 927      BINDING AFFINITY PREDICTED BY RF-SCORE:    0.00 PKD
ROOT
HETATM    1  C   UNL     1      -7.390   8.574  71.317  1.00  0.00    -0.095 C  
HETATM    2  C   UNL     1      -7.041   8.381  69.841  1.00  0.00    -0.051 C  
HETATM    3  C   UNL     1      -5.661   8.982  69.558  1.00  0.00    -0.034 C  
ENDROOT
BRANCH   2   4
HETATM    4  N   UNL     1      -7.089   6.947  69.523  1.00  0.00    -0.073 NA 
HETATM    5  H   UNL     1      -6.332   6.683  68.891  1.00  0.00     0.000 HD 
BRANCH   4   6
HETATM    6  C   UNL     1      -7.089   6.109  70.735  1.00  0.00    -0.069 C  
BRANCH   6   7
HETATM    7  C   UNL     1      -7.960   4.838  70.597  1.00  0.00    -0.073 C  
HETATM    8  H   UNL     1      -7.698   2.900  70.793  1.00  0.00     0.000 HD 
HETATM    9  O   UNL     1      -7.163   3.681  70.878  1.00  0.00    -0.033 OA 
BRANCH   7  10
HETATM   10  C   UNL     1      -9.176   4.843  71.512  1.00  0.00    -0.185 A  
HETATM   11  C   UNL     1      -9.904   6.032  71.696  1.00  0.00    -0.196 A  
HETATM   12  C   UNL     1     -11.005   6.051  72.555  1.00  0.00    -0.260 A  
HETATM   13  C   UNL     1     -11.412   4.909  73.232  1.00  0.00    -0.359 A  
HETATM   14  O   UNL     1     -11.723   7.193  72.766  1.00  0.00    -0.507 OA 
HETATM   15  H   UNL     1     -12.472   7.206  73.350  1.00  0.00     0.000 HD 
HETATM   16  C   UNL     1     -10.711   3.729  73.034  1.00  0.00    -0.145 A  
HETATM   17  O   UNL     1     -11.058   2.574  73.668  1.00  0.00    -0.193 OA 
HETATM   18  C   UNL     1      -9.615   3.685  72.177  1.00  0.00    -0.211 A  
HETATM   19  H   UNL     1     -10.579   1.765  73.531  1.00  0.00     0.000 HD 
ENDBRANCH   7  10
ENDBRANCH   6   7
ENDBRANCH   4   6
ENDBRANCH   2   4
TORSDOF 4
ENDMDL
MODEL      307
REMARK 921   NORMALIZED FREE ENERGY PREDICTED BY IDOCK:   -2.04 KCAL/MOL
REMARK 922        TOTAL FREE ENERGY PREDICTED BY IDOCK:   -2.80 KCAL/MOL
REMARK 923 INTER-LIGAND FREE ENERGY PREDICTED BY IDOCK:   -2.61 KCAL/MOL
REMARK 924 INTRA-LIGAND FREE ENERGY PREDICTED BY IDOCK:   -0.19 KCAL/MOL
REMARK 927      BINDING AFFINITY PREDICTED BY RF-SCORE:    0.00 PKD
ROOT
HETATM    1  C   UNL     1     -10.826  11.729  67.150  1.00  0.00    -0.303 C  
HETATM    2  C   UNL     1     -10.633  12.629  65.929  1.00  0.00    -0.273 C  
HETATM    3  C   UNL     1     -10.832  11.808  64.650  1.00  0.00    -0.363 C  
ENDROOT
BRANCH   2   4
HETATM    4  N   UNL     1     -11.576  13.753  66.010  1.00  0.00    -0.334 NA 
HETATM    5  H   UNL     1     -12.369  13.528  66.610  1.00  0.00     0.000 HD 
BRANCH   4   6
HETATM    6  C   UNL     1     -10.918  14.999  66.441  1.00  0.00    -0.336 C  
BRANCH   6   7
HETATM    7  C   UNL     1      -9.464  15.130  65.927  1.00  0.00    -0.299 C  
HETATM    8  H   UNL     1      -8.582  15.343  64.184  1.00  0.00     0.000 HD 
HETATM    9  O   UNL     1      -9.474  15.263  64.501  1.00  0.00     0.695 OA 
BRANCH   7  10
HETATM   10  C   UNL     1      -8.717  16.308  66.535  1.00  0.00    -0.327 A  
HETATM   11  C   UNL     1      -8.430  17.435  65.743  1.00  0.00     0.219 A  
HETATM   12  C   UNL     1      -7.722  18.509  66.287  1.00  0.00    -0.254 A  
HETATM   13  C   UNL     1      -7.296  18.497  67.609  1.00  0.00    -0.223 A  
HETATM   14  O   UNL     1      -7.416  19.610  65.541  1.00  0.00    -0.390 OA 
HETATM   15  H   UNL     1      -6.934  20.340  65.911  1.00  0.00     0.000 HD 
HETATM   16  C   UNL     1      -7.598  17.397  68.399  1.00  0.00    -0.255 A  
HETATM   17  O   UNL     1      -7.210  17.324  69.703  1.00  0.00    -0.000 OA 
HETATM   18  C   UNL     1      -8.309  16.319  67.880  1.00  0.00    -0.170 A  
HETATM   19  H   UNL     1      -7.417  16.571  70.245  1.00  0.00     0.000 HD 
ENDBRANCH   7  10
ENDBRANCH   6   7
ENDBRANCH   4   6
ENDBRANCH   2   4
TORSDOF 4
ENDMDL
MODEL      308
REMARK 921   NORMALIZED FREE ENERGY PREDICTED BY IDOCK:   -2.02 KCAL/MOL
REMARK 922        TOTAL FREE ENERGY PREDICTED BY IDOCK:   -2.78 KCAL/MOL
REMARK 923 INTER-LIGAND FREE ENERGY PREDICTED BY IDOCK:   -2.55 KCAL/MOL
REMARK 924 INTRA-LIGAND FREE ENERGY PREDICTED BY IDOCK:   -0.23 KCAL/MOL
REMARK 927      BINDING AFFINITY PREDICTED BY RF-SCORE:    0.00 PKD
ROOT
HETATM    1  C   UNL     1      -6.582   9.974  66.676  1.00  0.00    -0.073 C  
HETATM    2  C   UNL     1      -6.811   9.729  68.168  1.00  0.00    -0.069 C  
HETATM    3  C   UNL     1      -7.749  10.805  68.725  1.00  0.00    -0.121 C  
ENDROOT
BRANCH   2   4
HETATM    4  N   UNL     1      -7.358   8.377  68.352  1.00  0.00    -0.092 NA 
HETATM    5  H   UNL     1      -6.624   7.671  68.297  1.00  0.00     0.000 HD 
BRANCH   4   6
HETATM    6  C   UNL     1      -8.123   8.254  69.606  1.00  0.00    -0.116 C  
BRANCH   6   7
HETATM    7  C   UNL     1      -7.842   6.935  70.363  1.00  0.00    -0.109 C  
HETATM    8  H   UNL     1      -6.420   6.229  71.521  1.00  0.00     0.000 HD 
HETATM    9  O   UNL     1      -6.593   7.040  71.056  1.00  0.00    -0.047 OA 
BRANCH   7  10
HETATM   10  C   UNL     1      -8.937   6.570  71.357  1.00  0.00    -0.140 A  
HETATM   11  C   UNL     1      -9.940   7.507  71.662  1.00  0.00    -0.200 A  
HETATM   12  C   UNL     1     -10.932   7.189  72.593  1.00  0.00    -0.288 A  
HETATM   13  C   UNL     1     -10.959   5.953  73.225  1.00  0.00    -0.267 A  
HETATM   14  O   UNL     1     -11.911   8.081  72.922  1.00  0.00    -0.611 OA 
HETATM   15  H   UNL     1     -12.585   7.865  73.554  1.00  0.00     0.000 HD 
HETATM   16  C   UNL     1      -9.985   5.018  72.907  1.00  0.00    -0.160 A  
HETATM   17  O   UNL     1      -9.955   3.787  73.491  1.00  0.00    -0.113 OA 
HETATM   18  C   UNL     1      -8.991   5.310  71.978  1.00  0.00    -0.144 A  
HETATM   19  H   UNL     1      -9.288   3.146  73.273  1.00  0.00     0.000 HD 
ENDBRANCH   7  10
ENDBRANCH   6   7
ENDBRANCH   4   6
ENDBRANCH   2   4
TORSDOF 4
ENDMDL
MODEL      309
REMARK 921   NORMALIZED FREE ENERGY PREDICTED BY IDOCK:   -1.81 KCAL/MOL
REMARK 922        TOTAL FREE ENERGY PREDICTED BY IDOCK:   -2.52 KCAL/MOL
REMARK 923 INTER-LIGAND FREE ENERGY PREDICTED BY IDOCK:   -2.11 KCAL/MOL
REMARK 924 INTRA-LIGAND FREE ENERGY PREDICTED BY IDOCK:   -0.41 KCAL/MOL
REMARK 927      BINDING AFFINITY PREDICTED BY RF-SCORE:    0.00 PKD
ROOT
HETATM    1  C   UNL     1      -8.918   9.703  65.323  1.00  0.00    -0.246 C  
HETATM    2  C   UNL     1      -8.315   9.425  66.700  1.00  0.00    -0.119 C  
HETATM    3  C   UNL     1      -7.822  10.738  67.318  1.00  0.00    -0.113 C  
ENDROOT
BRANCH   2   4
HETATM    4  N   UNL     1      -9.328   8.772  67.541  1.00  0.00    -0.135 NA 
HETATM    5  H   UNL     1     -10.209   8.660  67.040  1.00  0.00     0.000 HD 
BRANCH   4   6
HETATM    6  C   UNL     1      -8.854   7.484  68.081  1.00  0.00    -0.127 C  
BRANCH   6   7
HETATM    7  C   UNL     1      -7.758   6.826  67.209  1.00  0.00    -0.109 C  
HETATM    8  H   UNL     1      -6.138   5.758  67.520  1.00  0.00     0.000 HD 
HETATM    9  O   UNL     1      -6.812   6.162  68.055  1.00  0.00    -0.062 OA 
BRANCH   7  10
HETATM   10  C   UNL     1      -8.312   5.831  66.200  1.00  0.00    -0.122 A  
HETATM   11  C   UNL     1      -8.724   4.557  66.632  1.00  0.00    -0.111 A  
HETATM   12  C   UNL     1      -9.210   3.629  65.708  1.00  0.00    -0.159 A  
HETATM   13  C   UNL     1      -9.306   3.938  64.357  1.00  0.00    -0.153 A  
HETATM   14  O   UNL     1      -9.603   2.380  66.093  1.00  0.00    -0.370 OA 
HETATM   15  H   UNL     1      -9.933   1.749  65.465  1.00  0.00     0.000 HD 
HETATM   16  C   UNL     1      -8.923   5.202  63.932  1.00  0.00     0.096 A  
HETATM   17  O   UNL     1      -8.993   5.568  62.621  1.00  0.00    -0.337 OA 
HETATM   18  C   UNL     1      -8.443   6.145  64.836  1.00  0.00    -0.038 A  
HETATM   19  H   UNL     1      -8.731   6.434  62.329  1.00  0.00     0.000 HD 
ENDBRANCH   7  10
ENDBRANCH   6   7
ENDBRANCH   4   6
ENDBRANCH   2   4
TORSDOF 4
ENDMDL
MODEL      310
REMARK 921   NORMALIZED FREE ENERGY PREDICTED BY IDOCK:   -1.75 KCAL/MOL
REMARK 922        TOTAL FREE ENERGY PREDICTED BY IDOCK:   -2.44 KCAL/MOL
REMARK 923 INTER-LIGAND FREE ENERGY PREDICTED BY IDOCK:   -2.04 KCAL/MOL
REMARK 924 INTRA-LIGAND FREE ENERGY PREDICTED BY IDOCK:   -0.40 KCAL/MOL
REMARK 927      BINDING AFFINITY PREDICTED BY RF-SCORE:    0.00 PKD
ROOT
HETATM    1  C   UNL     1      -9.886   4.206  68.405  1.00  0.00    -0.082 C  
HETATM    2  C   UNL     1     -10.786   5.309  67.846  1.00  0.00     0.071 C  
HETATM    3  C   UNL     1     -11.173   6.274  68.971  1.00  0.00    -0.415 C  
ENDROOT
BRANCH   2   4
HETATM    4  N   UNL     1     -10.079   5.995  66.755  1.00  0.00    -0.173 NA 
HETATM    5  H   UNL     1     -10.535   5.831  65.858  1.00  0.00     0.000 HD 
BRANCH   4   6
HETATM    6  C   UNL     1      -9.920   7.436  67.018  1.00  0.00    -0.231 C  
BRANCH   6   7
HETATM    7  C   UNL     1      -8.457   7.845  67.309  1.00  0.00    -0.121 C  
HETATM    8  H   UNL     1      -7.390   9.492  67.219  1.00  0.00     0.000 HD 
HETATM    9  O   UNL     1      -8.289   9.242  67.041  1.00  0.00    -0.118 OA 
BRANCH   7  10
HETATM   10  C   UNL     1      -8.028   7.555  68.741  1.00  0.00    -0.126 A  
HETATM   11  C   UNL     1      -8.534   8.341  69.792  1.00  0.00    -0.128 A  
HETATM   12  C   UNL     1      -8.126   8.099  71.105  1.00  0.00    -0.103 A  
HETATM   13  C   UNL     1      -7.228   7.082  71.405  1.00  0.00    -0.078 A  
HETATM   14  O   UNL     1      -8.587   8.853  72.145  1.00  0.00    -0.381 OA 
HETATM   15  H   UNL     1      -8.309   8.688  73.038  1.00  0.00     0.000 HD 
HETATM   16  C   UNL     1      -6.746   6.290  70.374  1.00  0.00    -0.053 A  
HETATM   17  O   UNL     1      -5.864   5.276  70.601  1.00  0.00    -0.019 OA 
HETATM   18  C   UNL     1      -7.145   6.509  69.059  1.00  0.00    -0.085 A  
HETATM   19  H   UNL     1      -5.534   4.732  69.895  1.00  0.00     0.000 HD 
ENDBRANCH   7  10
ENDBRANCH   6   7
ENDBRANCH   4   6
ENDBRANCH   2   4
TORSDOF 4
ENDMDL
MODEL      311
REMARK 921   NORMALIZED FREE ENERGY PREDICTED BY IDOCK:   -1.74 KCAL/MOL
REMARK 922        TOTAL FREE ENERGY PREDICTED BY IDOCK:   -2.42 KCAL/MOL
REMARK 923 INTER-LIGAND FREE ENERGY PREDICTED BY IDOCK:   -2.30 KCAL/MOL
REMARK 924 INTRA-LIGAND FREE ENERGY PREDICTED BY IDOCK:   -0.12 KCAL/MOL
REMARK 927      BINDING AFFINITY PREDICTED BY RF-SCORE:    0.00 PKD
ROOT
HETATM    1  C   UNL     1      -8.869   5.204  68.155  1.00  0.00    -0.107 C  
HETATM    2  C   UNL     1      -9.810   6.379  68.423  1.00  0.00    -0.137 C  
HETATM    3  C   UNL     1     -10.771   6.547  67.242  1.00  0.00    -0.427 C  
ENDROOT
BRANCH   2   4
HETATM    4  N   UNL     1     -10.528   6.138  69.683  1.00  0.00    -0.225 NA 
HETATM    5  H   UNL     1      -9.896   5.802  70.410  1.00  0.00     0.000 HD 
BRANCH   4   6
HETATM    6  C   UNL     1     -11.274   7.327  70.132  1.00  0.00    -0.239 C  
BRANCH   6   7
HETATM    7  C   UNL     1     -10.479   8.203  71.130  1.00  0.00    -0.199 C  
HETATM    8  H   UNL     1      -9.924   8.078  73.010  1.00  0.00     0.000 HD 
HETATM    9  O   UNL     1     -10.412   7.540  72.397  1.00  0.00    -0.214 OA 
BRANCH   7  10
HETATM   10  C   UNL     1      -9.068   8.521  70.655  1.00  0.00    -0.184 A  
HETATM   11  C   UNL     1      -8.868   9.527  69.693  1.00  0.00    -0.196 A  
HETATM   12  C   UNL     1      -7.579   9.807  69.233  1.00  0.00    -0.097 A  
HETATM   13  C   UNL     1      -6.475   9.115  69.715  1.00  0.00    -0.039 A  
HETATM   14  O   UNL     1      -7.352  10.766  68.289  1.00  0.00    -0.081 OA 
HETATM   15  H   UNL     1      -6.476  10.956  67.976  1.00  0.00     0.000 HD 
HETATM   16  C   UNL     1      -6.667   8.140  70.682  1.00  0.00    -0.037 A  
HETATM   17  O   UNL     1      -5.626   7.425  71.196  1.00  0.00    -0.031 OA 
HETATM   18  C   UNL     1      -7.942   7.849  71.160  1.00  0.00    -0.091 A  
HETATM   19  H   UNL     1      -5.758   6.757  71.859  1.00  0.00     0.000 HD 
ENDBRANCH   7  10
ENDBRANCH   6   7
ENDBRANCH   4   6
ENDBRANCH   2   4
TORSDOF 4
ENDMDL
MODEL      312
REMARK 921   NORMALIZED FREE ENERGY PREDICTED BY IDOCK:   -1.72 KCAL/MOL
REMARK 922        TOTAL FREE ENERGY PREDICTED BY IDOCK:   -2.40 KCAL/MOL
REMARK 923 INTER-LIGAND FREE ENERGY PREDICTED BY IDOCK:   -2.27 KCAL/MOL
REMARK 924 INTRA-LIGAND FREE ENERGY PREDICTED BY IDOCK:   -0.13 KCAL/MOL
REMARK 927      BINDING AFFINITY PREDICTED BY RF-SCORE:    0.00 PKD
ROOT
HETATM    1  C   UNL     1      -7.185   8.213  73.771  1.00  0.00    -0.186 C  
HETATM    2  C   UNL     1      -6.366   8.411  72.495  1.00  0.00    -0.082 C  
HETATM    3  C   UNL     1      -5.152   9.296  72.797  1.00  0.00    -0.077 C  
ENDROOT
BRANCH   2   4
HETATM    4  N   UNL     1      -5.968   7.096  71.974  1.00  0.00    -0.037 NA 
HETATM    5  H   UNL     1      -6.607   6.365  72.287  1.00  0.00     0.000 HD 
BRANCH   4   6
HETATM    6  C   UNL     1      -5.838   7.097  70.506  1.00  0.00    -0.027 C  
BRANCH   6   7
HETATM    7  C   UNL     1      -6.795   6.099  69.810  1.00  0.00    -0.068 C  
HETATM    8  H   UNL     1      -7.079   4.155  69.813  1.00  0.00     0.000 HD 
HETATM    9  O   UNL     1      -6.491   4.768  70.241  1.00  0.00    -0.032 OA 
BRANCH   7  10
HETATM   10  C   UNL     1      -8.265   6.391  70.081  1.00  0.00    -0.129 A  
HETATM   11  C   UNL     1      -8.840   5.990  71.300  1.00  0.00    -0.136 A  
HETATM   12  C   UNL     1     -10.194   6.230  71.545  1.00  0.00    -0.200 A  
HETATM   13  C   UNL     1     -10.995   6.871  70.608  1.00  0.00    -0.304 A  
HETATM   14  O   UNL     1     -10.786   5.841  72.711  1.00  0.00    -0.223 OA 
HETATM   15  H   UNL     1     -11.707   6.004  72.878  1.00  0.00     0.000 HD 
HETATM   16  C   UNL     1     -10.424   7.289  69.415  1.00  0.00    -0.216 A  
HETATM   17  O   UNL     1     -11.154   7.924  68.455  1.00  0.00    -0.418 OA 
HETATM   18  C   UNL     1      -9.075   7.067  69.152  1.00  0.00    -0.136 A  
HETATM   19  H   UNL     1     -10.763   8.211  67.637  1.00  0.00     0.000 HD 
ENDBRANCH   7  10
ENDBRANCH   6   7
ENDBRANCH   4   6
ENDBRANCH   2   4
TORSDOF 4
ENDMDL
MODEL      313
REMARK 921   NORMALIZED FREE ENERGY PREDICTED BY IDOCK:   -1.68 KCAL/MOL
REMARK 922        TOTAL FREE ENERGY PREDICTED BY IDOCK:   -2.35 KCAL/MOL
REMARK 923 INTER-LIGAND FREE ENERGY PREDICTED BY IDOCK:   -2.22 KCAL/MOL
REMARK 924 INTRA-LIGAND FREE ENERGY PREDICTED BY IDOCK:   -0.14 KCAL/MOL
REMARK 927      BINDING AFFINITY PREDICTED BY RF-SCORE:    0.00 PKD
ROOT
HETATM    1  C   UNL     1      -7.765   8.068  74.341  1.00  0.00    -0.266 C  
HETATM    2  C   UNL     1      -7.714   7.660  72.868  1.00  0.00    -0.099 C  
HETATM    3  C   UNL     1      -6.496   6.761  72.627  1.00  0.00    -0.058 C  
ENDROOT
BRANCH   2   4
HETATM    4  N   UNL     1      -8.970   6.986  72.514  1.00  0.00    -0.128 NA 
HETATM    5  H   UNL     1      -9.779   7.543  72.789  1.00  0.00     0.000 HD 
BRANCH   4   6
HETATM    6  C   UNL     1      -9.028   6.633  71.085  1.00  0.00    -0.145 C  
BRANCH   6   7
HETATM    7  C   UNL     1      -9.985   7.536  70.272  1.00  0.00    -0.192 C  
HETATM    8  H   UNL     1     -10.359   9.460  70.136  1.00  0.00     0.000 HD 
HETATM    9  O   UNL     1      -9.771   8.905  70.634  1.00  0.00    -0.182 OA 
BRANCH   7  10
HETATM   10  C   UNL     1      -9.819   7.384  68.766  1.00  0.00    -0.164 A  
HETATM   11  C   UNL     1      -9.422   8.491  67.995  1.00  0.00    -0.154 A  
HETATM   12  C   UNL     1      -9.293   8.366  66.610  1.00  0.00    -0.191 A  
HETATM   13  C   UNL     1      -9.541   7.160  65.968  1.00  0.00     0.092 A  
HETATM   14  O   UNL     1      -8.923   9.424  65.831  1.00  0.00    -0.156 OA 
HETATM   15  H   UNL     1      -8.836   9.339  64.889  1.00  0.00     0.000 HD 
HETATM   16  C   UNL     1      -9.910   6.061  66.729  1.00  0.00    -0.163 A  
HETATM   17  O   UNL     1     -10.167   4.849  66.161  1.00  0.00    -0.230 OA 
HETATM   18  C   UNL     1     -10.038   6.160  68.111  1.00  0.00    -0.181 A  
HETATM   19  H   UNL     1     -10.420   4.095  66.682  1.00  0.00     0.000 HD 
ENDBRANCH   7  10
ENDBRANCH   6   7
ENDBRANCH   4   6
ENDBRANCH   2   4
TORSDOF 4
ENDMDL
MODEL      314
REMARK 921   NORMALIZED FREE ENERGY PREDICTED BY IDOCK:   -1.60 KCAL/MOL
REMARK 922        TOTAL FREE ENERGY PREDICTED BY IDOCK:   -2.25 KCAL/MOL
REMARK 923 INTER-LIGAND FREE ENERGY PREDICTED BY IDOCK:   -1.98 KCAL/MOL
REMARK 924 INTRA-LIGAND FREE ENERGY PREDICTED BY IDOCK:   -0.27 KCAL/MOL
REMARK 927      BINDING AFFINITY PREDICTED BY RF-SCORE:    0.00 PKD
ROOT
HETATM    1  C   UNL     1      -6.850   7.719  73.877  1.00  0.00    -0.112 C  
HETATM    2  C   UNL     1      -7.206   7.702  72.390  1.00  0.00    -0.077 C  
HETATM    3  C   UNL     1      -6.073   8.348  71.584  1.00  0.00    -0.046 C  
ENDROOT
BRANCH   2   4
HETATM    4  N   UNL     1      -7.451   6.314  71.973  1.00  0.00    -0.093 NA 
HETATM    5  H   UNL     1      -8.451   6.121  71.902  1.00  0.00     0.000 HD 
BRANCH   4   6
HETATM    6  C   UNL     1      -6.753   5.979  70.720  1.00  0.00    -0.057 C  
BRANCH   6   7
HETATM    7  C   UNL     1      -7.439   4.842  69.926  1.00  0.00    -0.056 C  
HETATM    8  H   UNL     1      -8.537   3.269  70.348  1.00  0.00     0.000 HD 
HETATM    9  O   UNL     1      -8.116   3.967  70.835  1.00  0.00    -0.065 OA 
BRANCH   7  10
HETATM   10  C   UNL     1      -8.430   5.350  68.888  1.00  0.00    -0.099 A  
HETATM   11  C   UNL     1      -9.753   5.637  69.270  1.00  0.00    -0.205 A  
HETATM   12  C   UNL     1     -10.675   6.078  68.318  1.00  0.00    -0.279 A  
HETATM   13  C   UNL     1     -10.312   6.252  66.989  1.00  0.00    -0.300 A  
HETATM   14  O   UNL     1     -11.969   6.350  68.654  1.00  0.00    -0.150 OA 
HETATM   15  H   UNL     1     -12.596   6.650  68.007  1.00  0.00     0.000 HD 
HETATM   16  C   UNL     1      -9.002   5.993  66.614  1.00  0.00    -0.128 A  
HETATM   17  O   UNL     1      -8.582   6.145  65.326  1.00  0.00    -0.214 OA 
HETATM   18  C   UNL     1      -8.065   5.560  67.547  1.00  0.00    -0.101 A  
HETATM   19  H   UNL     1      -7.685   5.969  65.069  1.00  0.00     0.000 HD 
ENDBRANCH   7  10
ENDBRANCH   6   7
ENDBRANCH   4   6
ENDBRANCH   2   4
TORSDOF 4
ENDMDL
MODEL      315
REMARK 921   NORMALIZED FREE ENERGY PREDICTED BY IDOCK:   -1.58 KCAL/MOL
REMARK 922        TOTAL FREE ENERGY PREDICTED BY IDOCK:   -2.23 KCAL/MOL
REMARK 923 INTER-LIGAND FREE ENERGY PREDICTED BY IDOCK:   -1.98 KCAL/MOL
REMARK 924 INTRA-LIGAND FREE ENERGY PREDICTED BY IDOCK:   -0.25 KCAL/MOL
REMARK 927      BINDING AFFINITY PREDICTED BY RF-SCORE:    0.00 PKD
ROOT
HETATM    1  C   UNL     1      -5.754  12.768  71.648  1.00  0.00     0.446 C  
HETATM    2  C   UNL     1      -6.141  14.204  71.294  1.00  0.00    -0.048 C  
HETATM    3  C   UNL     1      -5.133  15.175  71.918  1.00  0.00    -0.110 C  
ENDROOT
BRANCH   2   4
HETATM    4  N   UNL     1      -6.196  14.337  69.831  1.00  0.00    -0.138 NA 
HETATM    5  H   UNL     1      -5.267  14.499  69.440  1.00  0.00     0.000 HD 
BRANCH   4   6
HETATM    6  C   UNL     1      -6.850  13.181  69.193  1.00  0.00    -0.062 C  
BRANCH   6   7
HETATM    7  C   UNL     1      -8.329  13.446  68.824  1.00  0.00     0.086 C  
HETATM    8  H   UNL     1      -9.302  14.607  67.573  1.00  0.00     0.000 HD 
HETATM    9  O   UNL     1      -8.393  14.444  67.799  1.00  0.00    -0.147 OA 
BRANCH   7  10
HETATM   10  C   UNL     1      -9.062  12.198  68.355  1.00  0.00    -0.151 A  
HETATM   11  C   UNL     1     -10.446  12.079  68.575  1.00  0.00    -0.244 A  
HETATM   12  C   UNL     1     -11.122  10.925  68.171  1.00  0.00    -0.280 A  
HETATM   13  C   UNL     1     -10.455   9.882  67.541  1.00  0.00    -0.310 A  
HETATM   14  O   UNL     1     -12.461  10.773  68.383  1.00  0.00    -0.647 OA 
HETATM   15  H   UNL     1     -12.920   9.988  68.108  1.00  0.00     0.000 HD 
HETATM   16  C   UNL     1      -9.094  10.007  67.300  1.00  0.00    -0.138 A  
HETATM   17  O   UNL     1      -8.382   9.021  66.686  1.00  0.00    -0.116 OA 
HETATM   18  C   UNL     1      -8.403  11.151  67.688  1.00  0.00    -0.122 A  
HETATM   19  H   UNL     1      -7.450   9.106  66.520  1.00  0.00     0.000 HD 
ENDBRANCH   7  10
ENDBRANCH   6   7
ENDBRANCH   4   6
ENDBRANCH   2   4
TORSDOF 4
ENDMDL
MODEL      316
REMARK 921   NORMALIZED FREE ENERGY PREDICTED BY IDOCK:   -1.47 KCAL/MOL
REMARK 922        TOTAL FREE ENERGY PREDICTED BY IDOCK:   -2.10 KCAL/MOL
REMARK 923 INTER-LIGAND FREE ENERGY PREDICTED BY IDOCK:   -2.10 KCAL/MOL
REMARK 924 INTRA-LIGAND FREE ENERGY PREDICTED BY IDOCK:   -0.00 KCAL/MOL
REMARK 927      BINDING AFFINITY PREDICTED BY RF-SCORE:    0.00 PKD
ROOT
HETATM    1  C   UNL     1      -5.431  13.134  71.544  1.00  0.00    -0.096 C  
HETATM    2  C   UNL     1      -6.118  14.491  71.698  1.00  0.00     0.220 C  
HETATM    3  C   UNL     1      -5.207  15.440  72.486  1.00  0.00     0.254 C  
ENDROOT
BRANCH   2   4
HETATM    4  N   UNL     1      -6.437  15.020  70.365  1.00  0.00    -0.096 NA 
HETATM    5  H   UNL     1      -5.945  15.897  70.188  1.00  0.00     0.000 HD 
BRANCH   4   6
HETATM    6  C   UNL     1      -6.173  14.036  69.300  1.00  0.00    -0.105 C  
BRANCH   6   7
HETATM    7  C   UNL     1      -6.984  14.304  68.010  1.00  0.00    -0.144 C  
HETATM    8  H   UNL     1      -7.429  13.313  66.373  1.00  0.00     0.000 HD 
HETATM    9  O   UNL     1      -6.931  13.149  67.165  1.00  0.00    -0.079 OA 
BRANCH   7  10
HETATM   10  C   UNL     1      -8.440  14.660  68.280  1.00  0.00    -0.158 A  
HETATM   11  C   UNL     1      -8.787  15.990  68.577  1.00  0.00    -0.199 A  
HETATM   12  C   UNL     1     -10.116  16.320  68.852  1.00  0.00    -0.251 A  
HETATM   13  C   UNL     1     -11.118  15.358  68.831  1.00  0.00    -0.275 A  
HETATM   14  O   UNL     1     -10.484  17.598  69.157  1.00  0.00    -0.396 OA 
HETATM   15  H   UNL     1     -11.388  17.822  69.344  1.00  0.00     0.000 HD 
HETATM   16  C   UNL     1     -10.781  14.050  68.516  1.00  0.00    -0.256 A  
HETATM   17  O   UNL     1     -11.716  13.058  68.478  1.00  0.00    -0.302 OA 
HETATM   18  C   UNL     1      -9.465  13.699  68.231  1.00  0.00    -0.213 A  
HETATM   19  H   UNL     1     -11.486  12.162  68.262  1.00  0.00     0.000 HD 
ENDBRANCH   7  10
ENDBRANCH   6   7
ENDBRANCH   4   6
ENDBRANCH   2   4
TORSDOF 4
ENDMDL
MODEL      317
REMARK 921   NORMALIZED FREE ENERGY PREDICTED BY IDOCK:   -1.31 KCAL/MOL
REMARK 922        TOTAL FREE ENERGY PREDICTED BY IDOCK:   -1.89 KCAL/MOL
REMARK 923 INTER-LIGAND FREE ENERGY PREDICTED BY IDOCK:   -1.71 KCAL/MOL
REMARK 924 INTRA-LIGAND FREE ENERGY PREDICTED BY IDOCK:   -0.18 KCAL/MOL
REMARK 927      BINDING AFFINITY PREDICTED BY RF-SCORE:    0.00 PKD
ROOT
HETATM    1  C   UNL     1      -5.835  12.768  71.686  1.00  0.00     0.721 C  
HETATM    2  C   UNL     1      -6.103  14.241  71.375  1.00  0.00     0.016 C  
HETATM    3  C   UNL     1      -5.127  15.117  72.167  1.00  0.00    -0.093 C  
ENDROOT
BRANCH   2   4
HETATM    4  N   UNL     1      -5.978  14.454  69.926  1.00  0.00    -0.121 NA 
HETATM    5  H   UNL     1      -5.000  14.479  69.639  1.00  0.00     0.000 HD 
BRANCH   4   6
HETATM    6  C   UNL     1      -6.735  13.455  69.151  1.00  0.00    -0.099 C  
BRANCH   6   7
HETATM    7  C   UNL     1      -6.937  13.858  67.671  1.00  0.00    -0.175 C  
HETATM    8  H   UNL     1      -6.049  13.487  65.958  1.00  0.00     0.000 HD 
HETATM    9  O   UNL     1      -5.926  13.239  66.867  1.00  0.00    -0.023 OA 
BRANCH   7  10
HETATM   10  C   UNL     1      -8.309  13.481  67.129  1.00  0.00    -0.151 A  
HETATM   11  C   UNL     1      -9.229  14.492  66.801  1.00  0.00    -0.286 A  
HETATM   12  C   UNL     1     -10.499  14.154  66.328  1.00  0.00    -0.286 A  
HETATM   13  C   UNL     1     -10.878  12.828  66.162  1.00  0.00    -0.303 A  
HETATM   14  O   UNL     1     -11.420  15.111  66.014  1.00  0.00    -0.285 OA 
HETATM   15  H   UNL     1     -12.284  14.881  65.693  1.00  0.00     0.000 HD 
HETATM   16  C   UNL     1      -9.964  11.829  66.463  1.00  0.00    -0.204 A  
HETATM   17  O   UNL     1     -10.272  10.509  66.322  1.00  0.00    -0.229 OA 
HETATM   18  C   UNL     1      -8.690  12.143  66.928  1.00  0.00    -0.194 A  
HETATM   19  H   UNL     1      -9.646   9.824  66.527  1.00  0.00     0.000 HD 
ENDBRANCH   7  10
ENDBRANCH   6   7
ENDBRANCH   4   6
ENDBRANCH   2   4
TORSDOF 4
ENDMDL
MODEL      318
REMARK 921   NORMALIZED FREE ENERGY PREDICTED BY IDOCK:   -1.23 KCAL/MOL
REMARK 922        TOTAL FREE ENERGY PREDICTED BY IDOCK:   -1.80 KCAL/MOL
REMARK 923 INTER-LIGAND FREE ENERGY PREDICTED BY IDOCK:   -1.53 KCAL/MOL
REMARK 924 INTRA-LIGAND FREE ENERGY PREDICTED BY IDOCK:   -0.28 KCAL/MOL
REMARK 927      BINDING AFFINITY PREDICTED BY RF-SCORE:    0.00 PKD
ROOT
HETATM    1  C   UNL     1      -5.579  13.511  70.916  1.00  0.00    -0.197 C  
HETATM    2  C   UNL     1      -6.247  14.775  71.459  1.00  0.00     0.435 C  
HETATM    3  C   UNL     1      -5.180  15.713  72.032  1.00  0.00     0.143 C  
ENDROOT
BRANCH   2   4
HETATM    4  N   UNL     1      -7.013  15.412  70.378  1.00  0.00     0.195 NA 
HETATM    5  H   UNL     1      -6.627  16.326  70.141  1.00  0.00     0.000 HD 
BRANCH   4   6
HETATM    6  C   UNL     1      -7.115  14.550  69.187  1.00  0.00    -0.130 C  
BRANCH   6   7
HETATM    7  C   UNL     1      -8.494  14.635  68.491  1.00  0.00    -0.161 C  
HETATM    8  H   UNL     1      -9.394  15.867  67.253  1.00  0.00     0.000 HD 
HETATM    9  O   UNL     1      -8.547  15.815  67.680  1.00  0.00    -0.159 OA 
BRANCH   7  10
HETATM   10  C   UNL     1      -8.805  13.420  67.627  1.00  0.00    -0.200 A  
HETATM   11  C   UNL     1      -7.788  12.491  67.342  1.00  0.00    -0.175 A  
HETATM   12  C   UNL     1      -8.059  11.388  66.529  1.00  0.00    -0.141 A  
HETATM   13  C   UNL     1      -9.324  11.177  65.996  1.00  0.00    -0.228 A  
HETATM   14  O   UNL     1      -7.091  10.476  66.221  1.00  0.00    -0.118 OA 
HETATM   15  H   UNL     1      -7.275   9.726  65.668  1.00  0.00     0.000 HD 
HETATM   16  C   UNL     1     -10.334  12.079  66.296  1.00  0.00    -0.221 A  
HETATM   17  O   UNL     1     -11.597  11.930  65.806  1.00  0.00    -0.327 OA 
HETATM   18  C   UNL     1     -10.089  13.181  67.109  1.00  0.00    -0.242 A  
HETATM   19  H   UNL     1     -12.290  12.547  66.011  1.00  0.00     0.000 HD 
ENDBRANCH   7  10
ENDBRANCH   6   7
ENDBRANCH   4   6
ENDBRANCH   2   4
TORSDOF 4
ENDMDL
MODEL      319
REMARK 921   NORMALIZED FREE ENERGY PREDICTED BY IDOCK:   -1.19 KCAL/MOL
REMARK 922        TOTAL FREE ENERGY PREDICTED BY IDOCK:   -1.75 KCAL/MOL
REMARK 923 INTER-LIGAND FREE ENERGY PREDICTED BY IDOCK:   -1.45 KCAL/MOL
REMARK 924 INTRA-LIGAND FREE ENERGY PREDICTED BY IDOCK:   -0.30 KCAL/MOL
REMARK 927      BINDING AFFINITY PREDICTED BY RF-SCORE:    0.00 PKD
ROOT
HETATM    1  C   UNL     1      -7.500   8.214  73.602  1.00  0.00    -0.202 C  
HETATM    2  C   UNL     1      -7.419   8.497  72.102  1.00  0.00    -0.071 C  
HETATM    3  C   UNL     1      -6.153   9.305  71.801  1.00  0.00    -0.021 C  
ENDROOT
BRANCH   2   4
HETATM    4  N   UNL     1      -7.440   7.221  71.373  1.00  0.00    -0.081 NA 
HETATM    5  H   UNL     1      -8.361   7.037  70.975  1.00  0.00     0.000 HD 
BRANCH   4   6
HETATM    6  C   UNL     1      -6.390   7.154  70.341  1.00  0.00    -0.035 C  
BRANCH   6   7
HETATM    7  C   UNL     1      -6.879   6.524  69.015  1.00  0.00    -0.066 C  
HETATM    8  H   UNL     1      -8.202   5.173  68.480  1.00  0.00     0.000 HD 
HETATM    9  O   UNL     1      -7.902   5.561  69.294  1.00  0.00    -0.088 OA 
BRANCH   7  10
HETATM   10  C   UNL     1      -7.414   7.550  68.025  1.00  0.00    -0.105 A  
HETATM   11  C   UNL     1      -8.590   8.261  68.327  1.00  0.00    -0.133 A  
HETATM   12  C   UNL     1      -9.101   9.185  67.413  1.00  0.00    -0.127 A  
HETATM   13  C   UNL     1      -8.466   9.429  66.202  1.00  0.00    -0.127 A  
HETATM   14  O   UNL     1     -10.247   9.880  67.669  1.00  0.00    -0.182 OA 
HETATM   15  H   UNL     1     -10.595  10.507  67.047  1.00  0.00     0.000 HD 
HETATM   16  C   UNL     1      -7.293   8.747  65.913  1.00  0.00    -0.085 A  
HETATM   17  O   UNL     1      -6.621   8.942  64.743  1.00  0.00    -0.066 OA 
HETATM   18  C   UNL     1      -6.761   7.828  66.812  1.00  0.00    -0.067 A  
HETATM   19  H   UNL     1      -5.817   8.475  64.545  1.00  0.00     0.000 HD 
ENDBRANCH   7  10
ENDBRANCH   6   7
ENDBRANCH   4   6
ENDBRANCH   2   4
TORSDOF 4
ENDMDL
MODEL      320
REMARK 921   NORMALIZED FREE ENERGY PREDICTED BY IDOCK:   -1.08 KCAL/MOL
REMARK 922        TOTAL FREE ENERGY PREDICTED BY IDOCK:   -1.62 KCAL/MOL
REMARK 923 INTER-LIGAND FREE ENERGY PREDICTED BY IDOCK:   -1.57 KCAL/MOL
REMARK 924 INTRA-LIGAND FREE ENERGY PREDICTED BY IDOCK:   -0.04 KCAL/MOL
REMARK 927      BINDING AFFINITY PREDICTED BY RF-SCORE:    0.00 PKD
ROOT
HETATM    1  C   UNL     1      -5.838  12.769  71.685  1.00  0.00     0.721 C  
HETATM    2  C   UNL     1      -6.104  14.244  71.383  1.00  0.00     0.016 C  
HETATM    3  C   UNL     1      -5.133  15.115  72.188  1.00  0.00    -0.093 C  
ENDROOT
BRANCH   2   4
HETATM    4  N   UNL     1      -5.969  14.468  69.937  1.00  0.00    -0.121 NA 
HETATM    5  H   UNL     1      -4.993  14.602  69.673  1.00  0.00     0.000 HD 
BRANCH   4   6
HETATM    6  C   UNL     1      -6.592  13.390  69.149  1.00  0.00    -0.106 C  
BRANCH   6   7
HETATM    7  C   UNL     1      -6.802  13.766  67.663  1.00  0.00    -0.175 C  
HETATM    8  H   UNL     1      -7.870  13.093  66.158  1.00  0.00     0.000 HD 
HETATM    9  O   UNL     1      -7.742  12.862  67.070  1.00  0.00    -0.097 OA 
BRANCH   7  10
HETATM   10  C   UNL     1      -7.292  15.195  67.470  1.00  0.00    -0.222 A  
HETATM   11  C   UNL     1      -6.359  16.237  67.329  1.00  0.00    -0.214 A  
HETATM   12  C   UNL     1      -6.800  17.554  67.178  1.00  0.00    -0.168 A  
HETATM   13  C   UNL     1      -8.154  17.863  67.155  1.00  0.00    -0.225 A  
HETATM   14  O   UNL     1      -5.920  18.590  67.054  1.00  0.00    -0.156 OA 
HETATM   15  H   UNL     1      -6.220  19.485  66.951  1.00  0.00     0.000 HD 
HETATM   16  C   UNL     1      -9.077  16.834  67.270  1.00  0.00    -0.220 A  
HETATM   17  O   UNL     1     -10.419  17.069  67.254  1.00  0.00    -0.315 OA 
HETATM   18  C   UNL     1      -8.660  15.513  67.414  1.00  0.00    -0.196 A  
HETATM   19  H   UNL     1     -11.052  16.364  67.332  1.00  0.00     0.000 HD 
ENDBRANCH   7  10
ENDBRANCH   6   7
ENDBRANCH   4   6
ENDBRANCH   2   4
TORSDOF 4
ENDMDL
MODEL      321
REMARK 921   NORMALIZED FREE ENERGY PREDICTED BY IDOCK:    8.64 KCAL/MOL
REMARK 922        TOTAL FREE ENERGY PREDICTED BY IDOCK:   10.38 KCAL/MOL
REMARK 923 INTER-LIGAND FREE ENERGY PREDICTED BY IDOCK:   -1.32 KCAL/MOL
REMARK 924 INTRA-LIGAND FREE ENERGY PREDICTED BY IDOCK:   11.70 KCAL/MOL
REMARK 927      BINDING AFFINITY PREDICTED BY RF-SCORE:    0.00 PKD
ROOT
HETATM    1  C   UNL     1      -7.110   6.763  74.200  1.00  0.00    -0.093 C  
HETATM    2  C   UNL     1      -7.338   5.277  73.920  1.00  0.00    -0.083 C  
HETATM    3  C   UNL     1      -7.962   5.107  72.532  1.00  0.00    -0.102 C  
ENDROOT
BRANCH   2   4
HETATM    4  N   UNL     1      -6.056   4.567  74.035  1.00  0.00    -0.038 NA 
HETATM    5  H   UNL     1      -5.853   4.324  75.005  1.00  0.00     0.000 HD 
BRANCH   4   6
HETATM    6  C   UNL     1      -6.000   3.379  73.164  1.00  0.00    -0.008 C  
BRANCH   6   7
HETATM    7  C   UNL     1      -7.396   2.796  72.840  1.00  0.00    -0.041 C  
HETATM    8  H   UNL     1      -9.180   2.824  73.663  1.00  0.00     0.000 HD 
HETATM    9  O   UNL     1      -8.323   3.183  73.861  1.00  0.00    -0.073 OA 
BRANCH   7  10
HETATM   10  C   UNL     1      -7.930   3.239  71.485  1.00  0.00    -0.057 A  
HETATM   11  C   UNL     1      -8.857   4.294  71.413  1.00  0.00    -0.149 A  
HETATM   12  C   UNL     1      -9.372   4.689  70.176  1.00  0.00    -0.144 A  
HETATM   13  C   UNL     1      -8.980   4.064  68.999  1.00  0.00    -0.169 A  
HETATM   14  O   UNL     1     -10.283   5.699  70.074  1.00  0.00    -0.208 OA 
HETATM   15  H   UNL     1     -10.633   5.967  69.233  1.00  0.00     0.000 HD 
HETATM   16  C   UNL     1      -8.048   3.038  69.065  1.00  0.00    -0.055 A  
HETATM   17  O   UNL     1      -7.621   2.385  67.947  1.00  0.00    -0.055 OA 
HETATM   18  C   UNL     1      -7.516   2.634  70.286  1.00  0.00    -0.043 A  
HETATM   19  H   UNL     1      -6.983   1.683  67.992  1.00  0.00     0.000 HD 
ENDBRANCH   7  10
ENDBRANCH   6   7
ENDBRANCH   4   6
ENDBRANCH   2   4
TORSDOF 4
ENDMDL
