MODEL        1
REMARK 921   NORMALIZED FREE ENERGY PREDICTED BY IDOCK:   -5.53 KCAL/MOL
REMARK 922        TOTAL FREE ENERGY PREDICTED BY IDOCK:  -16.26 KCAL/MOL
REMARK 923 INTER-LIGAND FREE ENERGY PREDICTED BY IDOCK:  -12.65 KCAL/MOL
REMARK 924 INTRA-LIGAND FREE ENERGY PREDICTED BY IDOCK:   -3.62 KCAL/MOL
REMARK 927      BINDING AFFINITY PREDICTED BY RF-SCORE:    0.00 PKD
ROOT
HETATM    1  C   UNL     1      -7.688  16.898  69.143  1.00  0.00    -0.138 C  
HETATM    2  C   UNL     1      -6.838  16.845  67.885  1.00  0.00    -0.159 C  
ENDROOT
BRANCH   2   3
HETATM    3  C   UNL     1      -6.053  18.142  67.706  1.00  0.00    -0.164 C  
BRANCH   3   4
HETATM    4  C   UNL     1      -6.715  19.069  66.691  1.00  0.00    -0.207 C  
BRANCH   4   5
HETATM    5  C   UNL     1      -7.444  20.214  67.398  1.00  0.00    -0.326 C  
BRANCH   5   6
HETATM    6  C   UNL     1      -8.869  20.344  66.876  1.00  0.00    -0.361 C  
BRANCH   6   7
HETATM    7  C   UNL     1      -9.913  20.041  67.952  1.00  0.00    -0.558 C  
BRANCH   7   8
HETATM    8  C   UNL     1     -10.783  18.885  67.472  1.00  0.00    -0.509 C  
BRANCH   8   9
HETATM    9  C   UNL     1     -10.207  18.130  66.278  1.00  0.00    -0.401 C  
BRANCH   9  10
HETATM   10  C   UNL     1     -10.303  16.629  66.568  1.00  0.00    -0.300 C  
BRANCH  10  11
HETATM   11  C   UNL     1     -11.376  16.261  67.581  1.00  0.00    -0.016 C  
BRANCH  11  12
HETATM   12  C   UNL     1     -11.185  14.927  68.325  1.00  0.00    -0.294 C  
BRANCH  12  13
HETATM   13  C   UNL     1     -11.320  15.002  69.862  1.00  0.00    -0.307 C  
BRANCH  13  14
HETATM   14  C   UNL     1     -12.717  14.658  70.392  1.00  0.00    -0.316 C  
HETATM   15  O   UNL     1     -13.452  15.836  70.831  1.00  0.00    -0.568 OA 
HETATM   16  O   UNL     1     -14.083  15.936  73.045  1.00  0.00    -0.518 OA 
HETATM   17  C   UNL     1     -12.781  14.091  71.838  1.00  0.00    -0.388 C  
HETATM   18  C   UNL     1     -13.549  15.398  72.105  1.00  0.00    -0.498 C  
BRANCH  17  19
HETATM   19  C   UNL     1     -13.593  12.833  72.132  1.00  0.00    -0.547 C  
BRANCH  19  20
HETATM   20  C   UNL     1     -12.865  11.593  71.621  1.00  0.00    -0.454 C  
BRANCH  20  21
HETATM   21  C   UNL     1     -13.487  10.310  72.179  1.00  0.00    -0.332 C  
BRANCH  21  22
HETATM   22  C   UNL     1     -12.609   9.094  71.876  1.00  0.00    -0.463 C  
BRANCH  22  23
HETATM   23  C   UNL     1     -11.287   9.497  71.222  1.00  0.00    -0.446 C  
HETATM   24  C   UNL     1     -10.103   8.876  71.950  1.00  0.00    -0.393 C  
ENDBRANCH  22  23
ENDBRANCH  21  22
ENDBRANCH  20  21
ENDBRANCH  19  20
ENDBRANCH  17  19
ENDBRANCH  13  14
ENDBRANCH  12  13
BRANCH  12  25
HETATM   25  O   UNL     1     -12.134  13.940  67.859  1.00  0.00    -0.366 OA 
BRANCH  25  26
HETATM   26  C   UNL     1     -11.685  12.663  67.701  1.00  0.00    -0.361 C  
HETATM   27  O   UNL     1     -12.140  11.666  68.251  1.00  0.00    -0.552 OA 
BRANCH  26  28
HETATM   28  C   UNL     1     -10.525  12.614  66.711  1.00  0.00    -0.240 C  
BRANCH  28  29
HETATM   29  C   UNL     1     -10.977  12.141  65.320  1.00  0.00    -0.349 C  
HETATM   30  C   UNL     1     -12.097  14.286  64.424  1.00  0.00    -0.490 C  
HETATM   31  C   UNL     1     -12.648  12.064  63.455  1.00  0.00    -0.625 C  
HETATM   32  C   UNL     1     -12.250  12.797  64.740  1.00  0.00    -0.517 C  
ENDBRANCH  28  29
BRANCH  28  33
HETATM   33  N   UNL     1      -9.457  11.793  67.279  1.00  0.00    -0.169 N  
HETATM   34  C   UNL     1      -8.415  12.322  67.986  1.00  0.00    -0.171 C  
HETATM   35  O   UNL     1      -8.227  13.512  68.186  1.00  0.00    -0.144 OA 
HETATM   36  H   UNL     1      -9.491  10.782  67.142  1.00  0.00     0.000 HD 
ENDBRANCH  28  33
ENDBRANCH  26  28
ENDBRANCH  25  26
ENDBRANCH  12  25
ENDBRANCH  11  12
ENDBRANCH  10  11
ENDBRANCH   9  10
ENDBRANCH   8   9
ENDBRANCH   7   8
ENDBRANCH   6   7
ENDBRANCH   5   6
ENDBRANCH   4   5
ENDBRANCH   3   4
ENDBRANCH   2   3
TORSDOF 22
ENDMDL
MODEL        2
REMARK 921   NORMALIZED FREE ENERGY PREDICTED BY IDOCK:   -5.43 KCAL/MOL
REMARK 922        TOTAL FREE ENERGY PREDICTED BY IDOCK:  -16.03 KCAL/MOL
REMARK 923 INTER-LIGAND FREE ENERGY PREDICTED BY IDOCK:  -12.76 KCAL/MOL
REMARK 924 INTRA-LIGAND FREE ENERGY PREDICTED BY IDOCK:   -3.27 KCAL/MOL
REMARK 927      BINDING AFFINITY PREDICTED BY RF-SCORE:    0.00 PKD
ROOT
HETATM    1  C   UNL     1     -10.923   6.743  67.147  1.00  0.00    -0.458 C  
HETATM    2  C   UNL     1      -9.826   7.772  67.365  1.00  0.00    -0.230 C  
ENDROOT
BRANCH   2   3
HETATM    3  C   UNL     1     -10.225   9.123  66.779  1.00  0.00    -0.331 C  
BRANCH   3   4
HETATM    4  C   UNL     1      -9.103  10.150  66.908  1.00  0.00    -0.160 C  
BRANCH   4   5
HETATM    5  C   UNL     1      -8.561  10.537  65.531  1.00  0.00    -0.187 C  
BRANCH   5   6
HETATM    6  C   UNL     1      -9.556  10.164  64.440  1.00  0.00    -0.366 C  
BRANCH   6   7
HETATM    7  C   UNL     1     -10.005  11.375  63.620  1.00  0.00    -0.402 C  
BRANCH   7   8
HETATM    8  C   UNL     1     -11.394  11.790  64.090  1.00  0.00    -0.430 C  
BRANCH   8   9
HETATM    9  C   UNL     1     -11.437  13.153  64.773  1.00  0.00    -0.355 C  
BRANCH   9  10
HETATM   10  C   UNL     1     -11.294  12.937  66.283  1.00  0.00    -0.364 C  
BRANCH  10  11
HETATM   11  C   UNL     1     -12.204  13.819  67.124  1.00  0.00    -0.352 C  
BRANCH  11  12
HETATM   12  C   UNL     1     -11.544  15.032  67.804  1.00  0.00    -0.319 C  
BRANCH  12  13
HETATM   13  C   UNL     1     -11.370  14.918  69.334  1.00  0.00    -0.312 C  
BRANCH  13  14
HETATM   14  C   UNL     1     -12.634  14.481  70.084  1.00  0.00    -0.288 C  
HETATM   15  O   UNL     1     -13.396  15.611  70.596  1.00  0.00    -0.494 OA 
HETATM   16  O   UNL     1     -13.691  15.750  72.878  1.00  0.00    -0.573 OA 
HETATM   17  C   UNL     1     -12.428  13.972  71.538  1.00  0.00    -0.407 C  
HETATM   18  C   UNL     1     -13.260  15.220  71.882  1.00  0.00    -0.415 C  
BRANCH  17  19
HETATM   19  C   UNL     1     -13.070  12.664  71.990  1.00  0.00    -0.471 C  
BRANCH  19  20
HETATM   20  C   UNL     1     -12.548  11.495  71.160  1.00  0.00    -0.463 C  
BRANCH  20  21
HETATM   21  C   UNL     1     -12.859  10.152  71.827  1.00  0.00    -0.554 C  
BRANCH  21  22
HETATM   22  C   UNL     1     -11.763   9.125  71.536  1.00  0.00    -0.433 C  
BRANCH  22  23
HETATM   23  C   UNL     1     -10.764   9.638  70.500  1.00  0.00    -0.374 C  
HETATM   24  C   UNL     1      -9.341   9.235  70.863  1.00  0.00    -0.313 C  
ENDBRANCH  22  23
ENDBRANCH  21  22
ENDBRANCH  20  21
ENDBRANCH  19  20
ENDBRANCH  17  19
ENDBRANCH  13  14
ENDBRANCH  12  13
BRANCH  12  25
HETATM   25  O   UNL     1     -10.235  15.286  67.240  1.00  0.00    -0.243 OA 
BRANCH  25  26
HETATM   26  C   UNL     1     -10.105  16.365  66.420  1.00  0.00    -0.316 C  
HETATM   27  O   UNL     1     -10.454  16.424  65.246  1.00  0.00    -0.572 OA 
BRANCH  26  28
HETATM   28  C   UNL     1      -9.471  17.538  67.162  1.00  0.00    -0.259 C  
BRANCH  28  29
HETATM   29  C   UNL     1      -8.556  17.068  68.304  1.00  0.00    -0.234 C  
HETATM   30  C   UNL     1      -6.983  19.102  68.527  1.00  0.00    -0.318 C  
HETATM   31  C   UNL     1      -6.303  16.869  69.382  1.00  0.00    -0.231 C  
HETATM   32  C   UNL     1      -7.103  17.595  68.296  1.00  0.00    -0.223 C  
ENDBRANCH  28  29
BRANCH  28  33
HETATM   33  N   UNL     1     -10.532  18.441  67.607  1.00  0.00    -0.407 N  
HETATM   34  C   UNL     1     -10.711  19.687  67.079  1.00  0.00    -0.455 C  
HETATM   35  O   UNL     1     -10.003  20.204  66.229  1.00  0.00    -0.448 OA 
HETATM   36  H   UNL     1     -11.164  18.126  68.344  1.00  0.00     0.000 HD 
ENDBRANCH  28  33
ENDBRANCH  26  28
ENDBRANCH  25  26
ENDBRANCH  12  25
ENDBRANCH  11  12
ENDBRANCH  10  11
ENDBRANCH   9  10
ENDBRANCH   8   9
ENDBRANCH   7   8
ENDBRANCH   6   7
ENDBRANCH   5   6
ENDBRANCH   4   5
ENDBRANCH   3   4
ENDBRANCH   2   3
TORSDOF 22
ENDMDL
MODEL        3
REMARK 921   NORMALIZED FREE ENERGY PREDICTED BY IDOCK:   -5.42 KCAL/MOL
REMARK 922        TOTAL FREE ENERGY PREDICTED BY IDOCK:  -16.02 KCAL/MOL
REMARK 923 INTER-LIGAND FREE ENERGY PREDICTED BY IDOCK:  -12.29 KCAL/MOL
REMARK 924 INTRA-LIGAND FREE ENERGY PREDICTED BY IDOCK:   -3.73 KCAL/MOL
REMARK 927      BINDING AFFINITY PREDICTED BY RF-SCORE:    0.00 PKD
ROOT
HETATM    1  C   UNL     1     -11.267   6.293  69.389  1.00  0.00    -0.489 C  
HETATM    2  C   UNL     1     -10.783   5.939  70.785  1.00  0.00    -0.344 C  
ENDROOT
BRANCH   2   3
HETATM    3  C   UNL     1     -11.196   7.010  71.790  1.00  0.00    -0.278 C  
BRANCH   3   4
HETATM    4  C   UNL     1     -12.705   7.235  71.790  1.00  0.00    -0.370 C  
BRANCH   4   5
HETATM    5  C   UNL     1     -13.033   8.720  71.954  1.00  0.00    -0.421 C  
BRANCH   5   6
HETATM    6  C   UNL     1     -11.881   9.580  71.452  1.00  0.00    -0.464 C  
BRANCH   6   7
HETATM    7  C   UNL     1     -12.350  10.943  70.939  1.00  0.00    -0.501 C  
BRANCH   7   8
HETATM    8  C   UNL     1     -13.352  11.516  71.934  1.00  0.00    -0.408 C  
BRANCH   8   9
HETATM    9  C   UNL     1     -13.432  13.039  71.927  1.00  0.00    -0.498 C  
BRANCH   9  10
HETATM   10  C   UNL     1     -12.202  13.580  71.191  1.00  0.00    -0.283 C  
BRANCH  10  11
HETATM   11  C   UNL     1     -12.515  14.676  70.184  1.00  0.00    -0.369 C  
BRANCH  11  12
HETATM   12  C   UNL     1     -11.736  14.627  68.857  1.00  0.00    -0.309 C  
BRANCH  12  13
HETATM   13  C   UNL     1     -10.252  15.049  68.946  1.00  0.00    -0.235 C  
BRANCH  13  14
HETATM   14  C   UNL     1      -9.894  16.284  68.112  1.00  0.00    -0.229 C  
HETATM   15  O   UNL     1     -11.001  16.732  67.277  1.00  0.00    -0.195 OA 
HETATM   16  O   UNL     1     -10.681  16.734  64.995  1.00  0.00    -0.692 OA 
HETATM   17  C   UNL     1      -9.046  16.027  66.835  1.00  0.00    -0.251 C  
HETATM   18  C   UNL     1     -10.316  16.537  66.129  1.00  0.00    -0.334 C  
BRANCH  17  19
HETATM   19  C   UNL     1      -7.809  16.873  66.554  1.00  0.00    -0.330 C  
BRANCH  19  20
HETATM   20  C   UNL     1      -7.137  17.292  67.859  1.00  0.00    -0.174 C  
BRANCH  20  21
HETATM   21  C   UNL     1      -7.119  18.815  68.015  1.00  0.00    -0.255 C  
BRANCH  21  22
HETATM   22  C   UNL     1      -7.880  19.496  66.876  1.00  0.00    -0.289 C  
BRANCH  22  23
HETATM   23  C   UNL     1      -9.248  20.004  67.331  1.00  0.00    -0.477 C  
HETATM   24  C   UNL     1     -10.241  20.018  66.177  1.00  0.00    -0.589 C  
ENDBRANCH  22  23
ENDBRANCH  21  22
ENDBRANCH  20  21
ENDBRANCH  19  20
ENDBRANCH  17  19
ENDBRANCH  13  14
ENDBRANCH  12  13
BRANCH  12  25
HETATM   25  O   UNL     1     -11.770  13.296  68.291  1.00  0.00    -0.312 OA 
BRANCH  25  26
HETATM   26  C   UNL     1     -11.965  13.192  66.947  1.00  0.00    -0.362 C  
HETATM   27  O   UNL     1     -12.761  13.845  66.281  1.00  0.00    -0.399 OA 
BRANCH  26  28
HETATM   28  C   UNL     1     -11.032  12.148  66.341  1.00  0.00    -0.288 C  
BRANCH  28  29
HETATM   29  C   UNL     1     -10.166  11.463  67.411  1.00  0.00    -0.221 C  
HETATM   30  C   UNL     1      -9.978   9.085  66.426  1.00  0.00    -0.370 C  
HETATM   31  C   UNL     1      -9.588   9.493  68.847  1.00  0.00    -0.156 C  
HETATM   32  C   UNL     1     -10.386   9.948  67.622  1.00  0.00    -0.275 C  
ENDBRANCH  28  29
BRANCH  28  33
HETATM   33  N   UNL     1     -10.246  12.778  65.281  1.00  0.00    -0.302 N  
HETATM   34  C   UNL     1     -10.368  12.432  63.966  1.00  0.00    -0.409 C  
HETATM   35  O   UNL     1     -11.092  11.550  63.530  1.00  0.00    -0.407 OA 
HETATM   36  H   UNL     1      -9.578  13.507  65.535  1.00  0.00     0.000 HD 
ENDBRANCH  28  33
ENDBRANCH  26  28
ENDBRANCH  25  26
ENDBRANCH  12  25
ENDBRANCH  11  12
ENDBRANCH  10  11
ENDBRANCH   9  10
ENDBRANCH   8   9
ENDBRANCH   7   8
ENDBRANCH   6   7
ENDBRANCH   5   6
ENDBRANCH   4   5
ENDBRANCH   3   4
ENDBRANCH   2   3
TORSDOF 22
ENDMDL
MODEL        4
REMARK 921   NORMALIZED FREE ENERGY PREDICTED BY IDOCK:   -5.36 KCAL/MOL
REMARK 922        TOTAL FREE ENERGY PREDICTED BY IDOCK:  -15.87 KCAL/MOL
REMARK 923 INTER-LIGAND FREE ENERGY PREDICTED BY IDOCK:  -11.77 KCAL/MOL
REMARK 924 INTRA-LIGAND FREE ENERGY PREDICTED BY IDOCK:   -4.10 KCAL/MOL
REMARK 927      BINDING AFFINITY PREDICTED BY RF-SCORE:    0.00 PKD
ROOT
HETATM    1  C   UNL     1      -8.435   8.995  62.780  1.00  0.00    -0.206 C  
HETATM    2  C   UNL     1      -8.574   9.077  64.291  1.00  0.00    -0.171 C  
ENDROOT
BRANCH   2   3
HETATM    3  C   UNL     1      -8.925  10.496  64.728  1.00  0.00    -0.227 C  
BRANCH   3   4
HETATM    4  C   UNL     1     -10.374  10.846  64.406  1.00  0.00    -0.430 C  
BRANCH   4   5
HETATM    5  C   UNL     1     -10.445  12.035  63.445  1.00  0.00    -0.474 C  
BRANCH   5   6
HETATM    6  C   UNL     1     -11.855  12.608  63.407  1.00  0.00    -0.594 C  
BRANCH   6   7
HETATM    7  C   UNL     1     -12.552  12.534  64.767  1.00  0.00    -0.493 C  
BRANCH   7   8
HETATM    8  C   UNL     1     -12.627  13.940  65.350  1.00  0.00    -0.538 C  
BRANCH   8   9
HETATM    9  C   UNL     1     -12.180  15.035  64.388  1.00  0.00    -0.353 C  
BRANCH   9  10
HETATM   10  C   UNL     1     -10.987  15.765  65.013  1.00  0.00    -0.431 C  
BRANCH  10  11
HETATM   11  C   UNL     1     -10.814  15.509  66.502  1.00  0.00    -0.284 C  
BRANCH  11  12
HETATM   12  C   UNL     1      -9.382  15.217  66.985  1.00  0.00    -0.224 C  
BRANCH  12  13
HETATM   13  C   UNL     1      -8.964  13.730  66.952  1.00  0.00    -0.234 C  
BRANCH  13  14
HETATM   14  C   UNL     1      -9.461  12.907  68.146  1.00  0.00    -0.218 C  
HETATM   15  O   UNL     1      -8.674  11.700  68.357  1.00  0.00    -0.158 OA 
HETATM   16  O   UNL     1      -9.763   9.676  68.199  1.00  0.00    -0.143 OA 
HETATM   17  C   UNL     1     -10.721  12.031  67.897  1.00  0.00    -0.243 C  
HETATM   18  C   UNL     1      -9.730  10.882  68.158  1.00  0.00    -0.166 C  
BRANCH  17  19
HETATM   19  C   UNL     1     -11.887  12.069  68.880  1.00  0.00    -0.356 C  
BRANCH  19  20
HETATM   20  C   UNL     1     -11.670  13.157  69.927  1.00  0.00    -0.327 C  
BRANCH  20  21
HETATM   21  C   UNL     1     -12.377  14.458  69.537  1.00  0.00    -0.263 C  
BRANCH  21  22
HETATM   22  C   UNL     1     -12.412  15.441  70.709  1.00  0.00    -0.476 C  
BRANCH  22  23
HETATM   23  C   UNL     1     -13.566  15.142  71.667  1.00  0.00    -0.560 C  
HETATM   24  C   UNL     1     -13.064  14.973  73.095  1.00  0.00    -0.619 C  
ENDBRANCH  22  23
ENDBRANCH  21  22
ENDBRANCH  20  21
ENDBRANCH  19  20
ENDBRANCH  17  19
ENDBRANCH  13  14
ENDBRANCH  12  13
BRANCH  12  25
HETATM   25  O   UNL     1      -8.416  15.952  66.198  1.00  0.00    -0.318 OA 
BRANCH  25  26
HETATM   26  C   UNL     1      -7.330  16.456  66.848  1.00  0.00    -0.234 C  
HETATM   27  O   UNL     1      -6.244  15.902  66.972  1.00  0.00    -0.319 OA 
BRANCH  26  28
HETATM   28  C   UNL     1      -7.626  17.845  67.405  1.00  0.00    -0.206 C  
BRANCH  28  29
HETATM   29  C   UNL     1      -8.512  18.668  66.456  1.00  0.00    -0.302 C  
HETATM   30  C   UNL     1     -10.070  19.839  68.147  1.00  0.00    -0.574 C  
HETATM   31  C   UNL     1     -10.737  19.591  65.765  1.00  0.00    -0.490 C  
HETATM   32  C   UNL     1      -9.963  18.939  66.915  1.00  0.00    -0.391 C  
ENDBRANCH  28  29
BRANCH  28  33
HETATM   33  N   UNL     1      -6.360  18.503  67.725  1.00  0.00    -0.196 N  
HETATM   34  C   UNL     1      -6.200  19.307  68.817  1.00  0.00    -0.242 C  
HETATM   35  O   UNL     1      -7.079  19.605  69.611  1.00  0.00    -0.310 OA 
HETATM   36  H   UNL     1      -5.562  18.355  67.106  1.00  0.00     0.000 HD 
ENDBRANCH  28  33
ENDBRANCH  26  28
ENDBRANCH  25  26
ENDBRANCH  12  25
ENDBRANCH  11  12
ENDBRANCH  10  11
ENDBRANCH   9  10
ENDBRANCH   8   9
ENDBRANCH   7   8
ENDBRANCH   6   7
ENDBRANCH   5   6
ENDBRANCH   4   5
ENDBRANCH   3   4
ENDBRANCH   2   3
TORSDOF 22
ENDMDL
MODEL        5
REMARK 921   NORMALIZED FREE ENERGY PREDICTED BY IDOCK:   -5.35 KCAL/MOL
REMARK 922        TOTAL FREE ENERGY PREDICTED BY IDOCK:  -15.85 KCAL/MOL
REMARK 923 INTER-LIGAND FREE ENERGY PREDICTED BY IDOCK:  -11.48 KCAL/MOL
REMARK 924 INTRA-LIGAND FREE ENERGY PREDICTED BY IDOCK:   -4.38 KCAL/MOL
REMARK 927      BINDING AFFINITY PREDICTED BY RF-SCORE:    0.00 PKD
ROOT
HETATM    1  C   UNL     1     -13.064  10.643  71.874  1.00  0.00    -0.563 C  
HETATM    2  C   UNL     1     -13.493   9.192  71.737  1.00  0.00    -0.478 C  
ENDROOT
BRANCH   2   3
HETATM    3  C   UNL     1     -12.350   8.251  72.107  1.00  0.00    -0.410 C  
BRANCH   3   4
HETATM    4  C   UNL     1     -12.567   6.848  71.548  1.00  0.00    -0.412 C  
BRANCH   4   5
HETATM    5  C   UNL     1     -11.774   6.651  70.254  1.00  0.00    -0.432 C  
BRANCH   5   6
HETATM    6  C   UNL     1     -10.464   7.426  70.307  1.00  0.00    -0.229 C  
BRANCH   6   7
HETATM    7  C   UNL     1     -10.260   8.310  69.075  1.00  0.00    -0.226 C  
BRANCH   7   8
HETATM    8  C   UNL     1     -10.300   9.769  69.513  1.00  0.00    -0.247 C  
BRANCH   8   9
HETATM    9  C   UNL     1     -11.194  10.652  68.649  1.00  0.00    -0.337 C  
BRANCH   9  10
HETATM   10  C   UNL     1     -10.642  12.080  68.691  1.00  0.00    -0.253 C  
BRANCH  10  11
HETATM   11  C   UNL     1     -11.704  13.150  68.890  1.00  0.00    -0.368 C  
BRANCH  11  12
HETATM   12  C   UNL     1     -11.651  14.353  67.931  1.00  0.00    -0.345 C  
BRANCH  12  13
HETATM   13  C   UNL     1     -12.499  14.212  66.647  1.00  0.00    -0.255 C  
BRANCH  13  14
HETATM   14  C   UNL     1     -11.706  13.772  65.410  1.00  0.00    -0.335 C  
HETATM   15  O   UNL     1     -12.498  13.838  64.190  1.00  0.00    -0.652 OA 
HETATM   16  O   UNL     1     -12.839  11.873  63.034  1.00  0.00    -0.520 OA 
HETATM   17  C   UNL     1     -11.541  12.240  65.211  1.00  0.00    -0.405 C  
HETATM   18  C   UNL     1     -12.387  12.512  63.953  1.00  0.00    -0.485 C  
BRANCH  17  19
HETATM   19  C   UNL     1     -10.167  11.651  64.908  1.00  0.00    -0.315 C  
BRANCH  19  20
HETATM   20  C   UNL     1     -10.179  10.137  65.098  1.00  0.00    -0.233 C  
BRANCH  20  21
HETATM   21  C   UNL     1      -8.947   9.660  65.872  1.00  0.00    -0.203 C  
BRANCH  21  22
HETATM   22  C   UNL     1      -7.962  10.807  66.101  1.00  0.00    -0.157 C  
BRANCH  22  23
HETATM   23  C   UNL     1      -7.382  10.783  67.516  1.00  0.00    -0.092 C  
HETATM   24  C   UNL     1      -6.843   9.403  67.865  1.00  0.00    -0.075 C  
ENDBRANCH  22  23
ENDBRANCH  21  22
ENDBRANCH  20  21
ENDBRANCH  19  20
ENDBRANCH  17  19
ENDBRANCH  13  14
ENDBRANCH  12  13
BRANCH  12  25
HETATM   25  O   UNL     1     -12.082  15.562  68.599  1.00  0.00    -0.271 OA 
BRANCH  25  26
HETATM   26  C   UNL     1     -11.160  16.225  69.350  1.00  0.00    -0.328 C  
HETATM   27  O   UNL     1     -11.062  16.186  70.572  1.00  0.00    -0.349 OA 
BRANCH  26  28
HETATM   28  C   UNL     1     -10.217  17.034  68.464  1.00  0.00    -0.324 C  
BRANCH  28  29
HETATM   29  C   UNL     1      -8.771  16.517  68.542  1.00  0.00    -0.228 C  
HETATM   30  C   UNL     1      -7.920  17.117  66.180  1.00  0.00    -0.297 C  
HETATM   31  C   UNL     1      -6.787  15.366  67.534  1.00  0.00    -0.223 C  
HETATM   32  C   UNL     1      -8.137  16.019  67.223  1.00  0.00    -0.205 C  
ENDBRANCH  28  29
BRANCH  28  33
HETATM   33  N   UNL     1     -10.341  18.448  68.814  1.00  0.00    -0.434 N  
HETATM   34  C   UNL     1     -10.553  19.424  67.881  1.00  0.00    -0.385 C  
HETATM   35  O   UNL     1     -10.616  19.247  66.674  1.00  0.00    -0.409 OA 
HETATM   36  H   UNL     1     -10.267  18.718  69.795  1.00  0.00     0.000 HD 
ENDBRANCH  28  33
ENDBRANCH  26  28
ENDBRANCH  25  26
ENDBRANCH  12  25
ENDBRANCH  11  12
ENDBRANCH  10  11
ENDBRANCH   9  10
ENDBRANCH   8   9
ENDBRANCH   7   8
ENDBRANCH   6   7
ENDBRANCH   5   6
ENDBRANCH   4   5
ENDBRANCH   3   4
ENDBRANCH   2   3
TORSDOF 22
ENDMDL
MODEL        6
REMARK 921   NORMALIZED FREE ENERGY PREDICTED BY IDOCK:   -5.32 KCAL/MOL
REMARK 922        TOTAL FREE ENERGY PREDICTED BY IDOCK:  -15.79 KCAL/MOL
REMARK 923 INTER-LIGAND FREE ENERGY PREDICTED BY IDOCK:  -11.91 KCAL/MOL
REMARK 924 INTRA-LIGAND FREE ENERGY PREDICTED BY IDOCK:   -3.88 KCAL/MOL
REMARK 927      BINDING AFFINITY PREDICTED BY RF-SCORE:    0.00 PKD
ROOT
HETATM    1  C   UNL     1     -10.817   6.018  68.497  1.00  0.00    -0.363 C  
HETATM    2  C   UNL     1     -11.130   6.720  67.186  1.00  0.00    -0.404 C  
ENDROOT
BRANCH   2   3
HETATM    3  C   UNL     1     -10.423   8.070  67.111  1.00  0.00    -0.408 C  
BRANCH   3   4
HETATM    4  C   UNL     1      -9.278   8.166  68.114  1.00  0.00    -0.136 C  
BRANCH   4   5
HETATM    5  C   UNL     1      -8.690   9.578  68.134  1.00  0.00    -0.120 C  
BRANCH   5   6
HETATM    6  C   UNL     1      -9.519  10.515  67.265  1.00  0.00    -0.179 C  
BRANCH   6   7
HETATM    7  C   UNL     1      -8.670  11.256  66.231  1.00  0.00    -0.184 C  
BRANCH   7   8
HETATM    8  C   UNL     1      -9.298  11.058  64.856  1.00  0.00    -0.243 C  
BRANCH   8   9
HETATM    9  C   UNL     1     -10.821  10.988  64.874  1.00  0.00    -0.211 C  
BRANCH   9  10
HETATM   10  C   UNL     1     -11.369  12.337  64.399  1.00  0.00    -0.396 C  
BRANCH  10  11
HETATM   11  C   UNL     1     -12.304  13.011  65.392  1.00  0.00    -0.538 C  
BRANCH  11  12
HETATM   12  C   UNL     1     -11.739  14.229  66.145  1.00  0.00    -0.390 C  
BRANCH  12  13
HETATM   13  C   UNL     1     -11.289  13.956  67.597  1.00  0.00    -0.335 C  
BRANCH  13  14
HETATM   14  C   UNL     1     -12.254  14.478  68.668  1.00  0.00    -0.123 C  
HETATM   15  O   UNL     1     -11.988  15.864  69.029  1.00  0.00    -0.378 OA 
HETATM   16  O   UNL     1     -11.416  16.305  71.217  1.00  0.00    -0.423 OA 
HETATM   17  C   UNL     1     -11.952  14.049  70.131  1.00  0.00    -0.399 C  
HETATM   18  C   UNL     1     -11.720  15.559  70.318  1.00  0.00    -0.346 C  
BRANCH  17  19
HETATM   19  C   UNL     1     -13.066  13.488  71.010  1.00  0.00    -0.219 C  
BRANCH  19  20
HETATM   20  C   UNL     1     -12.785  12.031  71.366  1.00  0.00    -0.380 C  
BRANCH  20  21
HETATM   21  C   UNL     1     -12.035  11.314  70.240  1.00  0.00    -0.466 C  
BRANCH  21  22
HETATM   22  C   UNL     1     -11.172  10.176  70.789  1.00  0.00    -0.414 C  
BRANCH  22  23
HETATM   23  C   UNL     1     -11.921   9.349  71.834  1.00  0.00    -0.416 C  
HETATM   24  C   UNL     1     -12.087   7.906  71.377  1.00  0.00    -0.333 C  
ENDBRANCH  22  23
ENDBRANCH  21  22
ENDBRANCH  20  21
ENDBRANCH  19  20
ENDBRANCH  17  19
ENDBRANCH  13  14
ENDBRANCH  12  13
BRANCH  12  25
HETATM   25  O   UNL     1     -10.606  14.787  65.441  1.00  0.00    -0.325 OA 
BRANCH  25  26
HETATM   26  C   UNL     1     -10.663  16.106  65.107  1.00  0.00    -0.371 C  
HETATM   27  O   UNL     1     -11.346  16.594  64.212  1.00  0.00    -1.116 OA 
BRANCH  26  28
HETATM   28  C   UNL     1      -9.766  16.938  66.018  1.00  0.00    -0.233 C  
BRANCH  28  29
HETATM   29  C   UNL     1      -8.629  16.100  66.624  1.00  0.00    -0.311 C  
HETATM   30  C   UNL     1      -7.507  17.848  68.155  1.00  0.00    -0.250 C  
HETATM   31  C   UNL     1      -6.262  15.833  67.401  1.00  0.00    -0.144 C  
HETATM   32  C   UNL     1      -7.334  16.853  67.007  1.00  0.00    -0.228 C  
ENDBRANCH  28  29
BRANCH  28  33
HETATM   33  N   UNL     1     -10.598  17.594  67.026  1.00  0.00    -0.300 N  
HETATM   34  C   UNL     1     -10.780  18.947  67.067  1.00  0.00    -0.402 C  
HETATM   35  O   UNL     1     -10.250  19.755  66.320  1.00  0.00    -0.432 OA 
HETATM   36  H   UNL     1     -11.062  17.016  67.728  1.00  0.00     0.000 HD 
ENDBRANCH  28  33
ENDBRANCH  26  28
ENDBRANCH  25  26
ENDBRANCH  12  25
ENDBRANCH  11  12
ENDBRANCH  10  11
ENDBRANCH   9  10
ENDBRANCH   8   9
ENDBRANCH   7   8
ENDBRANCH   6   7
ENDBRANCH   5   6
ENDBRANCH   4   5
ENDBRANCH   3   4
ENDBRANCH   2   3
TORSDOF 22
ENDMDL
MODEL        7
REMARK 921   NORMALIZED FREE ENERGY PREDICTED BY IDOCK:   -5.31 KCAL/MOL
REMARK 922        TOTAL FREE ENERGY PREDICTED BY IDOCK:  -15.77 KCAL/MOL
REMARK 923 INTER-LIGAND FREE ENERGY PREDICTED BY IDOCK:  -11.07 KCAL/MOL
REMARK 924 INTRA-LIGAND FREE ENERGY PREDICTED BY IDOCK:   -4.70 KCAL/MOL
REMARK 927      BINDING AFFINITY PREDICTED BY RF-SCORE:    0.00 PKD
ROOT
HETATM    1  C   UNL     1     -10.403   5.215  70.519  1.00  0.00    -0.314 C  
HETATM    2  C   UNL     1      -9.080   5.235  69.772  1.00  0.00    -0.150 C  
ENDROOT
BRANCH   2   3
HETATM    3  C   UNL     1      -9.233   5.916  68.415  1.00  0.00    -0.118 C  
BRANCH   3   4
HETATM    4  C   UNL     1     -10.699   6.141  68.057  1.00  0.00    -0.370 C  
BRANCH   4   5
HETATM    5  C   UNL     1     -10.839   7.257  67.019  1.00  0.00    -0.350 C  
BRANCH   5   6
HETATM    6  C   UNL     1      -9.488   7.905  66.745  1.00  0.00    -0.257 C  
BRANCH   6   7
HETATM    7  C   UNL     1      -9.624   9.327  66.198  1.00  0.00    -0.327 C  
BRANCH   7   8
HETATM    8  C   UNL     1      -8.325  10.077  66.469  1.00  0.00    -0.126 C  
BRANCH   8   9
HETATM    9  C   UNL     1      -8.514  11.562  66.760  1.00  0.00    -0.168 C  
BRANCH   9  10
HETATM   10  C   UNL     1      -8.817  11.724  68.253  1.00  0.00    -0.172 C  
BRANCH  10  11
HETATM   11  C   UNL     1      -9.913  12.733  68.558  1.00  0.00    -0.168 C  
BRANCH  11  12
HETATM   12  C   UNL     1     -11.362  12.241  68.387  1.00  0.00    -0.292 C  
BRANCH  12  13
HETATM   13  C   UNL     1     -11.856  12.135  66.927  1.00  0.00    -0.295 C  
BRANCH  13  14
HETATM   14  C   UNL     1     -12.135  13.484  66.254  1.00  0.00    -0.428 C  
HETATM   15  O   UNL     1     -13.150  13.389  65.215  1.00  0.00    -0.687 OA 
HETATM   16  O   UNL     1     -12.531  13.943  63.065  1.00  0.00    -0.689 OA 
HETATM   17  C   UNL     1     -11.101  13.946  65.189  1.00  0.00    -0.334 C  
HETATM   18  C   UNL     1     -12.304  13.792  64.241  1.00  0.00    -0.337 C  
BRANCH  17  19
HETATM   19  C   UNL     1     -10.535  15.362  65.233  1.00  0.00    -0.440 C  
BRANCH  19  20
HETATM   20  C   UNL     1      -9.284  15.413  66.105  1.00  0.00    -0.362 C  
BRANCH  20  21
HETATM   21  C   UNL     1      -9.174  16.747  66.848  1.00  0.00    -0.249 C  
BRANCH  21  22
HETATM   22  C   UNL     1      -9.458  16.571  68.342  1.00  0.00    -0.223 C  
BRANCH  22  23
HETATM   23  C   UNL     1     -10.949  16.375  68.617  1.00  0.00    -0.345 C  
HETATM   24  C   UNL     1     -11.172  15.645  69.934  1.00  0.00    -0.335 C  
ENDBRANCH  22  23
ENDBRANCH  21  22
ENDBRANCH  20  21
ENDBRANCH  19  20
ENDBRANCH  17  19
ENDBRANCH  13  14
ENDBRANCH  12  13
BRANCH  12  25
HETATM   25  O   UNL     1     -11.537  10.941  68.995  1.00  0.00    -0.274 OA 
BRANCH  25  26
HETATM   26  C   UNL     1     -11.932  10.906  70.298  1.00  0.00    -0.361 C  
HETATM   27  O   UNL     1     -12.463  11.823  70.915  1.00  0.00    -0.372 OA 
BRANCH  26  28
HETATM   28  C   UNL     1     -11.648   9.540  70.916  1.00  0.00    -0.326 C  
BRANCH  28  29
HETATM   29  C   UNL     1     -10.358   8.916  70.361  1.00  0.00    -0.240 C  
HETATM   30  C   UNL     1      -9.076   8.437  72.549  1.00  0.00    -0.326 C  
HETATM   31  C   UNL     1      -7.870   8.615  70.383  1.00  0.00    -0.091 C  
HETATM   32  C   UNL     1      -9.068   9.130  71.186  1.00  0.00    -0.275 C  
ENDBRANCH  28  29
BRANCH  28  33
HETATM   33  N   UNL     1     -12.823   8.689  70.736  1.00  0.00    -0.425 N  
HETATM   34  C   UNL     1     -13.849   8.647  71.636  1.00  0.00    -0.392 C  
HETATM   35  O   UNL     1     -13.891   9.259  72.692  1.00  0.00    -0.449 OA 
HETATM   36  H   UNL     1     -12.878   8.102  69.903  1.00  0.00     0.000 HD 
ENDBRANCH  28  33
ENDBRANCH  26  28
ENDBRANCH  25  26
ENDBRANCH  12  25
ENDBRANCH  11  12
ENDBRANCH  10  11
ENDBRANCH   9  10
ENDBRANCH   8   9
ENDBRANCH   7   8
ENDBRANCH   6   7
ENDBRANCH   5   6
ENDBRANCH   4   5
ENDBRANCH   3   4
ENDBRANCH   2   3
TORSDOF 22
ENDMDL
MODEL        8
REMARK 921   NORMALIZED FREE ENERGY PREDICTED BY IDOCK:   -5.23 KCAL/MOL
REMARK 922        TOTAL FREE ENERGY PREDICTED BY IDOCK:  -15.58 KCAL/MOL
REMARK 923 INTER-LIGAND FREE ENERGY PREDICTED BY IDOCK:  -12.78 KCAL/MOL
REMARK 924 INTRA-LIGAND FREE ENERGY PREDICTED BY IDOCK:   -2.80 KCAL/MOL
REMARK 927      BINDING AFFINITY PREDICTED BY RF-SCORE:    0.00 PKD
ROOT
HETATM    1  C   UNL     1     -10.170   5.049  67.461  1.00  0.00    -0.184 C  
HETATM    2  C   UNL     1     -10.898   6.299  66.994  1.00  0.00    -0.458 C  
ENDROOT
BRANCH   2   3
HETATM    3  C   UNL     1     -10.512   7.503  67.849  1.00  0.00    -0.266 C  
BRANCH   3   4
HETATM    4  C   UNL     1     -10.348   8.764  67.007  1.00  0.00    -0.353 C  
BRANCH   4   5
HETATM    5  C   UNL     1      -9.216   8.596  65.992  1.00  0.00    -0.276 C  
BRANCH   5   6
HETATM    6  C   UNL     1      -9.202   9.759  65.009  1.00  0.00    -0.307 C  
BRANCH   6   7
HETATM    7  C   UNL     1     -10.386  10.707  65.210  1.00  0.00    -0.321 C  
BRANCH   7   8
HETATM    8  C   UNL     1     -10.630  11.461  63.908  1.00  0.00    -0.452 C  
BRANCH   8   9
HETATM    9  C   UNL     1     -12.098  11.778  63.640  1.00  0.00    -0.486 C  
BRANCH   9  10
HETATM   10  C   UNL     1     -12.306  13.283  63.831  1.00  0.00    -0.422 C  
BRANCH  10  11
HETATM   11  C   UNL     1     -12.813  13.669  65.212  1.00  0.00    -0.421 C  
BRANCH  11  12
HETATM   12  C   UNL     1     -11.860  14.511  66.079  1.00  0.00    -0.334 C  
BRANCH  12  13
HETATM   13  C   UNL     1     -11.234  13.771  67.282  1.00  0.00    -0.329 C  
BRANCH  13  14
HETATM   14  C   UNL     1     -12.105  13.766  68.544  1.00  0.00    -0.292 C  
HETATM   15  O   UNL     1     -12.150  15.067  69.196  1.00  0.00    -0.288 OA 
HETATM   16  O   UNL     1     -11.348  15.207  71.352  1.00  0.00    -0.351 OA 
HETATM   17  C   UNL     1     -11.459  13.158  69.821  1.00  0.00    -0.216 C  
HETATM   18  C   UNL     1     -11.597  14.601  70.338  1.00  0.00    -0.268 C  
BRANCH  17  19
HETATM   19  C   UNL     1     -12.224  12.134  70.653  1.00  0.00    -0.392 C  
BRANCH  19  20
HETATM   20  C   UNL     1     -11.885  10.716  70.203  1.00  0.00    -0.421 C  
BRANCH  20  21
HETATM   21  C   UNL     1     -12.185   9.693  71.302  1.00  0.00    -0.452 C  
BRANCH  21  22
HETATM   22  C   UNL     1     -11.023   8.714  71.477  1.00  0.00    -0.360 C  
BRANCH  22  23
HETATM   23  C   UNL     1     -11.399   7.543  72.386  1.00  0.00    -0.360 C  
HETATM   24  C   UNL     1     -10.321   7.292  73.432  1.00  0.00    -0.410 C  
ENDBRANCH  22  23
ENDBRANCH  21  22
ENDBRANCH  20  21
ENDBRANCH  19  20
ENDBRANCH  17  19
ENDBRANCH  13  14
ENDBRANCH  12  13
BRANCH  12  25
HETATM   25  O   UNL     1     -10.771  15.036  65.284  1.00  0.00    -0.332 OA 
BRANCH  25  26
HETATM   26  C   UNL     1     -10.665  16.390  65.182  1.00  0.00    -0.291 C  
HETATM   27  O   UNL     1     -11.238  17.098  64.361  1.00  0.00    -1.143 OA 
BRANCH  26  28
HETATM   28  C   UNL     1      -9.735  16.945  66.257  1.00  0.00    -0.280 C  
BRANCH  28  29
HETATM   29  C   UNL     1      -9.675  18.481  66.226  1.00  0.00    -0.315 C  
HETATM   30  C   UNL     1      -8.568  18.963  68.507  1.00  0.00    -0.383 C  
HETATM   31  C   UNL     1      -9.888  20.716  67.338  1.00  0.00    -0.527 C  
HETATM   32  C   UNL     1      -9.764  19.210  67.586  1.00  0.00    -0.391 C  
ENDBRANCH  28  29
BRANCH  28  33
HETATM   33  N   UNL     1      -8.424  16.315  66.115  1.00  0.00    -0.327 N  
HETATM   34  C   UNL     1      -7.844  15.583  67.112  1.00  0.00    -0.221 C  
HETATM   35  O   UNL     1      -8.313  15.410  68.227  1.00  0.00    -0.145 OA 
HETATM   36  H   UNL     1      -7.920  16.426  65.234  1.00  0.00     0.000 HD 
ENDBRANCH  28  33
ENDBRANCH  26  28
ENDBRANCH  25  26
ENDBRANCH  12  25
ENDBRANCH  11  12
ENDBRANCH  10  11
ENDBRANCH   9  10
ENDBRANCH   8   9
ENDBRANCH   7   8
ENDBRANCH   6   7
ENDBRANCH   5   6
ENDBRANCH   4   5
ENDBRANCH   3   4
ENDBRANCH   2   3
TORSDOF 22
ENDMDL
MODEL        9
REMARK 921   NORMALIZED FREE ENERGY PREDICTED BY IDOCK:   -5.14 KCAL/MOL
REMARK 922        TOTAL FREE ENERGY PREDICTED BY IDOCK:  -15.36 KCAL/MOL
REMARK 923 INTER-LIGAND FREE ENERGY PREDICTED BY IDOCK:  -12.08 KCAL/MOL
REMARK 924 INTRA-LIGAND FREE ENERGY PREDICTED BY IDOCK:   -3.28 KCAL/MOL
REMARK 927      BINDING AFFINITY PREDICTED BY RF-SCORE:    0.00 PKD
ROOT
HETATM    1  C   UNL     1     -10.939   6.326  67.871  1.00  0.00    -0.421 C  
HETATM    2  C   UNL     1     -10.551   6.250  69.339  1.00  0.00    -0.330 C  
ENDROOT
BRANCH   2   3
HETATM    3  C   UNL     1     -11.765   6.480  70.234  1.00  0.00    -0.430 C  
BRANCH   3   4
HETATM    4  C   UNL     1     -11.367   6.639  71.698  1.00  0.00    -0.319 C  
BRANCH   4   5
HETATM    5  C   UNL     1     -11.860   7.978  72.252  1.00  0.00    -0.424 C  
BRANCH   5   6
HETATM    6  C   UNL     1     -10.937   9.108  71.815  1.00  0.00    -0.429 C  
BRANCH   6   7
HETATM    7  C   UNL     1     -11.637  10.108  70.892  1.00  0.00    -0.459 C  
BRANCH   7   8
HETATM    8  C   UNL     1     -10.839  10.211  69.597  1.00  0.00    -0.299 C  
BRANCH   8   9
HETATM    9  C   UNL     1      -9.446   9.595  69.675  1.00  0.00    -0.226 C  
BRANCH   9  10
HETATM   10  C   UNL     1      -8.591  10.202  68.559  1.00  0.00    -0.118 C  
BRANCH  10  11
HETATM   11  C   UNL     1      -8.540  11.722  68.572  1.00  0.00    -0.123 C  
BRANCH  11  12
HETATM   12  C   UNL     1      -8.489  12.416  67.199  1.00  0.00    -0.185 C  
BRANCH  12  13
HETATM   13  C   UNL     1      -9.664  12.091  66.250  1.00  0.00    -0.251 C  
BRANCH  13  14
HETATM   14  C   UNL     1     -11.045  12.463  66.803  1.00  0.00    -0.285 C  
HETATM   15  O   UNL     1     -12.110  12.244  65.833  1.00  0.00    -0.609 OA 
HETATM   16  O   UNL     1     -13.344  14.076  65.175  1.00  0.00    -0.703 OA 
HETATM   17  C   UNL     1     -11.389  13.978  66.826  1.00  0.00    -0.346 C  
HETATM   18  C   UNL     1     -12.464  13.548  65.812  1.00  0.00    -0.462 C  
BRANCH  17  19
HETATM   19  C   UNL     1     -11.959  14.615  68.090  1.00  0.00    -0.281 C  
BRANCH  19  20
HETATM   20  C   UNL     1     -11.479  13.868  69.330  1.00  0.00    -0.334 C  
BRANCH  20  21
HETATM   21  C   UNL     1     -12.407  14.111  70.524  1.00  0.00    -0.434 C  
BRANCH  21  22
HETATM   22  C   UNL     1     -12.479  15.598  70.873  1.00  0.00    -0.497 C  
BRANCH  22  23
HETATM   23  C   UNL     1     -11.848  15.893  72.234  1.00  0.00    -0.617 C  
HETATM   24  C   UNL     1     -12.702  15.340  73.367  1.00  0.00    -0.661 C  
ENDBRANCH  22  23
ENDBRANCH  21  22
ENDBRANCH  20  21
ENDBRANCH  19  20
ENDBRANCH  17  19
ENDBRANCH  13  14
ENDBRANCH  12  13
BRANCH  12  25
HETATM   25  O   UNL     1      -8.446  13.854  67.353  1.00  0.00    -0.178 OA 
BRANCH  25  26
HETATM   26  C   UNL     1      -7.220  14.437  67.456  1.00  0.00    -0.180 C  
HETATM   27  O   UNL     1      -6.139  13.866  67.357  1.00  0.00    -0.345 OA 
BRANCH  26  28
HETATM   28  C   UNL     1      -7.350  15.938  67.697  1.00  0.00    -0.157 C  
BRANCH  28  29
HETATM   29  C   UNL     1      -6.825  16.345  69.083  1.00  0.00    -0.210 C  
HETATM   30  C   UNL     1      -6.722  18.910  68.824  1.00  0.00    -0.304 C  
HETATM   31  C   UNL     1      -5.373  17.753  70.563  1.00  0.00    -0.270 C  
HETATM   32  C   UNL     1      -5.961  17.625  69.154  1.00  0.00    -0.212 C  
ENDBRANCH  28  29
BRANCH  28  33
HETATM   33  N   UNL     1      -8.740  16.332  67.470  1.00  0.00    -0.180 N  
HETATM   34  C   UNL     1      -9.111  17.191  66.476  1.00  0.00    -0.269 C  
HETATM   35  O   UNL     1      -8.349  17.756  65.707  1.00  0.00    -0.529 OA 
HETATM   36  H   UNL     1      -9.463  15.948  68.081  1.00  0.00     0.000 HD 
ENDBRANCH  28  33
ENDBRANCH  26  28
ENDBRANCH  25  26
ENDBRANCH  12  25
ENDBRANCH  11  12
ENDBRANCH  10  11
ENDBRANCH   9  10
ENDBRANCH   8   9
ENDBRANCH   7   8
ENDBRANCH   6   7
ENDBRANCH   5   6
ENDBRANCH   4   5
ENDBRANCH   3   4
ENDBRANCH   2   3
TORSDOF 22
ENDMDL
MODEL       10
REMARK 921   NORMALIZED FREE ENERGY PREDICTED BY IDOCK:   -5.13 KCAL/MOL
REMARK 922        TOTAL FREE ENERGY PREDICTED BY IDOCK:  -15.35 KCAL/MOL
REMARK 923 INTER-LIGAND FREE ENERGY PREDICTED BY IDOCK:  -11.41 KCAL/MOL
REMARK 924 INTRA-LIGAND FREE ENERGY PREDICTED BY IDOCK:   -3.95 KCAL/MOL
REMARK 927      BINDING AFFINITY PREDICTED BY RF-SCORE:    0.00 PKD
ROOT
HETATM    1  C   UNL     1      -7.725  19.953  65.901  1.00  0.00    -0.327 C  
HETATM    2  C   UNL     1      -8.021  20.535  67.273  1.00  0.00    -0.361 C  
ENDROOT
BRANCH   2   3
HETATM    3  C   UNL     1      -8.934  19.609  68.070  1.00  0.00    -0.381 C  
BRANCH   3   4
HETATM    4  C   UNL     1     -10.186  19.233  67.283  1.00  0.00    -0.512 C  
BRANCH   4   5
HETATM    5  C   UNL     1     -10.446  17.727  67.363  1.00  0.00    -0.367 C  
BRANCH   5   6
HETATM    6  C   UNL     1      -9.804  17.010  66.182  1.00  0.00    -0.297 C  
BRANCH   6   7
HETATM    7  C   UNL     1      -8.696  16.048  66.616  1.00  0.00    -0.309 C  
BRANCH   7   8
HETATM    8  C   UNL     1      -8.671  15.994  68.139  1.00  0.00    -0.173 C  
BRANCH   8   9
HETATM    9  C   UNL     1      -7.999  14.747  68.705  1.00  0.00    -0.143 C  
BRANCH   9  10
HETATM   10  C   UNL     1      -8.130  13.622  67.674  1.00  0.00    -0.179 C  
BRANCH  10  11
HETATM   11  C   UNL     1      -8.092  12.225  68.273  1.00  0.00    -0.166 C  
BRANCH  11  12
HETATM   12  C   UNL     1      -9.359  11.369  68.094  1.00  0.00    -0.181 C  
BRANCH  12  13
HETATM   13  C   UNL     1     -10.137  11.607  66.781  1.00  0.00    -0.242 C  
BRANCH  13  14
HETATM   14  C   UNL     1     -11.509  12.264  66.968  1.00  0.00    -0.354 C  
HETATM   15  O   UNL     1     -12.333  12.185  65.770  1.00  0.00    -0.564 OA 
HETATM   16  O   UNL     1     -12.989  14.168  64.795  1.00  0.00    -0.674 OA 
HETATM   17  C   UNL     1     -11.544  13.816  66.879  1.00  0.00    -0.394 C  
HETATM   18  C   UNL     1     -12.409  13.528  65.639  1.00  0.00    -0.476 C  
BRANCH  17  19
HETATM   19  C   UNL     1     -12.264  14.628  67.951  1.00  0.00    -0.087 C  
BRANCH  19  20
HETATM   20  C   UNL     1     -11.678  14.335  69.330  1.00  0.00    -0.363 C  
BRANCH  20  21
HETATM   21  C   UNL     1     -12.251  15.278  70.392  1.00  0.00    -0.404 C  
BRANCH  21  22
HETATM   22  C   UNL     1     -11.637  14.999  71.766  1.00  0.00    -0.425 C  
BRANCH  22  23
HETATM   23  C   UNL     1     -12.708  14.836  72.844  1.00  0.00    -0.521 C  
HETATM   24  C   UNL     1     -14.059  15.341  72.356  1.00  0.00    -0.622 C  
ENDBRANCH  22  23
ENDBRANCH  21  22
ENDBRANCH  20  21
ENDBRANCH  19  20
ENDBRANCH  17  19
ENDBRANCH  13  14
ENDBRANCH  12  13
BRANCH  12  25
HETATM   25  O   UNL     1      -9.039   9.960  68.155  1.00  0.00    -0.122 OA 
BRANCH  25  26
HETATM   26  C   UNL     1     -10.037   9.104  68.511  1.00  0.00    -0.191 C  
HETATM   27  O   UNL     1     -10.795   8.522  67.743  1.00  0.00    -0.148 OA 
BRANCH  26  28
HETATM   28  C   UNL     1     -10.092   8.933  70.026  1.00  0.00    -0.192 C  
BRANCH  28  29
HETATM   29  C   UNL     1     -10.886  10.062  70.703  1.00  0.00    -0.367 C  
HETATM   30  C   UNL     1     -12.390   8.700  72.299  1.00  0.00    -0.449 C  
HETATM   31  C   UNL     1     -13.013  11.011  71.626  1.00  0.00    -0.561 C  
HETATM   32  C   UNL     1     -12.322   9.724  71.164  1.00  0.00    -0.451 C  
ENDBRANCH  28  29
BRANCH  28  33
HETATM   33  N   UNL     1      -8.727   8.805  70.534  1.00  0.00    -0.158 N  
HETATM   34  C   UNL     1      -8.392   7.952  71.547  1.00  0.00    -0.113 C  
HETATM   35  O   UNL     1      -9.175   7.247  72.166  1.00  0.00    -0.132 OA 
HETATM   36  H   UNL     1      -7.993   9.377  70.114  1.00  0.00     0.000 HD 
ENDBRANCH  28  33
ENDBRANCH  26  28
ENDBRANCH  25  26
ENDBRANCH  12  25
ENDBRANCH  11  12
ENDBRANCH  10  11
ENDBRANCH   9  10
ENDBRANCH   8   9
ENDBRANCH   7   8
ENDBRANCH   6   7
ENDBRANCH   5   6
ENDBRANCH   4   5
ENDBRANCH   3   4
ENDBRANCH   2   3
TORSDOF 22
ENDMDL
MODEL       11
REMARK 921   NORMALIZED FREE ENERGY PREDICTED BY IDOCK:   -5.11 KCAL/MOL
REMARK 922        TOTAL FREE ENERGY PREDICTED BY IDOCK:  -15.29 KCAL/MOL
REMARK 923 INTER-LIGAND FREE ENERGY PREDICTED BY IDOCK:  -11.92 KCAL/MOL
REMARK 924 INTRA-LIGAND FREE ENERGY PREDICTED BY IDOCK:   -3.37 KCAL/MOL
REMARK 927      BINDING AFFINITY PREDICTED BY RF-SCORE:    0.00 PKD
ROOT
HETATM    1  C   UNL     1      -8.348   8.017  64.833  1.00  0.00    -0.108 C  
HETATM    2  C   UNL     1      -9.153   9.057  65.595  1.00  0.00    -0.278 C  
ENDROOT
BRANCH   2   3
HETATM    3  C   UNL     1      -9.237  10.362  64.808  1.00  0.00    -0.273 C  
BRANCH   3   4
HETATM    4  C   UNL     1     -10.676  10.852  64.677  1.00  0.00    -0.254 C  
BRANCH   4   5
HETATM    5  C   UNL     1     -10.835  11.744  63.444  1.00  0.00    -0.460 C  
BRANCH   5   6
HETATM    6  C   UNL     1     -11.890  12.814  63.692  1.00  0.00    -0.603 C  
BRANCH   6   7
HETATM    7  C   UNL     1     -12.175  13.019  65.181  1.00  0.00    -0.507 C  
BRANCH   7   8
HETATM    8  C   UNL     1     -11.673  14.400  65.585  1.00  0.00    -0.356 C  
BRANCH   8   9
HETATM    9  C   UNL     1     -10.183  14.448  65.910  1.00  0.00    -0.341 C  
BRANCH   9  10
HETATM   10  C   UNL     1      -9.943  15.604  66.885  1.00  0.00    -0.252 C  
BRANCH  10  11
HETATM   11  C   UNL     1     -11.202  16.107  67.575  1.00  0.00    -0.094 C  
BRANCH  11  12
HETATM   12  C   UNL     1     -10.995  17.025  68.792  1.00  0.00    -0.180 C  
BRANCH  12  13
HETATM   13  C   UNL     1     -11.230  16.362  70.168  1.00  0.00    -0.260 C  
BRANCH  13  14
HETATM   14  C   UNL     1     -12.297  15.261  70.165  1.00  0.00    -0.353 C  
HETATM   15  O   UNL     1     -13.375  15.528  71.107  1.00  0.00    -0.500 OA 
HETATM   16  O   UNL     1     -13.705  14.007  72.807  1.00  0.00    -0.660 OA 
HETATM   17  C   UNL     1     -11.947  13.964  70.946  1.00  0.00    -0.310 C  
HETATM   18  C   UNL     1     -13.128  14.411  71.827  1.00  0.00    -0.354 C  
BRANCH  17  19
HETATM   19  C   UNL     1     -12.151  12.599  70.296  1.00  0.00    -0.372 C  
BRANCH  19  20
HETATM   20  C   UNL     1     -11.428  12.531  68.954  1.00  0.00    -0.355 C  
BRANCH  20  21
HETATM   21  C   UNL     1     -11.551  11.141  68.323  1.00  0.00    -0.359 C  
BRANCH  21  22
HETATM   22  C   UNL     1     -11.034  10.057  69.271  1.00  0.00    -0.264 C  
BRANCH  22  23
HETATM   23  C   UNL     1      -9.507   9.984  69.272  1.00  0.00    -0.227 C  
HETATM   24  C   UNL     1      -8.994   9.217  70.484  1.00  0.00    -0.296 C  
ENDBRANCH  22  23
ENDBRANCH  21  22
ENDBRANCH  20  21
ENDBRANCH  19  20
ENDBRANCH  17  19
ENDBRANCH  13  14
ENDBRANCH  12  13
BRANCH  12  25
HETATM   25  O   UNL     1      -9.655  17.570  68.802  1.00  0.00    -0.291 OA 
BRANCH  25  26
HETATM   26  C   UNL     1      -9.530  18.926  68.824  1.00  0.00    -0.358 C  
HETATM   27  O   UNL     1     -10.130  19.694  69.568  1.00  0.00    -0.326 OA 
BRANCH  26  28
HETATM   28  C   UNL     1      -8.505  19.394  67.795  1.00  0.00    -0.310 C  
BRANCH  28  29
HETATM   29  C   UNL     1      -7.229  19.934  68.460  1.00  0.00    -0.331 C  
HETATM   30  C   UNL     1      -5.999  17.730  68.998  1.00  0.00    -0.201 C  
HETATM   31  C   UNL     1      -5.446  19.825  70.217  1.00  0.00    -0.274 C  
HETATM   32  C   UNL     1      -6.573  19.041  69.538  1.00  0.00    -0.280 C  
ENDBRANCH  28  29
BRANCH  28  33
HETATM   33  N   UNL     1      -9.142  20.362  66.903  1.00  0.00    -0.528 N  
HETATM   34  C   UNL     1     -10.069  20.004  65.966  1.00  0.00    -0.450 C  
HETATM   35  O   UNL     1     -10.434  18.862  65.732  1.00  0.00    -0.554 OA 
HETATM   36  H   UNL     1      -8.884  21.346  66.985  1.00  0.00     0.000 HD 
ENDBRANCH  28  33
ENDBRANCH  26  28
ENDBRANCH  25  26
ENDBRANCH  12  25
ENDBRANCH  11  12
ENDBRANCH  10  11
ENDBRANCH   9  10
ENDBRANCH   8   9
ENDBRANCH   7   8
ENDBRANCH   6   7
ENDBRANCH   5   6
ENDBRANCH   4   5
ENDBRANCH   3   4
ENDBRANCH   2   3
TORSDOF 22
ENDMDL
MODEL       12
REMARK 921   NORMALIZED FREE ENERGY PREDICTED BY IDOCK:   -5.07 KCAL/MOL
REMARK 922        TOTAL FREE ENERGY PREDICTED BY IDOCK:  -15.21 KCAL/MOL
REMARK 923 INTER-LIGAND FREE ENERGY PREDICTED BY IDOCK:  -12.20 KCAL/MOL
REMARK 924 INTRA-LIGAND FREE ENERGY PREDICTED BY IDOCK:   -3.01 KCAL/MOL
REMARK 927      BINDING AFFINITY PREDICTED BY RF-SCORE:    0.00 PKD
ROOT
HETATM    1  C   UNL     1      -7.911   8.356  64.021  1.00  0.00    -0.146 C  
HETATM    2  C   UNL     1      -8.578   9.148  65.133  1.00  0.00    -0.200 C  
ENDROOT
BRANCH   2   3
HETATM    3  C   UNL     1      -8.828  10.589  64.699  1.00  0.00    -0.211 C  
BRANCH   3   4
HETATM    4  C   UNL     1     -10.318  10.898  64.595  1.00  0.00    -0.407 C  
BRANCH   4   5
HETATM    5  C   UNL     1     -10.612  11.747  63.357  1.00  0.00    -0.479 C  
BRANCH   5   6
HETATM    6  C   UNL     1     -11.997  12.373  63.454  1.00  0.00    -0.595 C  
BRANCH   6   7
HETATM    7  C   UNL     1     -12.548  12.353  64.881  1.00  0.00    -0.372 C  
BRANCH   7   8
HETATM    8  C   UNL     1     -12.631  13.788  65.388  1.00  0.00    -0.534 C  
BRANCH   8   9
HETATM    9  C   UNL     1     -12.083  14.824  64.412  1.00  0.00    -0.457 C  
BRANCH   9  10
HETATM   10  C   UNL     1     -10.854  15.480  65.050  1.00  0.00    -0.468 C  
BRANCH  10  11
HETATM   11  C   UNL     1     -10.940  15.619  66.562  1.00  0.00    -0.206 C  
BRANCH  11  12
HETATM   12  C   UNL     1      -9.701  15.175  67.361  1.00  0.00    -0.209 C  
BRANCH  12  13
HETATM   13  C   UNL     1      -9.260  13.711  67.137  1.00  0.00    -0.244 C  
BRANCH  13  14
HETATM   14  C   UNL     1      -9.606  12.763  68.291  1.00  0.00    -0.211 C  
HETATM   15  O   UNL     1      -9.199  11.390  68.025  1.00  0.00    -0.159 OA 
HETATM   16  O   UNL     1     -10.849   9.783  67.961  1.00  0.00    -0.250 OA 
HETATM   17  C   UNL     1     -11.086  12.298  68.377  1.00  0.00    -0.283 C  
HETATM   18  C   UNL     1     -10.464  10.919  68.093  1.00  0.00    -0.182 C  
BRANCH  17  19
HETATM   19  C   UNL     1     -11.836  12.370  69.704  1.00  0.00    -0.380 C  
BRANCH  19  20
HETATM   20  C   UNL     1     -12.110  13.821  70.088  1.00  0.00    -0.429 C  
BRANCH  20  21
HETATM   21  C   UNL     1     -12.849  13.915  71.425  1.00  0.00    -0.439 C  
BRANCH  21  22
HETATM   22  C   UNL     1     -13.577  15.254  71.560  1.00  0.00    -0.593 C  
BRANCH  22  23
HETATM   23  C   UNL     1     -13.556  15.770  72.999  1.00  0.00    -0.638 C  
HETATM   24  C   UNL     1     -12.334  15.255  73.748  1.00  0.00    -0.731 C  
ENDBRANCH  22  23
ENDBRANCH  21  22
ENDBRANCH  20  21
ENDBRANCH  19  20
ENDBRANCH  17  19
ENDBRANCH  13  14
ENDBRANCH  12  13
BRANCH  12  25
HETATM   25  O   UNL     1      -8.565  16.017  67.056  1.00  0.00    -0.180 OA 
BRANCH  25  26
HETATM   26  C   UNL     1      -8.095  16.821  68.050  1.00  0.00    -0.187 C  
HETATM   27  O   UNL     1      -7.851  16.476  69.201  1.00  0.00    -0.239 OA 
BRANCH  26  28
HETATM   28  C   UNL     1      -7.881  18.244  67.543  1.00  0.00    -0.227 C  
BRANCH  28  29
HETATM   29  C   UNL     1      -7.319  19.165  68.638  1.00  0.00    -0.365 C  
HETATM   30  C   UNL     1      -6.382  21.097  67.205  1.00  0.00    -0.425 C  
HETATM   31  C   UNL     1      -5.563  20.718  69.522  1.00  0.00    -0.406 C  
HETATM   32  C   UNL     1      -6.093  20.028  68.261  1.00  0.00    -0.291 C  
ENDBRANCH  28  29
BRANCH  28  33
HETATM   33  N   UNL     1      -9.134  18.732  66.968  1.00  0.00    -0.284 N  
HETATM   34  C   UNL     1     -10.195  19.123  67.734  1.00  0.00    -0.403 C  
HETATM   35  O   UNL     1     -10.245  19.071  68.954  1.00  0.00    -0.370 OA 
HETATM   36  H   UNL     1      -9.220  18.782  65.953  1.00  0.00     0.000 HD 
ENDBRANCH  28  33
ENDBRANCH  26  28
ENDBRANCH  25  26
ENDBRANCH  12  25
ENDBRANCH  11  12
ENDBRANCH  10  11
ENDBRANCH   9  10
ENDBRANCH   8   9
ENDBRANCH   7   8
ENDBRANCH   6   7
ENDBRANCH   5   6
ENDBRANCH   4   5
ENDBRANCH   3   4
ENDBRANCH   2   3
TORSDOF 22
ENDMDL
MODEL       13
REMARK 921   NORMALIZED FREE ENERGY PREDICTED BY IDOCK:   -5.06 KCAL/MOL
REMARK 922        TOTAL FREE ENERGY PREDICTED BY IDOCK:  -15.19 KCAL/MOL
REMARK 923 INTER-LIGAND FREE ENERGY PREDICTED BY IDOCK:  -10.66 KCAL/MOL
REMARK 924 INTRA-LIGAND FREE ENERGY PREDICTED BY IDOCK:   -4.52 KCAL/MOL
REMARK 927      BINDING AFFINITY PREDICTED BY RF-SCORE:    0.00 PKD
ROOT
HETATM    1  C   UNL     1     -11.088   6.289  68.462  1.00  0.00    -0.397 C  
HETATM    2  C   UNL     1     -10.595   6.105  69.888  1.00  0.00    -0.328 C  
ENDROOT
BRANCH   2   3
HETATM    3  C   UNL     1     -11.660   6.539  70.891  1.00  0.00    -0.417 C  
BRANCH   3   4
HETATM    4  C   UNL     1     -11.046   7.221  72.109  1.00  0.00    -0.281 C  
BRANCH   4   5
HETATM    5  C   UNL     1     -11.878   8.435  72.529  1.00  0.00    -0.427 C  
BRANCH   5   6
HETATM    6  C   UNL     1     -12.517   9.091  71.313  1.00  0.00    -0.346 C  
BRANCH   6   7
HETATM    7  C   UNL     1     -11.814  10.390  70.913  1.00  0.00    -0.475 C  
BRANCH   7   8
HETATM    8  C   UNL     1     -11.059  10.151  69.611  1.00  0.00    -0.308 C  
BRANCH   8   9
HETATM    9  C   UNL     1      -9.569   9.883  69.797  1.00  0.00    -0.261 C  
BRANCH   9  10
HETATM   10  C   UNL     1      -8.996   9.411  68.458  1.00  0.00    -0.128 C  
BRANCH  10  11
HETATM   11  C   UNL     1      -9.731   9.955  67.242  1.00  0.00    -0.213 C  
BRANCH  11  12
HETATM   12  C   UNL     1      -9.010  11.054  66.442  1.00  0.00    -0.181 C  
BRANCH  12  13
HETATM   13  C   UNL     1      -9.666  11.429  65.095  1.00  0.00    -0.280 C  
BRANCH  13  14
HETATM   14  C   UNL     1     -11.139  11.845  65.203  1.00  0.00    -0.305 C  
HETATM   15  O   UNL     1     -11.811  11.853  63.911  1.00  0.00    -0.412 OA 
HETATM   16  O   UNL     1     -12.672  13.859  63.172  1.00  0.00    -0.718 OA 
HETATM   17  C   UNL     1     -11.413  13.368  65.346  1.00  0.00    -0.322 C  
HETATM   18  C   UNL     1     -12.087  13.174  63.976  1.00  0.00    -0.446 C  
BRANCH  17  19
HETATM   19  C   UNL     1     -12.359  13.878  66.428  1.00  0.00    -0.468 C  
BRANCH  19  20
HETATM   20  C   UNL     1     -11.999  13.276  67.783  1.00  0.00    -0.356 C  
BRANCH  20  21
HETATM   21  C   UNL     1     -11.895  14.356  68.864  1.00  0.00    -0.355 C  
BRANCH  21  22
HETATM   22  C   UNL     1     -12.456  13.858  70.197  1.00  0.00    -0.355 C  
BRANCH  22  23
HETATM   23  C   UNL     1     -11.966  14.705  71.372  1.00  0.00    -0.405 C  
HETATM   24  C   UNL     1     -11.173  15.910  70.886  1.00  0.00    -0.389 C  
ENDBRANCH  22  23
ENDBRANCH  21  22
ENDBRANCH  20  21
ENDBRANCH  19  20
ENDBRANCH  17  19
ENDBRANCH  13  14
ENDBRANCH  12  13
BRANCH  12  25
HETATM   25  O   UNL     1      -8.903  12.269  67.221  1.00  0.00    -0.174 OA 
BRANCH  25  26
HETATM   26  C   UNL     1      -7.662  12.812  67.367  1.00  0.00    -0.165 C  
HETATM   27  O   UNL     1      -6.597  12.246  67.149  1.00  0.00    -0.151 OA 
BRANCH  26  28
HETATM   28  C   UNL     1      -7.756  14.263  67.830  1.00  0.00    -0.152 C  
BRANCH  28  29
HETATM   29  C   UNL     1      -8.587  15.121  66.864  1.00  0.00    -0.289 C  
HETATM   30  C   UNL     1      -8.823  17.295  68.235  1.00  0.00    -0.258 C  
HETATM   31  C   UNL     1     -10.415  16.771  66.399  1.00  0.00    -0.269 C  
HETATM   32  C   UNL     1      -9.539  16.162  67.498  1.00  0.00    -0.229 C  
ENDBRANCH  28  29
BRANCH  28  33
HETATM   33  N   UNL     1      -6.403  14.778  68.039  1.00  0.00    -0.140 N  
HETATM   34  C   UNL     1      -5.894  15.035  69.280  1.00  0.00    -0.103 C  
HETATM   35  O   UNL     1      -6.501  14.916  70.333  1.00  0.00    -0.158 OA 
HETATM   36  H   UNL     1      -5.815  14.952  67.223  1.00  0.00     0.000 HD 
ENDBRANCH  28  33
ENDBRANCH  26  28
ENDBRANCH  25  26
ENDBRANCH  12  25
ENDBRANCH  11  12
ENDBRANCH  10  11
ENDBRANCH   9  10
ENDBRANCH   8   9
ENDBRANCH   7   8
ENDBRANCH   6   7
ENDBRANCH   5   6
ENDBRANCH   4   5
ENDBRANCH   3   4
ENDBRANCH   2   3
TORSDOF 22
ENDMDL
MODEL       14
REMARK 921   NORMALIZED FREE ENERGY PREDICTED BY IDOCK:   -5.05 KCAL/MOL
REMARK 922        TOTAL FREE ENERGY PREDICTED BY IDOCK:  -15.17 KCAL/MOL
REMARK 923 INTER-LIGAND FREE ENERGY PREDICTED BY IDOCK:  -11.55 KCAL/MOL
REMARK 924 INTRA-LIGAND FREE ENERGY PREDICTED BY IDOCK:   -3.62 KCAL/MOL
REMARK 927      BINDING AFFINITY PREDICTED BY RF-SCORE:    0.00 PKD
ROOT
HETATM    1  C   UNL     1     -10.286  17.580  68.870  1.00  0.00    -0.338 C  
HETATM    2  C   UNL     1     -10.361  16.223  69.551  1.00  0.00    -0.284 C  
ENDROOT
BRANCH   2   3
HETATM    3  C   UNL     1     -11.793  15.904  69.969  1.00  0.00    -0.322 C  
BRANCH   3   4
HETATM    4  C   UNL     1     -12.009  16.123  71.464  1.00  0.00    -0.490 C  
BRANCH   4   5
HETATM    5  C   UNL     1     -13.356  15.550  71.908  1.00  0.00    -0.569 C  
BRANCH   5   6
HETATM    6  C   UNL     1     -13.153  14.298  72.751  1.00  0.00    -0.589 C  
BRANCH   6   7
HETATM    7  C   UNL     1     -13.768  13.055  72.107  1.00  0.00    -0.547 C  
BRANCH   7   8
HETATM    8  C   UNL     1     -12.786  12.506  71.078  1.00  0.00    -0.316 C  
BRANCH   8   9
HETATM    9  C   UNL     1     -12.459  11.028  71.258  1.00  0.00    -0.475 C  
BRANCH   9  10
HETATM   10  C   UNL     1     -12.285  10.402  69.871  1.00  0.00    -0.215 C  
BRANCH  10  11
HETATM   11  C   UNL     1     -11.760  11.366  68.818  1.00  0.00    -0.404 C  
BRANCH  11  12
HETATM   12  C   UNL     1     -10.685  10.815  67.863  1.00  0.00    -0.239 C  
BRANCH  12  13
HETATM   13  C   UNL     1     -10.764  11.334  66.410  1.00  0.00    -0.320 C  
BRANCH  13  14
HETATM   14  C   UNL     1     -11.597  12.610  66.239  1.00  0.00    -0.386 C  
HETATM   15  O   UNL     1     -12.644  12.461  65.238  1.00  0.00    -0.636 OA 
HETATM   16  O   UNL     1     -12.566  13.849  63.400  1.00  0.00    -0.853 OA 
HETATM   17  C   UNL     1     -10.954  13.739  65.386  1.00  0.00    -0.309 C  
HETATM   18  C   UNL     1     -12.141  13.439  64.452  1.00  0.00    -0.416 C  
BRANCH  17  19
HETATM   19  C   UNL     1     -10.933  15.173  65.905  1.00  0.00    -0.339 C  
BRANCH  19  20
HETATM   20  C   UNL     1      -9.544  15.783  65.739  1.00  0.00    -0.355 C  
BRANCH  20  21
HETATM   21  C   UNL     1      -8.519  15.095  66.645  1.00  0.00    -0.230 C  
BRANCH  21  22
HETATM   22  C   UNL     1      -7.411  16.065  67.061  1.00  0.00    -0.264 C  
BRANCH  22  23
HETATM   23  C   UNL     1      -7.565  17.427  66.385  1.00  0.00    -0.342 C  
HETATM   24  C   UNL     1      -6.590  18.442  66.966  1.00  0.00    -0.202 C  
ENDBRANCH  22  23
ENDBRANCH  21  22
ENDBRANCH  20  21
ENDBRANCH  19  20
ENDBRANCH  17  19
ENDBRANCH  13  14
ENDBRANCH  12  13
BRANCH  12  25
HETATM   25  O   UNL     1      -9.359  11.117  68.356  1.00  0.00    -0.171 OA 
BRANCH  25  26
HETATM   26  C   UNL     1      -8.644  10.093  68.899  1.00  0.00    -0.141 C  
HETATM   27  O   UNL     1      -8.119  10.088  70.007  1.00  0.00    -0.180 OA 
BRANCH  26  28
HETATM   28  C   UNL     1      -8.586   8.903  67.945  1.00  0.00    -0.126 C  
BRANCH  28  29
HETATM   29  C   UNL     1      -9.037   7.600  68.624  1.00  0.00    -0.135 C  
HETATM   30  C   UNL     1     -10.997   6.914  67.091  1.00  0.00    -0.427 C  
HETATM   31  C   UNL     1     -10.825   6.030  69.408  1.00  0.00    -0.433 C  
HETATM   32  C   UNL     1     -10.536   7.239  68.513  1.00  0.00    -0.215 C  
ENDBRANCH  28  29
BRANCH  28  33
HETATM   33  N   UNL     1      -7.241   8.821  67.377  1.00  0.00    -0.080 N  
HETATM   34  C   UNL     1      -6.935   9.290  66.131  1.00  0.00    -0.086 C  
HETATM   35  O   UNL     1      -7.730   9.779  65.344  1.00  0.00    -0.113 OA 
HETATM   36  H   UNL     1      -6.500   8.395  67.935  1.00  0.00     0.000 HD 
ENDBRANCH  28  33
ENDBRANCH  26  28
ENDBRANCH  25  26
ENDBRANCH  12  25
ENDBRANCH  11  12
ENDBRANCH  10  11
ENDBRANCH   9  10
ENDBRANCH   8   9
ENDBRANCH   7   8
ENDBRANCH   6   7
ENDBRANCH   5   6
ENDBRANCH   4   5
ENDBRANCH   3   4
ENDBRANCH   2   3
TORSDOF 22
ENDMDL
MODEL       15
REMARK 921   NORMALIZED FREE ENERGY PREDICTED BY IDOCK:   -5.05 KCAL/MOL
REMARK 922        TOTAL FREE ENERGY PREDICTED BY IDOCK:  -15.16 KCAL/MOL
REMARK 923 INTER-LIGAND FREE ENERGY PREDICTED BY IDOCK:  -11.11 KCAL/MOL
REMARK 924 INTRA-LIGAND FREE ENERGY PREDICTED BY IDOCK:   -4.05 KCAL/MOL
REMARK 927      BINDING AFFINITY PREDICTED BY RF-SCORE:    0.00 PKD
ROOT
HETATM    1  C   UNL     1     -10.015  18.017  68.690  1.00  0.00    -0.396 C  
HETATM    2  C   UNL     1     -10.329  16.592  68.265  1.00  0.00    -0.293 C  
ENDROOT
BRANCH   2   3
HETATM    3  C   UNL     1     -10.522  15.692  69.482  1.00  0.00    -0.270 C  
BRANCH   3   4
HETATM    4  C   UNL     1     -11.918  15.842  70.080  1.00  0.00    -0.364 C  
BRANCH   4   5
HETATM    5  C   UNL     1     -11.854  15.861  71.609  1.00  0.00    -0.565 C  
BRANCH   5   6
HETATM    6  C   UNL     1     -13.210  15.507  72.205  1.00  0.00    -0.541 C  
BRANCH   6   7
HETATM    7  C   UNL     1     -13.167  14.218  73.028  1.00  0.00    -0.500 C  
BRANCH   7   8
HETATM    8  C   UNL     1     -13.876  13.119  72.245  1.00  0.00    -0.586 C  
BRANCH   8   9
HETATM    9  C   UNL     1     -12.972  11.955  71.853  1.00  0.00    -0.434 C  
BRANCH   9  10
HETATM   10  C   UNL     1     -12.335  12.278  70.498  1.00  0.00    -0.349 C  
BRANCH  10  11
HETATM   11  C   UNL     1     -12.339  11.115  69.518  1.00  0.00    -0.262 C  
BRANCH  11  12
HETATM   12  C   UNL     1     -11.278  11.156  68.403  1.00  0.00    -0.262 C  
BRANCH  12  13
HETATM   13  C   UNL     1     -10.581   9.810  68.104  1.00  0.00    -0.276 C  
BRANCH  13  14
HETATM   14  C   UNL     1      -9.809   9.221  69.290  1.00  0.00    -0.172 C  
HETATM   15  O   UNL     1      -8.600   9.972  69.597  1.00  0.00    -0.173 OA 
HETATM   16  O   UNL     1      -6.586   8.862  69.438  1.00  0.00    -0.044 OA 
HETATM   17  C   UNL     1      -8.942   7.966  68.989  1.00  0.00    -0.145 C  
HETATM   18  C   UNL     1      -7.790   8.918  69.357  1.00  0.00    -0.098 C  
BRANCH  17  19
HETATM   19  C   UNL     1      -9.033   6.738  69.889  1.00  0.00    -0.144 C  
BRANCH  19  20
HETATM   20  C   UNL     1     -10.378   6.041  69.711  1.00  0.00    -0.290 C  
BRANCH  20  21
HETATM   21  C   UNL     1     -11.198   6.069  71.005  1.00  0.00    -0.332 C  
BRANCH  21  22
HETATM   22  C   UNL     1     -12.406   6.998  70.873  1.00  0.00    -0.361 C  
BRANCH  22  23
HETATM   23  C   UNL     1     -12.262   8.244  71.747  1.00  0.00    -0.367 C  
HETATM   24  C   UNL     1     -11.145   8.073  72.768  1.00  0.00    -0.448 C  
ENDBRANCH  22  23
ENDBRANCH  21  22
ENDBRANCH  20  21
ENDBRANCH  19  20
ENDBRANCH  17  19
ENDBRANCH  13  14
ENDBRANCH  12  13
BRANCH  12  25
HETATM   25  O   UNL     1     -11.855  11.626  67.162  1.00  0.00    -0.608 OA 
BRANCH  25  26
HETATM   26  C   UNL     1     -11.457  12.846  66.708  1.00  0.00    -0.340 C  
HETATM   27  O   UNL     1     -12.045  13.908  66.884  1.00  0.00    -0.424 OA 
BRANCH  26  28
HETATM   28  C   UNL     1     -10.140  12.740  65.946  1.00  0.00    -0.276 C  
BRANCH  28  29
HETATM   29  C   UNL     1      -9.070  13.687  66.513  1.00  0.00    -0.138 C  
HETATM   30  C   UNL     1      -7.286  11.989  67.283  1.00  0.00    -0.150 C  
HETATM   31  C   UNL     1      -7.347  14.287  68.230  1.00  0.00    -0.124 C  
HETATM   32  C   UNL     1      -8.206  13.147  67.675  1.00  0.00    -0.175 C  
ENDBRANCH  28  29
BRANCH  28  33
HETATM   33  N   UNL     1     -10.401  12.953  64.523  1.00  0.00    -0.448 N  
HETATM   34  C   UNL     1     -10.371  11.940  63.607  1.00  0.00    -0.441 C  
HETATM   35  O   UNL     1     -10.085  10.777  63.846  1.00  0.00    -0.314 OA 
HETATM   36  H   UNL     1     -10.615  13.897  64.201  1.00  0.00     0.000 HD 
ENDBRANCH  28  33
ENDBRANCH  26  28
ENDBRANCH  25  26
ENDBRANCH  12  25
ENDBRANCH  11  12
ENDBRANCH  10  11
ENDBRANCH   9  10
ENDBRANCH   8   9
ENDBRANCH   7   8
ENDBRANCH   6   7
ENDBRANCH   5   6
ENDBRANCH   4   5
ENDBRANCH   3   4
ENDBRANCH   2   3
TORSDOF 22
ENDMDL
MODEL       16
REMARK 921   NORMALIZED FREE ENERGY PREDICTED BY IDOCK:   -5.03 KCAL/MOL
REMARK 922        TOTAL FREE ENERGY PREDICTED BY IDOCK:  -15.11 KCAL/MOL
REMARK 923 INTER-LIGAND FREE ENERGY PREDICTED BY IDOCK:  -12.79 KCAL/MOL
REMARK 924 INTRA-LIGAND FREE ENERGY PREDICTED BY IDOCK:   -2.32 KCAL/MOL
REMARK 927      BINDING AFFINITY PREDICTED BY RF-SCORE:    0.00 PKD
ROOT
HETATM    1  C   UNL     1     -10.653   7.634  67.223  1.00  0.00    -0.388 C  
HETATM    2  C   UNL     1      -9.537   8.313  66.445  1.00  0.00    -0.300 C  
ENDROOT
BRANCH   2   3
HETATM    3  C   UNL     1      -9.822   9.802  66.277  1.00  0.00    -0.315 C  
BRANCH   3   4
HETATM    4  C   UNL     1     -10.821  10.308  67.313  1.00  0.00    -0.312 C  
BRANCH   4   5
HETATM    5  C   UNL     1     -11.191  11.768  67.042  1.00  0.00    -0.382 C  
BRANCH   5   6
HETATM    6  C   UNL     1     -11.009  12.101  65.567  1.00  0.00    -0.343 C  
BRANCH   6   7
HETATM    7  C   UNL     1     -12.216  12.835  64.981  1.00  0.00    -0.527 C  
BRANCH   7   8
HETATM    8  C   UNL     1     -11.957  14.335  65.062  1.00  0.00    -0.412 C  
BRANCH   8   9
HETATM    9  C   UNL     1     -10.484  14.717  64.954  1.00  0.00    -0.398 C  
BRANCH   9  10
HETATM   10  C   UNL     1     -10.149  15.665  66.110  1.00  0.00    -0.333 C  
BRANCH  10  11
HETATM   11  C   UNL     1     -11.046  15.500  67.327  1.00  0.00    -0.271 C  
BRANCH  11  12
HETATM   12  C   UNL     1     -11.011  16.640  68.362  1.00  0.00    -0.345 C  
BRANCH  12  13
HETATM   13  C   UNL     1     -11.147  16.198  69.836  1.00  0.00    -0.357 C  
BRANCH  13  14
HETATM   14  C   UNL     1     -12.327  15.258  70.109  1.00  0.00    -0.353 C  
HETATM   15  O   UNL     1     -13.247  15.793  71.102  1.00  0.00    -0.526 OA 
HETATM   16  O   UNL     1     -13.547  14.581  73.039  1.00  0.00    -0.586 OA 
HETATM   17  C   UNL     1     -12.039  14.047  71.040  1.00  0.00    -0.383 C  
HETATM   18  C   UNL     1     -13.047  14.765  71.956  1.00  0.00    -0.337 C  
BRANCH  17  19
HETATM   19  C   UNL     1     -12.476  12.645  70.630  1.00  0.00    -0.323 C  
BRANCH  19  20
HETATM   20  C   UNL     1     -13.242  11.969  71.764  1.00  0.00    -0.421 C  
BRANCH  20  21
HETATM   21  C   UNL     1     -13.020  10.454  71.763  1.00  0.00    -0.580 C  
BRANCH  21  22
HETATM   22  C   UNL     1     -11.972  10.050  70.725  1.00  0.00    -0.426 C  
BRANCH  22  23
HETATM   23  C   UNL     1     -10.873   9.180  71.337  1.00  0.00    -0.419 C  
HETATM   24  C   UNL     1      -9.540   9.408  70.638  1.00  0.00    -0.331 C  
ENDBRANCH  22  23
ENDBRANCH  21  22
ENDBRANCH  20  21
ENDBRANCH  19  20
ENDBRANCH  17  19
ENDBRANCH  13  14
ENDBRANCH  12  13
BRANCH  12  25
HETATM   25  O   UNL     1      -9.783  17.396  68.251  1.00  0.00    -0.274 OA 
BRANCH  25  26
HETATM   26  C   UNL     1      -9.884  18.708  67.903  1.00  0.00    -0.329 C  
HETATM   27  O   UNL     1     -10.907  19.284  67.550  1.00  0.00    -0.473 OA 
BRANCH  26  28
HETATM   28  C   UNL     1      -8.534  19.409  68.026  1.00  0.00    -0.320 C  
BRANCH  28  29
HETATM   29  C   UNL     1      -8.046  19.957  66.675  1.00  0.00    -0.351 C  
HETATM   30  C   UNL     1      -6.830  17.886  65.728  1.00  0.00    -0.251 C  
HETATM   31  C   UNL     1      -6.311  20.165  64.880  1.00  0.00    -0.329 C  
HETATM   32  C   UNL     1      -6.733  19.363  66.115  1.00  0.00    -0.235 C  
ENDBRANCH  28  29
BRANCH  28  33
HETATM   33  N   UNL     1      -7.583  18.491  68.652  1.00  0.00    -0.304 N  
HETATM   34  C   UNL     1      -6.582  18.915  69.478  1.00  0.00    -0.226 C  
HETATM   35  O   UNL     1      -6.335  20.079  69.751  1.00  0.00    -0.337 OA 
HETATM   36  H   UNL     1      -7.672  17.492  68.464  1.00  0.00     0.000 HD 
ENDBRANCH  28  33
ENDBRANCH  26  28
ENDBRANCH  25  26
ENDBRANCH  12  25
ENDBRANCH  11  12
ENDBRANCH  10  11
ENDBRANCH   9  10
ENDBRANCH   8   9
ENDBRANCH   7   8
ENDBRANCH   6   7
ENDBRANCH   5   6
ENDBRANCH   4   5
ENDBRANCH   3   4
ENDBRANCH   2   3
TORSDOF 22
ENDMDL
MODEL       17
REMARK 921   NORMALIZED FREE ENERGY PREDICTED BY IDOCK:   -5.03 KCAL/MOL
REMARK 922        TOTAL FREE ENERGY PREDICTED BY IDOCK:  -15.11 KCAL/MOL
REMARK 923 INTER-LIGAND FREE ENERGY PREDICTED BY IDOCK:  -11.27 KCAL/MOL
REMARK 924 INTRA-LIGAND FREE ENERGY PREDICTED BY IDOCK:   -3.83 KCAL/MOL
REMARK 927      BINDING AFFINITY PREDICTED BY RF-SCORE:    0.00 PKD
ROOT
HETATM    1  C   UNL     1     -10.225  11.054  63.237  1.00  0.00    -0.360 C  
HETATM    2  C   UNL     1      -9.337   9.979  63.841  1.00  0.00    -0.315 C  
ENDROOT
BRANCH   2   3
HETATM    3  C   UNL     1      -9.435   9.987  65.364  1.00  0.00    -0.310 C  
BRANCH   3   4
HETATM    4  C   UNL     1      -8.807   8.739  65.978  1.00  0.00    -0.210 C  
BRANCH   4   5
HETATM    5  C   UNL     1      -8.596   8.922  67.482  1.00  0.00    -0.120 C  
BRANCH   5   6
HETATM    6  C   UNL     1      -7.111   8.901  67.820  1.00  0.00    -0.079 C  
BRANCH   6   7
HETATM    7  C   UNL     1      -6.679  10.126  68.627  1.00  0.00    -0.057 C  
BRANCH   7   8
HETATM    8  C   UNL     1      -6.942  11.374  67.792  1.00  0.00    -0.076 C  
BRANCH   8   9
HETATM    9  C   UNL     1      -7.255  12.618  68.617  1.00  0.00    -0.108 C  
BRANCH   9  10
HETATM   10  C   UNL     1      -8.716  13.005  68.365  1.00  0.00    -0.115 C  
BRANCH  10  11
HETATM   11  C   UNL     1      -9.705  11.873  68.592  1.00  0.00    -0.116 C  
BRANCH  11  12
HETATM   12  C   UNL     1     -11.189  12.200  68.339  1.00  0.00    -0.265 C  
BRANCH  12  13
HETATM   13  C   UNL     1     -11.617  12.219  66.855  1.00  0.00    -0.427 C  
BRANCH  13  14
HETATM   14  C   UNL     1     -12.053  13.596  66.340  1.00  0.00    -0.433 C  
HETATM   15  O   UNL     1     -13.110  13.508  65.343  1.00  0.00    -0.663 OA 
HETATM   16  O   UNL     1     -12.660  14.332  63.238  1.00  0.00    -0.716 OA 
HETATM   17  C   UNL     1     -11.124  14.259  65.285  1.00  0.00    -0.335 C  
HETATM   18  C   UNL     1     -12.358  14.086  64.381  1.00  0.00    -0.367 C  
BRANCH  17  19
HETATM   19  C   UNL     1     -10.688  15.711  65.453  1.00  0.00    -0.424 C  
BRANCH  19  20
HETATM   20  C   UNL     1      -9.393  15.793  66.256  1.00  0.00    -0.360 C  
BRANCH  20  21
HETATM   21  C   UNL     1      -9.448  16.917  67.294  1.00  0.00    -0.242 C  
BRANCH  21  22
HETATM   22  C   UNL     1     -10.785  16.917  68.037  1.00  0.00    -0.364 C  
BRANCH  22  23
HETATM   23  C   UNL     1     -10.673  16.256  69.411  1.00  0.00    -0.318 C  
HETATM   24  C   UNL     1     -11.975  15.569  69.798  1.00  0.00    -0.384 C  
ENDBRANCH  22  23
ENDBRANCH  21  22
ENDBRANCH  20  21
ENDBRANCH  19  20
ENDBRANCH  17  19
ENDBRANCH  13  14
ENDBRANCH  12  13
BRANCH  12  25
HETATM   25  O   UNL     1     -12.045  11.254  69.021  1.00  0.00    -0.394 OA 
BRANCH  25  26
HETATM   26  C   UNL     1     -12.218  11.418  70.362  1.00  0.00    -0.362 C  
HETATM   27  O   UNL     1     -12.418  12.482  70.938  1.00  0.00    -0.365 OA 
BRANCH  26  28
HETATM   28  C   UNL     1     -12.150  10.077  71.087  1.00  0.00    -0.380 C  
BRANCH  28  29
HETATM   29  C   UNL     1     -10.805   9.370  70.861  1.00  0.00    -0.392 C  
HETATM   30  C   UNL     1     -10.929   7.518  72.655  1.00  0.00    -0.385 C  
HETATM   31  C   UNL     1      -8.741   8.236  71.719  1.00  0.00    -0.218 C  
HETATM   32  C   UNL     1     -10.149   8.709  72.095  1.00  0.00    -0.388 C  
ENDBRANCH  28  29
BRANCH  28  33
HETATM   33  N   UNL     1     -13.300   9.268  70.686  1.00  0.00    -0.384 N  
HETATM   34  C   UNL     1     -14.189   8.751  71.585  1.00  0.00    -0.339 C  
HETATM   35  O   UNL     1     -14.110   8.858  72.800  1.00  0.00    -0.500 OA 
HETATM   36  H   UNL     1     -13.445   9.082  69.693  1.00  0.00     0.000 HD 
ENDBRANCH  28  33
ENDBRANCH  26  28
ENDBRANCH  25  26
ENDBRANCH  12  25
ENDBRANCH  11  12
ENDBRANCH  10  11
ENDBRANCH   9  10
ENDBRANCH   8   9
ENDBRANCH   7   8
ENDBRANCH   6   7
ENDBRANCH   5   6
ENDBRANCH   4   5
ENDBRANCH   3   4
ENDBRANCH   2   3
TORSDOF 22
ENDMDL
MODEL       18
REMARK 921   NORMALIZED FREE ENERGY PREDICTED BY IDOCK:   -5.03 KCAL/MOL
REMARK 922        TOTAL FREE ENERGY PREDICTED BY IDOCK:  -15.11 KCAL/MOL
REMARK 923 INTER-LIGAND FREE ENERGY PREDICTED BY IDOCK:  -11.78 KCAL/MOL
REMARK 924 INTRA-LIGAND FREE ENERGY PREDICTED BY IDOCK:   -3.32 KCAL/MOL
REMARK 927      BINDING AFFINITY PREDICTED BY RF-SCORE:    0.00 PKD
ROOT
HETATM    1  C   UNL     1      -7.972   7.053  70.374  1.00  0.00    -0.113 C  
HETATM    2  C   UNL     1      -9.217   6.325  70.851  1.00  0.00    -0.163 C  
ENDROOT
BRANCH   2   3
HETATM    3  C   UNL     1      -9.846   5.523  69.714  1.00  0.00    -0.258 C  
BRANCH   3   4
HETATM    4  C   UNL     1     -11.019   6.265  69.080  1.00  0.00    -0.437 C  
BRANCH   4   5
HETATM    5  C   UNL     1     -10.901   6.264  67.554  1.00  0.00    -0.436 C  
BRANCH   5   6
HETATM    6  C   UNL     1      -9.572   5.658  67.122  1.00  0.00    -0.137 C  
BRANCH   6   7
HETATM    7  C   UNL     1      -8.611   6.705  66.555  1.00  0.00    -0.124 C  
BRANCH   7   8
HETATM    8  C   UNL     1      -9.399   7.975  66.257  1.00  0.00    -0.246 C  
BRANCH   8   9
HETATM    9  C   UNL     1      -8.565   9.250  66.312  1.00  0.00    -0.139 C  
BRANCH   9  10
HETATM   10  C   UNL     1      -8.375   9.635  67.783  1.00  0.00    -0.121 C  
BRANCH  10  11
HETATM   11  C   UNL     1      -9.058  10.936  68.176  1.00  0.00    -0.155 C  
BRANCH  11  12
HETATM   12  C   UNL     1     -10.446  11.192  67.561  1.00  0.00    -0.204 C  
BRANCH  12  13
HETATM   13  C   UNL     1     -11.638  10.609  68.353  1.00  0.00    -0.269 C  
BRANCH  13  14
HETATM   14  C   UNL     1     -11.458  10.633  69.876  1.00  0.00    -0.317 C  
HETATM   15  O   UNL     1     -10.949   9.372  70.396  1.00  0.00    -0.234 OA 
HETATM   16  O   UNL     1     -12.271   8.228  71.898  1.00  0.00    -0.301 OA 
HETATM   17  C   UNL     1     -12.749  10.452  70.722  1.00  0.00    -0.460 C  
HETATM   18  C   UNL     1     -12.042   9.157  71.161  1.00  0.00    -0.299 C  
BRANCH  17  19
HETATM   19  C   UNL     1     -13.050  11.405  71.874  1.00  0.00    -0.505 C  
BRANCH  19  20
HETATM   20  C   UNL     1     -12.996  12.854  71.399  1.00  0.00    -0.362 C  
BRANCH  20  21
HETATM   21  C   UNL     1     -14.032  13.719  72.123  1.00  0.00    -0.638 C  
BRANCH  21  22
HETATM   22  C   UNL     1     -13.797  15.206  71.851  1.00  0.00    -0.607 C  
BRANCH  22  23
HETATM   23  C   UNL     1     -13.416  15.963  73.124  1.00  0.00    -0.650 C  
HETATM   24  C   UNL     1     -12.456  15.149  73.980  1.00  0.00    -0.712 C  
ENDBRANCH  22  23
ENDBRANCH  21  22
ENDBRANCH  20  21
ENDBRANCH  19  20
ENDBRANCH  17  19
ENDBRANCH  13  14
ENDBRANCH  12  13
BRANCH  12  25
HETATM   25  O   UNL     1     -10.685  12.611  67.409  1.00  0.00    -0.225 OA 
BRANCH  25  26
HETATM   26  C   UNL     1     -10.563  13.136  66.158  1.00  0.00    -0.279 C  
HETATM   27  O   UNL     1     -10.171  12.540  65.161  1.00  0.00    -0.281 OA 
BRANCH  26  28
HETATM   28  C   UNL     1     -11.006  14.596  66.136  1.00  0.00    -0.329 C  
BRANCH  28  29
HETATM   29  C   UNL     1     -11.469  15.077  67.521  1.00  0.00    -0.339 C  
HETATM   30  C   UNL     1     -10.310  17.379  67.643  1.00  0.00    -0.355 C  
HETATM   31  C   UNL     1     -11.046  16.215  69.713  1.00  0.00    -0.350 C  
HETATM   32  C   UNL     1     -10.508  16.009  68.294  1.00  0.00    -0.269 C  
ENDBRANCH  28  29
BRANCH  28  33
HETATM   33  N   UNL     1     -12.024  14.763  65.099  1.00  0.00    -0.319 N  
HETATM   34  C   UNL     1     -12.038  15.828  64.244  1.00  0.00     0.016 C  
HETATM   35  O   UNL     1     -11.257  16.766  64.267  1.00  0.00    -1.163 OA 
HETATM   36  H   UNL     1     -12.753  14.055  65.011  1.00  0.00     0.000 HD 
ENDBRANCH  28  33
ENDBRANCH  26  28
ENDBRANCH  25  26
ENDBRANCH  12  25
ENDBRANCH  11  12
ENDBRANCH  10  11
ENDBRANCH   9  10
ENDBRANCH   8   9
ENDBRANCH   7   8
ENDBRANCH   6   7
ENDBRANCH   5   6
ENDBRANCH   4   5
ENDBRANCH   3   4
ENDBRANCH   2   3
TORSDOF 22
ENDMDL
MODEL       19
REMARK 921   NORMALIZED FREE ENERGY PREDICTED BY IDOCK:   -5.01 KCAL/MOL
REMARK 922        TOTAL FREE ENERGY PREDICTED BY IDOCK:  -15.08 KCAL/MOL
REMARK 923 INTER-LIGAND FREE ENERGY PREDICTED BY IDOCK:  -11.92 KCAL/MOL
REMARK 924 INTRA-LIGAND FREE ENERGY PREDICTED BY IDOCK:   -3.16 KCAL/MOL
REMARK 927      BINDING AFFINITY PREDICTED BY RF-SCORE:    0.00 PKD
ROOT
HETATM    1  C   UNL     1      -7.070  11.112  68.819  1.00  0.00    -0.093 C  
HETATM    2  C   UNL     1      -7.913  12.286  68.346  1.00  0.00    -0.152 C  
ENDROOT
BRANCH   2   3
HETATM    3  C   UNL     1      -8.462  12.029  66.945  1.00  0.00    -0.172 C  
BRANCH   3   4
HETATM    4  C   UNL     1      -9.201  10.697  66.863  1.00  0.00    -0.172 C  
BRANCH   4   5
HETATM    5  C   UNL     1     -10.412  10.805  65.933  1.00  0.00    -0.270 C  
BRANCH   5   6
HETATM    6  C   UNL     1      -9.966  11.100  64.507  1.00  0.00    -0.350 C  
BRANCH   6   7
HETATM    7  C   UNL     1     -10.824  12.176  63.838  1.00  0.00    -0.461 C  
BRANCH   7   8
HETATM    8  C   UNL     1     -10.699  13.464  64.643  1.00  0.00    -0.425 C  
BRANCH   8   9
HETATM    9  C   UNL     1     -11.982  14.287  64.700  1.00  0.00    -0.468 C  
BRANCH   9  10
HETATM   10  C   UNL     1     -12.651  14.039  66.055  1.00  0.00    -0.452 C  
BRANCH  10  11
HETATM   11  C   UNL     1     -11.680  13.977  67.224  1.00  0.00    -0.420 C  
BRANCH  11  12
HETATM   12  C   UNL     1     -11.425  15.298  67.972  1.00  0.00    -0.341 C  
BRANCH  12  13
HETATM   13  C   UNL     1     -11.330  15.179  69.510  1.00  0.00    -0.301 C  
BRANCH  13  14
HETATM   14  C   UNL     1     -12.627  14.728  70.191  1.00  0.00    -0.271 C  
HETATM   15  O   UNL     1     -13.350  15.835  70.800  1.00  0.00    -0.539 OA 
HETATM   16  O   UNL     1     -13.686  15.764  73.079  1.00  0.00    -0.570 OA 
HETATM   17  C   UNL     1     -12.473  14.069  71.591  1.00  0.00    -0.371 C  
HETATM   18  C   UNL     1     -13.258  15.314  72.044  1.00  0.00    -0.407 C  
BRANCH  17  19
HETATM   19  C   UNL     1     -13.181  12.754  71.901  1.00  0.00    -0.511 C  
BRANCH  19  20
HETATM   20  C   UNL     1     -12.625  11.629  71.034  1.00  0.00    -0.431 C  
BRANCH  20  21
HETATM   21  C   UNL     1     -12.996  10.254  71.596  1.00  0.00    -0.570 C  
BRANCH  21  22
HETATM   22  C   UNL     1     -11.783   9.322  71.622  1.00  0.00    -0.462 C  
BRANCH  22  23
HETATM   23  C   UNL     1     -10.773   9.674  70.531  1.00  0.00    -0.374 C  
HETATM   24  C   UNL     1      -9.375   9.198  70.903  1.00  0.00    -0.335 C  
ENDBRANCH  22  23
ENDBRANCH  21  22
ENDBRANCH  20  21
ENDBRANCH  19  20
ENDBRANCH  17  19
ENDBRANCH  13  14
ENDBRANCH  12  13
BRANCH  12  25
HETATM   25  O   UNL     1     -10.203  15.920  67.513  1.00  0.00    -0.257 OA 
BRANCH  25  26
HETATM   26  C   UNL     1     -10.032  17.244  67.787  1.00  0.00    -0.301 C  
HETATM   27  O   UNL     1     -10.821  18.143  67.519  1.00  0.00    -0.389 OA 
BRANCH  26  28
HETATM   28  C   UNL     1      -8.708  17.483  68.508  1.00  0.00    -0.282 C  
BRANCH  28  29
HETATM   29  C   UNL     1      -8.302  18.966  68.484  1.00  0.00    -0.384 C  
HETATM   30  C   UNL     1      -7.729  19.267  65.986  1.00  0.00    -0.293 C  
HETATM   31  C   UNL     1      -6.832  20.835  67.695  1.00  0.00    -0.386 C  
HETATM   32  C   UNL     1      -7.249  19.384  67.434  1.00  0.00    -0.239 C  
ENDBRANCH  28  29
BRANCH  28  33
HETATM   33  N   UNL     1      -7.694  16.600  67.934  1.00  0.00    -0.159 N  
HETATM   34  C   UNL     1      -6.693  16.043  68.679  1.00  0.00    -0.125 C  
HETATM   35  O   UNL     1      -6.500  16.245  69.868  1.00  0.00    -0.188 OA 
HETATM   36  H   UNL     1      -7.736  16.390  66.936  1.00  0.00     0.000 HD 
ENDBRANCH  28  33
ENDBRANCH  26  28
ENDBRANCH  25  26
ENDBRANCH  12  25
ENDBRANCH  11  12
ENDBRANCH  10  11
ENDBRANCH   9  10
ENDBRANCH   8   9
ENDBRANCH   7   8
ENDBRANCH   6   7
ENDBRANCH   5   6
ENDBRANCH   4   5
ENDBRANCH   3   4
ENDBRANCH   2   3
TORSDOF 22
ENDMDL
MODEL       20
REMARK 921   NORMALIZED FREE ENERGY PREDICTED BY IDOCK:   -5.01 KCAL/MOL
REMARK 922        TOTAL FREE ENERGY PREDICTED BY IDOCK:  -15.07 KCAL/MOL
REMARK 923 INTER-LIGAND FREE ENERGY PREDICTED BY IDOCK:  -10.34 KCAL/MOL
REMARK 924 INTRA-LIGAND FREE ENERGY PREDICTED BY IDOCK:   -4.73 KCAL/MOL
REMARK 927      BINDING AFFINITY PREDICTED BY RF-SCORE:    0.00 PKD
ROOT
HETATM    1  C   UNL     1     -12.307  12.417  63.984  1.00  0.00    -0.579 C  
HETATM    2  C   UNL     1     -10.815  12.270  63.737  1.00  0.00    -0.495 C  
ENDROOT
BRANCH   2   3
HETATM    3  C   UNL     1     -10.300  10.947  64.298  1.00  0.00    -0.436 C  
BRANCH   3   4
HETATM    4  C   UNL     1      -9.529  10.150  63.250  1.00  0.00    -0.302 C  
BRANCH   4   5
HETATM    5  C   UNL     1      -8.431   9.310  63.906  1.00  0.00    -0.198 C  
BRANCH   5   6
HETATM    6  C   UNL     1      -7.521  10.188  64.755  1.00  0.00    -0.136 C  
BRANCH   6   7
HETATM    7  C   UNL     1      -7.012   9.464  66.003  1.00  0.00    -0.090 C  
BRANCH   7   8
HETATM    8  C   UNL     1      -7.378  10.295  67.228  1.00  0.00    -0.090 C  
BRANCH   8   9
HETATM    9  C   UNL     1      -6.919   9.688  68.549  1.00  0.00    -0.065 C  
BRANCH   9  10
HETATM   10  C   UNL     1      -8.109   9.682  69.514  1.00  0.00    -0.129 C  
BRANCH  10  11
HETATM   11  C   UNL     1      -9.186  10.702  69.175  1.00  0.00    -0.162 C  
BRANCH  11  12
HETATM   12  C   UNL     1     -10.612  10.373  69.651  1.00  0.00    -0.253 C  
BRANCH  12  13
HETATM   13  C   UNL     1     -10.709   9.724  71.049  1.00  0.00    -0.342 C  
BRANCH  13  14
HETATM   14  C   UNL     1     -11.582   8.464  71.103  1.00  0.00    -0.279 C  
HETATM   15  O   UNL     1     -11.882   8.053  72.467  1.00  0.00    -0.367 OA 
HETATM   16  O   UNL     1     -11.153   5.972  73.138  1.00  0.00    -0.255 OA 
HETATM   17  C   UNL     1     -10.851   7.113  70.866  1.00  0.00    -0.266 C  
HETATM   18  C   UNL     1     -11.268   6.857  72.325  1.00  0.00    -0.263 C  
BRANCH  17  19
HETATM   19  C   UNL     1     -11.419   6.098  69.880  1.00  0.00    -0.371 C  
BRANCH  19  20
HETATM   20  C   UNL     1     -10.294   5.384  69.136  1.00  0.00    -0.300 C  
BRANCH  20  21
HETATM   21  C   UNL     1      -9.052   6.271  69.017  1.00  0.00    -0.129 C  
BRANCH  21  22
HETATM   22  C   UNL     1      -8.646   6.459  67.554  1.00  0.00    -0.115 C  
BRANCH  22  23
HETATM   23  C   UNL     1      -9.855   6.726  66.659  1.00  0.00    -0.214 C  
HETATM   24  C   UNL     1     -10.366   8.149  66.836  1.00  0.00    -0.401 C  
ENDBRANCH  22  23
ENDBRANCH  21  22
ENDBRANCH  20  21
ENDBRANCH  19  20
ENDBRANCH  17  19
ENDBRANCH  13  14
ENDBRANCH  12  13
BRANCH  12  25
HETATM   25  O   UNL     1     -11.433  11.564  69.673  1.00  0.00    -0.275 OA 
BRANCH  25  26
HETATM   26  C   UNL     1     -11.760  12.122  68.474  1.00  0.00    -0.330 C  
HETATM   27  O   UNL     1     -11.896  11.523  67.414  1.00  0.00    -0.607 OA 
BRANCH  26  28
HETATM   28  C   UNL     1     -11.965  13.628  68.613  1.00  0.00    -0.360 C  
BRANCH  28  29
HETATM   29  C   UNL     1     -11.809  14.355  67.268  1.00  0.00    -0.434 C  
HETATM   30  C   UNL     1      -9.318  13.907  66.766  1.00  0.00    -0.286 C  
HETATM   31  C   UNL     1     -10.514  15.797  65.681  1.00  0.00    -0.402 C  
HETATM   32  C   UNL     1     -10.419  14.952  66.955  1.00  0.00    -0.280 C  
ENDBRANCH  28  29
BRANCH  28  33
HETATM   33  N   UNL     1     -11.063  14.132  69.648  1.00  0.00    -0.417 N  
HETATM   34  C   UNL     1     -11.406  15.143  70.499  1.00  0.00    -0.298 C  
HETATM   35  O   UNL     1     -12.458  15.764  70.472  1.00  0.00    -0.414 OA 
HETATM   36  H   UNL     1     -10.138  13.710  69.738  1.00  0.00     0.000 HD 
ENDBRANCH  28  33
ENDBRANCH  26  28
ENDBRANCH  25  26
ENDBRANCH  12  25
ENDBRANCH  11  12
ENDBRANCH  10  11
ENDBRANCH   9  10
ENDBRANCH   8   9
ENDBRANCH   7   8
ENDBRANCH   6   7
ENDBRANCH   5   6
ENDBRANCH   4   5
ENDBRANCH   3   4
ENDBRANCH   2   3
TORSDOF 22
ENDMDL
MODEL       21
REMARK 921   NORMALIZED FREE ENERGY PREDICTED BY IDOCK:   -5.00 KCAL/MOL
REMARK 922        TOTAL FREE ENERGY PREDICTED BY IDOCK:  -15.05 KCAL/MOL
REMARK 923 INTER-LIGAND FREE ENERGY PREDICTED BY IDOCK:  -10.97 KCAL/MOL
REMARK 924 INTRA-LIGAND FREE ENERGY PREDICTED BY IDOCK:   -4.08 KCAL/MOL
REMARK 927      BINDING AFFINITY PREDICTED BY RF-SCORE:    0.00 PKD
ROOT
HETATM    1  C   UNL     1     -14.403  14.145  72.167  1.00  0.00    -0.606 C  
HETATM    2  C   UNL     1     -13.809  15.315  71.401  1.00  0.00    -0.603 C  
ENDROOT
BRANCH   2   3
HETATM    3  C   UNL     1     -12.285  15.296  71.478  1.00  0.00    -0.416 C  
BRANCH   3   4
HETATM    4  C   UNL     1     -11.678  14.369  70.430  1.00  0.00    -0.346 C  
BRANCH   4   5
HETATM    5  C   UNL     1     -12.128  14.769  69.024  1.00  0.00    -0.256 C  
BRANCH   5   6
HETATM    6  C   UNL     1     -11.960  13.605  68.056  1.00  0.00    -0.385 C  
BRANCH   6   7
HETATM    7  C   UNL     1     -12.075  14.040  66.594  1.00  0.00    -0.487 C  
BRANCH   7   8
HETATM    8  C   UNL     1     -12.105  12.792  65.719  1.00  0.00    -0.505 C  
BRANCH   8   9
HETATM    9  C   UNL     1     -10.856  12.603  64.864  1.00  0.00    -0.329 C  
BRANCH   9  10
HETATM   10  C   UNL     1     -10.422  11.138  64.968  1.00  0.00    -0.357 C  
BRANCH  10  11
HETATM   11  C   UNL     1      -9.092  10.934  65.678  1.00  0.00    -0.223 C  
BRANCH  11  12
HETATM   12  C   UNL     1      -9.162  10.638  67.187  1.00  0.00    -0.147 C  
BRANCH  12  13
HETATM   13  C   UNL     1      -8.926  11.854  68.110  1.00  0.00    -0.185 C  
BRANCH  13  14
HETATM   14  C   UNL     1      -8.080  12.969  67.484  1.00  0.00    -0.179 C  
HETATM   15  O   UNL     1      -6.759  13.071  68.088  1.00  0.00    -0.080 OA 
HETATM   16  O   UNL     1      -6.213  15.055  69.128  1.00  0.00    -0.099 OA 
HETATM   17  C   UNL     1      -8.397  14.417  67.953  1.00  0.00    -0.162 C  
HETATM   18  C   UNL     1      -6.968  14.335  68.519  1.00  0.00    -0.102 C  
BRANCH  17  19
HETATM   19  C   UNL     1      -8.587  15.530  66.928  1.00  0.00    -0.289 C  
BRANCH  19  20
HETATM   20  C   UNL     1      -9.554  16.586  67.456  1.00  0.00    -0.231 C  
BRANCH  20  21
HETATM   21  C   UNL     1      -8.814  17.699  68.203  1.00  0.00    -0.269 C  
BRANCH  21  22
HETATM   22  C   UNL     1      -9.749  18.868  68.518  1.00  0.00    -0.441 C  
BRANCH  22  23
HETATM   23  C   UNL     1     -10.769  19.097  67.403  1.00  0.00    -0.578 C  
HETATM   24  C   UNL     1     -10.146  19.849  66.235  1.00  0.00    -0.613 C  
ENDBRANCH  22  23
ENDBRANCH  21  22
ENDBRANCH  20  21
ENDBRANCH  19  20
ENDBRANCH  17  19
ENDBRANCH  13  14
ENDBRANCH  12  13
BRANCH  12  25
HETATM   25  O   UNL     1     -10.445  10.073  67.540  1.00  0.00    -0.218 OA 
BRANCH  25  26
HETATM   26  C   UNL     1     -10.498   8.731  67.768  1.00  0.00    -0.229 C  
HETATM   27  O   UNL     1     -10.363   7.851  66.925  1.00  0.00    -0.298 OA 
BRANCH  26  28
HETATM   28  C   UNL     1     -10.732   8.440  69.248  1.00  0.00    -0.126 C  
BRANCH  28  29
HETATM   29  C   UNL     1     -11.132   9.704  70.026  1.00  0.00    -0.293 C  
HETATM   30  C   UNL     1     -12.252   8.656  72.101  1.00  0.00    -0.453 C  
HETATM   31  C   UNL     1     -12.740  11.003  71.441  1.00  0.00    -0.534 C  
HETATM   32  C   UNL     1     -12.395   9.608  70.912  1.00  0.00    -0.346 C  
ENDBRANCH  28  29
BRANCH  28  33
HETATM   33  N   UNL     1      -9.545   7.781  69.790  1.00  0.00    -0.167 N  
HETATM   34  C   UNL     1      -9.578   6.525  70.327  1.00  0.00    -0.161 C  
HETATM   35  O   UNL     1     -10.578   5.837  70.458  1.00  0.00    -0.250 OA 
HETATM   36  H   UNL     1      -8.655   8.280  69.767  1.00  0.00     0.000 HD 
ENDBRANCH  28  33
ENDBRANCH  26  28
ENDBRANCH  25  26
ENDBRANCH  12  25
ENDBRANCH  11  12
ENDBRANCH  10  11
ENDBRANCH   9  10
ENDBRANCH   8   9
ENDBRANCH   7   8
ENDBRANCH   6   7
ENDBRANCH   5   6
ENDBRANCH   4   5
ENDBRANCH   3   4
ENDBRANCH   2   3
TORSDOF 22
ENDMDL
MODEL       22
REMARK 921   NORMALIZED FREE ENERGY PREDICTED BY IDOCK:   -5.00 KCAL/MOL
REMARK 922        TOTAL FREE ENERGY PREDICTED BY IDOCK:  -15.04 KCAL/MOL
REMARK 923 INTER-LIGAND FREE ENERGY PREDICTED BY IDOCK:  -11.96 KCAL/MOL
REMARK 924 INTRA-LIGAND FREE ENERGY PREDICTED BY IDOCK:   -3.08 KCAL/MOL
REMARK 927      BINDING AFFINITY PREDICTED BY RF-SCORE:    0.00 PKD
ROOT
HETATM    1  C   UNL     1     -14.339   8.300  72.056  1.00  0.00    -0.541 C  
HETATM    2  C   UNL     1     -13.748   7.050  71.426  1.00  0.00    -0.307 C  
ENDROOT
BRANCH   2   3
HETATM    3  C   UNL     1     -12.237   7.185  71.266  1.00  0.00    -0.403 C  
BRANCH   3   4
HETATM    4  C   UNL     1     -11.635   8.104  72.324  1.00  0.00    -0.436 C  
BRANCH   4   5
HETATM    5  C   UNL     1     -10.890   9.270  71.671  1.00  0.00    -0.418 C  
BRANCH   5   6
HETATM    6  C   UNL     1     -11.242   9.368  70.193  1.00  0.00    -0.253 C  
BRANCH   6   7
HETATM    7  C   UNL     1     -11.971  10.669  69.851  1.00  0.00    -0.385 C  
BRANCH   7   8
HETATM    8  C   UNL     1     -12.517  11.271  71.141  1.00  0.00    -0.479 C  
BRANCH   8   9
HETATM    9  C   UNL     1     -12.545  12.796  71.151  1.00  0.00    -0.365 C  
BRANCH   9  10
HETATM   10  C   UNL     1     -12.194  13.291  69.745  1.00  0.00    -0.285 C  
BRANCH  10  11
HETATM   11  C   UNL     1     -11.020  14.256  69.702  1.00  0.00    -0.159 C  
BRANCH  11  12
HETATM   12  C   UNL     1     -10.707  14.893  68.336  1.00  0.00    -0.245 C  
BRANCH  12  13
HETATM   13  C   UNL     1     -11.814  14.744  67.269  1.00  0.00    -0.316 C  
BRANCH  13  14
HETATM   14  C   UNL     1     -11.378  13.990  66.007  1.00  0.00    -0.328 C  
HETATM   15  O   UNL     1     -12.363  14.078  64.938  1.00  0.00    -0.416 OA 
HETATM   16  O   UNL     1     -13.300  12.110  64.188  1.00  0.00    -0.750 OA 
HETATM   17  C   UNL     1     -11.557  12.447  66.033  1.00  0.00    -0.455 C  
HETATM   18  C   UNL     1     -12.561  12.742  64.904  1.00  0.00    -0.470 C  
BRANCH  17  19
HETATM   19  C   UNL     1     -10.410  11.535  65.609  1.00  0.00    -0.308 C  
BRANCH  19  20
HETATM   20  C   UNL     1      -9.924  10.700  66.790  1.00  0.00    -0.254 C  
BRANCH  20  21
HETATM   21  C   UNL     1     -10.360   9.238  66.658  1.00  0.00    -0.292 C  
BRANCH  21  22
HETATM   22  C   UNL     1      -9.151   8.301  66.633  1.00  0.00    -0.204 C  
BRANCH  22  23
HETATM   23  C   UNL     1      -8.436   8.259  67.983  1.00  0.00    -0.132 C  
HETATM   24  C   UNL     1      -8.916   7.082  68.822  1.00  0.00    -0.131 C  
ENDBRANCH  22  23
ENDBRANCH  21  22
ENDBRANCH  20  21
ENDBRANCH  19  20
ENDBRANCH  17  19
ENDBRANCH  13  14
ENDBRANCH  12  13
BRANCH  12  25
HETATM   25  O   UNL     1     -10.437  16.307  68.479  1.00  0.00    -0.250 OA 
BRANCH  25  26
HETATM   26  C   UNL     1      -9.132  16.698  68.492  1.00  0.00    -0.234 C  
HETATM   27  O   UNL     1      -8.175  16.003  68.812  1.00  0.00    -0.183 OA 
BRANCH  26  28
HETATM   28  C   UNL     1      -8.994  18.144  68.025  1.00  0.00    -0.283 C  
BRANCH  28  29
HETATM   29  C   UNL     1      -8.046  18.951  68.928  1.00  0.00    -0.287 C  
HETATM   30  C   UNL     1      -7.265  20.784  67.289  1.00  0.00    -0.415 C  
HETATM   31  C   UNL     1      -5.928  20.233  69.311  1.00  0.00    -0.372 C  
HETATM   32  C   UNL     1      -6.857  19.656  68.238  1.00  0.00    -0.324 C  
ENDBRANCH  28  29
BRANCH  28  33
HETATM   33  N   UNL     1     -10.327  18.734  67.918  1.00  0.00    -0.396 N  
HETATM   34  C   UNL     1     -10.720  19.483  66.846  1.00  0.00    -0.464 C  
HETATM   35  O   UNL     1     -10.014  19.783  65.896  1.00  0.00    -0.419 OA 
HETATM   36  H   UNL     1     -10.993  18.579  68.676  1.00  0.00     0.000 HD 
ENDBRANCH  28  33
ENDBRANCH  26  28
ENDBRANCH  25  26
ENDBRANCH  12  25
ENDBRANCH  11  12
ENDBRANCH  10  11
ENDBRANCH   9  10
ENDBRANCH   8   9
ENDBRANCH   7   8
ENDBRANCH   6   7
ENDBRANCH   5   6
ENDBRANCH   4   5
ENDBRANCH   3   4
ENDBRANCH   2   3
TORSDOF 22
ENDMDL
MODEL       23
REMARK 921   NORMALIZED FREE ENERGY PREDICTED BY IDOCK:   -4.99 KCAL/MOL
REMARK 922        TOTAL FREE ENERGY PREDICTED BY IDOCK:  -15.02 KCAL/MOL
REMARK 923 INTER-LIGAND FREE ENERGY PREDICTED BY IDOCK:  -11.71 KCAL/MOL
REMARK 924 INTRA-LIGAND FREE ENERGY PREDICTED BY IDOCK:   -3.32 KCAL/MOL
REMARK 927      BINDING AFFINITY PREDICTED BY RF-SCORE:    0.00 PKD
ROOT
HETATM    1  C   UNL     1     -12.723   7.041  71.260  1.00  0.00    -0.400 C  
HETATM    2  C   UNL     1     -14.113   7.572  71.571  1.00  0.00    -0.550 C  
ENDROOT
BRANCH   2   3
HETATM    3  C   UNL     1     -14.035   8.963  72.194  1.00  0.00    -0.520 C  
BRANCH   3   4
HETATM    4  C   UNL     1     -12.771   9.704  71.768  1.00  0.00    -0.510 C  
BRANCH   4   5
HETATM    5  C   UNL     1     -13.027  11.211  71.684  1.00  0.00    -0.548 C  
BRANCH   5   6
HETATM    6  C   UNL     1     -12.198  11.832  70.568  1.00  0.00    -0.438 C  
BRANCH   6   7
HETATM    7  C   UNL     1     -11.462  10.783  69.734  1.00  0.00    -0.386 C  
BRANCH   7   8
HETATM    8  C   UNL     1     -10.640  11.499  68.669  1.00  0.00    -0.236 C  
BRANCH   8   9
HETATM    9  C   UNL     1      -9.177  11.070  68.621  1.00  0.00    -0.186 C  
BRANCH   9  10
HETATM   10  C   UNL     1      -8.357  12.226  68.041  1.00  0.00    -0.165 C  
BRANCH  10  11
HETATM   11  C   UNL     1      -8.768  13.597  68.556  1.00  0.00    -0.102 C  
BRANCH  11  12
HETATM   12  C   UNL     1      -8.642  14.766  67.562  1.00  0.00    -0.187 C  
BRANCH  12  13
HETATM   13  C   UNL     1      -9.977  15.298  66.995  1.00  0.00    -0.235 C  
BRANCH  13  14
HETATM   14  C   UNL     1     -10.423  14.627  65.690  1.00  0.00    -0.342 C  
HETATM   15  O   UNL     1     -10.715  15.592  64.640  1.00  0.00    -0.431 OA 
HETATM   16  O   UNL     1     -12.862  15.636  63.801  1.00  0.00    -0.536 OA 
HETATM   17  C   UNL     1     -11.897  14.137  65.640  1.00  0.00    -0.377 C  
HETATM   18  C   UNL     1     -12.007  15.209  64.540  1.00  0.00    -0.319 C  
BRANCH  17  19
HETATM   19  C   UNL     1     -12.219  12.728  65.154  1.00  0.00    -0.530 C  
BRANCH  19  20
HETATM   20  C   UNL     1     -10.967  11.856  65.169  1.00  0.00    -0.365 C  
BRANCH  20  21
HETATM   21  C   UNL     1     -10.532  11.477  63.751  1.00  0.00    -0.459 C  
BRANCH  21  22
HETATM   22  C   UNL     1      -9.539  10.313  63.770  1.00  0.00    -0.344 C  
BRANCH  22  23
HETATM   23  C   UNL     1      -9.418   9.693  65.162  1.00  0.00    -0.332 C  
HETATM   24  C   UNL     1      -7.973   9.329  65.477  1.00  0.00    -0.104 C  
ENDBRANCH  22  23
ENDBRANCH  21  22
ENDBRANCH  20  21
ENDBRANCH  19  20
ENDBRANCH  17  19
ENDBRANCH  13  14
ENDBRANCH  12  13
BRANCH  12  25
HETATM   25  O   UNL     1      -7.958  15.886  68.172  1.00  0.00    -0.134 OA 
BRANCH  25  26
HETATM   26  C   UNL     1      -7.245  16.707  67.352  1.00  0.00    -0.155 C  
HETATM   27  O   UNL     1      -6.479  16.349  66.463  1.00  0.00    -0.255 OA 
BRANCH  26  28
HETATM   28  C   UNL     1      -7.534  18.172  67.663  1.00  0.00    -0.218 C  
BRANCH  28  29
HETATM   29  C   UNL     1      -8.467  18.807  66.619  1.00  0.00    -0.299 C  
HETATM   30  C   UNL     1     -10.191  19.960  68.155  1.00  0.00    -0.564 C  
HETATM   31  C   UNL     1     -10.749  19.426  65.792  1.00  0.00    -0.458 C  
HETATM   32  C   UNL     1      -9.952  18.967  67.016  1.00  0.00    -0.405 C  
ENDBRANCH  28  29
BRANCH  28  33
HETATM   33  N   UNL     1      -6.264  18.882  67.807  1.00  0.00    -0.200 N  
HETATM   34  C   UNL     1      -5.629  19.023  69.008  1.00  0.00    -0.203 C  
HETATM   35  O   UNL     1      -6.052  18.627  70.083  1.00  0.00    -0.213 OA 
HETATM   36  H   UNL     1      -5.834  19.289  66.976  1.00  0.00     0.000 HD 
ENDBRANCH  28  33
ENDBRANCH  26  28
ENDBRANCH  25  26
ENDBRANCH  12  25
ENDBRANCH  11  12
ENDBRANCH  10  11
ENDBRANCH   9  10
ENDBRANCH   8   9
ENDBRANCH   7   8
ENDBRANCH   6   7
ENDBRANCH   5   6
ENDBRANCH   4   5
ENDBRANCH   3   4
ENDBRANCH   2   3
TORSDOF 22
ENDMDL
MODEL       24
REMARK 921   NORMALIZED FREE ENERGY PREDICTED BY IDOCK:   -4.98 KCAL/MOL
REMARK 922        TOTAL FREE ENERGY PREDICTED BY IDOCK:  -15.01 KCAL/MOL
REMARK 923 INTER-LIGAND FREE ENERGY PREDICTED BY IDOCK:  -11.49 KCAL/MOL
REMARK 924 INTRA-LIGAND FREE ENERGY PREDICTED BY IDOCK:   -3.52 KCAL/MOL
REMARK 927      BINDING AFFINITY PREDICTED BY RF-SCORE:    0.00 PKD
ROOT
HETATM    1  C   UNL     1      -9.573   3.745  70.094  1.00  0.00    -0.258 C  
HETATM    2  C   UNL     1      -9.992   5.097  70.647  1.00  0.00    -0.296 C  
ENDROOT
BRANCH   2   3
HETATM    3  C   UNL     1     -10.771   5.892  69.603  1.00  0.00    -0.415 C  
BRANCH   3   4
HETATM    4  C   UNL     1     -10.225   5.667  68.196  1.00  0.00    -0.236 C  
BRANCH   4   5
HETATM    5  C   UNL     1     -11.041   6.451  67.166  1.00  0.00    -0.422 C  
BRANCH   5   6
HETATM    6  C   UNL     1     -10.369   7.780  66.851  1.00  0.00    -0.396 C  
BRANCH   6   7
HETATM    7  C   UNL     1      -8.882   7.620  66.530  1.00  0.00    -0.167 C  
BRANCH   7   8
HETATM    8  C   UNL     1      -8.214   8.987  66.633  1.00  0.00    -0.118 C  
BRANCH   8   9
HETATM    9  C   UNL     1      -8.769  10.023  65.662  1.00  0.00    -0.171 C  
BRANCH   9  10
HETATM   10  C   UNL     1      -9.288  11.213  66.475  1.00  0.00    -0.199 C  
BRANCH  10  11
HETATM   11  C   UNL     1     -10.805  11.325  66.511  1.00  0.00    -0.319 C  
BRANCH  11  12
HETATM   12  C   UNL     1     -11.400  12.204  67.626  1.00  0.00    -0.314 C  
BRANCH  12  13
HETATM   13  C   UNL     1     -12.230  13.413  67.141  1.00  0.00    -0.306 C  
BRANCH  13  14
HETATM   14  C   UNL     1     -11.519  14.765  67.277  1.00  0.00    -0.366 C  
HETATM   15  O   UNL     1     -10.631  15.043  66.157  1.00  0.00    -0.290 OA 
HETATM   16  O   UNL     1      -8.389  15.313  66.617  1.00  0.00    -0.256 OA 
HETATM   17  C   UNL     1     -10.302  14.805  68.242  1.00  0.00    -0.238 C  
HETATM   18  C   UNL     1      -9.532  15.098  66.941  1.00  0.00    -0.238 C  
BRANCH  17  19
HETATM   19  C   UNL     1     -10.186  15.914  69.283  1.00  0.00    -0.250 C  
BRANCH  19  20
HETATM   20  C   UNL     1     -10.684  15.428  70.641  1.00  0.00    -0.255 C  
BRANCH  20  21
HETATM   21  C   UNL     1     -11.807  16.320  71.177  1.00  0.00    -0.298 C  
BRANCH  21  22
HETATM   22  C   UNL     1     -13.104  15.529  71.355  1.00  0.00    -0.580 C  
BRANCH  22  23
HETATM   23  C   UNL     1     -13.606  15.578  72.798  1.00  0.00    -0.653 C  
HETATM   24  C   UNL     1     -12.462  15.844  73.768  1.00  0.00    -0.728 C  
ENDBRANCH  22  23
ENDBRANCH  21  22
ENDBRANCH  20  21
ENDBRANCH  19  20
ENDBRANCH  17  19
ENDBRANCH  13  14
ENDBRANCH  12  13
BRANCH  12  25
HETATM   25  O   UNL     1     -12.248  11.423  68.498  1.00  0.00    -0.557 OA 
BRANCH  25  26
HETATM   26  C   UNL     1     -12.087  11.586  69.841  1.00  0.00    -0.316 C  
HETATM   27  O   UNL     1     -12.081  12.655  70.441  1.00  0.00    -0.364 OA 
BRANCH  26  28
HETATM   28  C   UNL     1     -11.932  10.237  70.538  1.00  0.00    -0.323 C  
BRANCH  28  29
HETATM   29  C   UNL     1     -10.728   9.448  69.998  1.00  0.00    -0.270 C  
HETATM   30  C   UNL     1      -9.741   8.518  72.193  1.00  0.00    -0.387 C  
HETATM   31  C   UNL     1      -8.343   8.694  70.145  1.00  0.00    -0.126 C  
HETATM   32  C   UNL     1      -9.496   9.335  70.924  1.00  0.00    -0.330 C  
ENDBRANCH  28  29
BRANCH  28  33
HETATM   33  N   UNL     1     -13.193   9.506  70.433  1.00  0.00    -0.276 N  
HETATM   34  C   UNL     1     -13.874   9.048  71.525  1.00  0.00    -0.313 C  
HETATM   35  O   UNL     1     -13.501   9.147  72.684  1.00  0.00    -0.463 OA 
HETATM   36  H   UNL     1     -13.582   9.331  69.506  1.00  0.00     0.000 HD 
ENDBRANCH  28  33
ENDBRANCH  26  28
ENDBRANCH  25  26
ENDBRANCH  12  25
ENDBRANCH  11  12
ENDBRANCH  10  11
ENDBRANCH   9  10
ENDBRANCH   8   9
ENDBRANCH   7   8
ENDBRANCH   6   7
ENDBRANCH   5   6
ENDBRANCH   4   5
ENDBRANCH   3   4
ENDBRANCH   2   3
TORSDOF 22
ENDMDL
MODEL       25
REMARK 921   NORMALIZED FREE ENERGY PREDICTED BY IDOCK:   -4.98 KCAL/MOL
REMARK 922        TOTAL FREE ENERGY PREDICTED BY IDOCK:  -15.00 KCAL/MOL
REMARK 923 INTER-LIGAND FREE ENERGY PREDICTED BY IDOCK:  -11.18 KCAL/MOL
REMARK 924 INTRA-LIGAND FREE ENERGY PREDICTED BY IDOCK:   -3.82 KCAL/MOL
REMARK 927      BINDING AFFINITY PREDICTED BY RF-SCORE:    0.00 PKD
ROOT
HETATM    1  C   UNL     1     -10.701  15.237  64.911  1.00  0.00    -0.423 C  
HETATM    2  C   UNL     1     -11.157  13.907  65.488  1.00  0.00    -0.304 C  
ENDROOT
BRANCH   2   3
HETATM    3  C   UNL     1     -12.111  14.122  66.659  1.00  0.00    -0.480 C  
BRANCH   3   4
HETATM    4  C   UNL     1     -11.614  15.215  67.601  1.00  0.00    -0.290 C  
BRANCH   4   5
HETATM    5  C   UNL     1     -12.127  14.980  69.023  1.00  0.00    -0.243 C  
BRANCH   5   6
HETATM    6  C   UNL     1     -11.413  15.897  70.007  1.00  0.00    -0.354 C  
BRANCH   6   7
HETATM    7  C   UNL     1     -12.038  15.855  71.403  1.00  0.00    -0.508 C  
BRANCH   7   8
HETATM    8  C   UNL     1     -13.275  14.965  71.353  1.00  0.00    -0.462 C  
BRANCH   8   9
HETATM    9  C   UNL     1     -13.421  14.037  72.555  1.00  0.00    -0.661 C  
BRANCH   9  10
HETATM   10  C   UNL     1     -13.513  12.597  72.041  1.00  0.00    -0.516 C  
BRANCH  10  11
HETATM   11  C   UNL     1     -12.600  12.300  70.862  1.00  0.00    -0.334 C  
BRANCH  11  12
HETATM   12  C   UNL     1     -12.227  10.823  70.641  1.00  0.00    -0.379 C  
BRANCH  12  13
HETATM   13  C   UNL     1     -10.831  10.579  70.025  1.00  0.00    -0.320 C  
BRANCH  13  14
HETATM   14  C   UNL     1     -10.644  11.178  68.626  1.00  0.00    -0.193 C  
HETATM   15  O   UNL     1     -11.360  10.432  67.601  1.00  0.00    -0.371 OA 
HETATM   16  O   UNL     1     -10.115   9.476  65.913  1.00  0.00    -0.294 OA 
HETATM   17  C   UNL     1      -9.301  10.851  67.914  1.00  0.00    -0.159 C  
HETATM   18  C   UNL     1     -10.230  10.118  66.929  1.00  0.00    -0.236 C  
BRANCH  17  19
HETATM   19  C   UNL     1      -8.485  11.966  67.270  1.00  0.00    -0.172 C  
BRANCH  19  20
HETATM   20  C   UNL     1      -8.614  13.258  68.072  1.00  0.00    -0.178 C  
BRANCH  20  21
HETATM   21  C   UNL     1      -7.927  14.428  67.362  1.00  0.00    -0.220 C  
BRANCH  21  22
HETATM   22  C   UNL     1      -8.184  15.746  68.095  1.00  0.00    -0.141 C  
BRANCH  22  23
HETATM   23  C   UNL     1      -7.371  15.847  69.386  1.00  0.00    -0.217 C  
HETATM   24  C   UNL     1      -5.902  15.535  69.135  1.00  0.00    -0.106 C  
ENDBRANCH  22  23
ENDBRANCH  21  22
ENDBRANCH  20  21
ENDBRANCH  19  20
ENDBRANCH  17  19
ENDBRANCH  13  14
ENDBRANCH  12  13
BRANCH  12  25
HETATM   25  O   UNL     1     -12.280  10.089  71.887  1.00  0.00    -0.351 OA 
BRANCH  25  26
HETATM   26  C   UNL     1     -12.729   8.804  71.838  1.00  0.00    -0.374 C  
HETATM   27  O   UNL     1     -13.903   8.451  71.828  1.00  0.00    -0.374 OA 
BRANCH  26  28
HETATM   28  C   UNL     1     -11.563   7.822  71.776  1.00  0.00    -0.272 C  
BRANCH  28  29
HETATM   29  C   UNL     1     -11.657   6.896  70.553  1.00  0.00    -0.396 C  
HETATM   30  C   UNL     1      -9.226   6.988  69.693  1.00  0.00    -0.146 C  
HETATM   31  C   UNL     1     -11.082   6.307  68.187  1.00  0.00    -0.364 C  
HETATM   32  C   UNL     1     -10.706   7.200  69.373  1.00  0.00    -0.246 C  
ENDBRANCH  28  29
BRANCH  28  33
HETATM   33  N   UNL     1     -11.490   7.097  73.044  1.00  0.00    -0.559 N  
HETATM   34  C   UNL     1     -10.330   6.961  73.752  1.00  0.00    -0.376 C  
HETATM   35  O   UNL     1      -9.236   7.374  73.402  1.00  0.00    -0.160 OA 
HETATM   36  H   UNL     1     -12.342   6.675  73.415  1.00  0.00     0.000 HD 
ENDBRANCH  28  33
ENDBRANCH  26  28
ENDBRANCH  25  26
ENDBRANCH  12  25
ENDBRANCH  11  12
ENDBRANCH  10  11
ENDBRANCH   9  10
ENDBRANCH   8   9
ENDBRANCH   7   8
ENDBRANCH   6   7
ENDBRANCH   5   6
ENDBRANCH   4   5
ENDBRANCH   3   4
ENDBRANCH   2   3
TORSDOF 22
ENDMDL
MODEL       26
REMARK 921   NORMALIZED FREE ENERGY PREDICTED BY IDOCK:   -4.95 KCAL/MOL
REMARK 922        TOTAL FREE ENERGY PREDICTED BY IDOCK:  -14.93 KCAL/MOL
REMARK 923 INTER-LIGAND FREE ENERGY PREDICTED BY IDOCK:  -11.12 KCAL/MOL
REMARK 924 INTRA-LIGAND FREE ENERGY PREDICTED BY IDOCK:   -3.80 KCAL/MOL
REMARK 927      BINDING AFFINITY PREDICTED BY RF-SCORE:    0.00 PKD
ROOT
HETATM    1  C   UNL     1     -13.189  10.794  71.769  1.00  0.00    -0.523 C  
HETATM    2  C   UNL     1     -12.109  10.878  70.703  1.00  0.00    -0.468 C  
ENDROOT
BRANCH   2   3
HETATM    3  C   UNL     1     -11.040   9.813  70.928  1.00  0.00    -0.428 C  
BRANCH   3   4
HETATM    4  C   UNL     1     -11.519   8.722  71.881  1.00  0.00    -0.428 C  
BRANCH   4   5
HETATM    5  C   UNL     1     -12.068   7.525  71.103  1.00  0.00    -0.335 C  
BRANCH   5   6
HETATM    6  C   UNL     1     -10.930   6.695  70.525  1.00  0.00    -0.337 C  
BRANCH   6   7
HETATM    7  C   UNL     1     -11.155   6.339  69.055  1.00  0.00    -0.446 C  
BRANCH   7   8
HETATM    8  C   UNL     1     -10.028   6.951  68.230  1.00  0.00    -0.162 C  
BRANCH   8   9
HETATM    9  C   UNL     1     -10.508   7.797  67.055  1.00  0.00    -0.419 C  
BRANCH   9  10
HETATM   10  C   UNL     1     -10.656   9.244  67.535  1.00  0.00    -0.329 C  
BRANCH  10  11
HETATM   11  C   UNL     1     -10.486  10.282  66.437  1.00  0.00    -0.233 C  
BRANCH  11  12
HETATM   12  C   UNL     1     -10.441  11.753  66.888  1.00  0.00    -0.223 C  
BRANCH  12  13
HETATM   13  C   UNL     1     -11.817  12.410  67.137  1.00  0.00    -0.361 C  
BRANCH  13  14
HETATM   14  C   UNL     1     -12.065  13.687  66.325  1.00  0.00    -0.434 C  
HETATM   15  O   UNL     1     -13.112  13.518  65.328  1.00  0.00    -0.713 OA 
HETATM   16  O   UNL     1     -12.533  13.808  63.116  1.00  0.00    -0.786 OA 
HETATM   17  C   UNL     1     -11.045  13.988  65.192  1.00  0.00    -0.341 C  
HETATM   18  C   UNL     1     -12.279  13.778  64.296  1.00  0.00    -0.400 C  
BRANCH  17  19
HETATM   19  C   UNL     1     -10.427  15.377  65.066  1.00  0.00    -0.411 C  
BRANCH  19  20
HETATM   20  C   UNL     1     -10.280  16.025  66.439  1.00  0.00    -0.315 C  
BRANCH  20  21
HETATM   21  C   UNL     1      -9.470  17.323  66.361  1.00  0.00    -0.282 C  
BRANCH  21  22
HETATM   22  C   UNL     1     -10.365  18.511  66.005  1.00  0.00    -0.423 C  
BRANCH  22  23
HETATM   23  C   UNL     1      -9.609  19.837  66.088  1.00  0.00    -0.484 C  
HETATM   24  C   UNL     1      -9.426  20.274  67.535  1.00  0.00    -0.539 C  
ENDBRANCH  22  23
ENDBRANCH  21  22
ENDBRANCH  20  21
ENDBRANCH  19  20
ENDBRANCH  17  19
ENDBRANCH  13  14
ENDBRANCH  12  13
BRANCH  12  25
HETATM   25  O   UNL     1      -9.671  11.893  68.104  1.00  0.00    -0.183 OA 
BRANCH  25  26
HETATM   26  C   UNL     1      -8.416  12.412  67.996  1.00  0.00    -0.176 C  
HETATM   27  O   UNL     1      -8.134  13.599  67.878  1.00  0.00    -0.136 OA 
BRANCH  26  28
HETATM   28  C   UNL     1      -7.364  11.308  68.062  1.00  0.00    -0.092 C  
BRANCH  28  29
HETATM   29  C   UNL     1      -7.240  10.717  69.475  1.00  0.00    -0.140 C  
HETATM   30  C   UNL     1      -6.547   8.293  68.922  1.00  0.00    -0.053 C  
HETATM   31  C   UNL     1      -7.565   8.855  71.120  1.00  0.00    -0.143 C  
HETATM   32  C   UNL     1      -7.546   9.210  69.630  1.00  0.00    -0.080 C  
ENDBRANCH  28  29
BRANCH  28  33
HETATM   33  N   UNL     1      -6.101  11.831  67.544  1.00  0.00    -0.079 N  
HETATM   34  C   UNL     1      -5.521  11.362  66.400  1.00  0.00    -0.129 C  
HETATM   35  O   UNL     1      -5.947  10.445  65.715  1.00  0.00    -0.093 OA 
HETATM   36  H   UNL     1      -5.634  12.578  68.058  1.00  0.00     0.000 HD 
ENDBRANCH  28  33
ENDBRANCH  26  28
ENDBRANCH  25  26
ENDBRANCH  12  25
ENDBRANCH  11  12
ENDBRANCH  10  11
ENDBRANCH   9  10
ENDBRANCH   8   9
ENDBRANCH   7   8
ENDBRANCH   6   7
ENDBRANCH   5   6
ENDBRANCH   4   5
ENDBRANCH   3   4
ENDBRANCH   2   3
TORSDOF 22
ENDMDL
MODEL       27
REMARK 921   NORMALIZED FREE ENERGY PREDICTED BY IDOCK:   -4.94 KCAL/MOL
REMARK 922        TOTAL FREE ENERGY PREDICTED BY IDOCK:  -14.91 KCAL/MOL
REMARK 923 INTER-LIGAND FREE ENERGY PREDICTED BY IDOCK:  -10.75 KCAL/MOL
REMARK 924 INTRA-LIGAND FREE ENERGY PREDICTED BY IDOCK:   -4.17 KCAL/MOL
REMARK 927      BINDING AFFINITY PREDICTED BY RF-SCORE:    0.00 PKD
ROOT
HETATM    1  C   UNL     1     -12.740  12.307  63.820  1.00  0.00    -0.516 C  
HETATM    2  C   UNL     1     -11.270  12.179  63.459  1.00  0.00    -0.536 C  
ENDROOT
BRANCH   2   3
HETATM    3  C   UNL     1     -10.400  12.193  64.713  1.00  0.00    -0.320 C  
BRANCH   3   4
HETATM    4  C   UNL     1      -9.592  10.906  64.856  1.00  0.00    -0.297 C  
BRANCH   4   5
HETATM    5  C   UNL     1     -10.137  10.048  65.999  1.00  0.00    -0.318 C  
BRANCH   5   6
HETATM    6  C   UNL     1      -9.016   9.656  66.953  1.00  0.00    -0.151 C  
BRANCH   6   7
HETATM    7  C   UNL     1      -7.959  10.753  67.094  1.00  0.00    -0.124 C  
BRANCH   7   8
HETATM    8  C   UNL     1      -7.857  11.141  68.565  1.00  0.00    -0.136 C  
BRANCH   8   9
HETATM    9  C   UNL     1      -7.291  12.537  68.800  1.00  0.00    -0.070 C  
BRANCH   9  10
HETATM   10  C   UNL     1      -7.892  13.481  67.754  1.00  0.00    -0.167 C  
BRANCH  10  11
HETATM   11  C   UNL     1      -7.138  14.792  67.595  1.00  0.00    -0.206 C  
BRANCH  11  12
HETATM   12  C   UNL     1      -7.851  16.058  68.104  1.00  0.00    -0.141 C  
BRANCH  12  13
HETATM   13  C   UNL     1      -8.902  15.823  69.212  1.00  0.00    -0.262 C  
BRANCH  13  14
HETATM   14  C   UNL     1     -10.351  15.785  68.712  1.00  0.00    -0.220 C  
HETATM   15  O   UNL     1     -11.262  16.505  69.590  1.00  0.00    -0.284 OA 
HETATM   16  O   UNL     1     -12.966  15.304  70.574  1.00  0.00    -0.383 OA 
HETATM   17  C   UNL     1     -11.137  14.472  68.986  1.00  0.00    -0.279 C  
HETATM   18  C   UNL     1     -11.993  15.402  69.865  1.00  0.00    -0.359 C  
BRANCH  17  19
HETATM   19  C   UNL     1     -11.920  13.800  67.863  1.00  0.00    -0.391 C  
BRANCH  19  20
HETATM   20  C   UNL     1     -11.867  12.282  68.007  1.00  0.00    -0.368 C  
BRANCH  20  21
HETATM   21  C   UNL     1     -11.205  11.867  69.324  1.00  0.00    -0.304 C  
BRANCH  21  22
HETATM   22  C   UNL     1     -11.636  10.459  69.739  1.00  0.00    -0.339 C  
BRANCH  22  23
HETATM   23  C   UNL     1     -12.786  10.491  70.745  1.00  0.00    -0.454 C  
HETATM   24  C   UNL     1     -12.739  11.754  71.593  1.00  0.00    -0.357 C  
ENDBRANCH  22  23
ENDBRANCH  21  22
ENDBRANCH  20  21
ENDBRANCH  19  20
ENDBRANCH  17  19
ENDBRANCH  13  14
ENDBRANCH  12  13
BRANCH  12  25
HETATM   25  O   UNL     1      -6.894  17.014  68.616  1.00  0.00    -0.168 OA 
BRANCH  25  26
HETATM   26  C   UNL     1      -6.507  18.020  67.783  1.00  0.00    -0.183 C  
HETATM   27  O   UNL     1      -5.826  17.895  66.771  1.00  0.00    -0.135 OA 
BRANCH  26  28
HETATM   28  C   UNL     1      -7.054  19.362  68.259  1.00  0.00    -0.284 C  
BRANCH  28  29
HETATM   29  C   UNL     1      -8.072  19.950  67.270  1.00  0.00    -0.341 C  
HETATM   30  C   UNL     1     -10.256  19.695  68.621  1.00  0.00    -0.498 C  
HETATM   31  C   UNL     1     -10.313  19.939  66.148  1.00  0.00    -0.604 C  
HETATM   32  C   UNL     1      -9.508  19.380  67.325  1.00  0.00    -0.398 C  
ENDBRANCH  28  29
BRANCH  28  33
HETATM   33  N   UNL     1      -5.931  20.258  68.529  1.00  0.00    -0.267 N  
HETATM   34  C   UNL     1      -5.598  20.666  69.790  1.00  0.00    -0.359 C  
HETATM   35  O   UNL     1      -6.206  20.380  70.810  1.00  0.00    -0.533 OA 
HETATM   36  H   UNL     1      -5.372  20.593  67.744  1.00  0.00     0.000 HD 
ENDBRANCH  28  33
ENDBRANCH  26  28
ENDBRANCH  25  26
ENDBRANCH  12  25
ENDBRANCH  11  12
ENDBRANCH  10  11
ENDBRANCH   9  10
ENDBRANCH   8   9
ENDBRANCH   7   8
ENDBRANCH   6   7
ENDBRANCH   5   6
ENDBRANCH   4   5
ENDBRANCH   3   4
ENDBRANCH   2   3
TORSDOF 22
ENDMDL
MODEL       28
REMARK 921   NORMALIZED FREE ENERGY PREDICTED BY IDOCK:   -4.94 KCAL/MOL
REMARK 922        TOTAL FREE ENERGY PREDICTED BY IDOCK:  -14.91 KCAL/MOL
REMARK 923 INTER-LIGAND FREE ENERGY PREDICTED BY IDOCK:  -12.30 KCAL/MOL
REMARK 924 INTRA-LIGAND FREE ENERGY PREDICTED BY IDOCK:   -2.61 KCAL/MOL
REMARK 927      BINDING AFFINITY PREDICTED BY RF-SCORE:    0.00 PKD
ROOT
HETATM    1  C   UNL     1     -11.614   4.610  73.276  1.00  0.00    -0.274 C  
HETATM    2  C   UNL     1     -10.635   5.710  72.899  1.00  0.00    -0.268 C  
ENDROOT
BRANCH   2   3
HETATM    3  C   UNL     1     -10.811   6.116  71.439  1.00  0.00    -0.319 C  
BRANCH   3   4
HETATM    4  C   UNL     1     -12.028   7.015  71.244  1.00  0.00    -0.388 C  
BRANCH   4   5
HETATM    5  C   UNL     1     -11.682   8.473  71.556  1.00  0.00    -0.354 C  
BRANCH   5   6
HETATM    6  C   UNL     1     -12.947   9.275  71.830  1.00  0.00    -0.471 C  
BRANCH   6   7
HETATM    7  C   UNL     1     -12.825  10.730  71.373  1.00  0.00    -0.557 C  
BRANCH   7   8
HETATM    8  C   UNL     1     -11.650  10.837  70.407  1.00  0.00    -0.431 C  
BRANCH   8   9
HETATM    9  C   UNL     1     -11.705  12.060  69.497  1.00  0.00    -0.408 C  
BRANCH   9  10
HETATM   10  C   UNL     1     -12.042  13.283  70.356  1.00  0.00    -0.401 C  
BRANCH  10  11
HETATM   11  C   UNL     1     -11.909  14.610  69.625  1.00  0.00    -0.367 C  
BRANCH  11  12
HETATM   12  C   UNL     1     -11.330  14.551  68.200  1.00  0.00    -0.298 C  
BRANCH  12  13
HETATM   13  C   UNL     1     -12.361  14.288  67.079  1.00  0.00    -0.203 C  
BRANCH  13  14
HETATM   14  C   UNL     1     -11.742  13.964  65.714  1.00  0.00    -0.359 C  
HETATM   15  O   UNL     1     -12.717  14.015  64.634  1.00  0.00    -0.648 OA 
HETATM   16  O   UNL     1     -13.092  12.077  63.444  1.00  0.00    -0.747 OA 
HETATM   17  C   UNL     1     -11.499  12.459  65.412  1.00  0.00    -0.402 C  
HETATM   18  C   UNL     1     -12.549  12.713  64.315  1.00  0.00    -0.368 C  
BRANCH  17  19
HETATM   19  C   UNL     1     -10.150  11.994  64.872  1.00  0.00    -0.289 C  
BRANCH  19  20
HETATM   20  C   UNL     1      -9.405  11.176  65.922  1.00  0.00    -0.235 C  
BRANCH  20  21
HETATM   21  C   UNL     1     -10.375  10.430  66.842  1.00  0.00    -0.297 C  
BRANCH  21  22
HETATM   22  C   UNL     1     -10.250   8.915  66.664  1.00  0.00    -0.338 C  
BRANCH  22  23
HETATM   23  C   UNL     1     -10.536   8.165  67.965  1.00  0.00    -0.242 C  
HETATM   24  C   UNL     1     -10.678   6.670  67.717  1.00  0.00    -0.352 C  
ENDBRANCH  22  23
ENDBRANCH  21  22
ENDBRANCH  20  21
ENDBRANCH  19  20
ENDBRANCH  17  19
ENDBRANCH  13  14
ENDBRANCH  12  13
BRANCH  12  25
HETATM   25  O   UNL     1     -10.645  15.782  67.873  1.00  0.00    -0.267 OA 
BRANCH  25  26
HETATM   26  C   UNL     1      -9.361  15.919  68.307  1.00  0.00    -0.194 C  
HETATM   27  O   UNL     1      -8.650  15.023  68.748  1.00  0.00    -0.164 OA 
BRANCH  26  28
HETATM   28  C   UNL     1      -8.887  17.361  68.155  1.00  0.00    -0.253 C  
BRANCH  28  29
HETATM   29  C   UNL     1      -9.349  17.981  66.827  1.00  0.00    -0.287 C  
HETATM   30  C   UNL     1      -9.827  20.406  67.569  1.00  0.00    -0.564 C  
HETATM   31  C   UNL     1     -10.857  19.482  65.503  1.00  0.00    -0.247 C  
HETATM   32  C   UNL     1     -10.373  19.136  66.915  1.00  0.00    -0.504 C  
ENDBRANCH  28  29
BRANCH  28  33
HETATM   33  N   UNL     1      -7.436  17.400  68.334  1.00  0.00    -0.224 N  
HETATM   34  C   UNL     1      -6.800  18.418  68.987  1.00  0.00    -0.265 C  
HETATM   35  O   UNL     1      -7.340  19.412  69.446  1.00  0.00    -0.314 OA 
HETATM   36  H   UNL     1      -6.876  16.636  67.956  1.00  0.00     0.000 HD 
ENDBRANCH  28  33
ENDBRANCH  26  28
ENDBRANCH  25  26
ENDBRANCH  12  25
ENDBRANCH  11  12
ENDBRANCH  10  11
ENDBRANCH   9  10
ENDBRANCH   8   9
ENDBRANCH   7   8
ENDBRANCH   6   7
ENDBRANCH   5   6
ENDBRANCH   4   5
ENDBRANCH   3   4
ENDBRANCH   2   3
TORSDOF 22
ENDMDL
MODEL       29
REMARK 921   NORMALIZED FREE ENERGY PREDICTED BY IDOCK:   -4.92 KCAL/MOL
REMARK 922        TOTAL FREE ENERGY PREDICTED BY IDOCK:  -14.88 KCAL/MOL
REMARK 923 INTER-LIGAND FREE ENERGY PREDICTED BY IDOCK:  -11.35 KCAL/MOL
REMARK 924 INTRA-LIGAND FREE ENERGY PREDICTED BY IDOCK:   -3.52 KCAL/MOL
REMARK 927      BINDING AFFINITY PREDICTED BY RF-SCORE:    0.00 PKD
ROOT
HETATM    1  C   UNL     1      -9.814   3.898  65.428  1.00  0.00    -0.167 C  
HETATM    2  C   UNL     1     -10.529   5.114  65.994  1.00  0.00    -0.241 C  
ENDROOT
BRANCH   2   3
HETATM    3  C   UNL     1      -9.638   5.853  66.989  1.00  0.00    -0.144 C  
BRANCH   3   4
HETATM    4  C   UNL     1     -10.093   7.294  67.195  1.00  0.00    -0.306 C  
BRANCH   4   5
HETATM    5  C   UNL     1      -9.390   8.231  66.210  1.00  0.00    -0.267 C  
BRANCH   5   6
HETATM    6  C   UNL     1      -9.817   9.673  66.447  1.00  0.00    -0.309 C  
BRANCH   6   7
HETATM    7  C   UNL     1     -11.034   9.778  67.368  1.00  0.00    -0.176 C  
BRANCH   7   8
HETATM    8  C   UNL     1     -11.048  11.167  67.996  1.00  0.00    -0.334 C  
BRANCH   8   9
HETATM    9  C   UNL     1      -9.695  11.618  68.536  1.00  0.00    -0.187 C  
BRANCH   9  10
HETATM   10  C   UNL     1      -9.667  13.149  68.540  1.00  0.00    -0.138 C  
BRANCH  10  11
HETATM   11  C   UNL     1     -11.014  13.794  68.829  1.00  0.00    -0.289 C  
BRANCH  11  12
HETATM   12  C   UNL     1     -11.012  15.320  69.031  1.00  0.00    -0.254 C  
BRANCH  12  13
HETATM   13  C   UNL     1     -10.839  15.793  70.491  1.00  0.00    -0.319 C  
BRANCH  13  14
HETATM   14  C   UNL     1     -12.138  15.818  71.306  1.00  0.00    -0.437 C  
HETATM   15  O   UNL     1     -12.010  16.591  72.534  1.00  0.00    -0.521 OA 
HETATM   16  O   UNL     1     -12.337  15.484  74.529  1.00  0.00    -0.658 OA 
HETATM   17  C   UNL     1     -12.444  14.548  72.148  1.00  0.00    -0.371 C  
HETATM   18  C   UNL     1     -12.277  15.528  73.324  1.00  0.00    -0.493 C  
BRANCH  17  19
HETATM   19  C   UNL     1     -13.824  13.900  72.083  1.00  0.00    -0.636 C  
BRANCH  19  20
HETATM   20  C   UNL     1     -13.705  12.380  72.132  1.00  0.00    -0.271 C  
BRANCH  20  21
HETATM   21  C   UNL     1     -12.445  11.894  71.412  1.00  0.00    -0.261 C  
BRANCH  21  22
HETATM   22  C   UNL     1     -12.629  10.474  70.874  1.00  0.00    -0.493 C  
BRANCH  22  23
HETATM   23  C   UNL     1     -11.622   9.499  71.484  1.00  0.00    -0.465 C  
HETATM   24  C   UNL     1     -12.321   8.441  72.325  1.00  0.00    -0.436 C  
ENDBRANCH  22  23
ENDBRANCH  21  22
ENDBRANCH  20  21
ENDBRANCH  19  20
ENDBRANCH  17  19
ENDBRANCH  13  14
ENDBRANCH  12  13
BRANCH  12  25
HETATM   25  O   UNL     1      -9.962  15.940  68.252  1.00  0.00    -0.218 OA 
BRANCH  25  26
HETATM   26  C   UNL     1     -10.334  16.641  67.145  1.00  0.00    -0.300 C  
HETATM   27  O   UNL     1     -11.152  17.553  67.110  1.00  0.00    -0.051 OA 
BRANCH  26  28
HETATM   28  C   UNL     1      -9.572  16.157  65.914  1.00  0.00    -0.324 C  
BRANCH  28  29
HETATM   29  C   UNL     1     -10.068  14.783  65.435  1.00  0.00    -0.406 C  
HETATM   30  C   UNL     1     -12.214  15.461  64.173  1.00  0.00    -0.075 C  
HETATM   31  C   UNL     1     -11.902  13.135  64.994  1.00  0.00    -0.390 C  
HETATM   32  C   UNL     1     -11.596  14.607  65.282  1.00  0.00    -0.354 C  
ENDBRANCH  28  29
BRANCH  28  33
HETATM   33  N   UNL     1      -8.140  16.182  66.208  1.00  0.00    -0.263 N  
HETATM   34  C   UNL     1      -7.382  17.312  66.094  1.00  0.00    -0.281 C  
HETATM   35  O   UNL     1      -7.782  18.396  65.700  1.00  0.00    -0.518 OA 
HETATM   36  H   UNL     1      -7.688  15.318  66.512  1.00  0.00     0.000 HD 
ENDBRANCH  28  33
ENDBRANCH  26  28
ENDBRANCH  25  26
ENDBRANCH  12  25
ENDBRANCH  11  12
ENDBRANCH  10  11
ENDBRANCH   9  10
ENDBRANCH   8   9
ENDBRANCH   7   8
ENDBRANCH   6   7
ENDBRANCH   5   6
ENDBRANCH   4   5
ENDBRANCH   3   4
ENDBRANCH   2   3
TORSDOF 22
ENDMDL
MODEL       30
REMARK 921   NORMALIZED FREE ENERGY PREDICTED BY IDOCK:   -4.92 KCAL/MOL
REMARK 922        TOTAL FREE ENERGY PREDICTED BY IDOCK:  -14.87 KCAL/MOL
REMARK 923 INTER-LIGAND FREE ENERGY PREDICTED BY IDOCK:  -11.70 KCAL/MOL
REMARK 924 INTRA-LIGAND FREE ENERGY PREDICTED BY IDOCK:   -3.17 KCAL/MOL
REMARK 927      BINDING AFFINITY PREDICTED BY RF-SCORE:    0.00 PKD
ROOT
HETATM    1  C   UNL     1      -6.586  16.626  67.595  1.00  0.00    -0.171 C  
HETATM    2  C   UNL     1      -6.927  17.236  66.245  1.00  0.00    -0.299 C  
ENDROOT
BRANCH   2   3
HETATM    3  C   UNL     1      -6.006  18.412  65.933  1.00  0.00    -0.239 C  
BRANCH   3   4
HETATM    4  C   UNL     1      -6.790  19.638  65.476  1.00  0.00    -0.321 C  
BRANCH   4   5
HETATM    5  C   UNL     1      -7.091  20.562  66.659  1.00  0.00    -0.313 C  
BRANCH   5   6
HETATM    6  C   UNL     1      -8.484  20.287  67.210  1.00  0.00    -0.415 C  
BRANCH   6   7
HETATM    7  C   UNL     1      -8.447  19.667  68.608  1.00  0.00    -0.310 C  
BRANCH   7   8
HETATM    8  C   UNL     1      -9.774  18.960  68.860  1.00  0.00    -0.420 C  
BRANCH   8   9
HETATM    9  C   UNL     1     -10.567  18.659  67.592  1.00  0.00    -0.458 C  
BRANCH   9  10
HETATM   10  C   UNL     1     -10.607  17.140  67.401  1.00  0.00    -0.297 C  
BRANCH  10  11
HETATM   11  C   UNL     1     -11.265  16.388  68.548  1.00  0.00    -0.334 C  
BRANCH  11  12
HETATM   12  C   UNL     1     -10.441  15.256  69.186  1.00  0.00    -0.247 C  
BRANCH  12  13
HETATM   13  C   UNL     1     -10.594  15.109  70.716  1.00  0.00    -0.010 C  
BRANCH  13  14
HETATM   14  C   UNL     1     -11.893  15.695  71.281  1.00  0.00    -0.419 C  
HETATM   15  O   UNL     1     -11.653  16.807  72.191  1.00  0.00    -0.307 OA 
HETATM   16  O   UNL     1     -12.366  16.574  74.370  1.00  0.00    -0.681 OA 
HETATM   17  C   UNL     1     -12.557  14.901  72.441  1.00  0.00    -0.425 C  
HETATM   18  C   UNL     1     -12.224  16.174  73.240  1.00  0.00    -0.538 C  
BRANCH  17  19
HETATM   19  C   UNL     1     -14.047  14.580  72.395  1.00  0.00    -0.544 C  
BRANCH  19  20
HETATM   20  C   UNL     1     -14.278  13.181  71.831  1.00  0.00     0.208 C  
BRANCH  20  21
HETATM   21  C   UNL     1     -13.087  12.261  72.115  1.00  0.00    -0.406 C  
BRANCH  21  22
HETATM   22  C   UNL     1     -12.816  11.329  70.932  1.00  0.00    -0.343 C  
BRANCH  22  23
HETATM   23  C   UNL     1     -12.460   9.916  71.392  1.00  0.00    -0.495 C  
HETATM   24  C   UNL     1     -13.567   9.324  72.254  1.00  0.00    -0.544 C  
ENDBRANCH  22  23
ENDBRANCH  21  22
ENDBRANCH  20  21
ENDBRANCH  19  20
ENDBRANCH  17  19
ENDBRANCH  13  14
ENDBRANCH  12  13
BRANCH  12  25
HETATM   25  O   UNL     1     -10.779  13.979  68.596  1.00  0.00    -0.246 OA 
BRANCH  25  26
HETATM   26  C   UNL     1      -9.771  13.269  68.017  1.00  0.00    -0.223 C  
HETATM   27  O   UNL     1      -8.711  12.959  68.549  1.00  0.00    -0.139 OA 
BRANCH  26  28
HETATM   28  C   UNL     1     -10.136  12.870  66.590  1.00  0.00    -0.245 C  
BRANCH  28  29
HETATM   29  C   UNL     1      -9.397  11.599  66.143  1.00  0.00    -0.237 C  
HETATM   30  C   UNL     1     -10.590  11.113  63.906  1.00  0.00    -0.431 C  
HETATM   31  C   UNL     1      -9.369   9.315  65.113  1.00  0.00    -0.239 C  
HETATM   32  C   UNL     1     -10.199  10.590  65.289  1.00  0.00    -0.352 C  
ENDBRANCH  28  29
BRANCH  28  33
HETATM   33  N   UNL     1      -9.902  14.013  65.709  1.00  0.00    -0.452 N  
HETATM   34  C   UNL     1     -10.904  14.626  65.012  1.00  0.00    -0.417 C  
HETATM   35  O   UNL     1     -12.075  14.278  65.002  1.00  0.00    -0.389 OA 
HETATM   36  H   UNL     1      -8.950  14.368  65.610  1.00  0.00     0.000 HD 
ENDBRANCH  28  33
ENDBRANCH  26  28
ENDBRANCH  25  26
ENDBRANCH  12  25
ENDBRANCH  11  12
ENDBRANCH  10  11
ENDBRANCH   9  10
ENDBRANCH   8   9
ENDBRANCH   7   8
ENDBRANCH   6   7
ENDBRANCH   5   6
ENDBRANCH   4   5
ENDBRANCH   3   4
ENDBRANCH   2   3
TORSDOF 22
ENDMDL
MODEL       31
REMARK 921   NORMALIZED FREE ENERGY PREDICTED BY IDOCK:   -4.90 KCAL/MOL
REMARK 922        TOTAL FREE ENERGY PREDICTED BY IDOCK:  -14.83 KCAL/MOL
REMARK 923 INTER-LIGAND FREE ENERGY PREDICTED BY IDOCK:  -11.86 KCAL/MOL
REMARK 924 INTRA-LIGAND FREE ENERGY PREDICTED BY IDOCK:   -2.97 KCAL/MOL
REMARK 927      BINDING AFFINITY PREDICTED BY RF-SCORE:    0.00 PKD
ROOT
HETATM    1  C   UNL     1     -10.768   7.070  69.351  1.00  0.00    -0.259 C  
HETATM    2  C   UNL     1     -11.755   6.586  70.401  1.00  0.00    -0.439 C  
ENDROOT
BRANCH   2   3
HETATM    3  C   UNL     1     -11.172   6.737  71.804  1.00  0.00    -0.294 C  
BRANCH   3   4
HETATM    4  C   UNL     1     -11.467   8.112  72.394  1.00  0.00    -0.462 C  
BRANCH   4   5
HETATM    5  C   UNL     1     -12.913   8.525  72.112  1.00  0.00    -0.403 C  
BRANCH   5   6
HETATM    6  C   UNL     1     -12.970   9.961  71.606  1.00  0.00    -0.536 C  
BRANCH   6   7
HETATM    7  C   UNL     1     -11.715  10.354  70.825  1.00  0.00    -0.464 C  
BRANCH   7   8
HETATM    8  C   UNL     1     -11.986  11.668  70.102  1.00  0.00    -0.441 C  
BRANCH   8   9
HETATM    9  C   UNL     1     -12.598  12.749  70.987  1.00  0.00    -0.362 C  
BRANCH   9  10
HETATM   10  C   UNL     1     -12.279  14.113  70.367  1.00  0.00    -0.427 C  
BRANCH  10  11
HETATM   11  C   UNL     1     -12.013  14.067  68.870  1.00  0.00    -0.387 C  
BRANCH  11  12
HETATM   12  C   UNL     1     -10.889  14.980  68.347  1.00  0.00    -0.256 C  
BRANCH  12  13
HETATM   13  C   UNL     1     -10.392  16.052  69.342  1.00  0.00    -0.272 C  
BRANCH  13  14
HETATM   14  C   UNL     1     -10.390  17.480  68.784  1.00  0.00    -0.358 C  
HETATM   15  O   UNL     1     -10.937  17.553  67.437  1.00  0.00    -0.228 OA 
HETATM   16  O   UNL     1      -9.547  18.312  65.762  1.00  0.00    -0.478 OA 
HETATM   17  C   UNL     1      -9.028  18.006  68.251  1.00  0.00    -0.288 C  
HETATM   18  C   UNL     1      -9.783  18.019  66.909  1.00  0.00    -0.314 C  
BRANCH  17  19
HETATM   19  C   UNL     1      -8.516  19.377  68.678  1.00  0.00    -0.395 C  
BRANCH  19  20
HETATM   20  C   UNL     1      -7.034  19.310  69.033  1.00  0.00    -0.381 C  
BRANCH  20  21
HETATM   21  C   UNL     1      -6.154  19.686  67.838  1.00  0.00    -0.233 C  
BRANCH  21  22
HETATM   22  C   UNL     1      -6.907  20.593  66.862  1.00  0.00    -0.353 C  
BRANCH  22  23
HETATM   23  C   UNL     1      -6.719  20.146  65.412  1.00  0.00    -0.331 C  
HETATM   24  C   UNL     1      -6.042  18.784  65.341  1.00  0.00    -0.298 C  
ENDBRANCH  22  23
ENDBRANCH  21  22
ENDBRANCH  20  21
ENDBRANCH  19  20
ENDBRANCH  17  19
ENDBRANCH  13  14
ENDBRANCH  12  13
BRANCH  12  25
HETATM   25  O   UNL     1      -9.739  14.199  67.947  1.00  0.00    -0.213 OA 
BRANCH  25  26
HETATM   26  C   UNL     1      -9.593  13.932  66.619  1.00  0.00    -0.289 C  
HETATM   27  O   UNL     1      -9.372  14.757  65.739  1.00  0.00    -0.247 OA 
BRANCH  26  28
HETATM   28  C   UNL     1      -9.720  12.436  66.348  1.00  0.00    -0.240 C  
BRANCH  28  29
HETATM   29  C   UNL     1     -11.083  12.078  65.735  1.00  0.00    -0.371 C  
HETATM   30  C   UNL     1     -10.351  11.167  63.434  1.00  0.00    -0.419 C  
HETATM   31  C   UNL     1     -12.671  11.981  63.799  1.00  0.00    -0.516 C  
HETATM   32  C   UNL     1     -11.206  12.180  64.197  1.00  0.00    -0.433 C  
ENDBRANCH  28  29
BRANCH  28  33
HETATM   33  N   UNL     1      -9.435  11.708  67.583  1.00  0.00    -0.174 N  
HETATM   34  C   UNL     1      -9.325  10.348  67.630  1.00  0.00    -0.148 C  
HETATM   35  O   UNL     1      -9.491   9.591  66.686  1.00  0.00    -0.152 OA 
HETATM   36  H   UNL     1      -9.314  12.239  68.447  1.00  0.00     0.000 HD 
ENDBRANCH  28  33
ENDBRANCH  26  28
ENDBRANCH  25  26
ENDBRANCH  12  25
ENDBRANCH  11  12
ENDBRANCH  10  11
ENDBRANCH   9  10
ENDBRANCH   8   9
ENDBRANCH   7   8
ENDBRANCH   6   7
ENDBRANCH   5   6
ENDBRANCH   4   5
ENDBRANCH   3   4
ENDBRANCH   2   3
TORSDOF 22
ENDMDL
MODEL       32
REMARK 921   NORMALIZED FREE ENERGY PREDICTED BY IDOCK:   -4.88 KCAL/MOL
REMARK 922        TOTAL FREE ENERGY PREDICTED BY IDOCK:  -14.77 KCAL/MOL
REMARK 923 INTER-LIGAND FREE ENERGY PREDICTED BY IDOCK:  -11.38 KCAL/MOL
REMARK 924 INTRA-LIGAND FREE ENERGY PREDICTED BY IDOCK:   -3.40 KCAL/MOL
REMARK 927      BINDING AFFINITY PREDICTED BY RF-SCORE:    0.00 PKD
ROOT
HETATM    1  C   UNL     1      -6.736  18.595  66.115  1.00  0.00    -0.268 C  
HETATM    2  C   UNL     1      -7.067  19.929  66.765  1.00  0.00    -0.247 C  
ENDROOT
BRANCH   2   3
HETATM    3  C   UNL     1      -7.868  19.723  68.048  1.00  0.00    -0.342 C  
BRANCH   3   4
HETATM    4  C   UNL     1      -9.371  19.748  67.786  1.00  0.00    -0.443 C  
BRANCH   4   5
HETATM    5  C   UNL     1     -10.043  18.498  68.357  1.00  0.00    -0.423 C  
BRANCH   5   6
HETATM    6  C   UNL     1     -10.264  17.463  67.262  1.00  0.00    -0.324 C  
BRANCH   6   7
HETATM    7  C   UNL     1      -9.198  16.366  67.271  1.00  0.00    -0.224 C  
BRANCH   7   8
HETATM    8  C   UNL     1      -8.854  16.037  68.719  1.00  0.00    -0.227 C  
BRANCH   8   9
HETATM    9  C   UNL     1      -7.774  14.972  68.874  1.00  0.00    -0.152 C  
BRANCH   9  10
HETATM   10  C   UNL     1      -8.010  13.892  67.814  1.00  0.00    -0.174 C  
BRANCH  10  11
HETATM   11  C   UNL     1      -7.806  12.472  68.319  1.00  0.00    -0.144 C  
BRANCH  11  12
HETATM   12  C   UNL     1      -9.021  11.531  68.227  1.00  0.00    -0.177 C  
BRANCH  12  13
HETATM   13  C   UNL     1      -9.906  11.717  66.974  1.00  0.00    -0.211 C  
BRANCH  13  14
HETATM   14  C   UNL     1     -11.324  12.219  67.270  1.00  0.00    -0.328 C  
HETATM   15  O   UNL     1     -12.190  12.161  66.101  1.00  0.00    -0.611 OA 
HETATM   16  O   UNL     1     -13.074  14.146  65.331  1.00  0.00    -0.743 OA 
HETATM   17  C   UNL     1     -11.509  13.761  67.321  1.00  0.00    -0.367 C  
HETATM   18  C   UNL     1     -12.398  13.497  66.093  1.00  0.00    -0.407 C  
BRANCH  17  19
HETATM   19  C   UNL     1     -12.252  14.406  68.487  1.00  0.00    -0.178 C  
BRANCH  19  20
HETATM   20  C   UNL     1     -11.751  13.849  69.816  1.00  0.00    -0.372 C  
BRANCH  20  21
HETATM   21  C   UNL     1     -12.763  14.087  70.940  1.00  0.00    -0.420 C  
BRANCH  21  22
HETATM   22  C   UNL     1     -12.978  15.582  71.182  1.00  0.00    -0.560 C  
BRANCH  22  23
HETATM   23  C   UNL     1     -11.978  16.144  72.192  1.00  0.00    -0.623 C  
HETATM   24  C   UNL     1     -12.238  15.591  73.587  1.00  0.00    -0.676 C  
ENDBRANCH  22  23
ENDBRANCH  21  22
ENDBRANCH  20  21
ENDBRANCH  19  20
ENDBRANCH  17  19
ENDBRANCH  13  14
ENDBRANCH  12  13
BRANCH  12  25
HETATM   25  O   UNL     1      -8.602  10.147  68.255  1.00  0.00    -0.113 OA 
BRANCH  25  26
HETATM   26  C   UNL     1      -9.566   9.204  68.443  1.00  0.00    -0.151 C  
HETATM   27  O   UNL     1      -9.915   8.358  67.627  1.00  0.00    -0.167 OA 
BRANCH  26  28
HETATM   28  C   UNL     1     -10.167   9.311  69.841  1.00  0.00    -0.214 C  
BRANCH  28  29
HETATM   29  C   UNL     1      -9.718   8.155  70.749  1.00  0.00    -0.189 C  
HETATM   30  C   UNL     1     -11.123   6.215  69.788  1.00  0.00    -0.486 C  
HETATM   31  C   UNL     1     -10.197   6.095  72.092  1.00  0.00    -0.213 C  
HETATM   32  C   UNL     1     -10.752   7.040  71.022  1.00  0.00    -0.256 C  
ENDBRANCH  28  29
BRANCH  28  33
HETATM   33  N   UNL     1     -11.620   9.417  69.721  1.00  0.00    -0.442 N  
HETATM   34  C   UNL     1     -12.371  10.227  70.525  1.00  0.00    -0.284 C  
HETATM   35  O   UNL     1     -11.940  10.906  71.444  1.00  0.00    -0.220 OA 
HETATM   36  H   UNL     1     -12.094   8.863  69.007  1.00  0.00     0.000 HD 
ENDBRANCH  28  33
ENDBRANCH  26  28
ENDBRANCH  25  26
ENDBRANCH  12  25
ENDBRANCH  11  12
ENDBRANCH  10  11
ENDBRANCH   9  10
ENDBRANCH   8   9
ENDBRANCH   7   8
ENDBRANCH   6   7
ENDBRANCH   5   6
ENDBRANCH   4   5
ENDBRANCH   3   4
ENDBRANCH   2   3
TORSDOF 22
ENDMDL
MODEL       33
REMARK 921   NORMALIZED FREE ENERGY PREDICTED BY IDOCK:   -4.88 KCAL/MOL
REMARK 922        TOTAL FREE ENERGY PREDICTED BY IDOCK:  -14.77 KCAL/MOL
REMARK 923 INTER-LIGAND FREE ENERGY PREDICTED BY IDOCK:  -11.22 KCAL/MOL
REMARK 924 INTRA-LIGAND FREE ENERGY PREDICTED BY IDOCK:   -3.55 KCAL/MOL
REMARK 927      BINDING AFFINITY PREDICTED BY RF-SCORE:    0.00 PKD
ROOT
HETATM    1  C   UNL     1     -10.603   5.698  71.045  1.00  0.00    -0.318 C  
HETATM    2  C   UNL     1     -11.494   6.870  70.667  1.00  0.00    -0.383 C  
ENDROOT
BRANCH   2   3
HETATM    3  C   UNL     1     -11.365   7.999  71.685  1.00  0.00    -0.306 C  
BRANCH   3   4
HETATM    4  C   UNL     1      -9.945   8.555  71.736  1.00  0.00    -0.345 C  
BRANCH   4   5
HETATM    5  C   UNL     1      -9.615   9.321  70.454  1.00  0.00    -0.292 C  
BRANCH   5   6
HETATM    6  C   UNL     1      -8.265   8.884  69.902  1.00  0.00    -0.118 C  
BRANCH   6   7
HETATM    7  C   UNL     1      -7.133   9.828  70.312  1.00  0.00    -0.145 C  
BRANCH   7   8
HETATM    8  C   UNL     1      -6.587  10.502  69.059  1.00  0.00    -0.060 C  
BRANCH   8   9
HETATM    9  C   UNL     1      -6.838  12.006  69.005  1.00  0.00    -0.105 C  
BRANCH   9  10
HETATM   10  C   UNL     1      -8.234  12.239  68.419  1.00  0.00    -0.146 C  
BRANCH  10  11
HETATM   11  C   UNL     1      -8.263  13.217  67.255  1.00  0.00    -0.164 C  
BRANCH  11  12
HETATM   12  C   UNL     1      -9.653  13.696  66.799  1.00  0.00    -0.275 C  
BRANCH  12  13
HETATM   13  C   UNL     1      -9.741  15.187  66.403  1.00  0.00    -0.300 C  
BRANCH  13  14
HETATM   14  C   UNL     1     -10.642  16.031  67.313  1.00  0.00    -0.313 C  
HETATM   15  O   UNL     1     -10.531  17.457  67.037  1.00  0.00    -0.321 OA 
HETATM   16  O   UNL     1      -9.781  18.816  68.741  1.00  0.00    -0.369 OA 
HETATM   17  C   UNL     1     -10.120  16.278  68.756  1.00  0.00    -0.243 C  
HETATM   18  C   UNL     1     -10.080  17.741  68.279  1.00  0.00    -0.371 C  
BRANCH  17  19
HETATM   19  C   UNL     1     -11.038  16.049  69.952  1.00  0.00    -0.352 C  
BRANCH  19  20
HETATM   20  C   UNL     1     -11.312  14.560  70.142  1.00  0.00    -0.250 C  
BRANCH  20  21
HETATM   21  C   UNL     1     -12.781  14.301  70.486  1.00  0.00    -0.391 C  
BRANCH  21  22
HETATM   22  C   UNL     1     -13.288  15.298  71.529  1.00  0.00    -0.559 C  
BRANCH  22  23
HETATM   23  C   UNL     1     -13.528  14.631  72.883  1.00  0.00    -0.528 C  
HETATM   24  C   UNL     1     -12.425  14.982  73.872  1.00  0.00    -0.660 C  
ENDBRANCH  22  23
ENDBRANCH  21  22
ENDBRANCH  20  21
ENDBRANCH  19  20
ENDBRANCH  17  19
ENDBRANCH  13  14
ENDBRANCH  12  13
BRANCH  12  25
HETATM   25  O   UNL     1     -10.115  12.923  65.667  1.00  0.00    -0.279 OA 
BRANCH  25  26
HETATM   26  C   UNL     1     -11.034  11.947  65.908  1.00  0.00    -0.307 C  
HETATM   27  O   UNL     1     -11.815  11.909  66.853  1.00  0.00    -0.590 OA 
BRANCH  26  28
HETATM   28  C   UNL     1     -10.993  10.881  64.817  1.00  0.00     0.034 C  
BRANCH  28  29
HETATM   29  C   UNL     1      -9.757   9.976  64.945  1.00  0.00    -0.377 C  
HETATM   30  C   UNL     1     -10.505   8.408  66.853  1.00  0.00    -0.359 C  
HETATM   31  C   UNL     1      -8.095   8.699  66.318  1.00  0.00    -0.103 C  
HETATM   32  C   UNL     1      -9.456   9.400  66.348  1.00  0.00    -0.259 C  
ENDBRANCH  28  29
BRANCH  28  33
HETATM   33  N   UNL     1     -11.094  11.536  63.514  1.00  0.00    -0.630 N  
HETATM   34  C   UNL     1     -12.224  12.179  63.097  1.00  0.00    -0.262 C  
HETATM   35  O   UNL     1     -13.273  12.244  63.720  1.00  0.00    -0.771 OA 
HETATM   36  H   UNL     1     -10.286  11.513  62.891  1.00  0.00     0.000 HD 
ENDBRANCH  28  33
ENDBRANCH  26  28
ENDBRANCH  25  26
ENDBRANCH  12  25
ENDBRANCH  11  12
ENDBRANCH  10  11
ENDBRANCH   9  10
ENDBRANCH   8   9
ENDBRANCH   7   8
ENDBRANCH   6   7
ENDBRANCH   5   6
ENDBRANCH   4   5
ENDBRANCH   3   4
ENDBRANCH   2   3
TORSDOF 22
ENDMDL
MODEL       34
REMARK 921   NORMALIZED FREE ENERGY PREDICTED BY IDOCK:   -4.87 KCAL/MOL
REMARK 922        TOTAL FREE ENERGY PREDICTED BY IDOCK:  -14.76 KCAL/MOL
REMARK 923 INTER-LIGAND FREE ENERGY PREDICTED BY IDOCK:  -11.21 KCAL/MOL
REMARK 924 INTRA-LIGAND FREE ENERGY PREDICTED BY IDOCK:   -3.55 KCAL/MOL
REMARK 927      BINDING AFFINITY PREDICTED BY RF-SCORE:    0.00 PKD
ROOT
HETATM    1  C   UNL     1      -9.166  16.113  67.269  1.00  0.00    -0.218 C  
HETATM    2  C   UNL     1     -10.551  15.895  67.854  1.00  0.00    -0.300 C  
ENDROOT
BRANCH   2   3
HETATM    3  C   UNL     1     -10.632  16.441  69.276  1.00  0.00    -0.311 C  
BRANCH   3   4
HETATM    4  C   UNL     1     -11.862  15.920  70.014  1.00  0.00    -0.322 C  
BRANCH   4   5
HETATM    5  C   UNL     1     -11.709  16.107  71.524  1.00  0.00    -0.533 C  
BRANCH   5   6
HETATM    6  C   UNL     1     -13.017  15.790  72.237  1.00  0.00    -0.523 C  
BRANCH   6   7
HETATM    7  C   UNL     1     -12.971  14.449  72.971  1.00  0.00    -0.571 C  
BRANCH   7   8
HETATM    8  C   UNL     1     -13.887  13.469  72.247  1.00  0.00    -0.680 C  
BRANCH   8   9
HETATM    9  C   UNL     1     -13.197  12.179  71.814  1.00  0.00    -0.423 C  
BRANCH   9  10
HETATM   10  C   UNL     1     -12.168  12.525  70.734  1.00  0.00    -0.332 C  
BRANCH  10  11
HETATM   11  C   UNL     1     -12.326  11.727  69.449  1.00  0.00    -0.097 C  
BRANCH  11  12
HETATM   12  C   UNL     1     -11.044  11.100  68.871  1.00  0.00    -0.237 C  
BRANCH  12  13
HETATM   13  C   UNL     1     -10.314  10.110  69.805  1.00  0.00    -0.297 C  
BRANCH  13  14
HETATM   14  C   UNL     1     -11.219   9.032  70.416  1.00  0.00    -0.241 C  
HETATM   15  O   UNL     1     -11.370   9.184  71.856  1.00  0.00    -0.365 OA 
HETATM   16  O   UNL     1     -10.642   7.452  73.192  1.00  0.00    -0.303 OA 
HETATM   17  C   UNL     1     -10.570   7.638  70.639  1.00  0.00    -0.225 C  
HETATM   18  C   UNL     1     -10.821   7.978  72.119  1.00  0.00    -0.279 C  
BRANCH  17  19
HETATM   19  C   UNL     1     -11.287   6.376  70.171  1.00  0.00    -0.485 C  
BRANCH  19  20
HETATM   20  C   UNL     1     -10.329   5.188  70.158  1.00  0.00    -0.340 C  
BRANCH  20  21
HETATM   21  C   UNL     1      -9.869   4.857  68.736  1.00  0.00    -0.231 C  
BRANCH  21  22
HETATM   22  C   UNL     1     -10.605   5.713  67.703  1.00  0.00    -0.279 C  
BRANCH  22  23
HETATM   23  C   UNL     1      -9.649   6.294  66.661  1.00  0.00    -0.190 C  
HETATM   24  C   UNL     1      -8.393   6.851  67.318  1.00  0.00    -0.121 C  
ENDBRANCH  22  23
ENDBRANCH  21  22
ENDBRANCH  20  21
ENDBRANCH  19  20
ENDBRANCH  17  19
ENDBRANCH  13  14
ENDBRANCH  12  13
BRANCH  12  25
HETATM   25  O   UNL     1     -11.327  10.399  67.638  1.00  0.00    -0.371 OA 
BRANCH  25  26
HETATM   26  C   UNL     1     -10.407  10.493  66.637  1.00  0.00    -0.237 C  
HETATM   27  O   UNL     1     -10.079   9.592  65.873  1.00  0.00    -0.288 OA 
BRANCH  26  28
HETATM   28  C   UNL     1      -9.828  11.903  66.562  1.00  0.00    -0.206 C  
BRANCH  28  29
HETATM   29  C   UNL     1     -10.319  12.659  65.317  1.00  0.00    -0.309 C  
HETATM   30  C   UNL     1     -12.625  13.481  66.134  1.00  0.00    -0.355 C  
HETATM   31  C   UNL     1     -12.123  13.311  63.705  1.00  0.00    -0.551 C  
HETATM   32  C   UNL     1     -11.846  12.694  65.079  1.00  0.00    -0.439 C  
ENDBRANCH  28  29
BRANCH  28  33
HETATM   33  N   UNL     1      -8.371  11.817  66.646  1.00  0.00    -0.264 N  
HETATM   34  C   UNL     1      -7.655  12.384  67.662  1.00  0.00    -0.141 C  
HETATM   35  O   UNL     1      -8.124  13.051  68.572  1.00  0.00    -0.143 OA 
HETATM   36  H   UNL     1      -7.868  11.313  65.916  1.00  0.00     0.000 HD 
ENDBRANCH  28  33
ENDBRANCH  26  28
ENDBRANCH  25  26
ENDBRANCH  12  25
ENDBRANCH  11  12
ENDBRANCH  10  11
ENDBRANCH   9  10
ENDBRANCH   8   9
ENDBRANCH   7   8
ENDBRANCH   6   7
ENDBRANCH   5   6
ENDBRANCH   4   5
ENDBRANCH   3   4
ENDBRANCH   2   3
TORSDOF 22
ENDMDL
MODEL       35
REMARK 921   NORMALIZED FREE ENERGY PREDICTED BY IDOCK:   -4.86 KCAL/MOL
REMARK 922        TOTAL FREE ENERGY PREDICTED BY IDOCK:  -14.73 KCAL/MOL
REMARK 923 INTER-LIGAND FREE ENERGY PREDICTED BY IDOCK:  -10.49 KCAL/MOL
REMARK 924 INTRA-LIGAND FREE ENERGY PREDICTED BY IDOCK:   -4.24 KCAL/MOL
REMARK 927      BINDING AFFINITY PREDICTED BY RF-SCORE:    0.00 PKD
ROOT
HETATM    1  C   UNL     1     -11.835  11.814  63.323  1.00  0.00    -0.342 C  
HETATM    2  C   UNL     1     -10.378  11.436  63.106  1.00  0.00    -0.357 C  
ENDROOT
BRANCH   2   3
HETATM    3  C   UNL     1      -9.644  11.317  64.439  1.00  0.00    -0.257 C  
BRANCH   3   4
HETATM    4  C   UNL     1      -9.452   9.860  64.850  1.00  0.00    -0.355 C  
BRANCH   4   5
HETATM    5  C   UNL     1     -10.111   9.588  66.204  1.00  0.00    -0.326 C  
BRANCH   5   6
HETATM    6  C   UNL     1      -9.057   9.275  67.258  1.00  0.00    -0.143 C  
BRANCH   6   7
HETATM    7  C   UNL     1      -7.927  10.306  67.277  1.00  0.00    -0.107 C  
BRANCH   7   8
HETATM    8  C   UNL     1      -8.089  11.180  68.515  1.00  0.00    -0.146 C  
BRANCH   8   9
HETATM    9  C   UNL     1      -7.147  12.380  68.556  1.00  0.00    -0.100 C  
BRANCH   9  10
HETATM   10  C   UNL     1      -7.717  13.467  67.640  1.00  0.00    -0.180 C  
BRANCH  10  11
HETATM   11  C   UNL     1      -6.967  14.789  67.706  1.00  0.00    -0.192 C  
BRANCH  11  12
HETATM   12  C   UNL     1      -7.749  15.992  68.263  1.00  0.00    -0.142 C  
BRANCH  12  13
HETATM   13  C   UNL     1      -8.643  15.690  69.486  1.00  0.00    -0.191 C  
BRANCH  13  14
HETATM   14  C   UNL     1     -10.148  15.719  69.193  1.00  0.00    -0.238 C  
HETATM   15  O   UNL     1     -10.844  16.742  69.961  1.00  0.00    -0.282 OA 
HETATM   16  O   UNL     1     -12.486  16.043  71.421  1.00  0.00    -0.446 OA 
HETATM   17  C   UNL     1     -11.003  14.625  69.889  1.00  0.00    -0.194 C  
HETATM   18  C   UNL     1     -11.626  15.841  70.598  1.00  0.00    -0.390 C  
BRANCH  17  19
HETATM   19  C   UNL     1     -12.007  13.808  69.082  1.00  0.00    -0.403 C  
BRANCH  19  20
HETATM   20  C   UNL     1     -11.301  12.684  68.328  1.00  0.00    -0.337 C  
BRANCH  20  21
HETATM   21  C   UNL     1     -11.711  12.657  66.853  1.00  0.00    -0.453 C  
BRANCH  21  22
HETATM   22  C   UNL     1     -11.854  14.073  66.293  1.00  0.00    -0.428 C  
BRANCH  22  23
HETATM   23  C   UNL     1     -10.643  14.477  65.452  1.00  0.00    -0.385 C  
HETATM   24  C   UNL     1     -10.372  15.972  65.562  1.00  0.00    -0.415 C  
ENDBRANCH  22  23
ENDBRANCH  21  22
ENDBRANCH  20  21
ENDBRANCH  19  20
ENDBRANCH  17  19
ENDBRANCH  13  14
ENDBRANCH  12  13
BRANCH  12  25
HETATM   25  O   UNL     1      -6.848  17.058  68.642  1.00  0.00    -0.168 OA 
BRANCH  25  26
HETATM   26  C   UNL     1      -6.499  17.957  67.680  1.00  0.00    -0.179 C  
HETATM   27  O   UNL     1      -5.798  17.728  66.700  1.00  0.00    -0.138 OA 
BRANCH  26  28
HETATM   28  C   UNL     1      -7.120  19.322  67.960  1.00  0.00    -0.255 C  
BRANCH  28  29
HETATM   29  C   UNL     1      -8.154  19.712  66.893  1.00  0.00    -0.315 C  
HETATM   30  C   UNL     1     -10.280  19.925  68.340  1.00  0.00    -0.557 C  
HETATM   31  C   UNL     1     -10.444  19.563  65.886  1.00  0.00    -0.585 C  
HETATM   32  C   UNL     1      -9.612  19.260  67.136  1.00  0.00    -0.397 C  
ENDBRANCH  28  29
BRANCH  28  33
HETATM   33  N   UNL     1      -6.047  20.304  68.108  1.00  0.00    -0.249 N  
HETATM   34  C   UNL     1      -5.678  20.819  69.319  1.00  0.00    -0.355 C  
HETATM   35  O   UNL     1      -6.212  20.566  70.387  1.00  0.00    -0.482 OA 
HETATM   36  H   UNL     1      -5.553  20.619  67.272  1.00  0.00     0.000 HD 
ENDBRANCH  28  33
ENDBRANCH  26  28
ENDBRANCH  25  26
ENDBRANCH  12  25
ENDBRANCH  11  12
ENDBRANCH  10  11
ENDBRANCH   9  10
ENDBRANCH   8   9
ENDBRANCH   7   8
ENDBRANCH   6   7
ENDBRANCH   5   6
ENDBRANCH   4   5
ENDBRANCH   3   4
ENDBRANCH   2   3
TORSDOF 22
ENDMDL
MODEL       36
REMARK 921   NORMALIZED FREE ENERGY PREDICTED BY IDOCK:   -4.85 KCAL/MOL
REMARK 922        TOTAL FREE ENERGY PREDICTED BY IDOCK:  -14.72 KCAL/MOL
REMARK 923 INTER-LIGAND FREE ENERGY PREDICTED BY IDOCK:  -10.64 KCAL/MOL
REMARK 924 INTRA-LIGAND FREE ENERGY PREDICTED BY IDOCK:   -4.07 KCAL/MOL
REMARK 927      BINDING AFFINITY PREDICTED BY RF-SCORE:    0.00 PKD
ROOT
HETATM    1  C   UNL     1      -9.374   8.601  65.797  1.00  0.00    -0.227 C  
HETATM    2  C   UNL     1      -8.703   9.903  65.393  1.00  0.00    -0.175 C  
ENDROOT
BRANCH   2   3
HETATM    3  C   UNL     1      -9.200  10.368  64.027  1.00  0.00    -0.300 C  
BRANCH   3   4
HETATM    4  C   UNL     1     -10.077  11.612  64.138  1.00  0.00    -0.338 C  
BRANCH   4   5
HETATM    5  C   UNL     1     -11.263  11.527  63.175  1.00  0.00    -0.110 C  
BRANCH   5   6
HETATM    6  C   UNL     1     -12.371  12.478  63.607  1.00  0.00    -0.618 C  
BRANCH   6   7
HETATM    7  C   UNL     1     -12.534  12.532  65.127  1.00  0.00    -0.451 C  
BRANCH   7   8
HETATM    8  C   UNL     1     -12.476  13.990  65.569  1.00  0.00    -0.533 C  
BRANCH   8   9
HETATM    9  C   UNL     1     -12.131  14.965  64.448  1.00  0.00    -0.417 C  
BRANCH   9  10
HETATM   10  C   UNL     1     -10.854  15.715  64.840  1.00  0.00    -0.438 C  
BRANCH  10  11
HETATM   11  C   UNL     1     -10.648  15.844  66.341  1.00  0.00    -0.298 C  
BRANCH  11  12
HETATM   12  C   UNL     1      -9.232  15.541  66.865  1.00  0.00    -0.236 C  
BRANCH  12  13
HETATM   13  C   UNL     1      -8.862  14.043  66.940  1.00  0.00    -0.212 C  
BRANCH  13  14
HETATM   14  C   UNL     1      -9.433  13.311  68.160  1.00  0.00    -0.222 C  
HETATM   15  O   UNL     1      -8.426  12.524  68.859  1.00  0.00     0.089 OA 
HETATM   16  O   UNL     1      -8.758  10.247  68.993  1.00  0.00    -0.143 OA 
HETATM   17  C   UNL     1     -10.233  12.011  67.867  1.00  0.00    -0.203 C  
HETATM   18  C   UNL     1      -9.076  11.358  68.644  1.00  0.00    -0.135 C  
BRANCH  17  19
HETATM   19  C   UNL     1     -11.600  11.792  68.507  1.00  0.00    -0.380 C  
BRANCH  19  20
HETATM   20  C   UNL     1     -11.848  12.819  69.608  1.00  0.00    -0.384 C  
BRANCH  20  21
HETATM   21  C   UNL     1     -12.444  12.167  70.858  1.00  0.00    -0.374 C  
BRANCH  21  22
HETATM   22  C   UNL     1     -12.112  10.675  70.914  1.00  0.00    -0.489 C  
BRANCH  22  23
HETATM   23  C   UNL     1     -13.077   9.912  71.822  1.00  0.00    -0.553 C  
HETATM   24  C   UNL     1     -12.459   8.608  72.308  1.00  0.00    -0.460 C  
ENDBRANCH  22  23
ENDBRANCH  21  22
ENDBRANCH  20  21
ENDBRANCH  19  20
ENDBRANCH  17  19
ENDBRANCH  13  14
ENDBRANCH  12  13
BRANCH  12  25
HETATM   25  O   UNL     1      -8.232  16.190  66.046  1.00  0.00    -0.228 OA 
BRANCH  25  26
HETATM   26  C   UNL     1      -7.162  16.743  66.682  1.00  0.00    -0.254 C  
HETATM   27  O   UNL     1      -5.989  16.638  66.343  1.00  0.00    -0.283 OA 
BRANCH  26  28
HETATM   28  C   UNL     1      -7.610  17.552  67.896  1.00  0.00    -0.204 C  
BRANCH  28  29
HETATM   29  C   UNL     1      -8.008  18.987  67.514  1.00  0.00    -0.276 C  
HETATM   30  C   UNL     1     -10.047  19.346  69.054  1.00  0.00    -0.417 C  
HETATM   31  C   UNL     1      -9.731  20.737  67.018  1.00  0.00    -0.391 C  
HETATM   32  C   UNL     1      -9.507  19.348  67.623  1.00  0.00    -0.395 C  
ENDBRANCH  28  29
BRANCH  28  33
HETATM   33  N   UNL     1      -6.559  17.498  68.911  1.00  0.00    -0.216 N  
HETATM   34  C   UNL     1      -6.391  16.427  69.743  1.00  0.00    -0.186 C  
HETATM   35  O   UNL     1      -7.102  15.435  69.773  1.00  0.00    -0.185 OA 
HETATM   36  H   UNL     1      -5.925  18.292  69.002  1.00  0.00     0.000 HD 
ENDBRANCH  28  33
ENDBRANCH  26  28
ENDBRANCH  25  26
ENDBRANCH  12  25
ENDBRANCH  11  12
ENDBRANCH  10  11
ENDBRANCH   9  10
ENDBRANCH   8   9
ENDBRANCH   7   8
ENDBRANCH   6   7
ENDBRANCH   5   6
ENDBRANCH   4   5
ENDBRANCH   3   4
ENDBRANCH   2   3
TORSDOF 22
ENDMDL
MODEL       37
REMARK 921   NORMALIZED FREE ENERGY PREDICTED BY IDOCK:   -4.85 KCAL/MOL
REMARK 922        TOTAL FREE ENERGY PREDICTED BY IDOCK:  -14.70 KCAL/MOL
REMARK 923 INTER-LIGAND FREE ENERGY PREDICTED BY IDOCK:  -11.38 KCAL/MOL
REMARK 924 INTRA-LIGAND FREE ENERGY PREDICTED BY IDOCK:   -3.33 KCAL/MOL
REMARK 927      BINDING AFFINITY PREDICTED BY RF-SCORE:    0.00 PKD
ROOT
HETATM    1  C   UNL     1      -9.657   4.829  70.851  1.00  0.00    -0.245 C  
HETATM    2  C   UNL     1     -10.244   4.966  69.456  1.00  0.00    -0.247 C  
ENDROOT
BRANCH   2   3
HETATM    3  C   UNL     1     -10.840   6.356  69.251  1.00  0.00    -0.387 C  
BRANCH   3   4
HETATM    4  C   UNL     1     -11.074   6.660  67.775  1.00  0.00    -0.332 C  
BRANCH   4   5
HETATM    5  C   UNL     1     -10.550   8.053  67.418  1.00  0.00    -0.337 C  
BRANCH   5   6
HETATM    6  C   UNL     1      -9.718   8.620  68.560  1.00  0.00    -0.174 C  
BRANCH   6   7
HETATM    7  C   UNL     1      -9.581  10.142  68.482  1.00  0.00    -0.158 C  
BRANCH   7   8
HETATM    8  C   UNL     1     -10.521  10.658  67.398  1.00  0.00    -0.280 C  
BRANCH   8   9
HETATM    9  C   UNL     1     -11.613  11.588  67.916  1.00  0.00    -0.352 C  
BRANCH   9  10
HETATM   10  C   UNL     1     -11.545  12.896  67.122  1.00  0.00    -0.421 C  
BRANCH  10  11
HETATM   11  C   UNL     1     -12.158  14.089  67.839  1.00  0.00    -0.314 C  
BRANCH  11  12
HETATM   12  C   UNL     1     -11.207  15.258  68.158  1.00  0.00    -0.324 C  
BRANCH  12  13
HETATM   13  C   UNL     1     -11.005  15.553  69.661  1.00  0.00    -0.288 C  
BRANCH  13  14
HETATM   14  C   UNL     1     -12.255  15.337  70.522  1.00  0.00    -0.371 C  
HETATM   15  O   UNL     1     -12.256  16.166  71.719  1.00  0.00    -0.469 OA 
HETATM   16  O   UNL     1     -12.283  15.093  73.759  1.00  0.00    -0.512 OA 
HETATM   17  C   UNL     1     -12.262  14.064  71.414  1.00  0.00    -0.349 C  
HETATM   18  C   UNL     1     -12.269  15.102  72.551  1.00  0.00    -0.380 C  
BRANCH  17  19
HETATM   19  C   UNL     1     -13.475  13.140  71.421  1.00  0.00    -0.105 C  
BRANCH  19  20
HETATM   20  C   UNL     1     -13.130  11.807  72.077  1.00  0.00    -0.436 C  
BRANCH  20  21
HETATM   21  C   UNL     1     -12.880  10.717  71.031  1.00  0.00    -0.496 C  
BRANCH  21  22
HETATM   22  C   UNL     1     -11.670   9.859  71.405  1.00  0.00    -0.449 C  
BRANCH  22  23
HETATM   23  C   UNL     1     -12.083   8.581  72.135  1.00  0.00    -0.449 C  
HETATM   24  C   UNL     1     -13.484   8.144  71.727  1.00  0.00    -0.381 C  
ENDBRANCH  22  23
ENDBRANCH  21  22
ENDBRANCH  20  21
ENDBRANCH  19  20
ENDBRANCH  17  19
ENDBRANCH  13  14
ENDBRANCH  12  13
BRANCH  12  25
HETATM   25  O   UNL     1      -9.899  15.025  67.586  1.00  0.00    -0.219 OA 
BRANCH  25  26
HETATM   26  C   UNL     1      -9.450  15.922  66.664  1.00  0.00    -0.241 C  
HETATM   27  O   UNL     1      -9.811  15.996  65.495  1.00  0.00    -0.411 OA 
BRANCH  26  28
HETATM   28  C   UNL     1      -8.425  16.869  67.282  1.00  0.00    -0.196 C  
BRANCH  28  29
HETATM   29  C   UNL     1      -8.684  18.332  66.886  1.00  0.00    -0.273 C  
HETATM   30  C   UNL     1     -10.153  19.111  68.859  1.00  0.00    -0.422 C  
HETATM   31  C   UNL     1     -10.185  20.329  66.692  1.00  0.00    -0.491 C  
HETATM   32  C   UNL     1     -10.024  18.952  67.343  1.00  0.00    -0.392 C  
ENDBRANCH  28  29
BRANCH  28  33
HETATM   33  N   UNL     1      -7.084  16.406  66.929  1.00  0.00    -0.219 N  
HETATM   34  C   UNL     1      -6.189  15.958  67.858  1.00  0.00    -0.136 C  
HETATM   35  O   UNL     1      -6.375  15.933  69.065  1.00  0.00    -0.121 OA 
HETATM   36  H   UNL     1      -6.805  16.419  65.947  1.00  0.00     0.000 HD 
ENDBRANCH  28  33
ENDBRANCH  26  28
ENDBRANCH  25  26
ENDBRANCH  12  25
ENDBRANCH  11  12
ENDBRANCH  10  11
ENDBRANCH   9  10
ENDBRANCH   8   9
ENDBRANCH   7   8
ENDBRANCH   6   7
ENDBRANCH   5   6
ENDBRANCH   4   5
ENDBRANCH   3   4
ENDBRANCH   2   3
TORSDOF 22
ENDMDL
MODEL       38
REMARK 921   NORMALIZED FREE ENERGY PREDICTED BY IDOCK:   -4.84 KCAL/MOL
REMARK 922        TOTAL FREE ENERGY PREDICTED BY IDOCK:  -14.68 KCAL/MOL
REMARK 923 INTER-LIGAND FREE ENERGY PREDICTED BY IDOCK:  -10.25 KCAL/MOL
REMARK 924 INTRA-LIGAND FREE ENERGY PREDICTED BY IDOCK:   -4.43 KCAL/MOL
REMARK 927      BINDING AFFINITY PREDICTED BY RF-SCORE:    0.00 PKD
ROOT
HETATM    1  C   UNL     1     -12.116  13.755  69.996  1.00  0.00    -0.416 C  
HETATM    2  C   UNL     1     -11.178  14.816  69.444  1.00  0.00    -0.308 C  
ENDROOT
BRANCH   2   3
HETATM    3  C   UNL     1     -11.639  15.286  68.068  1.00  0.00    -0.325 C  
BRANCH   3   4
HETATM    4  C   UNL     1     -11.939  14.113  67.140  1.00  0.00    -0.460 C  
BRANCH   4   5
HETATM    5  C   UNL     1     -11.424  14.392  65.727  1.00  0.00    -0.335 C  
BRANCH   5   6
HETATM    6  C   UNL     1     -11.846  13.282  64.774  1.00  0.00    -0.411 C  
BRANCH   6   7
HETATM    7  C   UNL     1     -10.672  12.731  63.963  1.00  0.00    -0.457 C  
BRANCH   7   8
HETATM    8  C   UNL     1     -10.738  11.208  63.989  1.00  0.00    -0.409 C  
BRANCH   8   9
HETATM    9  C   UNL     1      -9.485  10.542  64.548  1.00  0.00    -0.329 C  
BRANCH   9  10
HETATM   10  C   UNL     1      -9.901   9.638  65.712  1.00  0.00    -0.373 C  
BRANCH  10  11
HETATM   11  C   UNL     1     -10.575  10.374  66.859  1.00  0.00    -0.293 C  
BRANCH  11  12
HETATM   12  C   UNL     1      -9.773  10.480  68.169  1.00  0.00    -0.153 C  
BRANCH  12  13
HETATM   13  C   UNL     1      -9.300  11.903  68.541  1.00  0.00    -0.142 C  
BRANCH  13  14
HETATM   14  C   UNL     1      -8.585  12.648  67.407  1.00  0.00    -0.189 C  
HETATM   15  O   UNL     1      -7.288  12.067  67.089  1.00  0.00    -0.140 OA 
HETATM   16  O   UNL     1      -5.429  13.402  67.356  1.00  0.00    -0.345 OA 
HETATM   17  C   UNL     1      -7.884  13.979  67.797  1.00  0.00    -0.176 C  
HETATM   18  C   UNL     1      -6.617  13.197  67.406  1.00  0.00    -0.082 C  
BRANCH  17  19
HETATM   19  C   UNL     1      -8.108  15.236  66.962  1.00  0.00    -0.253 C  
BRANCH  19  20
HETATM   20  C   UNL     1      -8.088  16.479  67.848  1.00  0.00    -0.168 C  
BRANCH  20  21
HETATM   21  C   UNL     1      -8.707  17.684  67.135  1.00  0.00    -0.252 C  
BRANCH  21  22
HETATM   22  C   UNL     1      -9.553  18.520  68.097  1.00  0.00    -0.353 C  
BRANCH  22  23
HETATM   23  C   UNL     1     -10.762  19.141  67.397  1.00  0.00    -0.578 C  
HETATM   24  C   UNL     1     -10.415  19.568  65.978  1.00  0.00    -0.611 C  
ENDBRANCH  22  23
ENDBRANCH  21  22
ENDBRANCH  20  21
ENDBRANCH  19  20
ENDBRANCH  17  19
ENDBRANCH  13  14
ENDBRANCH  12  13
BRANCH  12  25
HETATM   25  O   UNL     1     -10.546   9.980  69.285  1.00  0.00    -0.201 OA 
BRANCH  25  26
HETATM   26  C   UNL     1      -9.939   9.089  70.118  1.00  0.00    -0.189 C  
HETATM   27  O   UNL     1      -8.908   9.282  70.752  1.00  0.00    -0.222 OA 
BRANCH  26  28
HETATM   28  C   UNL     1     -10.730   7.786  70.189  1.00  0.00    -0.240 C  
BRANCH  28  29
HETATM   29  C   UNL     1     -10.706   7.026  68.853  1.00  0.00    -0.227 C  
HETATM   30  C   UNL     1      -8.393   5.888  68.990  1.00  0.00    -0.106 C  
HETATM   31  C   UNL     1      -9.519   6.220  66.799  1.00  0.00    -0.167 C  
HETATM   32  C   UNL     1      -9.322   6.810  68.198  1.00  0.00    -0.122 C  
ENDBRANCH  28  29
BRANCH  28  33
HETATM   33  N   UNL     1     -12.082   8.082  70.659  1.00  0.00    -0.495 N  
HETATM   34  C   UNL     1     -12.409   8.135  71.984  1.00  0.00    -0.338 C  
HETATM   35  O   UNL     1     -11.648   7.903  72.910  1.00  0.00    -0.383 OA 
HETATM   36  H   UNL     1     -12.813   8.256  69.967  1.00  0.00     0.000 HD 
ENDBRANCH  28  33
ENDBRANCH  26  28
ENDBRANCH  25  26
ENDBRANCH  12  25
ENDBRANCH  11  12
ENDBRANCH  10  11
ENDBRANCH   9  10
ENDBRANCH   8   9
ENDBRANCH   7   8
ENDBRANCH   6   7
ENDBRANCH   5   6
ENDBRANCH   4   5
ENDBRANCH   3   4
ENDBRANCH   2   3
TORSDOF 22
ENDMDL
MODEL       39
REMARK 921   NORMALIZED FREE ENERGY PREDICTED BY IDOCK:   -4.83 KCAL/MOL
REMARK 922        TOTAL FREE ENERGY PREDICTED BY IDOCK:  -14.67 KCAL/MOL
REMARK 923 INTER-LIGAND FREE ENERGY PREDICTED BY IDOCK:  -10.69 KCAL/MOL
REMARK 924 INTRA-LIGAND FREE ENERGY PREDICTED BY IDOCK:   -3.98 KCAL/MOL
REMARK 927      BINDING AFFINITY PREDICTED BY RF-SCORE:    0.00 PKD
ROOT
HETATM    1  C   UNL     1     -11.923  14.560  69.478  1.00  0.00    -0.363 C  
HETATM    2  C   UNL     1     -11.426  13.185  69.060  1.00  0.00    -0.345 C  
ENDROOT
BRANCH   2   3
HETATM    3  C   UNL     1     -11.869  12.857  67.637  1.00  0.00    -0.400 C  
BRANCH   3   4
HETATM    4  C   UNL     1     -12.151  14.119  66.827  1.00  0.00    -0.474 C  
BRANCH   4   5
HETATM    5  C   UNL     1     -11.823  13.900  65.349  1.00  0.00    -0.363 C  
BRANCH   5   6
HETATM    6  C   UNL     1     -12.826  12.946  64.715  1.00  0.00    -0.359 C  
BRANCH   6   7
HETATM    7  C   UNL     1     -12.162  11.950  63.762  1.00  0.00    -0.549 C  
BRANCH   7   8
HETATM    8  C   UNL     1     -10.669  11.909  64.068  1.00  0.00    -0.428 C  
BRANCH   8   9
HETATM    9  C   UNL     1      -9.999  10.587  63.708  1.00  0.00    -0.324 C  
BRANCH   9  10
HETATM   10  C   UNL     1      -9.555   9.905  65.006  1.00  0.00    -0.364 C  
BRANCH  10  11
HETATM   11  C   UNL     1      -9.792  10.737  66.256  1.00  0.00    -0.262 C  
BRANCH  11  12
HETATM   12  C   UNL     1      -9.040  10.296  67.525  1.00  0.00    -0.137 C  
BRANCH  12  13
HETATM   13  C   UNL     1      -8.201  11.396  68.211  1.00  0.00    -0.150 C  
BRANCH  13  14
HETATM   14  C   UNL     1      -7.781  12.543  67.284  1.00  0.00    -0.146 C  
HETATM   15  O   UNL     1      -6.358  12.840  67.373  1.00  0.00    -0.156 OA 
HETATM   16  O   UNL     1      -5.752  14.949  68.076  1.00  0.00    -0.125 OA 
HETATM   17  C   UNL     1      -8.103  13.980  67.781  1.00  0.00    -0.170 C  
HETATM   18  C   UNL     1      -6.569  14.104  67.803  1.00  0.00    -0.175 C  
BRANCH  17  19
HETATM   19  C   UNL     1      -8.785  14.978  66.851  1.00  0.00    -0.285 C  
BRANCH  19  20
HETATM   20  C   UNL     1      -9.407  16.119  67.651  1.00  0.00    -0.214 C  
BRANCH  20  21
HETATM   21  C   UNL     1      -9.299  17.451  66.903  1.00  0.00    -0.271 C  
BRANCH  21  22
HETATM   22  C   UNL     1     -10.617  18.225  66.961  1.00  0.00    -0.375 C  
BRANCH  22  23
HETATM   23  C   UNL     1     -10.412  19.662  67.440  1.00  0.00    -0.596 C  
HETATM   24  C   UNL     1     -10.042  19.701  68.916  1.00  0.00    -0.491 C  
ENDBRANCH  22  23
ENDBRANCH  21  22
ENDBRANCH  20  21
ENDBRANCH  19  20
ENDBRANCH  17  19
ENDBRANCH  13  14
ENDBRANCH  12  13
BRANCH  12  25
HETATM   25  O   UNL     1      -9.961   9.779  68.513  1.00  0.00    -0.153 OA 
BRANCH  25  26
HETATM   26  C   UNL     1      -9.567   8.687  69.227  1.00  0.00    -0.166 C  
HETATM   27  O   UNL     1      -8.579   7.997  69.001  1.00  0.00    -0.135 OA 
BRANCH  26  28
HETATM   28  C   UNL     1     -10.517   8.427  70.392  1.00  0.00    -0.214 C  
BRANCH  28  29
HETATM   29  C   UNL     1     -11.076   9.733  70.979  1.00  0.00    -0.431 C  
HETATM   30  C   UNL     1     -13.057   8.827  72.364  1.00  0.00    -0.444 C  
HETATM   31  C   UNL     1     -12.989  11.207  71.646  1.00  0.00    -0.548 C  
HETATM   32  C   UNL     1     -12.596   9.778  71.258  1.00  0.00    -0.460 C  
ENDBRANCH  28  29
BRANCH  28  33
HETATM   33  N   UNL     1      -9.831   7.598  71.382  1.00  0.00    -0.173 N  
HETATM   34  C   UNL     1     -10.248   6.338  71.706  1.00  0.00    -0.196 C  
HETATM   35  O   UNL     1     -11.239   5.784  71.258  1.00  0.00    -0.246 OA 
HETATM   36  H   UNL     1      -9.007   7.976  71.850  1.00  0.00     0.000 HD 
ENDBRANCH  28  33
ENDBRANCH  26  28
ENDBRANCH  25  26
ENDBRANCH  12  25
ENDBRANCH  11  12
ENDBRANCH  10  11
ENDBRANCH   9  10
ENDBRANCH   8   9
ENDBRANCH   7   8
ENDBRANCH   6   7
ENDBRANCH   5   6
ENDBRANCH   4   5
ENDBRANCH   3   4
ENDBRANCH   2   3
TORSDOF 22
ENDMDL
MODEL       40
REMARK 921   NORMALIZED FREE ENERGY PREDICTED BY IDOCK:   -4.83 KCAL/MOL
REMARK 922        TOTAL FREE ENERGY PREDICTED BY IDOCK:  -14.66 KCAL/MOL
REMARK 923 INTER-LIGAND FREE ENERGY PREDICTED BY IDOCK:  -11.27 KCAL/MOL
REMARK 924 INTRA-LIGAND FREE ENERGY PREDICTED BY IDOCK:   -3.40 KCAL/MOL
REMARK 927      BINDING AFFINITY PREDICTED BY RF-SCORE:    0.00 PKD
ROOT
HETATM    1  C   UNL     1     -13.320   9.918  71.993  1.00  0.00    -0.532 C  
HETATM    2  C   UNL     1     -13.688   8.503  72.410  1.00  0.00    -0.341 C  
ENDROOT
BRANCH   2   3
HETATM    3  C   UNL     1     -13.277   7.497  71.339  1.00  0.00    -0.368 C  
BRANCH   3   4
HETATM    4  C   UNL     1     -12.243   6.505  71.862  1.00  0.00    -0.373 C  
BRANCH   4   5
HETATM    5  C   UNL     1     -10.983   6.526  70.995  1.00  0.00    -0.314 C  
BRANCH   5   6
HETATM    6  C   UNL     1     -11.348   6.443  69.519  1.00  0.00    -0.460 C  
BRANCH   6   7
HETATM    7  C   UNL     1     -10.619   7.492  68.678  1.00  0.00    -0.171 C  
BRANCH   7   8
HETATM    8  C   UNL     1      -9.926   8.472  69.619  1.00  0.00    -0.192 C  
BRANCH   8   9
HETATM    9  C   UNL     1     -10.689   9.776  69.828  1.00  0.00    -0.283 C  
BRANCH   9  10
HETATM   10  C   UNL     1     -10.938  10.410  68.456  1.00  0.00    -0.302 C  
BRANCH  10  11
HETATM   11  C   UNL     1      -9.885  11.426  68.042  1.00  0.00    -0.191 C  
BRANCH  11  12
HETATM   12  C   UNL     1     -10.395  12.832  67.680  1.00  0.00    -0.221 C  
BRANCH  12  13
HETATM   13  C   UNL     1     -11.716  12.870  66.880  1.00  0.00    -0.445 C  
BRANCH  13  14
HETATM   14  C   UNL     1     -11.536  13.068  65.370  1.00  0.00    -0.341 C  
HETATM   15  O   UNL     1     -12.805  13.238  64.676  1.00  0.00    -0.679 OA 
HETATM   16  O   UNL     1     -13.356  11.681  63.067  1.00  0.00    -0.341 OA 
HETATM   17  C   UNL     1     -11.262  11.784  64.538  1.00  0.00    -0.368 C  
HETATM   18  C   UNL     1     -12.625  12.135  63.915  1.00  0.00    -0.438 C  
BRANCH  17  19
HETATM   19  C   UNL     1     -10.118  11.754  63.530  1.00  0.00    -0.463 C  
BRANCH  19  20
HETATM   20  C   UNL     1      -9.146  10.624  63.855  1.00  0.00    -0.244 C  
BRANCH  20  21
HETATM   21  C   UNL     1      -9.761   9.621  64.834  1.00  0.00    -0.174 C  
BRANCH  21  22
HETATM   22  C   UNL     1      -8.677   8.833  65.572  1.00  0.00    -0.217 C  
BRANCH  22  23
HETATM   23  C   UNL     1      -7.483   9.715  65.936  1.00  0.00    -0.099 C  
HETATM   24  C   UNL     1      -6.851   9.270  67.248  1.00  0.00    -0.080 C  
ENDBRANCH  22  23
ENDBRANCH  21  22
ENDBRANCH  20  21
ENDBRANCH  19  20
ENDBRANCH  17  19
ENDBRANCH  13  14
ENDBRANCH  12  13
BRANCH  12  25
HETATM   25  O   UNL     1     -10.591  13.629  68.871  1.00  0.00    -0.245 OA 
BRANCH  25  26
HETATM   26  C   UNL     1     -10.038  14.873  68.891  1.00  0.00    -0.236 C  
HETATM   27  O   UNL     1      -8.839  15.129  68.906  1.00  0.00    -0.183 OA 
BRANCH  26  28
HETATM   28  C   UNL     1     -11.120  15.950  68.872  1.00  0.00    -0.316 C  
BRANCH  28  29
HETATM   29  C   UNL     1     -10.915  16.948  67.722  1.00  0.00    -0.212 C  
HETATM   30  C   UNL     1      -9.050  18.437  68.705  1.00  0.00    -0.317 C  
HETATM   31  C   UNL     1     -10.501  19.266  66.864  1.00  0.00    -0.547 C  
HETATM   32  C   UNL     1     -10.457  18.373  68.108  1.00  0.00    -0.355 C  
ENDBRANCH  28  29
BRANCH  28  33
HETATM   33  N   UNL     1     -11.171  16.588  70.186  1.00  0.00    -0.456 N  
HETATM   34  C   UNL     1     -11.908  16.088  71.222  1.00  0.00    -0.449 C  
HETATM   35  O   UNL     1     -12.629  15.104  71.167  1.00  0.00    -0.310 OA 
HETATM   36  H   UNL     1     -10.634  17.443  70.336  1.00  0.00     0.000 HD 
ENDBRANCH  28  33
ENDBRANCH  26  28
ENDBRANCH  25  26
ENDBRANCH  12  25
ENDBRANCH  11  12
ENDBRANCH  10  11
ENDBRANCH   9  10
ENDBRANCH   8   9
ENDBRANCH   7   8
ENDBRANCH   6   7
ENDBRANCH   5   6
ENDBRANCH   4   5
ENDBRANCH   3   4
ENDBRANCH   2   3
TORSDOF 22
ENDMDL
MODEL       41
REMARK 921   NORMALIZED FREE ENERGY PREDICTED BY IDOCK:   -4.83 KCAL/MOL
REMARK 922        TOTAL FREE ENERGY PREDICTED BY IDOCK:  -14.66 KCAL/MOL
REMARK 923 INTER-LIGAND FREE ENERGY PREDICTED BY IDOCK:  -11.38 KCAL/MOL
REMARK 924 INTRA-LIGAND FREE ENERGY PREDICTED BY IDOCK:   -3.28 KCAL/MOL
REMARK 927      BINDING AFFINITY PREDICTED BY RF-SCORE:    0.00 PKD
ROOT
HETATM    1  C   UNL     1     -10.741   5.672  66.744  1.00  0.00    -0.358 C  
HETATM    2  C   UNL     1     -10.595   6.850  67.693  1.00  0.00    -0.328 C  
ENDROOT
BRANCH   2   3
HETATM    3  C   UNL     1     -10.374   8.146  66.918  1.00  0.00    -0.401 C  
BRANCH   3   4
HETATM    4  C   UNL     1      -8.919   8.307  66.487  1.00  0.00    -0.189 C  
BRANCH   4   5
HETATM    5  C   UNL     1      -8.712   9.637  65.761  1.00  0.00    -0.168 C  
BRANCH   5   6
HETATM    6  C   UNL     1     -10.051  10.234  65.347  1.00  0.00    -0.354 C  
BRANCH   6   7
HETATM    7  C   UNL     1     -10.019  11.763  65.306  1.00  0.00    -0.284 C  
BRANCH   7   8
HETATM    8  C   UNL     1     -11.301  12.291  65.940  1.00  0.00    -0.406 C  
BRANCH   8   9
HETATM    9  C   UNL     1     -11.675  11.603  67.249  1.00  0.00    -0.255 C  
BRANCH   9  10
HETATM   10  C   UNL     1     -11.295  12.533  68.406  1.00  0.00    -0.333 C  
BRANCH  10  11
HETATM   11  C   UNL     1     -11.948  13.905  68.337  1.00  0.00    -0.391 C  
BRANCH  11  12
HETATM   12  C   UNL     1     -11.073  15.100  68.757  1.00  0.00    -0.267 C  
BRANCH  12  13
HETATM   13  C   UNL     1     -11.099  15.441  70.264  1.00  0.00    -0.331 C  
BRANCH  13  14
HETATM   14  C   UNL     1     -12.429  15.129  70.960  1.00  0.00    -0.357 C  
HETATM   15  O   UNL     1     -12.867  16.209  71.833  1.00  0.00    -0.390 OA 
HETATM   16  O   UNL     1     -13.102  15.737  74.076  1.00  0.00    -0.476 OA 
HETATM   17  C   UNL     1     -12.355  14.178  72.187  1.00  0.00    -0.181 C  
HETATM   18  C   UNL     1     -12.831  15.434  72.940  1.00  0.00    -0.445 C  
BRANCH  17  19
HETATM   19  C   UNL     1     -13.314  12.998  72.301  1.00  0.00    -0.606 C  
BRANCH  19  20
HETATM   20  C   UNL     1     -12.860  11.850  71.404  1.00  0.00    -0.411 C  
BRANCH  20  21
HETATM   21  C   UNL     1     -13.131  10.491  72.055  1.00  0.00    -0.511 C  
BRANCH  21  22
HETATM   22  C   UNL     1     -12.708   9.344  71.135  1.00  0.00    -0.342 C  
BRANCH  22  23
HETATM   23  C   UNL     1     -11.292   8.858  71.447  1.00  0.00    -0.380 C  
HETATM   24  C   UNL     1     -10.263   9.576  70.584  1.00  0.00    -0.364 C  
ENDBRANCH  22  23
ENDBRANCH  21  22
ENDBRANCH  20  21
ENDBRANCH  19  20
ENDBRANCH  17  19
ENDBRANCH  13  14
ENDBRANCH  12  13
BRANCH  12  25
HETATM   25  O   UNL     1      -9.691  14.878  68.391  1.00  0.00    -0.198 OA 
BRANCH  25  26
HETATM   26  C   UNL     1      -9.223  15.524  67.287  1.00  0.00    -0.209 C  
HETATM   27  O   UNL     1      -9.370  15.163  66.125  1.00  0.00    -0.291 OA 
BRANCH  26  28
HETATM   28  C   UNL     1      -8.488  16.803  67.677  1.00  0.00    -0.190 C  
BRANCH  28  29
HETATM   29  C   UNL     1      -8.954  18.008  66.845  1.00  0.00    -0.268 C  
HETATM   30  C   UNL     1      -9.327  19.759  68.704  1.00  0.00    -0.328 C  
HETATM   31  C   UNL     1     -10.432  20.001  66.490  1.00  0.00    -0.525 C  
HETATM   32  C   UNL     1      -9.933  18.991  67.528  1.00  0.00    -0.418 C  
ENDBRANCH  28  29
BRANCH  28  33
HETATM   33  N   UNL     1      -7.048  16.564  67.587  1.00  0.00    -0.125 N  
HETATM   34  C   UNL     1      -6.237  16.521  68.684  1.00  0.00    -0.136 C  
HETATM   35  O   UNL     1      -6.593  16.717  69.836  1.00  0.00    -0.160 OA 
HETATM   36  H   UNL     1      -6.633  16.423  66.665  1.00  0.00     0.000 HD 
ENDBRANCH  28  33
ENDBRANCH  26  28
ENDBRANCH  25  26
ENDBRANCH  12  25
ENDBRANCH  11  12
ENDBRANCH  10  11
ENDBRANCH   9  10
ENDBRANCH   8   9
ENDBRANCH   7   8
ENDBRANCH   6   7
ENDBRANCH   5   6
ENDBRANCH   4   5
ENDBRANCH   3   4
ENDBRANCH   2   3
TORSDOF 22
ENDMDL
MODEL       42
REMARK 921   NORMALIZED FREE ENERGY PREDICTED BY IDOCK:   -4.83 KCAL/MOL
REMARK 922        TOTAL FREE ENERGY PREDICTED BY IDOCK:  -14.65 KCAL/MOL
REMARK 923 INTER-LIGAND FREE ENERGY PREDICTED BY IDOCK:  -11.11 KCAL/MOL
REMARK 924 INTRA-LIGAND FREE ENERGY PREDICTED BY IDOCK:   -3.54 KCAL/MOL
REMARK 927      BINDING AFFINITY PREDICTED BY RF-SCORE:    0.00 PKD
ROOT
HETATM    1  C   UNL     1     -13.140  11.225  71.707  1.00  0.00    -0.527 C  
HETATM    2  C   UNL     1     -12.287  10.381  70.774  1.00  0.00    -0.463 C  
ENDROOT
BRANCH   2   3
HETATM    3  C   UNL     1     -11.431   9.395  71.565  1.00  0.00    -0.467 C  
BRANCH   3   4
HETATM    4  C   UNL     1     -12.273   8.284  72.185  1.00  0.00    -0.418 C  
BRANCH   4   5
HETATM    5  C   UNL     1     -12.433   7.116  71.209  1.00  0.00    -0.425 C  
BRANCH   5   6
HETATM    6  C   UNL     1     -11.081   6.486  70.904  1.00  0.00    -0.345 C  
BRANCH   6   7
HETATM    7  C   UNL     1     -10.970   6.020  69.450  1.00  0.00    -0.455 C  
BRANCH   7   8
HETATM    8  C   UNL     1     -10.027   6.963  68.711  1.00  0.00    -0.153 C  
BRANCH   8   9
HETATM    9  C   UNL     1     -10.674   7.693  67.539  1.00  0.00    -0.280 C  
BRANCH   9  10
HETATM   10  C   UNL     1     -10.666   9.194  67.846  1.00  0.00    -0.224 C  
BRANCH  10  11
HETATM   11  C   UNL     1     -10.863  10.078  66.625  1.00  0.00    -0.058 C  
BRANCH  11  12
HETATM   12  C   UNL     1     -10.626  11.586  66.827  1.00  0.00    -0.250 C  
BRANCH  12  13
HETATM   13  C   UNL     1     -11.878  12.405  67.213  1.00  0.00    -0.357 C  
BRANCH  13  14
HETATM   14  C   UNL     1     -12.043  13.714  66.431  1.00  0.00    -0.433 C  
HETATM   15  O   UNL     1     -13.102  13.637  65.435  1.00  0.00    -0.704 OA 
HETATM   16  O   UNL     1     -12.512  13.938  63.227  1.00  0.00    -0.817 OA 
HETATM   17  C   UNL     1     -11.009  13.973  65.300  1.00  0.00    -0.335 C  
HETATM   18  C   UNL     1     -12.257  13.865  64.405  1.00  0.00    -0.413 C  
BRANCH  17  19
HETATM   19  C   UNL     1     -10.302  15.321  65.203  1.00  0.00    -0.413 C  
BRANCH  19  20
HETATM   20  C   UNL     1     -10.524  16.136  66.473  1.00  0.00    -0.298 C  
BRANCH  20  21
HETATM   21  C   UNL     1      -9.842  17.504  66.386  1.00  0.00    -0.316 C  
BRANCH  21  22
HETATM   22  C   UNL     1     -10.575  18.542  67.239  1.00  0.00    -0.453 C  
BRANCH  22  23
HETATM   23  C   UNL     1      -9.965  18.662  68.636  1.00  0.00    -0.431 C  
HETATM   24  C   UNL     1      -8.508  19.098  68.563  1.00  0.00    -0.399 C  
ENDBRANCH  22  23
ENDBRANCH  21  22
ENDBRANCH  20  21
ENDBRANCH  19  20
ENDBRANCH  17  19
ENDBRANCH  13  14
ENDBRANCH  12  13
BRANCH  12  25
HETATM   25  O   UNL     1      -9.630  11.816  67.850  1.00  0.00    -0.175 OA 
BRANCH  25  26
HETATM   26  C   UNL     1      -8.322  11.709  67.486  1.00  0.00    -0.151 C  
HETATM   27  O   UNL     1      -7.902  11.245  66.431  1.00  0.00    -0.158 OA 
BRANCH  26  28
HETATM   28  C   UNL     1      -7.408  12.272  68.571  1.00  0.00    -0.105 C  
BRANCH  28  29
HETATM   29  C   UNL     1      -6.657  13.526  68.095  1.00  0.00    -0.121 C  
HETATM   30  C   UNL     1      -8.115  15.383  69.138  1.00  0.00    -0.233 C  
HETATM   31  C   UNL     1      -6.623  15.869  67.209  1.00  0.00    -0.200 C  
HETATM   32  C   UNL     1      -7.502  14.799  67.863  1.00  0.00    -0.156 C  
ENDBRANCH  28  29
BRANCH  28  33
HETATM   33  N   UNL     1      -6.517  11.209  69.033  1.00  0.00    -0.059 N  
HETATM   34  C   UNL     1      -6.917  10.239  69.909  1.00  0.00    -0.142 C  
HETATM   35  O   UNL     1      -8.017  10.169  70.433  1.00  0.00    -0.181 OA 
HETATM   36  H   UNL     1      -5.557  11.190  68.688  1.00  0.00     0.000 HD 
ENDBRANCH  28  33
ENDBRANCH  26  28
ENDBRANCH  25  26
ENDBRANCH  12  25
ENDBRANCH  11  12
ENDBRANCH  10  11
ENDBRANCH   9  10
ENDBRANCH   8   9
ENDBRANCH   7   8
ENDBRANCH   6   7
ENDBRANCH   5   6
ENDBRANCH   4   5
ENDBRANCH   3   4
ENDBRANCH   2   3
TORSDOF 22
ENDMDL
MODEL       43
REMARK 921   NORMALIZED FREE ENERGY PREDICTED BY IDOCK:   -4.81 KCAL/MOL
REMARK 922        TOTAL FREE ENERGY PREDICTED BY IDOCK:  -14.61 KCAL/MOL
REMARK 923 INTER-LIGAND FREE ENERGY PREDICTED BY IDOCK:  -11.11 KCAL/MOL
REMARK 924 INTRA-LIGAND FREE ENERGY PREDICTED BY IDOCK:   -3.51 KCAL/MOL
REMARK 927      BINDING AFFINITY PREDICTED BY RF-SCORE:    0.00 PKD
ROOT
HETATM    1  C   UNL     1     -10.783  17.720  67.903  1.00  0.00    -0.327 C  
HETATM    2  C   UNL     1     -10.451  17.104  69.252  1.00  0.00    -0.267 C  
ENDROOT
BRANCH   2   3
HETATM    3  C   UNL     1     -11.452  16.008  69.609  1.00  0.00    -0.326 C  
BRANCH   3   4
HETATM    4  C   UNL     1     -11.901  16.104  71.064  1.00  0.00    -0.368 C  
BRANCH   4   5
HETATM    5  C   UNL     1     -13.310  15.534  71.236  1.00  0.00    -0.588 C  
BRANCH   5   6
HETATM    6  C   UNL     1     -13.402  14.713  72.516  1.00  0.00    -0.542 C  
BRANCH   6   7
HETATM    7  C   UNL     1     -13.637  13.227  72.240  1.00  0.00    -0.703 C  
BRANCH   7   8
HETATM    8  C   UNL     1     -12.761  12.808  71.065  1.00  0.00    -0.331 C  
BRANCH   8   9
HETATM    9  C   UNL     1     -12.517  11.305  70.979  1.00  0.00    -0.503 C  
BRANCH   9  10
HETATM   10  C   UNL     1     -11.501  11.048  69.862  1.00  0.00    -0.400 C  
BRANCH  10  11
HETATM   11  C   UNL     1     -11.568  12.050  68.720  1.00  0.00    -0.366 C  
BRANCH  11  12
HETATM   12  C   UNL     1     -11.509  11.469  67.295  1.00  0.00    -0.263 C  
BRANCH  12  13
HETATM   13  C   UNL     1     -11.986  12.419  66.174  1.00  0.00    -0.397 C  
BRANCH  13  14
HETATM   14  C   UNL     1     -11.590  13.887  66.377  1.00  0.00    -0.367 C  
HETATM   15  O   UNL     1     -12.439  14.801  65.628  1.00  0.00    -0.153 OA 
HETATM   16  O   UNL     1     -11.432  16.128  64.035  1.00  0.00    -0.746 OA 
HETATM   17  C   UNL     1     -10.358  14.382  65.570  1.00  0.00    -0.382 C  
HETATM   18  C   UNL     1     -11.410  15.281  64.895  1.00  0.00    -0.384 C  
BRANCH  17  19
HETATM   19  C   UNL     1      -9.246  15.159  66.268  1.00  0.00    -0.336 C  
BRANCH  19  20
HETATM   20  C   UNL     1      -8.366  14.219  67.085  1.00  0.00    -0.202 C  
BRANCH  20  21
HETATM   21  C   UNL     1      -8.649  14.349  68.585  1.00  0.00    -0.161 C  
BRANCH  21  22
HETATM   22  C   UNL     1      -7.513  15.084  69.299  1.00  0.00    -0.188 C  
BRANCH  22  23
HETATM   23  C   UNL     1      -6.151  14.755  68.689  1.00  0.00    -0.087 C  
HETATM   24  C   UNL     1      -5.229  14.113  69.716  1.00  0.00    -0.092 C  
ENDBRANCH  22  23
ENDBRANCH  21  22
ENDBRANCH  20  21
ENDBRANCH  19  20
ENDBRANCH  17  19
ENDBRANCH  13  14
ENDBRANCH  12  13
BRANCH  12  25
HETATM   25  O   UNL     1     -10.162  11.057  66.965  1.00  0.00    -0.196 OA 
BRANCH  25  26
HETATM   26  C   UNL     1     -10.016   9.917  66.234  1.00  0.00    -0.256 C  
HETATM   27  O   UNL     1      -9.939   9.849  65.012  1.00  0.00    -0.316 OA 
BRANCH  26  28
HETATM   28  C   UNL     1      -9.937   8.695  67.144  1.00  0.00    -0.231 C  
BRANCH  28  29
HETATM   29  C   UNL     1      -8.544   8.537  67.773  1.00  0.00    -0.134 C  
HETATM   30  C   UNL     1      -9.176   8.135  70.243  1.00  0.00    -0.151 C  
HETATM   31  C   UNL     1      -6.906   8.939  69.626  1.00  0.00    -0.050 C  
HETATM   32  C   UNL     1      -8.388   8.985  69.245  1.00  0.00    -0.122 C  
ENDBRANCH  28  29
BRANCH  28  33
HETATM   33  N   UNL     1     -10.364   7.518  66.388  1.00  0.00    -0.473 N  
HETATM   34  C   UNL     1     -11.005   6.460  66.967  1.00  0.00    -0.389 C  
HETATM   35  O   UNL     1     -11.252   6.349  68.158  1.00  0.00    -0.312 OA 
HETATM   36  H   UNL     1     -10.175   7.486  65.385  1.00  0.00     0.000 HD 
ENDBRANCH  28  33
ENDBRANCH  26  28
ENDBRANCH  25  26
ENDBRANCH  12  25
ENDBRANCH  11  12
ENDBRANCH  10  11
ENDBRANCH   9  10
ENDBRANCH   8   9
ENDBRANCH   7   8
ENDBRANCH   6   7
ENDBRANCH   5   6
ENDBRANCH   4   5
ENDBRANCH   3   4
ENDBRANCH   2   3
TORSDOF 22
ENDMDL
MODEL       44
REMARK 921   NORMALIZED FREE ENERGY PREDICTED BY IDOCK:   -4.81 KCAL/MOL
REMARK 922        TOTAL FREE ENERGY PREDICTED BY IDOCK:  -14.61 KCAL/MOL
REMARK 923 INTER-LIGAND FREE ENERGY PREDICTED BY IDOCK:  -11.75 KCAL/MOL
REMARK 924 INTRA-LIGAND FREE ENERGY PREDICTED BY IDOCK:   -2.87 KCAL/MOL
REMARK 927      BINDING AFFINITY PREDICTED BY RF-SCORE:    0.00 PKD
ROOT
HETATM    1  C   UNL     1     -11.322  14.243  65.143  1.00  0.00    -0.345 C  
HETATM    2  C   UNL     1     -12.150  13.612  64.036  1.00  0.00    -0.474 C  
ENDROOT
BRANCH   2   3
HETATM    3  C   UNL     1     -11.941  12.101  63.995  1.00  0.00    -0.533 C  
BRANCH   3   4
HETATM    4  C   UNL     1     -10.649  11.728  63.275  1.00  0.00    -0.427 C  
BRANCH   4   5
HETATM    5  C   UNL     1      -9.841  10.721  64.097  1.00  0.00    -0.384 C  
BRANCH   5   6
HETATM    6  C   UNL     1     -10.352  10.669  65.531  1.00  0.00    -0.297 C  
BRANCH   6   7
HETATM    7  C   UNL     1      -9.305  11.146  66.540  1.00  0.00    -0.199 C  
BRANCH   7   8
HETATM    8  C   UNL     1     -10.025  11.608  67.802  1.00  0.00    -0.191 C  
BRANCH   8   9
HETATM    9  C   UNL     1     -11.435  11.047  67.953  1.00  0.00    -0.358 C  
BRANCH   9  10
HETATM   10  C   UNL     1     -12.050  11.632  69.228  1.00  0.00    -0.323 C  
BRANCH  10  11
HETATM   11  C   UNL     1     -12.558  10.585  70.208  1.00  0.00    -0.306 C  
BRANCH  11  12
HETATM   12  C   UNL     1     -12.574  10.989  71.693  1.00  0.00    -0.297 C  
BRANCH  12  13
HETATM   13  C   UNL     1     -13.495  12.178  72.044  1.00  0.00    -0.388 C  
BRANCH  13  14
HETATM   14  C   UNL     1     -12.784  13.535  72.099  1.00  0.00    -0.126 C  
HETATM   15  O   UNL     1     -13.052  14.255  73.336  1.00  0.00    -0.554 OA 
HETATM   16  O   UNL     1     -14.101  16.301  73.172  1.00  0.00    -0.403 OA 
HETATM   17  C   UNL     1     -13.445  14.689  71.294  1.00  0.00    -0.451 C  
HETATM   18  C   UNL     1     -13.633  15.295  72.697  1.00  0.00    -0.515 C  
BRANCH  17  19
HETATM   19  C   UNL     1     -12.602  15.554  70.362  1.00  0.00    -0.421 C  
BRANCH  19  20
HETATM   20  C   UNL     1     -11.165  15.043  70.310  1.00  0.00    -0.286 C  
BRANCH  20  21
HETATM   21  C   UNL     1     -10.528  15.307  68.943  1.00  0.00    -0.241 C  
BRANCH  21  22
HETATM   22  C   UNL     1     -10.295  16.803  68.722  1.00  0.00    -0.318 C  
BRANCH  22  23
HETATM   23  C   UNL     1     -10.433  17.188  67.249  1.00  0.00    -0.313 C  
HETATM   24  C   UNL     1      -9.191  17.916  66.753  1.00  0.00    -0.278 C  
ENDBRANCH  22  23
ENDBRANCH  21  22
ENDBRANCH  20  21
ENDBRANCH  19  20
ENDBRANCH  17  19
ENDBRANCH  13  14
ENDBRANCH  12  13
BRANCH  12  25
HETATM   25  O   UNL     1     -12.975   9.875  72.524  1.00  0.00    -0.265 OA 
BRANCH  25  26
HETATM   26  C   UNL     1     -13.165   8.673  71.911  1.00  0.00    -0.375 C  
HETATM   27  O   UNL     1     -14.123   8.363  71.212  1.00  0.00    -0.308 OA 
BRANCH  26  28
HETATM   28  C   UNL     1     -11.996   7.732  72.188  1.00  0.00    -0.317 C  
BRANCH  28  29
HETATM   29  C   UNL     1     -10.831   7.960  71.212  1.00  0.00    -0.263 C  
HETATM   30  C   UNL     1      -8.866   8.229  72.864  1.00  0.00    -0.302 C  
HETATM   31  C   UNL     1      -8.710   9.115  70.546  1.00  0.00    -0.258 C  
HETATM   32  C   UNL     1      -9.665   8.843  71.712  1.00  0.00    -0.365 C  
ENDBRANCH  28  29
BRANCH  28  33
HETATM   33  N   UNL     1     -12.490   6.355  72.182  1.00  0.00    -0.524 N  
HETATM   34  C   UNL     1     -11.886   5.351  72.884  1.00  0.00    -0.077 C  
HETATM   35  O   UNL     1     -10.865   5.464  73.544  1.00  0.00    -0.267 OA 
HETATM   36  H   UNL     1     -13.320   6.136  71.631  1.00  0.00     0.000 HD 
ENDBRANCH  28  33
ENDBRANCH  26  28
ENDBRANCH  25  26
ENDBRANCH  12  25
ENDBRANCH  11  12
ENDBRANCH  10  11
ENDBRANCH   9  10
ENDBRANCH   8   9
ENDBRANCH   7   8
ENDBRANCH   6   7
ENDBRANCH   5   6
ENDBRANCH   4   5
ENDBRANCH   3   4
ENDBRANCH   2   3
TORSDOF 22
ENDMDL
MODEL       45
REMARK 921   NORMALIZED FREE ENERGY PREDICTED BY IDOCK:   -4.81 KCAL/MOL
REMARK 922        TOTAL FREE ENERGY PREDICTED BY IDOCK:  -14.61 KCAL/MOL
REMARK 923 INTER-LIGAND FREE ENERGY PREDICTED BY IDOCK:  -10.67 KCAL/MOL
REMARK 924 INTRA-LIGAND FREE ENERGY PREDICTED BY IDOCK:   -3.94 KCAL/MOL
REMARK 927      BINDING AFFINITY PREDICTED BY RF-SCORE:    0.00 PKD
ROOT
HETATM    1  C   UNL     1      -7.773   7.274  64.064  1.00  0.00    -0.120 C  
HETATM    2  C   UNL     1      -7.125   7.887  65.295  1.00  0.00    -0.060 C  
ENDROOT
BRANCH   2   3
HETATM    3  C   UNL     1      -7.227   9.409  65.261  1.00  0.00    -0.096 C  
BRANCH   3   4
HETATM    4  C   UNL     1      -7.968   9.899  64.021  1.00  0.00    -0.150 C  
BRANCH   4   5
HETATM    5  C   UNL     1      -9.162  10.772  64.411  1.00  0.00    -0.250 C  
BRANCH   5   6
HETATM    6  C   UNL     1     -10.155  10.866  63.260  1.00  0.00    -0.368 C  
BRANCH   6   7
HETATM    7  C   UNL     1     -11.196  11.966  63.476  1.00  0.00    -0.501 C  
BRANCH   7   8
HETATM    8  C   UNL     1     -10.538  13.114  64.233  1.00  0.00    -0.432 C  
BRANCH   8   9
HETATM    9  C   UNL     1     -11.500  14.230  64.626  1.00  0.00    -0.389 C  
BRANCH   9  10
HETATM   10  C   UNL     1     -12.431  13.698  65.720  1.00  0.00    -0.524 C  
BRANCH  10  11
HETATM   11  C   UNL     1     -11.724  12.888  66.796  1.00  0.00    -0.445 C  
BRANCH  11  12
HETATM   12  C   UNL     1     -11.570  13.563  68.171  1.00  0.00    -0.333 C  
BRANCH  12  13
HETATM   13  C   UNL     1     -11.892  12.666  69.386  1.00  0.00    -0.356 C  
BRANCH  13  14
HETATM   14  C   UNL     1     -11.642  11.171  69.153  1.00  0.00    -0.324 C  
HETATM   15  O   UNL     1     -12.048  10.355  70.289  1.00  0.00    -0.277 OA 
HETATM   16  O   UNL     1     -10.419   9.111  71.343  1.00  0.00    -0.295 OA 
HETATM   17  C   UNL     1     -10.177  10.684  69.337  1.00  0.00    -0.218 C  
HETATM   18  C   UNL     1     -10.797   9.887  70.499  1.00  0.00    -0.326 C  
BRANCH  17  19
HETATM   19  C   UNL     1      -9.523   9.807  68.275  1.00  0.00    -0.148 C  
BRANCH  19  20
HETATM   20  C   UNL     1     -10.581   9.168  67.380  1.00  0.00    -0.315 C  
BRANCH  20  21
HETATM   21  C   UNL     1     -10.387   7.652  67.281  1.00  0.00    -0.367 C  
BRANCH  21  22
HETATM   22  C   UNL     1      -9.266   7.176  68.207  1.00  0.00    -0.132 C  
BRANCH  22  23
HETATM   23  C   UNL     1      -9.744   6.081  69.161  1.00  0.00    -0.168 C  
HETATM   24  C   UNL     1     -11.264   6.036  69.227  1.00  0.00    -0.367 C  
ENDBRANCH  22  23
ENDBRANCH  21  22
ENDBRANCH  20  21
ENDBRANCH  19  20
ENDBRANCH  17  19
ENDBRANCH  13  14
ENDBRANCH  12  13
BRANCH  12  25
HETATM   25  O   UNL     1     -10.224  14.062  68.349  1.00  0.00    -0.228 OA 
BRANCH  25  26
HETATM   26  C   UNL     1      -9.932  15.282  67.817  1.00  0.00    -0.224 C  
HETATM   27  O   UNL     1      -9.119  15.503  66.926  1.00  0.00    -0.211 OA 
BRANCH  26  28
HETATM   28  C   UNL     1     -10.778  16.374  68.464  1.00  0.00    -0.320 C  
BRANCH  28  29
HETATM   29  C   UNL     1     -10.636  17.719  67.733  1.00  0.00    -0.392 C  
HETATM   30  C   UNL     1      -8.248  18.400  68.439  1.00  0.00    -0.331 C  
HETATM   31  C   UNL     1      -9.871  20.103  67.634  1.00  0.00    -0.567 C  
HETATM   32  C   UNL     1      -9.729  18.781  68.395  1.00  0.00    -0.421 C  
ENDBRANCH  28  29
BRANCH  28  33
HETATM   33  N   UNL     1     -10.437  16.453  69.884  1.00  0.00    -0.249 N  
HETATM   34  C   UNL     1     -11.335  16.175  70.875  1.00  0.00    -0.359 C  
HETATM   35  O   UNL     1     -12.508  15.882  70.705  1.00  0.00    -0.409 OA 
HETATM   36  H   UNL     1      -9.490  16.727  70.145  1.00  0.00     0.000 HD 
ENDBRANCH  28  33
ENDBRANCH  26  28
ENDBRANCH  25  26
ENDBRANCH  12  25
ENDBRANCH  11  12
ENDBRANCH  10  11
ENDBRANCH   9  10
ENDBRANCH   8   9
ENDBRANCH   7   8
ENDBRANCH   6   7
ENDBRANCH   5   6
ENDBRANCH   4   5
ENDBRANCH   3   4
ENDBRANCH   2   3
TORSDOF 22
ENDMDL
MODEL       46
REMARK 921   NORMALIZED FREE ENERGY PREDICTED BY IDOCK:   -4.80 KCAL/MOL
REMARK 922        TOTAL FREE ENERGY PREDICTED BY IDOCK:  -14.59 KCAL/MOL
REMARK 923 INTER-LIGAND FREE ENERGY PREDICTED BY IDOCK:  -10.52 KCAL/MOL
REMARK 924 INTRA-LIGAND FREE ENERGY PREDICTED BY IDOCK:   -4.06 KCAL/MOL
REMARK 927      BINDING AFFINITY PREDICTED BY RF-SCORE:    0.00 PKD
ROOT
HETATM    1  C   UNL     1     -14.009  13.750  72.388  1.00  0.00    -0.651 C  
HETATM    2  C   UNL     1     -12.909  14.486  73.135  1.00  0.00    -0.547 C  
ENDROOT
BRANCH   2   3
HETATM    3  C   UNL     1     -12.072  15.329  72.177  1.00  0.00    -0.477 C  
BRANCH   3   4
HETATM    4  C   UNL     1     -12.688  15.379  70.782  1.00  0.00    -0.516 C  
BRANCH   4   5
HETATM    5  C   UNL     1     -11.635  15.081  69.713  1.00  0.00    -0.336 C  
BRANCH   5   6
HETATM    6  C   UNL     1     -12.026  13.850  68.906  1.00  0.00    -0.393 C  
BRANCH   6   7
HETATM    7  C   UNL     1     -11.505  12.554  69.531  1.00  0.00    -0.299 C  
BRANCH   7   8
HETATM    8  C   UNL     1     -11.925  11.386  68.645  1.00  0.00    -0.317 C  
BRANCH   8   9
HETATM    9  C   UNL     1     -10.777  10.463  68.250  1.00  0.00    -0.275 C  
BRANCH   9  10
HETATM   10  C   UNL     1      -9.467  11.249  68.367  1.00  0.00    -0.192 C  
BRANCH  10  11
HETATM   11  C   UNL     1      -8.254  10.389  68.688  1.00  0.00    -0.121 C  
BRANCH  11  12
HETATM   12  C   UNL     1      -8.438   8.868  68.544  1.00  0.00    -0.129 C  
BRANCH  12  13
HETATM   13  C   UNL     1      -7.711   8.226  67.341  1.00  0.00    -0.102 C  
BRANCH  13  14
HETATM   14  C   UNL     1      -8.596   8.012  66.107  1.00  0.00    -0.148 C  
HETATM   15  O   UNL     1      -8.482   6.666  65.566  1.00  0.00    -0.151 OA 
HETATM   16  O   UNL     1      -7.704   6.448  63.407  1.00  0.00    -0.091 OA 
HETATM   17  C   UNL     1      -8.057   8.588  64.768  1.00  0.00    -0.151 C  
HETATM   18  C   UNL     1      -8.014   7.101  64.375  1.00  0.00    -0.101 C  
BRANCH  17  19
HETATM   19  C   UNL     1      -8.962   9.431  63.877  1.00  0.00    -0.166 C  
BRANCH  19  20
HETATM   20  C   UNL     1      -9.376  10.714  64.592  1.00  0.00    -0.280 C  
BRANCH  20  21
HETATM   21  C   UNL     1     -10.103  11.673  63.645  1.00  0.00    -0.435 C  
BRANCH  21  22
HETATM   22  C   UNL     1     -10.606  12.910  64.391  1.00  0.00    -0.418 C  
BRANCH  22  23
HETATM   23  C   UNL     1     -11.868  12.612  65.200  1.00  0.00    -0.437 C  
HETATM   24  C   UNL     1     -12.703  13.870  65.399  1.00  0.00    -0.525 C  
ENDBRANCH  22  23
ENDBRANCH  21  22
ENDBRANCH  20  21
ENDBRANCH  19  20
ENDBRANCH  17  19
ENDBRANCH  13  14
ENDBRANCH  12  13
BRANCH  12  25
HETATM   25  O   UNL     1      -7.986   8.182  69.735  1.00  0.00    -0.106 OA 
BRANCH  25  26
HETATM   26  C   UNL     1      -8.563   8.532  70.917  1.00  0.00    -0.158 C  
HETATM   27  O   UNL     1      -8.046   9.208  71.800  1.00  0.00    -0.343 OA 
BRANCH  26  28
HETATM   28  C   UNL     1      -9.985   7.985  71.012  1.00  0.00    -0.182 C  
BRANCH  28  29
HETATM   29  C   UNL     1     -10.928   8.960  71.734  1.00  0.00    -0.431 C  
HETATM   30  C   UNL     1     -13.176   7.713  71.503  1.00  0.00    -0.380 C  
HETATM   31  C   UNL     1     -13.119  10.159  71.941  1.00  0.00    -0.571 C  
HETATM   32  C   UNL     1     -12.394   9.002  71.246  1.00  0.00    -0.361 C  
ENDBRANCH  28  29
BRANCH  28  33
HETATM   33  N   UNL     1      -9.939   6.662  71.632  1.00  0.00    -0.174 N  
HETATM   34  C   UNL     1     -10.294   5.522  70.969  1.00  0.00    -0.239 C  
HETATM   35  O   UNL     1     -10.724   5.473  69.827  1.00  0.00    -0.322 OA 
HETATM   36  H   UNL     1      -9.629   6.587  72.602  1.00  0.00     0.000 HD 
ENDBRANCH  28  33
ENDBRANCH  26  28
ENDBRANCH  25  26
ENDBRANCH  12  25
ENDBRANCH  11  12
ENDBRANCH  10  11
ENDBRANCH   9  10
ENDBRANCH   8   9
ENDBRANCH   7   8
ENDBRANCH   6   7
ENDBRANCH   5   6
ENDBRANCH   4   5
ENDBRANCH   3   4
ENDBRANCH   2   3
TORSDOF 22
ENDMDL
MODEL       47
REMARK 921   NORMALIZED FREE ENERGY PREDICTED BY IDOCK:   -4.79 KCAL/MOL
REMARK 922        TOTAL FREE ENERGY PREDICTED BY IDOCK:  -14.58 KCAL/MOL
REMARK 923 INTER-LIGAND FREE ENERGY PREDICTED BY IDOCK:  -10.87 KCAL/MOL
REMARK 924 INTRA-LIGAND FREE ENERGY PREDICTED BY IDOCK:   -3.71 KCAL/MOL
REMARK 927      BINDING AFFINITY PREDICTED BY RF-SCORE:    0.00 PKD
ROOT
HETATM    1  C   UNL     1     -11.898  15.451  64.378  1.00  0.00    -0.260 C  
HETATM    2  C   UNL     1     -11.159  14.132  64.227  1.00  0.00    -0.146 C  
ENDROOT
BRANCH   2   3
HETATM    3  C   UNL     1     -12.141  12.968  64.127  1.00  0.00    -0.497 C  
BRANCH   3   4
HETATM    4  C   UNL     1     -11.425  11.621  64.133  1.00  0.00    -0.364 C  
BRANCH   4   5
HETATM    5  C   UNL     1     -10.301  11.598  63.095  1.00  0.00    -0.383 C  
BRANCH   5   6
HETATM    6  C   UNL     1      -9.358  10.431  63.353  1.00  0.00    -0.334 C  
BRANCH   6   7
HETATM    7  C   UNL     1      -9.043  10.253  64.840  1.00  0.00    -0.250 C  
BRANCH   7   8
HETATM    8  C   UNL     1      -8.754   8.779  65.101  1.00  0.00    -0.202 C  
BRANCH   8   9
HETATM    9  C   UNL     1      -9.563   8.182  66.248  1.00  0.00    -0.248 C  
BRANCH   9  10
HETATM   10  C   UNL     1      -8.662   8.112  67.484  1.00  0.00    -0.129 C  
BRANCH  10  11
HETATM   11  C   UNL     1      -9.194   8.880  68.685  1.00  0.00    -0.137 C  
BRANCH  11  12
HETATM   12  C   UNL     1      -9.754  10.286  68.403  1.00  0.00    -0.156 C  
BRANCH  12  13
HETATM   13  C   UNL     1     -11.187  10.542  68.921  1.00  0.00    -0.323 C  
BRANCH  13  14
HETATM   14  C   UNL     1     -11.290  10.704  70.442  1.00  0.00    -0.304 C  
HETATM   15  O   UNL     1     -10.974   9.474  71.156  1.00  0.00    -0.317 OA 
HETATM   16  O   UNL     1     -12.627   8.550  72.470  1.00  0.00    -0.376 OA 
HETATM   17  C   UNL     1     -12.725  10.672  71.039  1.00  0.00    -0.512 C  
HETATM   18  C   UNL     1     -12.202   9.390  71.714  1.00  0.00    -0.390 C  
BRANCH  17  19
HETATM   19  C   UNL     1     -13.168  11.746  72.027  1.00  0.00    -0.460 C  
BRANCH  19  20
HETATM   20  C   UNL     1     -12.972  13.137  71.431  1.00  0.00    -0.386 C  
BRANCH  20  21
HETATM   21  C   UNL     1     -13.641  14.213  72.290  1.00  0.00    -0.596 C  
BRANCH  21  22
HETATM   22  C   UNL     1     -13.171  15.612  71.887  1.00  0.00    -0.537 C  
BRANCH  22  23
HETATM   23  C   UNL     1     -12.204  16.204  72.912  1.00  0.00    -0.640 C  
HETATM   24  C   UNL     1     -12.374  15.544  74.273  1.00  0.00    -0.815 C  
ENDBRANCH  22  23
ENDBRANCH  21  22
ENDBRANCH  20  21
ENDBRANCH  19  20
ENDBRANCH  17  19
ENDBRANCH  13  14
ENDBRANCH  12  13
BRANCH  12  25
HETATM   25  O   UNL     1      -8.901  11.302  68.980  1.00  0.00    -0.094 OA 
BRANCH  25  26
HETATM   26  C   UNL     1      -8.006  11.912  68.154  1.00  0.00    -0.151 C  
HETATM   27  O   UNL     1      -7.102  11.359  67.536  1.00  0.00    -0.093 OA 
BRANCH  26  28
HETATM   28  C   UNL     1      -8.281  13.410  68.066  1.00  0.00    -0.161 C  
BRANCH  28  29
HETATM   29  C   UNL     1      -9.680  13.706  67.503  1.00  0.00    -0.227 C  
HETATM   30  C   UNL     1     -10.510  15.477  69.186  1.00  0.00    -0.232 C  
HETATM   31  C   UNL     1     -12.122  14.180  67.808  1.00  0.00    -0.321 C  
HETATM   32  C   UNL     1     -10.767  14.125  68.520  1.00  0.00    -0.262 C  
ENDBRANCH  28  29
BRANCH  28  33
HETATM   33  N   UNL     1      -7.207  14.041  67.299  1.00  0.00    -0.310 N  
HETATM   34  C   UNL     1      -6.243  14.817  67.878  1.00  0.00    -0.157 C  
HETATM   35  O   UNL     1      -6.187  15.109  69.062  1.00  0.00    -0.095 OA 
HETATM   36  H   UNL     1      -7.177  13.895  66.289  1.00  0.00     0.000 HD 
ENDBRANCH  28  33
ENDBRANCH  26  28
ENDBRANCH  25  26
ENDBRANCH  12  25
ENDBRANCH  11  12
ENDBRANCH  10  11
ENDBRANCH   9  10
ENDBRANCH   8   9
ENDBRANCH   7   8
ENDBRANCH   6   7
ENDBRANCH   5   6
ENDBRANCH   4   5
ENDBRANCH   3   4
ENDBRANCH   2   3
TORSDOF 22
ENDMDL
MODEL       48
REMARK 921   NORMALIZED FREE ENERGY PREDICTED BY IDOCK:   -4.78 KCAL/MOL
REMARK 922        TOTAL FREE ENERGY PREDICTED BY IDOCK:  -14.55 KCAL/MOL
REMARK 923 INTER-LIGAND FREE ENERGY PREDICTED BY IDOCK:  -10.78 KCAL/MOL
REMARK 924 INTRA-LIGAND FREE ENERGY PREDICTED BY IDOCK:   -3.76 KCAL/MOL
REMARK 927      BINDING AFFINITY PREDICTED BY RF-SCORE:    0.00 PKD
ROOT
HETATM    1  C   UNL     1     -10.601   5.333  66.480  1.00  0.00    -0.348 C  
HETATM    2  C   UNL     1     -10.513   6.567  67.363  1.00  0.00    -0.314 C  
ENDROOT
BRANCH   2   3
HETATM    3  C   UNL     1     -11.324   6.379  68.641  1.00  0.00    -0.214 C  
BRANCH   3   4
HETATM    4  C   UNL     1     -10.582   5.522  69.662  1.00  0.00    -0.375 C  
BRANCH   4   5
HETATM    5  C   UNL     1     -10.967   5.920  71.088  1.00  0.00    -0.327 C  
BRANCH   5   6
HETATM    6  C   UNL     1     -11.864   7.150  71.076  1.00  0.00    -0.373 C  
BRANCH   6   7
HETATM    7  C   UNL     1     -11.272   8.312  71.876  1.00  0.00    -0.365 C  
BRANCH   7   8
HETATM    8  C   UNL     1     -10.883   9.421  70.906  1.00  0.00    -0.392 C  
BRANCH   8   9
HETATM    9  C   UNL     1      -9.568   9.173  70.175  1.00  0.00    -0.235 C  
BRANCH   9  10
HETATM   10  C   UNL     1      -9.092  10.501  69.580  1.00  0.00    -0.063 C  
BRANCH  10  11
HETATM   11  C   UNL     1      -8.885  10.468  68.073  1.00  0.00    -0.131 C  
BRANCH  11  12
HETATM   12  C   UNL     1      -8.649  11.824  67.385  1.00  0.00    -0.160 C  
BRANCH  12  13
HETATM   13  C   UNL     1      -9.687  12.209  66.308  1.00  0.00    -0.251 C  
BRANCH  13  14
HETATM   14  C   UNL     1     -11.111  12.406  66.844  1.00  0.00    -0.287 C  
HETATM   15  O   UNL     1     -12.123  12.226  65.813  1.00  0.00    -0.587 OA 
HETATM   16  O   UNL     1     -13.478  14.026  65.326  1.00  0.00    -0.622 OA 
HETATM   17  C   UNL     1     -11.575  13.877  67.032  1.00  0.00    -0.394 C  
HETATM   18  C   UNL     1     -12.580  13.493  65.931  1.00  0.00    -0.396 C  
BRANCH  17  19
HETATM   19  C   UNL     1     -12.234  14.311  68.337  1.00  0.00    -0.197 C  
BRANCH  19  20
HETATM   20  C   UNL     1     -11.935  13.309  69.449  1.00  0.00    -0.356 C  
BRANCH  20  21
HETATM   21  C   UNL     1     -12.405  13.828  70.811  1.00  0.00    -0.451 C  
BRANCH  21  22
HETATM   22  C   UNL     1     -12.513  15.354  70.813  1.00  0.00    -0.476 C  
BRANCH  22  23
HETATM   23  C   UNL     1     -12.141  15.948  72.171  1.00  0.00    -0.596 C  
HETATM   24  C   UNL     1     -12.851  15.216  73.303  1.00  0.00    -0.640 C  
ENDBRANCH  22  23
ENDBRANCH  21  22
ENDBRANCH  20  21
ENDBRANCH  19  20
ENDBRANCH  17  19
ENDBRANCH  13  14
ENDBRANCH  12  13
BRANCH  12  25
HETATM   25  O   UNL     1      -8.622  12.895  68.358  1.00  0.00    -0.174 OA 
BRANCH  25  26
HETATM   26  C   UNL     1      -7.625  13.817  68.248  1.00  0.00    -0.129 C  
HETATM   27  O   UNL     1      -6.733  13.817  67.407  1.00  0.00    -0.220 OA 
BRANCH  26  28
HETATM   28  C   UNL     1      -7.764  14.897  69.316  1.00  0.00    -0.166 C  
BRANCH  28  29
HETATM   29  C   UNL     1      -9.109  15.634  69.216  1.00  0.00    -0.270 C  
HETATM   30  C   UNL     1      -9.017  16.471  66.777  1.00  0.00    -0.261 C  
HETATM   31  C   UNL     1     -10.515  17.557  68.439  1.00  0.00    -0.372 C  
HETATM   32  C   UNL     1      -9.174  16.841  68.253  1.00  0.00    -0.227 C  
ENDBRANCH  28  29
BRANCH  28  33
HETATM   33  N   UNL     1      -6.610  15.792  69.233  1.00  0.00    -0.149 N  
HETATM   34  C   UNL     1      -5.529  15.681  70.059  1.00  0.00    -0.136 C  
HETATM   35  O   UNL     1      -5.414  14.877  70.972  1.00  0.00    -0.133 OA 
HETATM   36  H   UNL     1      -6.613  16.529  68.528  1.00  0.00     0.000 HD 
ENDBRANCH  28  33
ENDBRANCH  26  28
ENDBRANCH  25  26
ENDBRANCH  12  25
ENDBRANCH  11  12
ENDBRANCH  10  11
ENDBRANCH   9  10
ENDBRANCH   8   9
ENDBRANCH   7   8
ENDBRANCH   6   7
ENDBRANCH   5   6
ENDBRANCH   4   5
ENDBRANCH   3   4
ENDBRANCH   2   3
TORSDOF 22
ENDMDL
MODEL       49
REMARK 921   NORMALIZED FREE ENERGY PREDICTED BY IDOCK:   -4.77 KCAL/MOL
REMARK 922        TOTAL FREE ENERGY PREDICTED BY IDOCK:  -14.53 KCAL/MOL
REMARK 923 INTER-LIGAND FREE ENERGY PREDICTED BY IDOCK:  -10.26 KCAL/MOL
REMARK 924 INTRA-LIGAND FREE ENERGY PREDICTED BY IDOCK:   -4.27 KCAL/MOL
REMARK 927      BINDING AFFINITY PREDICTED BY RF-SCORE:    0.00 PKD
ROOT
HETATM    1  C   UNL     1     -12.464  13.604  65.476  1.00  0.00    -0.544 C  
HETATM    2  C   UNL     1     -11.997  13.429  64.041  1.00  0.00    -0.520 C  
ENDROOT
BRANCH   2   3
HETATM    3  C   UNL     1     -10.600  12.816  63.995  1.00  0.00    -0.446 C  
BRANCH   3   4
HETATM    4  C   UNL     1     -10.592  11.482  63.254  1.00  0.00    -0.405 C  
BRANCH   4   5
HETATM    5  C   UNL     1      -9.183  11.144  62.762  1.00  0.00    -0.374 C  
BRANCH   5   6
HETATM    6  C   UNL     1      -8.386  10.449  63.858  1.00  0.00    -0.143 C  
BRANCH   6   7
HETATM    7  C   UNL     1      -9.202   9.376  64.582  1.00  0.00    -0.185 C  
BRANCH   7   8
HETATM    8  C   UNL     1      -9.048   9.582  66.084  1.00  0.00    -0.207 C  
BRANCH   8   9
HETATM    9  C   UNL     1      -8.364  10.891  66.464  1.00  0.00    -0.155 C  
BRANCH   9  10
HETATM   10  C   UNL     1      -9.290  11.658  67.413  1.00  0.00    -0.168 C  
BRANCH  10  11
HETATM   11  C   UNL     1     -10.558  10.906  67.785  1.00  0.00    -0.255 C  
BRANCH  11  12
HETATM   12  C   UNL     1     -11.170  11.235  69.159  1.00  0.00    -0.273 C  
BRANCH  12  13
HETATM   13  C   UNL     1     -12.147  12.431  69.177  1.00  0.00    -0.195 C  
BRANCH  13  14
HETATM   14  C   UNL     1     -11.930  13.407  70.340  1.00  0.00    -0.285 C  
HETATM   15  O   UNL     1     -13.056  13.433  71.263  1.00  0.00    -0.311 OA 
HETATM   16  O   UNL     1     -14.169  15.433  71.531  1.00  0.00    -0.505 OA 
HETATM   17  C   UNL     1     -12.164  14.911  70.026  1.00  0.00    -0.381 C  
HETATM   18  C   UNL     1     -13.309  14.741  71.041  1.00  0.00    -0.374 C  
BRANCH  17  19
HETATM   19  C   UNL     1     -11.128  15.951  70.442  1.00  0.00    -0.382 C  
BRANCH  19  20
HETATM   20  C   UNL     1     -10.688  16.780  69.239  1.00  0.00    -0.324 C  
BRANCH  20  21
HETATM   21  C   UNL     1     -10.896  16.017  67.927  1.00  0.00    -0.333 C  
BRANCH  21  22
HETATM   22  C   UNL     1     -10.431  16.844  66.728  1.00  0.00    -0.260 C  
BRANCH  22  23
HETATM   23  C   UNL     1      -8.992  16.513  66.333  1.00  0.00    -0.340 C  
HETATM   24  C   UNL     1      -8.689  15.037  66.549  1.00  0.00    -0.244 C  
ENDBRANCH  22  23
ENDBRANCH  21  22
ENDBRANCH  20  21
ENDBRANCH  19  20
ENDBRANCH  17  19
ENDBRANCH  13  14
ENDBRANCH  12  13
BRANCH  12  25
HETATM   25  O   UNL     1     -11.881  10.092  69.690  1.00  0.00    -0.164 OA 
BRANCH  25  26
HETATM   26  C   UNL     1     -11.694   9.794  71.006  1.00  0.00    -0.370 C  
HETATM   27  O   UNL     1     -12.357  10.223  71.944  1.00  0.00    -0.335 OA 
BRANCH  26  28
HETATM   28  C   UNL     1     -10.538   8.813  71.182  1.00  0.00    -0.241 C  
BRANCH  28  29
HETATM   29  C   UNL     1     -10.594   7.670  70.156  1.00  0.00    -0.239 C  
HETATM   30  C   UNL     1      -8.078   7.265  69.750  1.00  0.00    -0.128 C  
HETATM   31  C   UNL     1      -9.769   6.526  68.085  1.00  0.00    -0.126 C  
HETATM   32  C   UNL     1      -9.438   7.593  69.133  1.00  0.00    -0.154 C  
ENDBRANCH  28  29
BRANCH  28  33
HETATM   33  N   UNL     1     -10.526   8.344  72.567  1.00  0.00    -0.329 N  
HETATM   34  C   UNL     1      -9.390   8.305  73.323  1.00  0.00    -0.174 C  
HETATM   35  O   UNL     1      -8.270   8.602  72.936  1.00  0.00    -0.393 OA 
HETATM   36  H   UNL     1     -11.403   8.034  72.985  1.00  0.00     0.000 HD 
ENDBRANCH  28  33
ENDBRANCH  26  28
ENDBRANCH  25  26
ENDBRANCH  12  25
ENDBRANCH  11  12
ENDBRANCH  10  11
ENDBRANCH   9  10
ENDBRANCH   8   9
ENDBRANCH   7   8
ENDBRANCH   6   7
ENDBRANCH   5   6
ENDBRANCH   4   5
ENDBRANCH   3   4
ENDBRANCH   2   3
TORSDOF 22
ENDMDL
MODEL       50
REMARK 921   NORMALIZED FREE ENERGY PREDICTED BY IDOCK:   -4.75 KCAL/MOL
REMARK 922        TOTAL FREE ENERGY PREDICTED BY IDOCK:  -14.48 KCAL/MOL
REMARK 923 INTER-LIGAND FREE ENERGY PREDICTED BY IDOCK:  -11.50 KCAL/MOL
REMARK 924 INTRA-LIGAND FREE ENERGY PREDICTED BY IDOCK:   -2.97 KCAL/MOL
REMARK 927      BINDING AFFINITY PREDICTED BY RF-SCORE:    0.00 PKD
ROOT
HETATM    1  C   UNL     1     -12.050  13.865  65.930  1.00  0.00    -0.459 C  
HETATM    2  C   UNL     1     -12.497  12.894  64.850  1.00  0.00    -0.540 C  
ENDROOT
BRANCH   2   3
HETATM    3  C   UNL     1     -11.402  12.706  63.803  1.00  0.00    -0.529 C  
BRANCH   3   4
HETATM    4  C   UNL     1     -10.949  11.252  63.712  1.00  0.00    -0.381 C  
BRANCH   4   5
HETATM    5  C   UNL     1      -9.507  11.163  63.209  1.00  0.00    -0.346 C  
BRANCH   5   6
HETATM    6  C   UNL     1      -8.700  10.197  64.067  1.00  0.00    -0.224 C  
BRANCH   6   7
HETATM    7  C   UNL     1      -9.285  10.037  65.472  1.00  0.00    -0.247 C  
BRANCH   7   8
HETATM    8  C   UNL     1      -8.416  10.819  66.450  1.00  0.00    -0.158 C  
BRANCH   8   9
HETATM    9  C   UNL     1      -9.160  11.920  67.198  1.00  0.00    -0.178 C  
BRANCH   9  10
HETATM   10  C   UNL     1      -9.635  11.353  68.539  1.00  0.00    -0.190 C  
BRANCH  10  11
HETATM   11  C   UNL     1     -11.085  11.672  68.869  1.00  0.00    -0.287 C  
BRANCH  11  12
HETATM   12  C   UNL     1     -11.579  11.244  70.263  1.00  0.00    -0.275 C  
BRANCH  12  13
HETATM   13  C   UNL     1     -12.764  12.062  70.823  1.00  0.00    -0.231 C  
BRANCH  13  14
HETATM   14  C   UNL     1     -12.367  13.403  71.451  1.00  0.00    -0.118 C  
HETATM   15  O   UNL     1     -13.322  13.852  72.455  1.00  0.00    -0.484 OA 
HETATM   16  O   UNL     1     -14.400  15.854  72.080  1.00  0.00    -0.346 OA 
HETATM   17  C   UNL     1     -12.671  14.672  70.607  1.00  0.00    -0.417 C  
HETATM   18  C   UNL     1     -13.627  14.979  71.775  1.00  0.00    -0.429 C  
BRANCH  17  19
HETATM   19  C   UNL     1     -11.594  15.733  70.404  1.00  0.00    -0.376 C  
BRANCH  19  20
HETATM   20  C   UNL     1     -10.463  15.189  69.536  1.00  0.00    -0.268 C  
BRANCH  20  21
HETATM   21  C   UNL     1      -9.897  16.271  68.612  1.00  0.00    -0.230 C  
BRANCH  21  22
HETATM   22  C   UNL     1     -10.992  17.242  68.165  1.00  0.00    -0.193 C  
BRANCH  22  23
HETATM   23  C   UNL     1     -10.493  18.204  67.086  1.00  0.00    -0.392 C  
HETATM   24  C   UNL     1     -10.514  19.643  67.581  1.00  0.00    -0.579 C  
ENDBRANCH  22  23
ENDBRANCH  21  22
ENDBRANCH  20  21
ENDBRANCH  19  20
ENDBRANCH  17  19
ENDBRANCH  13  14
ENDBRANCH  12  13
BRANCH  12  25
HETATM   25  O   UNL     1     -11.979   9.854  70.262  1.00  0.00    -0.228 OA 
BRANCH  25  26
HETATM   26  C   UNL     1     -11.343   9.018  71.129  1.00  0.00    -0.307 C  
HETATM   27  O   UNL     1     -10.273   9.235  71.686  1.00  0.00    -0.332 OA 
BRANCH  26  28
HETATM   28  C   UNL     1     -12.156   7.746  71.352  1.00  0.00    -0.311 C  
BRANCH  28  29
HETATM   29  C   UNL     1     -11.597   6.560  70.549  1.00  0.00    -0.455 C  
HETATM   30  C   UNL     1     -11.260   4.825  72.430  1.00  0.00     0.010 C  
HETATM   31  C   UNL     1     -10.024   4.628  70.281  1.00  0.00    -0.309 C  
HETATM   32  C   UNL     1     -10.620   5.616  71.288  1.00  0.00    -0.321 C  
ENDBRANCH  28  29
BRANCH  28  33
HETATM   33  N   UNL     1     -13.560   8.028  71.059  1.00  0.00    -0.555 N  
HETATM   34  C   UNL     1     -14.376   8.696  71.928  1.00  0.00    -0.405 C  
HETATM   35  O   UNL     1     -14.057   9.087  73.040  1.00  0.00    -0.414 OA 
HETATM   36  H   UNL     1     -13.947   7.713  70.169  1.00  0.00     0.000 HD 
ENDBRANCH  28  33
ENDBRANCH  26  28
ENDBRANCH  25  26
ENDBRANCH  12  25
ENDBRANCH  11  12
ENDBRANCH  10  11
ENDBRANCH   9  10
ENDBRANCH   8   9
ENDBRANCH   7   8
ENDBRANCH   6   7
ENDBRANCH   5   6
ENDBRANCH   4   5
ENDBRANCH   3   4
ENDBRANCH   2   3
TORSDOF 22
ENDMDL
MODEL       51
REMARK 921   NORMALIZED FREE ENERGY PREDICTED BY IDOCK:   -4.74 KCAL/MOL
REMARK 922        TOTAL FREE ENERGY PREDICTED BY IDOCK:  -14.47 KCAL/MOL
REMARK 923 INTER-LIGAND FREE ENERGY PREDICTED BY IDOCK:  -11.48 KCAL/MOL
REMARK 924 INTRA-LIGAND FREE ENERGY PREDICTED BY IDOCK:   -2.99 KCAL/MOL
REMARK 927      BINDING AFFINITY PREDICTED BY RF-SCORE:    0.00 PKD
ROOT
HETATM    1  C   UNL     1     -11.098   6.413  68.225  1.00  0.00    -0.359 C  
HETATM    2  C   UNL     1     -10.120   6.388  67.062  1.00  0.00    -0.227 C  
ENDROOT
BRANCH   2   3
HETATM    3  C   UNL     1      -9.587   7.788  66.771  1.00  0.00    -0.274 C  
BRANCH   3   4
HETATM    4  C   UNL     1     -10.545   8.871  67.259  1.00  0.00    -0.304 C  
BRANCH   4   5
HETATM    5  C   UNL     1     -10.335  10.172  66.483  1.00  0.00    -0.270 C  
BRANCH   5   6
HETATM    6  C   UNL     1      -9.688   9.890  65.133  1.00  0.00    -0.376 C  
BRANCH   6   7
HETATM    7  C   UNL     1     -10.211  10.814  64.031  1.00  0.00    -0.390 C  
BRANCH   7   8
HETATM    8  C   UNL     1     -11.373  11.626  64.592  1.00  0.00    -0.284 C  
BRANCH   8   9
HETATM    9  C   UNL     1     -11.507  13.019  63.984  1.00  0.00    -0.473 C  
BRANCH   9  10
HETATM   10  C   UNL     1     -11.817  14.007  65.113  1.00  0.00    -0.370 C  
BRANCH  10  11
HETATM   11  C   UNL     1     -10.602  14.762  65.627  1.00  0.00    -0.353 C  
BRANCH  11  12
HETATM   12  C   UNL     1     -10.433  14.828  67.156  1.00  0.00    -0.265 C  
BRANCH  12  13
HETATM   13  C   UNL     1     -10.358  13.460  67.871  1.00  0.00    -0.238 C  
BRANCH  13  14
HETATM   14  C   UNL     1     -11.684  12.993  68.484  1.00  0.00    -0.342 C  
HETATM   15  O   UNL     1     -12.382  14.063  69.183  1.00  0.00    -0.313 OA 
HETATM   16  O   UNL     1     -12.766  13.787  71.439  1.00  0.00    -0.345 OA 
HETATM   17  C   UNL     1     -11.581  12.200  69.816  1.00  0.00    -0.334 C  
HETATM   18  C   UNL     1     -12.333  13.423  70.373  1.00  0.00    -0.312 C  
BRANCH  17  19
HETATM   19  C   UNL     1     -12.339  10.887  69.986  1.00  0.00    -0.385 C  
BRANCH  19  20
HETATM   20  C   UNL     1     -12.280  10.418  71.437  1.00  0.00    -0.461 C  
BRANCH  20  21
HETATM   21  C   UNL     1     -13.141   9.171  71.657  1.00  0.00    -0.431 C  
BRANCH  21  22
HETATM   22  C   UNL     1     -12.399   7.905  71.225  1.00  0.00    -0.300 C  
BRANCH  22  23
HETATM   23  C   UNL     1     -10.949   7.903  71.707  1.00  0.00    -0.290 C  
HETATM   24  C   UNL     1     -10.849   7.413  73.145  1.00  0.00    -0.435 C  
ENDBRANCH  22  23
ENDBRANCH  21  22
ENDBRANCH  20  21
ENDBRANCH  19  20
ENDBRANCH  17  19
ENDBRANCH  13  14
ENDBRANCH  12  13
BRANCH  12  25
HETATM   25  O   UNL     1      -9.239  15.563  67.509  1.00  0.00    -0.195 OA 
BRANCH  25  26
HETATM   26  C   UNL     1      -9.294  16.353  68.617  1.00  0.00    -0.233 C  
HETATM   27  O   UNL     1      -9.964  16.141  69.621  1.00  0.00    -0.245 OA 
BRANCH  26  28
HETATM   28  C   UNL     1      -8.378  17.564  68.467  1.00  0.00    -0.274 C  
BRANCH  28  29
HETATM   29  C   UNL     1      -8.764  18.431  67.258  1.00  0.00    -0.261 C  
HETATM   30  C   UNL     1     -10.511  19.999  68.329  1.00  0.00    -0.409 C  
HETATM   31  C   UNL     1     -10.461  19.643  65.869  1.00  0.00    -0.591 C  
HETATM   32  C   UNL     1     -10.208  18.982  67.227  1.00  0.00    -0.476 C  
ENDBRANCH  28  29
BRANCH  28  33
HETATM   33  N   UNL     1      -6.991  17.102  68.425  1.00  0.00    -0.186 N  
HETATM   34  C   UNL     1      -5.983  17.727  69.103  1.00  0.00    -0.217 C  
HETATM   35  O   UNL     1      -6.103  18.744  69.769  1.00  0.00    -0.259 OA 
HETATM   36  H   UNL     1      -6.767  16.279  67.866  1.00  0.00     0.000 HD 
ENDBRANCH  28  33
ENDBRANCH  26  28
ENDBRANCH  25  26
ENDBRANCH  12  25
ENDBRANCH  11  12
ENDBRANCH  10  11
ENDBRANCH   9  10
ENDBRANCH   8   9
ENDBRANCH   7   8
ENDBRANCH   6   7
ENDBRANCH   5   6
ENDBRANCH   4   5
ENDBRANCH   3   4
ENDBRANCH   2   3
TORSDOF 22
ENDMDL
MODEL       52
REMARK 921   NORMALIZED FREE ENERGY PREDICTED BY IDOCK:   -4.74 KCAL/MOL
REMARK 922        TOTAL FREE ENERGY PREDICTED BY IDOCK:  -14.46 KCAL/MOL
REMARK 923 INTER-LIGAND FREE ENERGY PREDICTED BY IDOCK:  -10.60 KCAL/MOL
REMARK 924 INTRA-LIGAND FREE ENERGY PREDICTED BY IDOCK:   -3.86 KCAL/MOL
REMARK 927      BINDING AFFINITY PREDICTED BY RF-SCORE:    0.00 PKD
ROOT
HETATM    1  C   UNL     1     -13.458  15.625  73.064  1.00  0.00    -0.654 C  
HETATM    2  C   UNL     1     -14.082  15.222  71.738  1.00  0.00    -0.654 C  
ENDROOT
BRANCH   2   3
HETATM    3  C   UNL     1     -13.081  15.383  70.597  1.00  0.00    -0.405 C  
BRANCH   3   4
HETATM    4  C   UNL     1     -11.641  15.271  71.087  1.00  0.00    -0.416 C  
BRANCH   4   5
HETATM    5  C   UNL     1     -10.716  16.169  70.262  1.00  0.00    -0.235 C  
BRANCH   5   6
HETATM    6  C   UNL     1     -11.323  16.447  68.894  1.00  0.00    -0.272 C  
BRANCH   6   7
HETATM    7  C   UNL     1     -10.302  16.304  67.763  1.00  0.00    -0.287 C  
BRANCH   7   8
HETATM    8  C   UNL     1     -10.328  14.864  67.266  1.00  0.00    -0.251 C  
BRANCH   8   9
HETATM    9  C   UNL     1     -11.659  14.442  66.654  1.00  0.00    -0.396 C  
BRANCH   9  10
HETATM   10  C   UNL     1     -12.128  13.166  67.358  1.00  0.00    -0.316 C  
BRANCH  10  11
HETATM   11  C   UNL     1     -11.306  12.795  68.583  1.00  0.00    -0.333 C  
BRANCH  11  12
HETATM   12  C   UNL     1     -11.170  11.292  68.886  1.00  0.00    -0.253 C  
BRANCH  12  13
HETATM   13  C   UNL     1     -12.039  10.773  70.054  1.00  0.00    -0.423 C  
BRANCH  13  14
HETATM   14  C   UNL     1     -11.326   9.780  70.980  1.00  0.00    -0.387 C  
HETATM   15  O   UNL     1      -9.910   9.645  70.668  1.00  0.00    -0.265 OA 
HETATM   16  O   UNL     1      -9.152   7.563  70.035  1.00  0.00    -0.147 OA 
HETATM   17  C   UNL     1     -11.532   8.273  70.658  1.00  0.00    -0.236 C  
HETATM   18  C   UNL     1     -10.019   8.329  70.380  1.00  0.00    -0.188 C  
BRANCH  17  19
HETATM   19  C   UNL     1     -11.914   7.299  71.767  1.00  0.00    -0.342 C  
BRANCH  19  20
HETATM   20  C   UNL     1     -10.977   7.451  72.962  1.00  0.00    -0.422 C  
BRANCH  20  21
HETATM   21  C   UNL     1     -10.572   6.088  73.532  1.00  0.00    -0.284 C  
BRANCH  21  22
HETATM   22  C   UNL     1     -10.799   4.973  72.510  1.00  0.00    -0.257 C  
BRANCH  22  23
HETATM   23  C   UNL     1      -9.484   4.479  71.906  1.00  0.00    -0.201 C  
HETATM   24  C   UNL     1      -9.692   3.952  70.493  1.00  0.00    -0.247 C  
ENDBRANCH  22  23
ENDBRANCH  21  22
ENDBRANCH  20  21
ENDBRANCH  19  20
ENDBRANCH  17  19
ENDBRANCH  13  14
ENDBRANCH  12  13
BRANCH  12  25
HETATM   25  O   UNL     1     -11.500  10.502  67.721  1.00  0.00    -0.443 OA 
BRANCH  25  26
HETATM   26  C   UNL     1     -10.534   9.678  67.228  1.00  0.00    -0.258 C  
HETATM   27  O   UNL     1     -10.660   8.482  66.988  1.00  0.00    -0.306 OA 
BRANCH  26  28
HETATM   28  C   UNL     1      -9.239  10.446  66.980  1.00  0.00    -0.147 C  
BRANCH  28  29
HETATM   29  C   UNL     1      -8.779  10.337  65.517  1.00  0.00    -0.176 C  
HETATM   30  C   UNL     1     -10.532  11.829  64.351  1.00  0.00    -0.359 C  
HETATM   31  C   UNL     1      -9.258  10.123  63.067  1.00  0.00    -0.317 C  
HETATM   32  C   UNL     1      -9.873  10.451  64.431  1.00  0.00    -0.395 C  
ENDBRANCH  28  29
BRANCH  28  33
HETATM   33  N   UNL     1      -8.231   9.989  67.936  1.00  0.00    -0.113 N  
HETATM   34  C   UNL     1      -7.445  10.849  68.648  1.00  0.00    -0.105 C  
HETATM   35  O   UNL     1      -7.453  12.066  68.544  1.00  0.00    -0.107 OA 
HETATM   36  H   UNL     1      -8.110   8.985  68.076  1.00  0.00     0.000 HD 
ENDBRANCH  28  33
ENDBRANCH  26  28
ENDBRANCH  25  26
ENDBRANCH  12  25
ENDBRANCH  11  12
ENDBRANCH  10  11
ENDBRANCH   9  10
ENDBRANCH   8   9
ENDBRANCH   7   8
ENDBRANCH   6   7
ENDBRANCH   5   6
ENDBRANCH   4   5
ENDBRANCH   3   4
ENDBRANCH   2   3
TORSDOF 22
ENDMDL
MODEL       53
REMARK 921   NORMALIZED FREE ENERGY PREDICTED BY IDOCK:   -4.73 KCAL/MOL
REMARK 922        TOTAL FREE ENERGY PREDICTED BY IDOCK:  -14.43 KCAL/MOL
REMARK 923 INTER-LIGAND FREE ENERGY PREDICTED BY IDOCK:  -10.91 KCAL/MOL
REMARK 924 INTRA-LIGAND FREE ENERGY PREDICTED BY IDOCK:   -3.52 KCAL/MOL
REMARK 927      BINDING AFFINITY PREDICTED BY RF-SCORE:    0.00 PKD
ROOT
HETATM    1  C   UNL     1     -13.234   7.246  71.428  1.00  0.00    -0.404 C  
HETATM    2  C   UNL     1     -12.543   8.442  72.061  1.00  0.00    -0.400 C  
ENDROOT
BRANCH   2   3
HETATM    3  C   UNL     1     -12.969   9.739  71.377  1.00  0.00    -0.490 C  
BRANCH   3   4
HETATM    4  C   UNL     1     -11.766  10.551  70.905  1.00  0.00    -0.431 C  
BRANCH   4   5
HETATM    5  C   UNL     1     -10.875   9.715  69.984  1.00  0.00    -0.302 C  
BRANCH   5   6
HETATM    6  C   UNL     1      -9.529   9.446  70.643  1.00  0.00    -0.325 C  
BRANCH   6   7
HETATM    7  C   UNL     1      -8.352   9.859  69.756  1.00  0.00    -0.196 C  
BRANCH   7   8
HETATM    8  C   UNL     1      -8.863  10.823  68.692  1.00  0.00    -0.152 C  
BRANCH   8   9
HETATM    9  C   UNL     1      -7.771  11.670  68.046  1.00  0.00    -0.121 C  
BRANCH   9  10
HETATM   10  C   UNL     1      -8.211  13.136  68.092  1.00  0.00    -0.160 C  
BRANCH  10  11
HETATM   11  C   UNL     1      -9.645  13.339  68.555  1.00  0.00    -0.127 C  
BRANCH  11  12
HETATM   12  C   UNL     1     -10.560  14.143  67.614  1.00  0.00    -0.253 C  
BRANCH  12  13
HETATM   13  C   UNL     1     -11.591  13.308  66.823  1.00  0.00    -0.408 C  
BRANCH  13  14
HETATM   14  C   UNL     1     -11.294  13.191  65.323  1.00  0.00    -0.296 C  
HETATM   15  O   UNL     1     -12.420  13.606  64.498  1.00  0.00    -0.565 OA 
HETATM   16  O   UNL     1     -13.344  12.033  63.089  1.00  0.00    -0.427 OA 
HETATM   17  C   UNL     1     -11.385  11.764  64.715  1.00  0.00    -0.313 C  
HETATM   18  C   UNL     1     -12.549  12.388  63.925  1.00  0.00    -0.427 C  
BRANCH  17  19
HETATM   19  C   UNL     1     -10.260  11.234  63.831  1.00  0.00    -0.420 C  
BRANCH  19  20
HETATM   20  C   UNL     1      -9.343  10.310  64.626  1.00  0.00    -0.320 C  
BRANCH  20  21
HETATM   21  C   UNL     1     -10.013   9.830  65.916  1.00  0.00    -0.345 C  
BRANCH  21  22
HETATM   22  C   UNL     1      -9.468   8.468  66.348  1.00  0.00    -0.297 C  
BRANCH  22  23
HETATM   23  C   UNL     1     -10.431   7.743  67.288  1.00  0.00    -0.392 C  
HETATM   24  C   UNL     1     -10.631   6.295  66.859  1.00  0.00    -0.374 C  
ENDBRANCH  22  23
ENDBRANCH  21  22
ENDBRANCH  20  21
ENDBRANCH  19  20
ENDBRANCH  17  19
ENDBRANCH  13  14
ENDBRANCH  12  13
BRANCH  12  25
HETATM   25  O   UNL     1     -11.296  15.149  68.349  1.00  0.00    -0.285 OA 
BRANCH  25  26
HETATM   26  C   UNL     1     -10.580  16.161  68.914  1.00  0.00    -0.275 C  
HETATM   27  O   UNL     1     -10.619  16.501  70.092  1.00  0.00    -0.231 OA 
BRANCH  26  28
HETATM   28  C   UNL     1      -9.678  16.831  67.882  1.00  0.00    -0.245 C  
BRANCH  28  29
HETATM   29  C   UNL     1      -8.455  17.495  68.535  1.00  0.00    -0.280 C  
HETATM   30  C   UNL     1      -6.538  16.278  67.309  1.00  0.00    -0.228 C  
HETATM   31  C   UNL     1      -6.144  17.392  69.497  1.00  0.00    -0.252 C  
HETATM   32  C   UNL     1      -7.175  16.637  68.652  1.00  0.00    -0.192 C  
ENDBRANCH  28  29
BRANCH  28  33
HETATM   33  N   UNL     1     -10.482  17.759  67.088  1.00  0.00    -0.351 N  
HETATM   34  C   UNL     1     -10.815  17.520  65.785  1.00  0.00     0.012 C  
HETATM   35  O   UNL     1     -10.456  16.554  65.129  1.00  0.00    -0.637 OA 
HETATM   36  H   UNL     1     -10.807  18.622  67.525  1.00  0.00     0.000 HD 
ENDBRANCH  28  33
ENDBRANCH  26  28
ENDBRANCH  25  26
ENDBRANCH  12  25
ENDBRANCH  11  12
ENDBRANCH  10  11
ENDBRANCH   9  10
ENDBRANCH   8   9
ENDBRANCH   7   8
ENDBRANCH   6   7
ENDBRANCH   5   6
ENDBRANCH   4   5
ENDBRANCH   3   4
ENDBRANCH   2   3
TORSDOF 22
ENDMDL
MODEL       54
REMARK 921   NORMALIZED FREE ENERGY PREDICTED BY IDOCK:   -4.73 KCAL/MOL
REMARK 922        TOTAL FREE ENERGY PREDICTED BY IDOCK:  -14.43 KCAL/MOL
REMARK 923 INTER-LIGAND FREE ENERGY PREDICTED BY IDOCK:  -11.01 KCAL/MOL
REMARK 924 INTRA-LIGAND FREE ENERGY PREDICTED BY IDOCK:   -3.42 KCAL/MOL
REMARK 927      BINDING AFFINITY PREDICTED BY RF-SCORE:    0.00 PKD
ROOT
HETATM    1  C   UNL     1      -9.863   5.999  71.698  1.00  0.00    -0.196 C  
HETATM    2  C   UNL     1     -10.421   7.061  70.765  1.00  0.00    -0.231 C  
ENDROOT
BRANCH   2   3
HETATM    3  C   UNL     1     -11.921   6.870  70.561  1.00  0.00    -0.358 C  
BRANCH   3   4
HETATM    4  C   UNL     1     -12.694   7.017  71.868  1.00  0.00    -0.314 C  
BRANCH   4   5
HETATM    5  C   UNL     1     -14.134   7.458  71.600  1.00  0.00    -0.552 C  
BRANCH   5   6
HETATM    6  C   UNL     1     -14.190   8.950  71.302  1.00  0.00    -0.162 C  
BRANCH   6   7
HETATM    7  C   UNL     1     -13.385   9.776  72.307  1.00  0.00    -0.472 C  
BRANCH   7   8
HETATM    8  C   UNL     1     -12.421  10.671  71.537  1.00  0.00    -0.471 C  
BRANCH   8   9
HETATM    9  C   UNL     1     -12.734  10.785  70.049  1.00  0.00    -0.176 C  
BRANCH   9  10
HETATM   10  C   UNL     1     -11.438  10.549  69.267  1.00  0.00    -0.323 C  
BRANCH  10  11
HETATM   11  C   UNL     1     -10.997  11.738  68.427  1.00  0.00    -0.274 C  
BRANCH  11  12
HETATM   12  C   UNL     1     -10.685  11.451  66.946  1.00  0.00    -0.265 C  
BRANCH  12  13
HETATM   13  C   UNL     1     -11.689  12.045  65.934  1.00  0.00    -0.312 C  
BRANCH  13  14
HETATM   14  C   UNL     1     -12.069  13.507  66.202  1.00  0.00    -0.436 C  
HETATM   15  O   UNL     1     -13.134  13.975  65.327  1.00  0.00    -0.782 OA 
HETATM   16  O   UNL     1     -12.661  15.740  63.922  1.00  0.00    -0.705 OA 
HETATM   17  C   UNL     1     -11.118  14.583  65.607  1.00  0.00    -0.327 C  
HETATM   18  C   UNL     1     -12.363  14.936  64.772  1.00  0.00    -0.233 C  
BRANCH  17  19
HETATM   19  C   UNL     1     -10.620  15.731  66.478  1.00  0.00    -0.306 C  
BRANCH  19  20
HETATM   20  C   UNL     1      -9.171  16.070  66.141  1.00  0.00    -0.388 C  
BRANCH  20  21
HETATM   21  C   UNL     1      -8.861  17.543  66.425  1.00  0.00    -0.269 C  
BRANCH  21  22
HETATM   22  C   UNL     1      -8.963  17.850  67.920  1.00  0.00    -0.264 C  
BRANCH  22  23
HETATM   23  C   UNL     1     -10.129  18.790  68.228  1.00  0.00    -0.431 C  
HETATM   24  C   UNL     1     -10.640  19.464  66.963  1.00  0.00    -0.586 C  
ENDBRANCH  22  23
ENDBRANCH  21  22
ENDBRANCH  20  21
ENDBRANCH  19  20
ENDBRANCH  17  19
ENDBRANCH  13  14
ENDBRANCH  12  13
BRANCH  12  25
HETATM   25  O   UNL     1      -9.374  11.948  66.593  1.00  0.00    -0.194 OA 
BRANCH  25  26
HETATM   26  C   UNL     1      -8.374  11.034  66.454  1.00  0.00    -0.165 C  
HETATM   27  O   UNL     1      -7.336  10.995  67.106  1.00  0.00    -0.103 OA 
BRANCH  26  28
HETATM   28  C   UNL     1      -8.715  10.015  65.370  1.00  0.00    -0.159 C  
BRANCH  28  29
HETATM   29  C   UNL     1      -8.329   8.586  65.783  1.00  0.00    -0.144 C  
HETATM   30  C   UNL     1     -10.521   7.800  66.896  1.00  0.00    -0.388 C  
HETATM   31  C   UNL     1      -8.362   6.678  67.407  1.00  0.00    -0.121 C  
HETATM   32  C   UNL     1      -9.014   8.016  67.046  1.00  0.00    -0.156 C  
ENDBRANCH  28  29
BRANCH  28  33
HETATM   33  N   UNL     1      -8.095  10.439  64.115  1.00  0.00    -0.273 N  
HETATM   34  C   UNL     1      -8.806  10.998  63.092  1.00  0.00    -0.150 C  
HETATM   35  O   UNL     1     -10.015  11.165  63.079  1.00  0.00    -0.326 OA 
HETATM   36  H   UNL     1      -7.089  10.311  63.999  1.00  0.00     0.000 HD 
ENDBRANCH  28  33
ENDBRANCH  26  28
ENDBRANCH  25  26
ENDBRANCH  12  25
ENDBRANCH  11  12
ENDBRANCH  10  11
ENDBRANCH   9  10
ENDBRANCH   8   9
ENDBRANCH   7   8
ENDBRANCH   6   7
ENDBRANCH   5   6
ENDBRANCH   4   5
ENDBRANCH   3   4
ENDBRANCH   2   3
TORSDOF 22
ENDMDL
MODEL       55
REMARK 921   NORMALIZED FREE ENERGY PREDICTED BY IDOCK:   -4.73 KCAL/MOL
REMARK 922        TOTAL FREE ENERGY PREDICTED BY IDOCK:  -14.43 KCAL/MOL
REMARK 923 INTER-LIGAND FREE ENERGY PREDICTED BY IDOCK:  -10.14 KCAL/MOL
REMARK 924 INTRA-LIGAND FREE ENERGY PREDICTED BY IDOCK:   -4.29 KCAL/MOL
REMARK 927      BINDING AFFINITY PREDICTED BY RF-SCORE:    0.00 PKD
ROOT
HETATM    1  C   UNL     1     -10.882  14.735  67.116  1.00  0.00    -0.311 C  
HETATM    2  C   UNL     1     -12.068  13.806  66.918  1.00  0.00    -0.454 C  
ENDROOT
BRANCH   2   3
HETATM    3  C   UNL     1     -12.655  13.965  65.518  1.00  0.00    -0.560 C  
BRANCH   3   4
HETATM    4  C   UNL     1     -12.701  12.637  64.770  1.00  0.00    -0.460 C  
BRANCH   4   5
HETATM    5  C   UNL     1     -11.789  12.673  63.542  1.00  0.00    -0.619 C  
BRANCH   5   6
HETATM    6  C   UNL     1     -10.380  12.227  63.909  1.00  0.00    -0.455 C  
BRANCH   6   7
HETATM    7  C   UNL     1     -10.350  10.813  64.494  1.00  0.00    -0.401 C  
BRANCH   7   8
HETATM    8  C   UNL     1      -9.627  10.860  65.835  1.00  0.00    -0.257 C  
BRANCH   8   9
HETATM    9  C   UNL     1     -10.525  10.570  67.034  1.00  0.00    -0.304 C  
BRANCH   9  10
HETATM   10  C   UNL     1     -10.111   9.220  67.627  1.00  0.00    -0.266 C  
BRANCH  10  11
HETATM   11  C   UNL     1     -10.779   8.022  66.970  1.00  0.00    -0.263 C  
BRANCH  11  12
HETATM   12  C   UNL     1     -10.497   6.648  67.603  1.00  0.00    -0.227 C  
BRANCH  12  13
HETATM   13  C   UNL     1     -11.364   6.296  68.832  1.00  0.00    -0.269 C  
BRANCH  13  14
HETATM   14  C   UNL     1     -10.732   6.665  70.180  1.00  0.00    -0.239 C  
HETATM   15  O   UNL     1     -10.501   5.501  71.024  1.00  0.00    -0.229 OA 
HETATM   16  O   UNL     1     -11.588   5.426  73.055  1.00  0.00    -0.296 OA 
HETATM   17  C   UNL     1     -11.695   7.243  71.254  1.00  0.00    -0.328 C  
HETATM   18  C   UNL     1     -11.321   5.949  72.000  1.00  0.00    -0.267 C  
BRANCH  17  19
HETATM   19  C   UNL     1     -11.325   8.514  72.010  1.00  0.00    -0.425 C  
BRANCH  19  20
HETATM   20  C   UNL     1     -11.039   9.654  71.036  1.00  0.00    -0.438 C  
BRANCH  20  21
HETATM   21  C   UNL     1     -12.323  10.391  70.646  1.00  0.00    -0.438 C  
BRANCH  21  22
HETATM   22  C   UNL     1     -12.016  11.793  70.117  1.00  0.00    -0.421 C  
BRANCH  22  23
HETATM   23  C   UNL     1     -12.482  12.880  71.086  1.00  0.00    -0.344 C  
HETATM   24  C   UNL     1     -12.133  14.267  70.564  1.00  0.00    -0.413 C  
ENDBRANCH  22  23
ENDBRANCH  21  22
ENDBRANCH  20  21
ENDBRANCH  19  20
ENDBRANCH  17  19
ENDBRANCH  13  14
ENDBRANCH  12  13
BRANCH  12  25
HETATM   25  O   UNL     1     -10.676   5.589  66.634  1.00  0.00    -0.295 OA 
BRANCH  25  26
HETATM   26  C   UNL     1      -9.596   4.811  66.348  1.00  0.00    -0.177 C  
HETATM   27  O   UNL     1      -9.617   3.608  66.109  1.00  0.00    -0.181 OA 
BRANCH  26  28
HETATM   28  C   UNL     1      -8.315   5.640  66.338  1.00  0.00    -0.112 C  
BRANCH  28  29
HETATM   29  C   UNL     1      -7.979   6.161  64.932  1.00  0.00    -0.123 C  
HETATM   30  C   UNL     1      -6.858   8.412  65.508  1.00  0.00    -0.070 C  
HETATM   31  C   UNL     1      -7.813   8.009  63.248  1.00  0.00    -0.147 C  
HETATM   32  C   UNL     1      -7.968   7.694  64.739  1.00  0.00    -0.137 C  
ENDBRANCH  28  29
BRANCH  28  33
HETATM   33  N   UNL     1      -7.238   4.849  66.932  1.00  0.00    -0.076 N  
HETATM   34  C   UNL     1      -6.860   4.978  68.238  1.00  0.00    -0.056 C  
HETATM   35  O   UNL     1      -7.328   5.777  69.034  1.00  0.00    -0.079 OA 
HETATM   36  H   UNL     1      -6.749   4.172  66.345  1.00  0.00     0.000 HD 
ENDBRANCH  28  33
ENDBRANCH  26  28
ENDBRANCH  25  26
ENDBRANCH  12  25
ENDBRANCH  11  12
ENDBRANCH  10  11
ENDBRANCH   9  10
ENDBRANCH   8   9
ENDBRANCH   7   8
ENDBRANCH   6   7
ENDBRANCH   5   6
ENDBRANCH   4   5
ENDBRANCH   3   4
ENDBRANCH   2   3
TORSDOF 22
ENDMDL
MODEL       56
REMARK 921   NORMALIZED FREE ENERGY PREDICTED BY IDOCK:   -4.72 KCAL/MOL
REMARK 922        TOTAL FREE ENERGY PREDICTED BY IDOCK:  -14.41 KCAL/MOL
REMARK 923 INTER-LIGAND FREE ENERGY PREDICTED BY IDOCK:  -11.05 KCAL/MOL
REMARK 924 INTRA-LIGAND FREE ENERGY PREDICTED BY IDOCK:   -3.36 KCAL/MOL
REMARK 927      BINDING AFFINITY PREDICTED BY RF-SCORE:    0.00 PKD
ROOT
HETATM    1  C   UNL     1      -8.089   6.934  70.676  1.00  0.00    -0.118 C  
HETATM    2  C   UNL     1      -8.832   5.750  71.272  1.00  0.00    -0.139 C  
ENDROOT
BRANCH   2   3
HETATM    3  C   UNL     1     -10.023   5.362  70.401  1.00  0.00    -0.291 C  
BRANCH   3   4
HETATM    4  C   UNL     1     -10.902   6.566  70.075  1.00  0.00    -0.342 C  
BRANCH   4   5
HETATM    5  C   UNL     1     -11.339   6.538  68.609  1.00  0.00    -0.203 C  
BRANCH   5   6
HETATM    6  C   UNL     1     -10.475   5.570  67.812  1.00  0.00    -0.245 C  
BRANCH   6   7
HETATM    7  C   UNL     1      -9.700   6.266  66.692  1.00  0.00    -0.195 C  
BRANCH   7   8
HETATM    8  C   UNL     1     -10.155   7.719  66.618  1.00  0.00    -0.294 C  
BRANCH   8   9
HETATM    9  C   UNL     1      -9.013   8.723  66.500  1.00  0.00    -0.180 C  
BRANCH   9  10
HETATM   10  C   UNL     1      -8.674   9.231  67.905  1.00  0.00    -0.124 C  
BRANCH  10  11
HETATM   11  C   UNL     1      -8.977  10.706  68.121  1.00  0.00    -0.141 C  
BRANCH  11  12
HETATM   12  C   UNL     1     -10.407  11.166  67.787  1.00  0.00    -0.187 C  
BRANCH  12  13
HETATM   13  C   UNL     1     -11.525  10.509  68.625  1.00  0.00    -0.290 C  
BRANCH  13  14
HETATM   14  C   UNL     1     -11.510  10.890  70.111  1.00  0.00    -0.319 C  
HETATM   15  O   UNL     1     -11.183   9.762  70.971  1.00  0.00    -0.330 OA 
HETATM   16  O   UNL     1     -12.763   9.109  72.517  1.00  0.00    -0.367 OA 
HETATM   17  C   UNL     1     -12.896  11.006  70.803  1.00  0.00    -0.354 C  
HETATM   18  C   UNL     1     -12.368   9.813  71.619  1.00  0.00    -0.408 C  
BRANCH  17  19
HETATM   19  C   UNL     1     -13.228  12.229  71.653  1.00  0.00    -0.356 C  
BRANCH  19  20
HETATM   20  C   UNL     1     -12.414  13.436  71.196  1.00  0.00    -0.414 C  
BRANCH  20  21
HETATM   21  C   UNL     1     -13.316  14.635  70.890  1.00  0.00    -0.350 C  
BRANCH  21  22
HETATM   22  C   UNL     1     -12.908  15.858  71.713  1.00  0.00    -0.441 C  
BRANCH  22  23
HETATM   23  C   UNL     1     -13.575  15.866  73.088  1.00  0.00    -0.580 C  
HETATM   24  C   UNL     1     -12.549  15.684  74.198  1.00  0.00    -0.763 C  
ENDBRANCH  22  23
ENDBRANCH  21  22
ENDBRANCH  20  21
ENDBRANCH  19  20
ENDBRANCH  17  19
ENDBRANCH  13  14
ENDBRANCH  12  13
BRANCH  12  25
HETATM   25  O   UNL     1     -10.535  12.598  67.947  1.00  0.00    -0.209 OA 
BRANCH  25  26
HETATM   26  C   UNL     1     -11.535  13.219  67.261  1.00  0.00    -0.338 C  
HETATM   27  O   UNL     1     -12.722  13.230  67.571  1.00  0.00     0.243 OA 
BRANCH  26  28
HETATM   28  C   UNL     1     -10.987  13.940  66.034  1.00  0.00    -0.285 C  
BRANCH  28  29
HETATM   29  C   UNL     1     -10.265  12.978  65.078  1.00  0.00    -0.287 C  
HETATM   30  C   UNL     1     -12.168  12.425  63.425  1.00  0.00    -0.623 C  
HETATM   31  C   UNL     1     -10.207  10.914  63.657  1.00  0.00    -0.395 C  
HETATM   32  C   UNL     1     -11.126  11.884  64.406  1.00  0.00    -0.395 C  
ENDBRANCH  28  29
BRANCH  28  33
HETATM   33  N   UNL     1     -10.144  15.050  66.478  1.00  0.00    -0.267 N  
HETATM   34  C   UNL     1     -10.120  16.259  65.844  1.00  0.00    -0.357 C  
HETATM   35  O   UNL     1     -10.744  16.540  64.832  1.00  0.00    -0.702 OA 
HETATM   36  H   UNL     1      -9.550  14.915  67.297  1.00  0.00     0.000 HD 
ENDBRANCH  28  33
ENDBRANCH  26  28
ENDBRANCH  25  26
ENDBRANCH  12  25
ENDBRANCH  11  12
ENDBRANCH  10  11
ENDBRANCH   9  10
ENDBRANCH   8   9
ENDBRANCH   7   8
ENDBRANCH   6   7
ENDBRANCH   5   6
ENDBRANCH   4   5
ENDBRANCH   3   4
ENDBRANCH   2   3
TORSDOF 22
ENDMDL
MODEL       57
REMARK 921   NORMALIZED FREE ENERGY PREDICTED BY IDOCK:   -4.72 KCAL/MOL
REMARK 922        TOTAL FREE ENERGY PREDICTED BY IDOCK:  -14.40 KCAL/MOL
REMARK 923 INTER-LIGAND FREE ENERGY PREDICTED BY IDOCK:  -11.22 KCAL/MOL
REMARK 924 INTRA-LIGAND FREE ENERGY PREDICTED BY IDOCK:   -3.19 KCAL/MOL
REMARK 927      BINDING AFFINITY PREDICTED BY RF-SCORE:    0.00 PKD
ROOT
HETATM    1  C   UNL     1     -13.402  12.101  72.100  1.00  0.00    -0.438 C  
HETATM    2  C   UNL     1     -13.983  13.481  72.359  1.00  0.00    -0.638 C  
ENDROOT
BRANCH   2   3
HETATM    3  C   UNL     1     -12.888  14.464  72.764  1.00  0.00    -0.496 C  
BRANCH   3   4
HETATM    4  C   UNL     1     -12.791  15.636  71.792  1.00  0.00    -0.530 C  
BRANCH   4   5
HETATM    5  C   UNL     1     -11.489  15.571  70.992  1.00  0.00    -0.426 C  
BRANCH   5   6
HETATM    6  C   UNL     1     -11.760  15.112  69.565  1.00  0.00    -0.351 C  
BRANCH   6   7
HETATM    7  C   UNL     1     -11.570  13.603  69.392  1.00  0.00    -0.368 C  
BRANCH   7   8
HETATM    8  C   UNL     1     -11.866  13.242  67.941  1.00  0.00    -0.388 C  
BRANCH   8   9
HETATM    9  C   UNL     1     -11.765  11.750  67.640  1.00  0.00    -0.320 C  
BRANCH   9  10
HETATM   10  C   UNL     1     -11.455  11.017  68.949  1.00  0.00    -0.364 C  
BRANCH  10  11
HETATM   11  C   UNL     1     -10.098  10.330  68.968  1.00  0.00    -0.225 C  
BRANCH  11  12
HETATM   12  C   UNL     1      -9.985   9.017  68.171  1.00  0.00    -0.175 C  
BRANCH  12  13
HETATM   13  C   UNL     1      -8.927   9.018  67.045  1.00  0.00    -0.144 C  
BRANCH  13  14
HETATM   14  C   UNL     1      -9.441   9.531  65.694  1.00  0.00    -0.261 C  
HETATM   15  O   UNL     1      -8.784   8.885  64.567  1.00  0.00    -0.168 OA 
HETATM   16  O   UNL     1      -7.585  10.222  63.123  1.00  0.00    -0.148 OA 
HETATM   17  C   UNL     1      -8.880  10.902  65.224  1.00  0.00    -0.179 C  
HETATM   18  C   UNL     1      -8.271  10.045  64.100  1.00  0.00    -0.159 C  
BRANCH  17  19
HETATM   19  C   UNL     1      -9.828  11.986  64.721  1.00  0.00    -0.186 C  
BRANCH  19  20
HETATM   20  C   UNL     1     -10.896  11.384  63.812  1.00  0.00    -0.468 C  
BRANCH  20  21
HETATM   21  C   UNL     1     -12.270  12.007  64.074  1.00  0.00    -0.505 C  
BRANCH  21  22
HETATM   22  C   UNL     1     -12.337  13.441  63.544  1.00  0.00    -0.398 C  
BRANCH  22  23
HETATM   23  C   UNL     1     -12.481  14.458  64.676  1.00  0.00    -0.364 C  
HETATM   24  C   UNL     1     -11.307  15.427  64.697  1.00  0.00    -0.361 C  
ENDBRANCH  22  23
ENDBRANCH  21  22
ENDBRANCH  20  21
ENDBRANCH  19  20
ENDBRANCH  17  19
ENDBRANCH  13  14
ENDBRANCH  12  13
BRANCH  12  25
HETATM   25  O   UNL     1      -9.678   7.909  69.048  1.00  0.00    -0.158 OA 
BRANCH  25  26
HETATM   26  C   UNL     1     -10.591   6.901  69.128  1.00  0.00    -0.223 C  
HETATM   27  O   UNL     1     -11.147   6.355  68.181  1.00  0.00    -0.311 OA 
BRANCH  26  28
HETATM   28  C   UNL     1     -10.835   6.502  70.580  1.00  0.00    -0.266 C  
BRANCH  28  29
HETATM   29  C   UNL     1     -10.534   5.015  70.825  1.00  0.00    -0.222 C  
HETATM   30  C   UNL     1     -11.237   4.785  73.298  1.00  0.00    -0.421 C  
HETATM   31  C   UNL     1      -9.678   3.149  72.261  1.00  0.00    -0.224 C  
HETATM   32  C   UNL     1     -10.125   4.613  72.261  1.00  0.00    -0.250 C  
ENDBRANCH  28  29
BRANCH  28  33
HETATM   33  N   UNL     1     -12.198   6.882  70.950  1.00  0.00    -0.459 N  
HETATM   34  C   UNL     1     -12.502   8.090  71.510  1.00  0.00    -0.310 C  
HETATM   35  O   UNL     1     -11.694   8.956  71.806  1.00  0.00    -0.314 OA 
HETATM   36  H   UNL     1     -12.954   6.217  70.781  1.00  0.00     0.000 HD 
ENDBRANCH  28  33
ENDBRANCH  26  28
ENDBRANCH  25  26
ENDBRANCH  12  25
ENDBRANCH  11  12
ENDBRANCH  10  11
ENDBRANCH   9  10
ENDBRANCH   8   9
ENDBRANCH   7   8
ENDBRANCH   6   7
ENDBRANCH   5   6
ENDBRANCH   4   5
ENDBRANCH   3   4
ENDBRANCH   2   3
TORSDOF 22
ENDMDL
MODEL       58
REMARK 921   NORMALIZED FREE ENERGY PREDICTED BY IDOCK:   -4.72 KCAL/MOL
REMARK 922        TOTAL FREE ENERGY PREDICTED BY IDOCK:  -14.40 KCAL/MOL
REMARK 923 INTER-LIGAND FREE ENERGY PREDICTED BY IDOCK:  -10.06 KCAL/MOL
REMARK 924 INTRA-LIGAND FREE ENERGY PREDICTED BY IDOCK:   -4.34 KCAL/MOL
REMARK 927      BINDING AFFINITY PREDICTED BY RF-SCORE:    0.00 PKD
ROOT
HETATM    1  C   UNL     1     -13.014  11.058  71.684  1.00  0.00    -0.561 C  
HETATM    2  C   UNL     1     -13.299   9.730  71.002  1.00  0.00    -0.301 C  
ENDROOT
BRANCH   2   3
HETATM    3  C   UNL     1     -13.745   8.682  72.018  1.00  0.00    -0.470 C  
BRANCH   3   4
HETATM    4  C   UNL     1     -13.433   7.266  71.544  1.00  0.00    -0.439 C  
BRANCH   4   5
HETATM    5  C   UNL     1     -11.943   6.957  71.698  1.00  0.00    -0.379 C  
BRANCH   5   6
HETATM    6  C   UNL     1     -11.388   7.614  72.955  1.00  0.00    -0.394 C  
BRANCH   6   7
HETATM    7  C   UNL     1      -9.947   7.191  73.246  1.00  0.00    -0.296 C  
BRANCH   7   8
HETATM    8  C   UNL     1      -9.012   8.295  72.765  1.00  0.00    -0.323 C  
BRANCH   8   9
HETATM    9  C   UNL     1      -8.335   7.998  71.431  1.00  0.00    -0.131 C  
BRANCH   9  10
HETATM   10  C   UNL     1      -8.290   9.294  70.617  1.00  0.00    -0.245 C  
BRANCH  10  11
HETATM   11  C   UNL     1      -9.652   9.773  70.138  1.00  0.00    -0.287 C  
BRANCH  11  12
HETATM   12  C   UNL     1     -10.077   9.328  68.727  1.00  0.00    -0.195 C  
BRANCH  12  13
HETATM   13  C   UNL     1     -10.719   7.925  68.642  1.00  0.00    -0.073 C  
BRANCH  13  14
HETATM   14  C   UNL     1      -9.812   6.851  68.030  1.00  0.00    -0.139 C  
HETATM   15  O   UNL     1      -9.974   6.740  66.587  1.00  0.00    -0.181 OA 
HETATM   16  O   UNL     1     -10.703   4.721  65.749  1.00  0.00    -0.305 OA 
HETATM   17  C   UNL     1     -10.289   5.380  68.188  1.00  0.00    -0.210 C  
HETATM   18  C   UNL     1     -10.389   5.456  66.654  1.00  0.00    -0.275 C  
BRANCH  17  19
HETATM   19  C   UNL     1      -9.322   4.310  68.686  1.00  0.00    -0.213 C  
BRANCH  19  20
HETATM   20  C   UNL     1      -8.855   4.627  70.103  1.00  0.00    -0.126 C  
BRANCH  20  21
HETATM   21  C   UNL     1      -9.826   4.074  71.150  1.00  0.00    -0.236 C  
BRANCH  21  22
HETATM   22  C   UNL     1      -9.146   3.027  72.035  1.00  0.00    -0.145 C  
BRANCH  22  23
HETATM   23  C   UNL     1     -10.027   2.626  73.218  1.00  0.00    -0.175 C  
HETATM   24  C   UNL     1     -11.056   3.705  73.528  1.00  0.00    -0.320 C  
ENDBRANCH  22  23
ENDBRANCH  21  22
ENDBRANCH  20  21
ENDBRANCH  19  20
ENDBRANCH  17  19
ENDBRANCH  13  14
ENDBRANCH  12  13
BRANCH  12  25
HETATM   25  O   UNL     1     -11.017  10.266  68.154  1.00  0.00    -0.250 OA 
BRANCH  25  26
HETATM   26  C   UNL     1     -10.740  10.753  66.913  1.00  0.00    -0.252 C  
HETATM   27  O   UNL     1     -10.295  10.109  65.969  1.00  0.00    -0.232 OA 
BRANCH  26  28
HETATM   28  C   UNL     1     -11.081  12.238  66.822  1.00  0.00    -0.296 C  
BRANCH  28  29
HETATM   29  C   UNL     1     -11.852  12.726  68.058  1.00  0.00    -0.386 C  
HETATM   30  C   UNL     1     -11.467  15.272  67.889  1.00  0.00    -0.325 C  
HETATM   31  C   UNL     1     -12.097  14.222  70.053  1.00  0.00    -0.400 C  
HETATM   32  C   UNL     1     -11.332  14.010  68.743  1.00  0.00    -0.309 C  
ENDBRANCH  28  29
BRANCH  28  33
HETATM   33  N   UNL     1     -11.790  12.482  65.567  1.00  0.00    -0.420 N  
HETATM   34  C   UNL     1     -11.364  13.392  64.643  1.00  0.00    -0.350 C  
HETATM   35  O   UNL     1     -10.395  14.126  64.766  1.00  0.00    -0.426 OA 
HETATM   36  H   UNL     1     -12.639  11.949  65.374  1.00  0.00     0.000 HD 
ENDBRANCH  28  33
ENDBRANCH  26  28
ENDBRANCH  25  26
ENDBRANCH  12  25
ENDBRANCH  11  12
ENDBRANCH  10  11
ENDBRANCH   9  10
ENDBRANCH   8   9
ENDBRANCH   7   8
ENDBRANCH   6   7
ENDBRANCH   5   6
ENDBRANCH   4   5
ENDBRANCH   3   4
ENDBRANCH   2   3
TORSDOF 22
ENDMDL
MODEL       59
REMARK 921   NORMALIZED FREE ENERGY PREDICTED BY IDOCK:   -4.71 KCAL/MOL
REMARK 922        TOTAL FREE ENERGY PREDICTED BY IDOCK:  -14.39 KCAL/MOL
REMARK 923 INTER-LIGAND FREE ENERGY PREDICTED BY IDOCK:   -9.23 KCAL/MOL
REMARK 924 INTRA-LIGAND FREE ENERGY PREDICTED BY IDOCK:   -5.17 KCAL/MOL
REMARK 927      BINDING AFFINITY PREDICTED BY RF-SCORE:    0.00 PKD
ROOT
HETATM    1  C   UNL     1     -10.757   7.788  73.057  1.00  0.00    -0.446 C  
HETATM    2  C   UNL     1     -12.059   8.378  72.542  1.00  0.00    -0.403 C  
ENDROOT
BRANCH   2   3
HETATM    3  C   UNL     1     -12.485   7.701  71.242  1.00  0.00    -0.324 C  
BRANCH   3   4
HETATM    4  C   UNL     1     -11.858   6.318  71.092  1.00  0.00    -0.234 C  
BRANCH   4   5
HETATM    5  C   UNL     1     -11.246   6.147  69.700  1.00  0.00    -0.488 C  
BRANCH   5   6
HETATM    6  C   UNL     1      -9.919   5.405  69.787  1.00  0.00    -0.294 C  
BRANCH   6   7
HETATM    7  C   UNL     1      -8.769   6.315  70.223  1.00  0.00    -0.142 C  
BRANCH   7   8
HETATM    8  C   UNL     1      -8.832   7.600  69.405  1.00  0.00    -0.139 C  
BRANCH   8   9
HETATM    9  C   UNL     1      -8.593   8.867  70.220  1.00  0.00    -0.178 C  
BRANCH   9  10
HETATM   10  C   UNL     1      -9.763   9.824  69.972  1.00  0.00    -0.292 C  
BRANCH  10  11
HETATM   11  C   UNL     1     -10.614   9.463  68.764  1.00  0.00    -0.234 C  
BRANCH  11  12
HETATM   12  C   UNL     1     -10.579  10.450  67.583  1.00  0.00    -0.257 C  
BRANCH  12  13
HETATM   13  C   UNL     1     -10.409   9.806  66.189  1.00  0.00    -0.215 C  
BRANCH  13  14
HETATM   14  C   UNL     1      -9.100  10.170  65.479  1.00  0.00    -0.178 C  
HETATM   15  O   UNL     1      -8.741   9.209  64.445  1.00  0.00    -0.193 OA 
HETATM   16  O   UNL     1      -6.750   8.075  64.689  1.00  0.00    -0.058 OA 
HETATM   17  C   UNL     1      -7.789   9.827  66.240  1.00  0.00    -0.106 C  
HETATM   18  C   UNL     1      -7.583   8.870  65.052  1.00  0.00    -0.100 C  
BRANCH  17  19
HETATM   19  C   UNL     1      -6.688  10.874  66.381  1.00  0.00    -0.134 C  
BRANCH  19  20
HETATM   20  C   UNL     1      -6.398  11.153  67.853  1.00  0.00    -0.054 C  
BRANCH  20  21
HETATM   21  C   UNL     1      -7.419  12.125  68.450  1.00  0.00    -0.114 C  
BRANCH  21  22
HETATM   22  C   UNL     1      -7.850  13.173  67.423  1.00  0.00    -0.169 C  
BRANCH  22  23
HETATM   23  C   UNL     1      -7.022  14.452  67.534  1.00  0.00    -0.182 C  
HETATM   24  C   UNL     1      -7.265  15.150  68.865  1.00  0.00    -0.133 C  
ENDBRANCH  22  23
ENDBRANCH  21  22
ENDBRANCH  20  21
ENDBRANCH  19  20
ENDBRANCH  17  19
ENDBRANCH  13  14
ENDBRANCH  12  13
BRANCH  12  25
HETATM   25  O   UNL     1     -11.787  11.246  67.544  1.00  0.00    -0.613 OA 
BRANCH  25  26
HETATM   26  C   UNL     1     -11.716  12.516  68.030  1.00  0.00    -0.355 C  
HETATM   27  O   UNL     1     -11.785  12.841  69.211  1.00  0.00    -0.289 OA 
BRANCH  26  28
HETATM   28  C   UNL     1     -11.513  13.521  66.900  1.00  0.00    -0.344 C  
BRANCH  28  29
HETATM   29  C   UNL     1     -11.628  14.972  67.394  1.00  0.00    -0.304 C  
HETATM   30  C   UNL     1     -10.041  16.166  65.746  1.00  0.00    -0.390 C  
HETATM   31  C   UNL     1     -10.620  17.202  67.931  1.00  0.00    -0.376 C  
HETATM   32  C   UNL     1     -10.386  15.872  67.207  1.00  0.00    -0.293 C  
ENDBRANCH  28  29
BRANCH  28  33
HETATM   33  N   UNL     1     -12.446  13.206  65.818  1.00  0.00    -0.429 N  
HETATM   34  C   UNL     1     -12.033  12.894  64.554  1.00  0.00    -0.395 C  
HETATM   35  O   UNL     1     -10.873  12.887  64.170  1.00  0.00    -0.370 OA 
HETATM   36  H   UNL     1     -13.447  13.219  66.016  1.00  0.00     0.000 HD 
ENDBRANCH  28  33
ENDBRANCH  26  28
ENDBRANCH  25  26
ENDBRANCH  12  25
ENDBRANCH  11  12
ENDBRANCH  10  11
ENDBRANCH   9  10
ENDBRANCH   8   9
ENDBRANCH   7   8
ENDBRANCH   6   7
ENDBRANCH   5   6
ENDBRANCH   4   5
ENDBRANCH   3   4
ENDBRANCH   2   3
TORSDOF 22
ENDMDL
MODEL       60
REMARK 921   NORMALIZED FREE ENERGY PREDICTED BY IDOCK:   -4.71 KCAL/MOL
REMARK 922        TOTAL FREE ENERGY PREDICTED BY IDOCK:  -14.39 KCAL/MOL
REMARK 923 INTER-LIGAND FREE ENERGY PREDICTED BY IDOCK:  -10.29 KCAL/MOL
REMARK 924 INTRA-LIGAND FREE ENERGY PREDICTED BY IDOCK:   -4.10 KCAL/MOL
REMARK 927      BINDING AFFINITY PREDICTED BY RF-SCORE:    0.00 PKD
ROOT
HETATM    1  C   UNL     1      -8.848   3.218  69.718  1.00  0.00    -0.154 C  
HETATM    2  C   UNL     1      -9.680   4.315  69.074  1.00  0.00    -0.209 C  
ENDROOT
BRANCH   2   3
HETATM    3  C   UNL     1     -10.393   5.149  70.135  1.00  0.00    -0.340 C  
BRANCH   3   4
HETATM    4  C   UNL     1     -11.179   6.301  69.516  1.00  0.00    -0.500 C  
BRANCH   4   5
HETATM    5  C   UNL     1     -10.939   6.371  68.006  1.00  0.00    -0.400 C  
BRANCH   5   6
HETATM    6  C   UNL     1     -10.495   7.770  67.601  1.00  0.00    -0.308 C  
BRANCH   6   7
HETATM    7  C   UNL     1      -9.490   8.371  68.585  1.00  0.00    -0.147 C  
BRANCH   7   8
HETATM    8  C   UNL     1      -9.558   9.891  68.480  1.00  0.00    -0.159 C  
BRANCH   8   9
HETATM    9  C   UNL     1     -10.912  10.421  68.021  1.00  0.00    -0.347 C  
BRANCH   9  10
HETATM   10  C   UNL     1     -11.618  11.044  69.229  1.00  0.00    -0.384 C  
BRANCH  10  11
HETATM   11  C   UNL     1     -11.660  12.565  69.205  1.00  0.00    -0.378 C  
BRANCH  11  12
HETATM   12  C   UNL     1     -10.907  13.252  68.052  1.00  0.00    -0.243 C  
BRANCH  12  13
HETATM   13  C   UNL     1     -11.721  14.302  67.264  1.00  0.00    -0.422 C  
BRANCH  13  14
HETATM   14  C   UNL     1     -11.631  14.159  65.740  1.00  0.00    -0.343 C  
HETATM   15  O   UNL     1     -12.935  13.975  65.120  1.00  0.00    -0.744 OA 
HETATM   16  O   UNL     1     -13.294  12.019  63.954  1.00  0.00    -0.669 OA 
HETATM   17  C   UNL     1     -11.189  12.768  65.206  1.00  0.00    -0.328 C  
HETATM   18  C   UNL     1     -12.613  12.761  64.620  1.00  0.00    -0.419 C  
BRANCH  17  19
HETATM   19  C   UNL     1     -10.093  12.665  64.151  1.00  0.00    -0.293 C  
BRANCH  19  20
HETATM   20  C   UNL     1      -9.924  11.219  63.693  1.00  0.00    -0.402 C  
BRANCH  20  21
HETATM   21  C   UNL     1      -9.826  10.262  64.885  1.00  0.00    -0.404 C  
BRANCH  21  22
HETATM   22  C   UNL     1      -8.638   9.311  64.733  1.00  0.00    -0.207 C  
BRANCH  22  23
HETATM   23  C   UNL     1      -7.461   9.727  65.616  1.00  0.00    -0.110 C  
HETATM   24  C   UNL     1      -6.762   8.511  66.208  1.00  0.00    -0.069 C  
ENDBRANCH  22  23
ENDBRANCH  21  22
ENDBRANCH  20  21
ENDBRANCH  19  20
ENDBRANCH  17  19
ENDBRANCH  13  14
ENDBRANCH  12  13
BRANCH  12  25
HETATM   25  O   UNL     1      -9.714  13.911  68.539  1.00  0.00    -0.221 OA 
BRANCH  25  26
HETATM   26  C   UNL     1      -8.598  13.843  67.761  1.00  0.00    -0.182 C  
HETATM   27  O   UNL     1      -8.188  12.847  67.175  1.00  0.00    -0.182 OA 
BRANCH  26  28
HETATM   28  C   UNL     1      -7.906  15.200  67.683  1.00  0.00    -0.160 C  
BRANCH  28  29
HETATM   29  C   UNL     1      -8.608  16.146  66.696  1.00  0.00    -0.311 C  
HETATM   30  C   UNL     1      -8.941  18.230  68.182  1.00  0.00    -0.314 C  
HETATM   31  C   UNL     1     -10.336  17.878  66.154  1.00  0.00    -0.352 C  
HETATM   32  C   UNL     1      -9.598  17.171  67.295  1.00  0.00    -0.245 C  
ENDBRANCH  28  29
BRANCH  28  33
HETATM   33  N   UNL     1      -6.493  14.990  67.373  1.00  0.00    -0.081 N  
HETATM   34  C   UNL     1      -5.512  15.848  67.782  1.00  0.00    -0.140 C  
HETATM   35  O   UNL     1      -5.692  16.888  68.397  1.00  0.00    -0.126 OA 
HETATM   36  H   UNL     1      -6.228  14.168  66.829  1.00  0.00     0.000 HD 
ENDBRANCH  28  33
ENDBRANCH  26  28
ENDBRANCH  25  26
ENDBRANCH  12  25
ENDBRANCH  11  12
ENDBRANCH  10  11
ENDBRANCH   9  10
ENDBRANCH   8   9
ENDBRANCH   7   8
ENDBRANCH   6   7
ENDBRANCH   5   6
ENDBRANCH   4   5
ENDBRANCH   3   4
ENDBRANCH   2   3
TORSDOF 22
ENDMDL
MODEL       61
REMARK 921   NORMALIZED FREE ENERGY PREDICTED BY IDOCK:   -4.71 KCAL/MOL
REMARK 922        TOTAL FREE ENERGY PREDICTED BY IDOCK:  -14.39 KCAL/MOL
REMARK 923 INTER-LIGAND FREE ENERGY PREDICTED BY IDOCK:  -10.66 KCAL/MOL
REMARK 924 INTRA-LIGAND FREE ENERGY PREDICTED BY IDOCK:   -3.73 KCAL/MOL
REMARK 927      BINDING AFFINITY PREDICTED BY RF-SCORE:    0.00 PKD
ROOT
HETATM    1  C   UNL     1     -12.211  14.689  64.360  1.00  0.00    -0.473 C  
HETATM    2  C   UNL     1     -12.784  13.867  65.503  1.00  0.00    -0.536 C  
ENDROOT
BRANCH   2   3
HETATM    3  C   UNL     1     -12.241  12.441  65.472  1.00  0.00    -0.356 C  
BRANCH   3   4
HETATM    4  C   UNL     1     -11.759  12.049  64.078  1.00  0.00    -0.498 C  
BRANCH   4   5
HETATM    5  C   UNL     1     -10.303  11.584  64.118  1.00  0.00    -0.386 C  
BRANCH   5   6
HETATM    6  C   UNL     1      -9.898  10.978  62.781  1.00  0.00    -0.262 C  
BRANCH   6   7
HETATM    7  C   UNL     1      -9.007   9.745  62.944  1.00  0.00    -0.270 C  
BRANCH   7   8
HETATM    8  C   UNL     1      -8.974   9.364  64.420  1.00  0.00    -0.215 C  
BRANCH   8   9
HETATM    9  C   UNL     1      -7.592   8.967  64.927  1.00  0.00    -0.108 C  
BRANCH   9  10
HETATM   10  C   UNL     1      -7.242   9.865  66.118  1.00  0.00    -0.104 C  
BRANCH  10  11
HETATM   11  C   UNL     1      -8.059  11.146  66.189  1.00  0.00    -0.111 C  
BRANCH  11  12
HETATM   12  C   UNL     1      -8.150  11.823  67.568  1.00  0.00    -0.152 C  
BRANCH  12  13
HETATM   13  C   UNL     1      -8.065  13.366  67.554  1.00  0.00    -0.183 C  
BRANCH  13  14
HETATM   14  C   UNL     1      -9.378  14.069  67.191  1.00  0.00    -0.242 C  
HETATM   15  O   UNL     1      -9.287  14.807  65.939  1.00  0.00    -0.271 OA 
HETATM   16  O   UNL     1      -9.629  17.085  66.018  1.00  0.00    -0.428 OA 
HETATM   17  C   UNL     1      -9.676  15.397  67.942  1.00  0.00    -0.207 C  
HETATM   18  C   UNL     1      -9.548  15.994  66.529  1.00  0.00    -0.261 C  
BRANCH  17  19
HETATM   19  C   UNL     1     -11.041  15.626  68.582  1.00  0.00    -0.317 C  
BRANCH  19  20
HETATM   20  C   UNL     1     -11.500  14.376  69.328  1.00  0.00    -0.323 C  
BRANCH  20  21
HETATM   21  C   UNL     1     -12.715  14.668  70.213  1.00  0.00    -0.323 C  
BRANCH  21  22
HETATM   22  C   UNL     1     -12.375  14.489  71.694  1.00  0.00    -0.420 C  
BRANCH  22  23
HETATM   23  C   UNL     1     -12.955  15.615  72.550  1.00  0.00    -0.541 C  
HETATM   24  C   UNL     1     -12.520  15.480  74.003  1.00  0.00    -0.789 C  
ENDBRANCH  22  23
ENDBRANCH  21  22
ENDBRANCH  20  21
ENDBRANCH  19  20
ENDBRANCH  17  19
ENDBRANCH  13  14
ENDBRANCH  12  13
BRANCH  12  25
HETATM   25  O   UNL     1      -9.385  11.468  68.233  1.00  0.00    -0.178 OA 
BRANCH  25  26
HETATM   26  C   UNL     1      -9.361  10.389  69.064  1.00  0.00    -0.194 C  
HETATM   27  O   UNL     1      -8.437  10.070  69.804  1.00  0.00    -0.178 OA 
BRANCH  26  28
HETATM   28  C   UNL     1     -10.670   9.610  68.982  1.00  0.00    -0.211 C  
BRANCH  28  29
HETATM   29  C   UNL     1     -10.722   8.704  67.741  1.00  0.00    -0.178 C  
HETATM   30  C   UNL     1     -11.038   6.394  68.846  1.00  0.00    -0.420 C  
HETATM   31  C   UNL     1     -10.143   6.586  66.534  1.00  0.00    -0.144 C  
HETATM   32  C   UNL     1     -10.196   7.261  67.908  1.00  0.00    -0.237 C  
ENDBRANCH  28  29
BRANCH  28  33
HETATM   33  N   UNL     1     -11.785  10.554  69.052  1.00  0.00    -0.487 N  
HETATM   34  C   UNL     1     -12.459  10.816  70.211  1.00  0.00    -0.317 C  
HETATM   35  O   UNL     1     -12.252  10.278  71.287  1.00  0.00    -0.346 OA 
HETATM   36  H   UNL     1     -12.070  11.038  68.200  1.00  0.00     0.000 HD 
ENDBRANCH  28  33
ENDBRANCH  26  28
ENDBRANCH  25  26
ENDBRANCH  12  25
ENDBRANCH  11  12
ENDBRANCH  10  11
ENDBRANCH   9  10
ENDBRANCH   8   9
ENDBRANCH   7   8
ENDBRANCH   6   7
ENDBRANCH   5   6
ENDBRANCH   4   5
ENDBRANCH   3   4
ENDBRANCH   2   3
TORSDOF 22
ENDMDL
MODEL       62
REMARK 921   NORMALIZED FREE ENERGY PREDICTED BY IDOCK:   -4.71 KCAL/MOL
REMARK 922        TOTAL FREE ENERGY PREDICTED BY IDOCK:  -14.38 KCAL/MOL
REMARK 923 INTER-LIGAND FREE ENERGY PREDICTED BY IDOCK:  -10.74 KCAL/MOL
REMARK 924 INTRA-LIGAND FREE ENERGY PREDICTED BY IDOCK:   -3.64 KCAL/MOL
REMARK 927      BINDING AFFINITY PREDICTED BY RF-SCORE:    0.00 PKD
ROOT
HETATM    1  C   UNL     1     -12.169  15.431  70.099  1.00  0.00    -0.407 C  
HETATM    2  C   UNL     1     -11.756  15.346  68.639  1.00  0.00    -0.371 C  
ENDROOT
BRANCH   2   3
HETATM    3  C   UNL     1     -12.003  13.946  68.085  1.00  0.00    -0.385 C  
BRANCH   3   4
HETATM    4  C   UNL     1     -12.278  13.971  66.585  1.00  0.00    -0.463 C  
BRANCH   4   5
HETATM    5  C   UNL     1     -11.171  14.722  65.842  1.00  0.00    -0.340 C  
BRANCH   5   6
HETATM    6  C   UNL     1     -10.616  13.872  64.707  1.00  0.00    -0.444 C  
BRANCH   6   7
HETATM    7  C   UNL     1     -11.719  13.187  63.898  1.00  0.00    -0.515 C  
BRANCH   7   8
HETATM    8  C   UNL     1     -11.353  11.717  63.727  1.00  0.00    -0.524 C  
BRANCH   8   9
HETATM    9  C   UNL     1      -9.986  11.349  64.294  1.00  0.00    -0.329 C  
BRANCH   9  10
HETATM   10  C   UNL     1     -10.199  10.417  65.491  1.00  0.00    -0.316 C  
BRANCH  10  11
HETATM   11  C   UNL     1      -8.919  10.044  66.222  1.00  0.00    -0.170 C  
BRANCH  11  12
HETATM   12  C   UNL     1      -8.806  10.507  67.686  1.00  0.00    -0.131 C  
BRANCH  12  13
HETATM   13  C   UNL     1      -9.239  11.966  67.952  1.00  0.00    -0.187 C  
BRANCH  13  14
HETATM   14  C   UNL     1      -8.203  13.018  67.541  1.00  0.00    -0.181 C  
HETATM   15  O   UNL     1      -6.869  12.711  68.038  1.00  0.00    -0.074 OA 
HETATM   16  O   UNL     1      -5.891  14.228  69.471  1.00  0.00    -0.092 OA 
HETATM   17  C   UNL     1      -8.198  14.335  68.366  1.00  0.00    -0.144 C  
HETATM   18  C   UNL     1      -6.798  13.843  68.773  1.00  0.00    -0.105 C  
BRANCH  17  19
HETATM   19  C   UNL     1      -8.189  15.684  67.654  1.00  0.00    -0.165 C  
BRANCH  19  20
HETATM   20  C   UNL     1      -8.550  16.805  68.625  1.00  0.00    -0.263 C  
BRANCH  20  21
HETATM   21  C   UNL     1      -8.047  18.162  68.125  1.00  0.00    -0.289 C  
BRANCH  21  22
HETATM   22  C   UNL     1      -9.093  19.256  68.352  1.00  0.00    -0.408 C  
BRANCH  22  23
HETATM   23  C   UNL     1      -9.363  20.056  67.078  1.00  0.00    -0.510 C  
HETATM   24  C   UNL     1     -10.535  19.473  66.301  1.00  0.00    -0.609 C  
ENDBRANCH  22  23
ENDBRANCH  21  22
ENDBRANCH  20  21
ENDBRANCH  19  20
ENDBRANCH  17  19
ENDBRANCH  13  14
ENDBRANCH  12  13
BRANCH  12  25
HETATM   25  O   UNL     1      -9.596   9.660  68.554  1.00  0.00    -0.143 OA 
BRANCH  25  26
HETATM   26  C   UNL     1      -9.233   9.595  69.865  1.00  0.00    -0.229 C  
HETATM   27  O   UNL     1      -8.085   9.559  70.295  1.00  0.00    -0.152 OA 
BRANCH  26  28
HETATM   28  C   UNL     1     -10.462   9.592  70.769  1.00  0.00    -0.314 C  
BRANCH  28  29
HETATM   29  C   UNL     1     -10.534   8.325  71.637  1.00  0.00    -0.303 C  
HETATM   30  C   UNL     1     -11.103   6.552  69.851  1.00  0.00    -0.430 C  
HETATM   31  C   UNL     1     -11.582   6.135  72.254  1.00  0.00    -0.362 C  
HETATM   32  C   UNL     1     -11.502   7.214  71.171  1.00  0.00    -0.322 C  
ENDBRANCH  28  29
BRANCH  28  33
HETATM   33  N   UNL     1     -11.653   9.793  69.945  1.00  0.00    -0.424 N  
HETATM   34  C   UNL     1     -12.495  10.855  70.110  1.00  0.00    -0.283 C  
HETATM   35  O   UNL     1     -12.388  11.716  70.969  1.00  0.00    -0.360 OA 
HETATM   36  H   UNL     1     -11.863   9.111  69.215  1.00  0.00     0.000 HD 
ENDBRANCH  28  33
ENDBRANCH  26  28
ENDBRANCH  25  26
ENDBRANCH  12  25
ENDBRANCH  11  12
ENDBRANCH  10  11
ENDBRANCH   9  10
ENDBRANCH   8   9
ENDBRANCH   7   8
ENDBRANCH   6   7
ENDBRANCH   5   6
ENDBRANCH   4   5
ENDBRANCH   3   4
ENDBRANCH   2   3
TORSDOF 22
ENDMDL
MODEL       63
REMARK 921   NORMALIZED FREE ENERGY PREDICTED BY IDOCK:   -4.70 KCAL/MOL
REMARK 922        TOTAL FREE ENERGY PREDICTED BY IDOCK:  -14.37 KCAL/MOL
REMARK 923 INTER-LIGAND FREE ENERGY PREDICTED BY IDOCK:  -10.07 KCAL/MOL
REMARK 924 INTRA-LIGAND FREE ENERGY PREDICTED BY IDOCK:   -4.30 KCAL/MOL
REMARK 927      BINDING AFFINITY PREDICTED BY RF-SCORE:    0.00 PKD
ROOT
HETATM    1  C   UNL     1      -9.960   6.184  72.054  1.00  0.00    -0.194 C  
HETATM    2  C   UNL     1     -10.442   6.936  70.825  1.00  0.00    -0.238 C  
ENDROOT
BRANCH   2   3
HETATM    3  C   UNL     1     -11.921   6.663  70.568  1.00  0.00    -0.377 C  
BRANCH   3   4
HETATM    4  C   UNL     1     -12.761   6.865  71.825  1.00  0.00    -0.369 C  
BRANCH   4   5
HETATM    5  C   UNL     1     -14.136   7.438  71.474  1.00  0.00    -0.541 C  
BRANCH   5   6
HETATM    6  C   UNL     1     -14.050   8.944  71.267  1.00  0.00    -0.193 C  
BRANCH   6   7
HETATM    7  C   UNL     1     -13.105   9.617  72.265  1.00  0.00    -0.468 C  
BRANCH   7   8
HETATM    8  C   UNL     1     -12.044  10.384  71.485  1.00  0.00    -0.364 C  
BRANCH   8   9
HETATM    9  C   UNL     1     -12.371  10.567  70.007  1.00  0.00    -0.290 C  
BRANCH   9  10
HETATM   10  C   UNL     1     -11.207  10.003  69.185  1.00  0.00    -0.197 C  
BRANCH  10  11
HETATM   11  C   UNL     1     -10.311  11.066  68.570  1.00  0.00    -0.204 C  
BRANCH  11  12
HETATM   12  C   UNL     1      -9.724  10.746  67.182  1.00  0.00    -0.170 C  
BRANCH  12  13
HETATM   13  C   UNL     1     -10.462  11.392  65.989  1.00  0.00    -0.305 C  
BRANCH  13  14
HETATM   14  C   UNL     1     -11.692  12.220  66.378  1.00  0.00    -0.365 C  
HETATM   15  O   UNL     1     -12.564  12.489  65.243  1.00  0.00    -0.645 OA 
HETATM   16  O   UNL     1     -12.908  14.693  64.664  1.00  0.00    -0.559 OA 
HETATM   17  C   UNL     1     -11.464  13.747  66.555  1.00  0.00    -0.364 C  
HETATM   18  C   UNL     1     -12.414  13.828  65.346  1.00  0.00    -0.500 C  
BRANCH  17  19
HETATM   19  C   UNL     1     -11.990  14.462  67.795  1.00  0.00    -0.368 C  
BRANCH  19  20
HETATM   20  C   UNL     1     -10.920  14.508  68.882  1.00  0.00    -0.268 C  
BRANCH  20  21
HETATM   21  C   UNL     1     -11.501  14.157  70.254  1.00  0.00    -0.193 C  
BRANCH  21  22
HETATM   22  C   UNL     1     -12.771  14.962  70.539  1.00  0.00    -0.399 C  
BRANCH  22  23
HETATM   23  C   UNL     1     -13.121  14.964  72.027  1.00  0.00    -0.426 C  
HETATM   24  C   UNL     1     -13.709  13.626  72.453  1.00  0.00    -0.697 C  
ENDBRANCH  22  23
ENDBRANCH  21  22
ENDBRANCH  20  21
ENDBRANCH  19  20
ENDBRANCH  17  19
ENDBRANCH  13  14
ENDBRANCH  12  13
BRANCH  12  25
HETATM   25  O   UNL     1      -8.339  11.156  67.104  1.00  0.00    -0.128 OA 
BRANCH  25  26
HETATM   26  C   UNL     1      -7.396  10.174  67.067  1.00  0.00    -0.091 C  
HETATM   27  O   UNL     1      -6.360  10.145  67.723  1.00  0.00    -0.057 OA 
BRANCH  26  28
HETATM   28  C   UNL     1      -7.801   9.067  66.098  1.00  0.00    -0.102 C  
BRANCH  28  29
HETATM   29  C   UNL     1      -7.545   7.670  66.684  1.00  0.00    -0.097 C  
HETATM   30  C   UNL     1      -9.957   6.932  67.234  1.00  0.00    -0.224 C  
HETATM   31  C   UNL     1      -8.013   5.863  68.357  1.00  0.00    -0.105 C  
HETATM   32  C   UNL     1      -8.539   7.171  67.758  1.00  0.00    -0.126 C  
ENDBRANCH  28  29
BRANCH  28  33
HETATM   33  N   UNL     1      -7.123   9.289  64.822  1.00  0.00    -0.093 N  
HETATM   34  C   UNL     1      -7.798   9.480  63.650  1.00  0.00    -0.132 C  
HETATM   35  O   UNL     1      -9.012   9.445  63.519  1.00  0.00    -0.220 OA 
HETATM   36  H   UNL     1      -6.102   9.301  64.806  1.00  0.00     0.000 HD 
ENDBRANCH  28  33
ENDBRANCH  26  28
ENDBRANCH  25  26
ENDBRANCH  12  25
ENDBRANCH  11  12
ENDBRANCH  10  11
ENDBRANCH   9  10
ENDBRANCH   8   9
ENDBRANCH   7   8
ENDBRANCH   6   7
ENDBRANCH   5   6
ENDBRANCH   4   5
ENDBRANCH   3   4
ENDBRANCH   2   3
TORSDOF 22
ENDMDL
MODEL       64
REMARK 921   NORMALIZED FREE ENERGY PREDICTED BY IDOCK:   -4.70 KCAL/MOL
REMARK 922        TOTAL FREE ENERGY PREDICTED BY IDOCK:  -14.36 KCAL/MOL
REMARK 923 INTER-LIGAND FREE ENERGY PREDICTED BY IDOCK:  -11.18 KCAL/MOL
REMARK 924 INTRA-LIGAND FREE ENERGY PREDICTED BY IDOCK:   -3.17 KCAL/MOL
REMARK 927      BINDING AFFINITY PREDICTED BY RF-SCORE:    0.00 PKD
ROOT
HETATM    1  C   UNL     1      -8.024  15.837  66.923  1.00  0.00    -0.285 C  
HETATM    2  C   UNL     1      -9.198  16.261  66.056  1.00  0.00    -0.351 C  
ENDROOT
BRANCH   2   3
HETATM    3  C   UNL     1     -10.517  15.792  66.662  1.00  0.00    -0.302 C  
BRANCH   3   4
HETATM    4  C   UNL     1     -10.844  16.538  67.952  1.00  0.00    -0.326 C  
BRANCH   4   5
HETATM    5  C   UNL     1     -11.627  15.641  68.913  1.00  0.00    -0.392 C  
BRANCH   5   6
HETATM    6  C   UNL     1     -10.954  15.606  70.279  1.00  0.00    -0.363 C  
BRANCH   6   7
HETATM    7  C   UNL     1     -11.897  16.031  71.406  1.00  0.00    -0.531 C  
BRANCH   7   8
HETATM    8  C   UNL     1     -13.180  15.216  71.297  1.00  0.00    -0.536 C  
BRANCH   8   9
HETATM    9  C   UNL     1     -13.553  14.472  72.576  1.00  0.00    -0.586 C  
BRANCH   9  10
HETATM   10  C   UNL     1     -13.631  12.977  72.255  1.00  0.00    -0.643 C  
BRANCH  10  11
HETATM   11  C   UNL     1     -12.591  12.502  71.252  1.00  0.00    -0.332 C  
BRANCH  11  12
HETATM   12  C   UNL     1     -12.728  11.050  70.760  1.00  0.00    -0.323 C  
BRANCH  12  13
HETATM   13  C   UNL     1     -12.040  10.742  69.412  1.00  0.00    -0.315 C  
BRANCH  13  14
HETATM   14  C   UNL     1     -11.453  11.970  68.705  1.00  0.00    -0.300 C  
HETATM   15  O   UNL     1     -12.259  12.397  67.570  1.00  0.00    -0.442 OA 
HETATM   16  O   UNL     1     -11.266  12.373  65.490  1.00  0.00    -0.302 OA 
HETATM   17  C   UNL     1     -10.259  11.705  67.747  1.00  0.00    -0.202 C  
HETATM   18  C   UNL     1     -11.259  12.194  66.684  1.00  0.00    -0.324 C  
BRANCH  17  19
HETATM   19  C   UNL     1      -8.998  12.559  67.839  1.00  0.00    -0.188 C  
BRANCH  19  20
HETATM   20  C   UNL     1      -7.828  11.732  68.364  1.00  0.00    -0.141 C  
BRANCH  20  21
HETATM   21  C   UNL     1      -8.262  10.305  68.712  1.00  0.00    -0.119 C  
BRANCH  21  22
HETATM   22  C   UNL     1      -7.741   9.890  70.089  1.00  0.00    -0.188 C  
BRANCH  22  23
HETATM   23  C   UNL     1      -7.364   8.409  70.131  1.00  0.00    -0.058 C  
HETATM   24  C   UNL     1      -6.169   8.121  69.232  1.00  0.00    -0.038 C  
ENDBRANCH  22  23
ENDBRANCH  21  22
ENDBRANCH  20  21
ENDBRANCH  19  20
ENDBRANCH  17  19
ENDBRANCH  13  14
ENDBRANCH  12  13
BRANCH  12  25
HETATM   25  O   UNL     1     -12.195  10.125  71.736  1.00  0.00    -0.374 OA 
BRANCH  25  26
HETATM   26  C   UNL     1     -12.938   9.022  72.026  1.00  0.00    -0.407 C  
HETATM   27  O   UNL     1     -14.162   8.949  71.994  1.00  0.00    -0.412 OA 
BRANCH  26  28
HETATM   28  C   UNL     1     -12.041   7.841  72.387  1.00  0.00    -0.250 C  
BRANCH  28  29
HETATM   29  C   UNL     1     -10.578   8.270  72.579  1.00  0.00    -0.407 C  
HETATM   30  C   UNL     1      -9.467   5.988  73.045  1.00  0.00    -0.143 C  
HETATM   31  C   UNL     1      -8.370   8.104  73.751  1.00  0.00    -0.311 C  
HETATM   32  C   UNL     1      -9.720   7.413  73.538  1.00  0.00    -0.338 C  
ENDBRANCH  28  29
BRANCH  28  33
HETATM   33  N   UNL     1     -12.208   6.798  71.376  1.00  0.00    -0.360 N  
HETATM   34  C   UNL     1     -11.525   6.801  70.193  1.00  0.00    -0.349 C  
HETATM   35  O   UNL     1     -10.751   7.670  69.824  1.00  0.00    -0.243 OA 
HETATM   36  H   UNL     1     -12.862   6.037  71.561  1.00  0.00     0.000 HD 
ENDBRANCH  28  33
ENDBRANCH  26  28
ENDBRANCH  25  26
ENDBRANCH  12  25
ENDBRANCH  11  12
ENDBRANCH  10  11
ENDBRANCH   9  10
ENDBRANCH   8   9
ENDBRANCH   7   8
ENDBRANCH   6   7
ENDBRANCH   5   6
ENDBRANCH   4   5
ENDBRANCH   3   4
ENDBRANCH   2   3
TORSDOF 22
ENDMDL
MODEL       65
REMARK 921   NORMALIZED FREE ENERGY PREDICTED BY IDOCK:   -4.68 KCAL/MOL
REMARK 922        TOTAL FREE ENERGY PREDICTED BY IDOCK:  -14.31 KCAL/MOL
REMARK 923 INTER-LIGAND FREE ENERGY PREDICTED BY IDOCK:  -11.21 KCAL/MOL
REMARK 924 INTRA-LIGAND FREE ENERGY PREDICTED BY IDOCK:   -3.09 KCAL/MOL
REMARK 927      BINDING AFFINITY PREDICTED BY RF-SCORE:    0.00 PKD
ROOT
HETATM    1  C   UNL     1     -11.689  14.864  64.695  1.00  0.00    -0.406 C  
HETATM    2  C   UNL     1     -12.796  13.960  65.215  1.00  0.00    -0.437 C  
ENDROOT
BRANCH   2   3
HETATM    3  C   UNL     1     -12.535  12.507  64.830  1.00  0.00    -0.532 C  
BRANCH   3   4
HETATM    4  C   UNL     1     -11.539  12.396  63.679  1.00  0.00    -0.580 C  
BRANCH   4   5
HETATM    5  C   UNL     1     -10.563  11.241  63.915  1.00  0.00    -0.455 C  
BRANCH   5   6
HETATM    6  C   UNL     1      -9.425  11.289  62.905  1.00  0.00    -0.385 C  
BRANCH   6   7
HETATM    7  C   UNL     1      -8.403  10.172  63.124  1.00  0.00    -0.171 C  
BRANCH   7   8
HETATM    8  C   UNL     1      -8.901   9.274  64.251  1.00  0.00    -0.185 C  
BRANCH   8   9
HETATM    9  C   UNL     1      -7.788   8.587  65.036  1.00  0.00    -0.112 C  
BRANCH   9  10
HETATM   10  C   UNL     1      -8.264   8.402  66.480  1.00  0.00    -0.105 C  
BRANCH  10  11
HETATM   11  C   UNL     1      -9.361   9.367  66.900  1.00  0.00    -0.188 C  
BRANCH  11  12
HETATM   12  C   UNL     1      -9.397   9.755  68.390  1.00  0.00    -0.133 C  
BRANCH  12  13
HETATM   13  C   UNL     1      -9.115  11.243  68.692  1.00  0.00    -0.153 C  
BRANCH  13  14
HETATM   14  C   UNL     1      -9.916  12.227  67.831  1.00  0.00    -0.202 C  
HETATM   15  O   UNL     1      -9.149  12.730  66.699  1.00  0.00    -0.226 OA 
HETATM   16  O   UNL     1      -8.771  15.001  66.594  1.00  0.00    -0.265 OA 
HETATM   17  C   UNL     1     -10.040  13.676  68.380  1.00  0.00    -0.241 C  
HETATM   18  C   UNL     1      -9.225  14.013  67.118  1.00  0.00    -0.235 C  
BRANCH  17  19
HETATM   19  C   UNL     1     -11.401  14.362  68.431  1.00  0.00    -0.312 C  
BRANCH  19  20
HETATM   20  C   UNL     1     -12.106  14.058  69.749  1.00  0.00    -0.405 C  
BRANCH  20  21
HETATM   21  C   UNL     1     -12.547  15.343  70.457  1.00  0.00    -0.471 C  
BRANCH  21  22
HETATM   22  C   UNL     1     -11.614  15.680  71.622  1.00  0.00    -0.519 C  
BRANCH  22  23
HETATM   23  C   UNL     1     -12.392  16.086  72.873  1.00  0.00    -0.609 C  
HETATM   24  C   UNL     1     -12.309  15.008  73.945  1.00  0.00    -0.658 C  
ENDBRANCH  22  23
ENDBRANCH  21  22
ENDBRANCH  20  21
ENDBRANCH  19  20
ENDBRANCH  17  19
ENDBRANCH  13  14
ENDBRANCH  12  13
BRANCH  12  25
HETATM   25  O   UNL     1     -10.683   9.436  68.972  1.00  0.00    -0.223 OA 
BRANCH  25  26
HETATM   26  C   UNL     1     -10.849   8.180  69.473  1.00  0.00    -0.121 C  
HETATM   27  O   UNL     1     -10.944   7.149  68.817  1.00  0.00    -0.156 OA 
BRANCH  26  28
HETATM   28  C   UNL     1     -10.884   8.204  70.998  1.00  0.00    -0.235 C  
BRANCH  28  29
HETATM   29  C   UNL     1     -11.365   9.559  71.541  1.00  0.00    -0.456 C  
HETATM   30  C   UNL     1     -13.767   8.960  72.268  1.00  0.00    -0.527 C  
HETATM   31  C   UNL     1     -13.125  11.320  71.822  1.00  0.00    -0.527 C  
HETATM   32  C   UNL     1     -12.875   9.864  71.416  1.00  0.00    -0.505 C  
ENDBRANCH  28  29
BRANCH  28  33
HETATM   33  N   UNL     1      -9.568   7.816  71.504  1.00  0.00    -0.154 N  
HETATM   34  C   UNL     1      -9.311   6.579  72.023  1.00  0.00    -0.147 C  
HETATM   35  O   UNL     1     -10.133   5.687  72.166  1.00  0.00    -0.178 OA 
HETATM   36  H   UNL     1      -8.809   8.498  71.469  1.00  0.00     0.000 HD 
ENDBRANCH  28  33
ENDBRANCH  26  28
ENDBRANCH  25  26
ENDBRANCH  12  25
ENDBRANCH  11  12
ENDBRANCH  10  11
ENDBRANCH   9  10
ENDBRANCH   8   9
ENDBRANCH   7   8
ENDBRANCH   6   7
ENDBRANCH   5   6
ENDBRANCH   4   5
ENDBRANCH   3   4
ENDBRANCH   2   3
TORSDOF 22
ENDMDL
MODEL       66
REMARK 921   NORMALIZED FREE ENERGY PREDICTED BY IDOCK:   -4.68 KCAL/MOL
REMARK 922        TOTAL FREE ENERGY PREDICTED BY IDOCK:  -14.31 KCAL/MOL
REMARK 923 INTER-LIGAND FREE ENERGY PREDICTED BY IDOCK:  -11.57 KCAL/MOL
REMARK 924 INTRA-LIGAND FREE ENERGY PREDICTED BY IDOCK:   -2.74 KCAL/MOL
REMARK 927      BINDING AFFINITY PREDICTED BY RF-SCORE:    0.00 PKD
ROOT
HETATM    1  C   UNL     1     -10.620   5.716  67.053  1.00  0.00    -0.358 C  
HETATM    2  C   UNL     1     -10.115   4.845  65.915  1.00  0.00    -0.234 C  
ENDROOT
BRANCH   2   3
HETATM    3  C   UNL     1      -8.717   5.276  65.480  1.00  0.00    -0.149 C  
BRANCH   3   4
HETATM    4  C   UNL     1      -7.870   5.730  66.665  1.00  0.00    -0.101 C  
BRANCH   4   5
HETATM    5  C   UNL     1      -7.349   7.152  66.447  1.00  0.00    -0.079 C  
BRANCH   5   6
HETATM    6  C   UNL     1      -8.098   7.827  65.306  1.00  0.00    -0.133 C  
BRANCH   6   7
HETATM    7  C   UNL     1      -7.188   8.711  64.452  1.00  0.00    -0.097 C  
BRANCH   7   8
HETATM    8  C   UNL     1      -7.915  10.020  64.164  1.00  0.00    -0.152 C  
BRANCH   8   9
HETATM    9  C   UNL     1      -9.147   9.863  63.279  1.00  0.00    -0.294 C  
BRANCH   9  10
HETATM   10  C   UNL     1     -10.208  10.861  63.754  1.00  0.00    -0.407 C  
BRANCH  10  11
HETATM   11  C   UNL     1     -10.617  10.687  65.208  1.00  0.00    -0.191 C  
BRANCH  11  12
HETATM   12  C   UNL     1     -11.204  11.927  65.907  1.00  0.00    -0.322 C  
BRANCH  12  13
HETATM   13  C   UNL     1     -12.404  12.583  65.188  1.00  0.00    -0.496 C  
BRANCH  13  14
HETATM   14  C   UNL     1     -12.581  14.077  65.488  1.00  0.00    -0.516 C  
HETATM   15  O   UNL     1     -12.857  14.857  64.289  1.00  0.00    -0.607 OA 
HETATM   16  O   UNL     1     -11.348  16.504  63.720  1.00  0.00    -0.966 OA 
HETATM   17  C   UNL     1     -11.276  14.892  65.708  1.00  0.00    -0.334 C  
HETATM   18  C   UNL     1     -11.741  15.606  64.426  1.00  0.00    -0.218 C  
BRANCH  17  19
HETATM   19  C   UNL     1     -11.146  15.819  66.912  1.00  0.00    -0.133 C  
BRANCH  19  20
HETATM   20  C   UNL     1      -9.677  16.041  67.261  1.00  0.00    -0.232 C  
BRANCH  20  21
HETATM   21  C   UNL     1      -9.048  17.120  66.376  1.00  0.00    -0.285 C  
BRANCH  21  22
HETATM   22  C   UNL     1      -8.726  18.379  67.183  1.00  0.00    -0.260 C  
BRANCH  22  23
HETATM   23  C   UNL     1      -9.941  19.299  67.310  1.00  0.00    -0.456 C  
HETATM   24  C   UNL     1     -10.223  19.638  68.767  1.00  0.00    -0.460 C  
ENDBRANCH  22  23
ENDBRANCH  21  22
ENDBRANCH  20  21
ENDBRANCH  19  20
ENDBRANCH  17  19
ENDBRANCH  13  14
ENDBRANCH  12  13
BRANCH  12  25
HETATM   25  O   UNL     1     -11.633  11.604  67.250  1.00  0.00    -0.484 OA 
BRANCH  25  26
HETATM   26  C   UNL     1     -10.965  12.193  68.280  1.00  0.00    -0.234 C  
HETATM   27  O   UNL     1      -9.842  12.682  68.224  1.00  0.00    -0.223 OA 
BRANCH  26  28
HETATM   28  C   UNL     1     -11.812  12.192  69.549  1.00  0.00    -0.321 C  
BRANCH  28  29
HETATM   29  C   UNL     1     -11.861  13.580  70.207  1.00  0.00    -0.327 C  
HETATM   30  C   UNL     1     -13.613  13.172  72.058  1.00  0.00    -0.554 C  
HETATM   31  C   UNL     1     -13.118  15.474  71.261  1.00  0.00    -0.581 C  
HETATM   32  C   UNL     1     -13.206  14.004  70.841  1.00  0.00    -0.245 C  
ENDBRANCH  28  29
BRANCH  28  33
HETATM   33  N   UNL     1     -11.316  11.148  70.445  1.00  0.00    -0.473 N  
HETATM   34  C   UNL     1     -12.106  10.135  70.908  1.00  0.00    -0.356 C  
HETATM   35  O   UNL     1     -13.299  10.006  70.678  1.00  0.00    -0.294 OA 
HETATM   36  H   UNL     1     -10.338  11.177  70.735  1.00  0.00     0.000 HD 
ENDBRANCH  28  33
ENDBRANCH  26  28
ENDBRANCH  25  26
ENDBRANCH  12  25
ENDBRANCH  11  12
ENDBRANCH  10  11
ENDBRANCH   9  10
ENDBRANCH   8   9
ENDBRANCH   7   8
ENDBRANCH   6   7
ENDBRANCH   5   6
ENDBRANCH   4   5
ENDBRANCH   3   4
ENDBRANCH   2   3
TORSDOF 22
ENDMDL
MODEL       67
REMARK 921   NORMALIZED FREE ENERGY PREDICTED BY IDOCK:   -4.67 KCAL/MOL
REMARK 922        TOTAL FREE ENERGY PREDICTED BY IDOCK:  -14.30 KCAL/MOL
REMARK 923 INTER-LIGAND FREE ENERGY PREDICTED BY IDOCK:   -9.13 KCAL/MOL
REMARK 924 INTRA-LIGAND FREE ENERGY PREDICTED BY IDOCK:   -5.17 KCAL/MOL
REMARK 927      BINDING AFFINITY PREDICTED BY RF-SCORE:    0.00 PKD
ROOT
HETATM    1  C   UNL     1     -12.436  12.058  63.453  1.00  0.00    -0.625 C  
HETATM    2  C   UNL     1     -11.611  12.160  64.726  1.00  0.00    -0.380 C  
ENDROOT
BRANCH   2   3
HETATM    3  C   UNL     1     -10.810  13.459  64.750  1.00  0.00    -0.387 C  
BRANCH   3   4
HETATM    4  C   UNL     1     -11.226  14.359  65.910  1.00  0.00    -0.324 C  
BRANCH   4   5
HETATM    5  C   UNL     1     -12.043  13.574  66.939  1.00  0.00    -0.417 C  
BRANCH   5   6
HETATM    6  C   UNL     1     -11.522  13.835  68.346  1.00  0.00    -0.351 C  
BRANCH   6   7
HETATM    7  C   UNL     1     -11.289  12.542  69.131  1.00  0.00    -0.331 C  
BRANCH   7   8
HETATM    8  C   UNL     1     -11.706  11.364  68.258  1.00  0.00    -0.359 C  
BRANCH   8   9
HETATM    9  C   UNL     1     -10.899  10.093  68.505  1.00  0.00    -0.278 C  
BRANCH   9  10
HETATM   10  C   UNL     1      -9.950  10.348  69.680  1.00  0.00    -0.209 C  
BRANCH  10  11
HETATM   11  C   UNL     1      -8.786   9.373  69.759  1.00  0.00    -0.189 C  
BRANCH  11  12
HETATM   12  C   UNL     1      -9.145   7.898  70.014  1.00  0.00    -0.152 C  
BRANCH  12  13
HETATM   13  C   UNL     1      -8.631   6.900  68.953  1.00  0.00    -0.131 C  
BRANCH  13  14
HETATM   14  C   UNL     1      -9.300   7.035  67.580  1.00  0.00    -0.122 C  
HETATM   15  O   UNL     1      -9.938   5.800  67.148  1.00  0.00    -0.132 OA 
HETATM   16  O   UNL     1      -9.170   4.828  65.205  1.00  0.00    -0.154 OA 
HETATM   17  C   UNL     1      -8.356   6.969  66.348  1.00  0.00    -0.125 C  
HETATM   18  C   UNL     1      -9.154   5.687  66.053  1.00  0.00    -0.156 C  
BRANCH  17  19
HETATM   19  C   UNL     1      -8.458   8.020  65.247  1.00  0.00    -0.133 C  
BRANCH  19  20
HETATM   20  C   UNL     1      -9.372   9.163  65.679  1.00  0.00    -0.300 C  
BRANCH  20  21
HETATM   21  C   UNL     1      -8.637  10.506  65.657  1.00  0.00    -0.182 C  
BRANCH  21  22
HETATM   22  C   UNL     1      -7.309  10.421  66.413  1.00  0.00    -0.120 C  
BRANCH  22  23
HETATM   23  C   UNL     1      -7.059  11.666  67.264  1.00  0.00    -0.134 C  
HETATM   24  C   UNL     1      -8.214  12.651  67.148  1.00  0.00    -0.159 C  
ENDBRANCH  22  23
ENDBRANCH  21  22
ENDBRANCH  20  21
ENDBRANCH  19  20
ENDBRANCH  17  19
ENDBRANCH  13  14
ENDBRANCH  12  13
BRANCH  12  25
HETATM   25  O   UNL     1      -8.638   7.461  71.297  1.00  0.00    -0.117 OA 
BRANCH  25  26
HETATM   26  C   UNL     1      -9.214   7.989  72.412  1.00  0.00    -0.202 C  
HETATM   27  O   UNL     1      -8.666   8.722  73.228  1.00  0.00    -0.313 OA 
BRANCH  26  28
HETATM   28  C   UNL     1     -10.675   7.565  72.522  1.00  0.00    -0.285 C  
BRANCH  28  29
HETATM   29  C   UNL     1     -11.627   8.772  72.486  1.00  0.00    -0.211 C  
HETATM   30  C   UNL     1     -13.748   7.682  71.500  1.00  0.00    -0.440 C  
HETATM   31  C   UNL     1     -13.407  10.141  71.375  1.00  0.00    -0.413 C  
HETATM   32  C   UNL     1     -12.696   8.785  71.370  1.00  0.00    -0.324 C  
ENDBRANCH  28  29
BRANCH  28  33
HETATM   33  N   UNL     1     -10.837   6.740  73.718  1.00  0.00    -0.510 N  
HETATM   34  C   UNL     1     -10.669   5.385  73.708  1.00  0.00    -0.280 C  
HETATM   35  O   UNL     1     -10.417   4.710  72.722  1.00  0.00    -0.188 OA 
HETATM   36  H   UNL     1     -11.086   7.196  74.596  1.00  0.00     0.000 HD 
ENDBRANCH  28  33
ENDBRANCH  26  28
ENDBRANCH  25  26
ENDBRANCH  12  25
ENDBRANCH  11  12
ENDBRANCH  10  11
ENDBRANCH   9  10
ENDBRANCH   8   9
ENDBRANCH   7   8
ENDBRANCH   6   7
ENDBRANCH   5   6
ENDBRANCH   4   5
ENDBRANCH   3   4
ENDBRANCH   2   3
TORSDOF 22
ENDMDL
MODEL       68
REMARK 921   NORMALIZED FREE ENERGY PREDICTED BY IDOCK:   -4.67 KCAL/MOL
REMARK 922        TOTAL FREE ENERGY PREDICTED BY IDOCK:  -14.29 KCAL/MOL
REMARK 923 INTER-LIGAND FREE ENERGY PREDICTED BY IDOCK:  -10.60 KCAL/MOL
REMARK 924 INTRA-LIGAND FREE ENERGY PREDICTED BY IDOCK:   -3.70 KCAL/MOL
REMARK 927      BINDING AFFINITY PREDICTED BY RF-SCORE:    0.00 PKD
ROOT
HETATM    1  C   UNL     1     -14.272   8.353  71.785  1.00  0.00    -0.536 C  
HETATM    2  C   UNL     1     -12.937   9.050  71.990  1.00  0.00    -0.470 C  
ENDROOT
BRANCH   2   3
HETATM    3  C   UNL     1     -13.085  10.561  71.837  1.00  0.00    -0.567 C  
BRANCH   3   4
HETATM    4  C   UNL     1     -12.106  11.124  70.812  1.00  0.00    -0.458 C  
BRANCH   4   5
HETATM    5  C   UNL     1     -11.300  10.001  70.156  1.00  0.00    -0.357 C  
BRANCH   5   6
HETATM    6  C   UNL     1     -10.323  10.569  69.136  1.00  0.00    -0.240 C  
BRANCH   6   7
HETATM    7  C   UNL     1      -8.865  10.282  69.501  1.00  0.00    -0.166 C  
BRANCH   7   8
HETATM    8  C   UNL     1      -7.965  11.064  68.551  1.00  0.00    -0.137 C  
BRANCH   8   9
HETATM    9  C   UNL     1      -8.128  12.577  68.645  1.00  0.00    -0.013 C  
BRANCH   9  10
HETATM   10  C   UNL     1      -8.344  13.125  67.231  1.00  0.00    -0.182 C  
BRANCH  10  11
HETATM   11  C   UNL     1      -9.697  13.790  67.024  1.00  0.00    -0.251 C  
BRANCH  11  12
HETATM   12  C   UNL     1      -9.751  14.918  65.977  1.00  0.00    -0.328 C  
BRANCH  12  13
HETATM   13  C   UNL     1     -10.729  14.684  64.805  1.00  0.00    -0.399 C  
BRANCH  13  14
HETATM   14  C   UNL     1     -10.741  13.248  64.268  1.00  0.00    -0.387 C  
HETATM   15  O   UNL     1     -11.550  13.110  63.065  1.00  0.00    -0.151 OA 
HETATM   16  O   UNL     1     -13.359  11.684  63.155  1.00  0.00    -0.410 OA 
HETATM   17  C   UNL     1     -11.679  12.249  65.002  1.00  0.00    -0.405 C  
HETATM   18  C   UNL     1     -12.399  12.231  63.642  1.00  0.00    -0.562 C  
BRANCH  17  19
HETATM   19  C   UNL     1     -11.155  10.884  65.435  1.00  0.00     0.080 C  
BRANCH  19  20
HETATM   20  C   UNL     1      -9.804  10.597  64.787  1.00  0.00    -0.372 C  
BRANCH  20  21
HETATM   21  C   UNL     1      -9.063   9.471  65.513  1.00  0.00    -0.262 C  
BRANCH  21  22
HETATM   22  C   UNL     1     -10.034   8.591  66.303  1.00  0.00    -0.251 C  
BRANCH  22  23
HETATM   23  C   UNL     1      -9.422   7.232  66.642  1.00  0.00    -0.228 C  
HETATM   24  C   UNL     1      -9.388   7.005  68.147  1.00  0.00    -0.125 C  
ENDBRANCH  22  23
ENDBRANCH  21  22
ENDBRANCH  20  21
ENDBRANCH  19  20
ENDBRANCH  17  19
ENDBRANCH  13  14
ENDBRANCH  12  13
BRANCH  12  25
HETATM   25  O   UNL     1     -10.114  16.174  66.595  1.00  0.00    -0.257 OA 
BRANCH  25  26
HETATM   26  C   UNL     1      -9.328  16.622  67.614  1.00  0.00    -0.224 C  
HETATM   27  O   UNL     1      -8.103  16.643  67.623  1.00  0.00    -0.167 OA 
BRANCH  26  28
HETATM   28  C   UNL     1     -10.180  17.130  68.774  1.00  0.00    -0.332 C  
BRANCH  28  29
HETATM   29  C   UNL     1     -11.377  16.208  69.055  1.00  0.00    -0.340 C  
HETATM   30  C   UNL     1     -11.587  16.460  71.615  1.00  0.00    -0.335 C  
HETATM   31  C   UNL     1     -12.555  14.490  70.447  1.00  0.00    -0.405 C  
HETATM   32  C   UNL     1     -11.410  15.506  70.432  1.00  0.00    -0.360 C  
ENDBRANCH  28  29
BRANCH  28  33
HETATM   33  N   UNL     1     -10.569  18.513  68.501  1.00  0.00    -0.344 N  
HETATM   34  C   UNL     1      -9.762  19.577  68.784  1.00  0.00    -0.438 C  
HETATM   35  O   UNL     1      -8.670  19.513  69.326  1.00  0.00    -0.219 OA 
HETATM   36  H   UNL     1     -11.482  18.689  68.080  1.00  0.00     0.000 HD 
ENDBRANCH  28  33
ENDBRANCH  26  28
ENDBRANCH  25  26
ENDBRANCH  12  25
ENDBRANCH  11  12
ENDBRANCH  10  11
ENDBRANCH   9  10
ENDBRANCH   8   9
ENDBRANCH   7   8
ENDBRANCH   6   7
ENDBRANCH   5   6
ENDBRANCH   4   5
ENDBRANCH   3   4
ENDBRANCH   2   3
TORSDOF 22
ENDMDL
MODEL       69
REMARK 921   NORMALIZED FREE ENERGY PREDICTED BY IDOCK:   -4.66 KCAL/MOL
REMARK 922        TOTAL FREE ENERGY PREDICTED BY IDOCK:  -14.28 KCAL/MOL
REMARK 923 INTER-LIGAND FREE ENERGY PREDICTED BY IDOCK:  -11.90 KCAL/MOL
REMARK 924 INTRA-LIGAND FREE ENERGY PREDICTED BY IDOCK:   -2.39 KCAL/MOL
REMARK 927      BINDING AFFINITY PREDICTED BY RF-SCORE:    0.00 PKD
ROOT
HETATM    1  C   UNL     1      -6.749   7.549  71.143  1.00  0.00    -0.046 C  
HETATM    2  C   UNL     1      -8.181   8.038  70.996  1.00  0.00    -0.106 C  
ENDROOT
BRANCH   2   3
HETATM    3  C   UNL     1      -8.857   8.153  72.359  1.00  0.00    -0.260 C  
BRANCH   3   4
HETATM    4  C   UNL     1     -10.345   8.465  72.228  1.00  0.00    -0.403 C  
BRANCH   4   5
HETATM    5  C   UNL     1     -11.183   7.443  72.999  1.00  0.00    -0.345 C  
BRANCH   5   6
HETATM    6  C   UNL     1     -12.017   6.603  72.041  1.00  0.00    -0.361 C  
BRANCH   6   7
HETATM    7  C   UNL     1     -11.153   5.775  71.089  1.00  0.00    -0.257 C  
BRANCH   7   8
HETATM    8  C   UNL     1     -11.402   6.258  69.664  1.00  0.00    -0.492 C  
BRANCH   8   9
HETATM    9  C   UNL     1     -10.348   5.801  68.661  1.00  0.00    -0.283 C  
BRANCH   9  10
HETATM   10  C   UNL     1     -10.480   6.663  67.401  1.00  0.00    -0.325 C  
BRANCH  10  11
HETATM   11  C   UNL     1      -9.757   7.998  67.484  1.00  0.00    -0.206 C  
BRANCH  11  12
HETATM   12  C   UNL     1     -10.641   9.258  67.463  1.00  0.00    -0.262 C  
BRANCH  12  13
HETATM   13  C   UNL     1     -10.572  10.135  68.732  1.00  0.00    -0.236 C  
BRANCH  13  14
HETATM   14  C   UNL     1     -11.885  10.845  69.083  1.00  0.00    -0.317 C  
HETATM   15  O   UNL     1     -12.138  11.999  68.233  1.00  0.00    -0.447 OA 
HETATM   16  O   UNL     1     -12.291  14.060  69.253  1.00  0.00    -0.324 OA 
HETATM   17  C   UNL     1     -11.850  11.777  70.326  1.00  0.00    -0.382 C  
HETATM   18  C   UNL     1     -12.127  12.864  69.271  1.00  0.00    -0.182 C  
BRANCH  17  19
HETATM   19  C   UNL     1     -12.933  11.672  71.394  1.00  0.00    -0.426 C  
BRANCH  19  20
HETATM   20  C   UNL     1     -12.975  12.939  72.243  1.00  0.00    -0.313 C  
BRANCH  20  21
HETATM   21  C   UNL     1     -14.348  13.613  72.176  1.00  0.00    -0.388 C  
BRANCH  21  22
HETATM   22  C   UNL     1     -14.212  15.130  72.035  1.00  0.00    -0.673 C  
BRANCH  22  23
HETATM   23  C   UNL     1     -13.231  15.710  73.055  1.00  0.00    -0.664 C  
HETATM   24  C   UNL     1     -11.933  16.140  72.385  1.00  0.00    -0.649 C  
ENDBRANCH  22  23
ENDBRANCH  21  22
ENDBRANCH  20  21
ENDBRANCH  19  20
ENDBRANCH  17  19
ENDBRANCH  13  14
ENDBRANCH  12  13
BRANCH  12  25
HETATM   25  O   UNL     1     -10.303  10.103  66.338  1.00  0.00    -0.229 OA 
BRANCH  25  26
HETATM   26  C   UNL     1      -9.284  10.991  66.505  1.00  0.00    -0.171 C  
HETATM   27  O   UNL     1      -8.126  10.712  66.798  1.00  0.00    -0.123 OA 
BRANCH  26  28
HETATM   28  C   UNL     1      -9.760  12.419  66.258  1.00  0.00    -0.246 C  
BRANCH  28  29
HETATM   29  C   UNL     1     -10.414  12.574  64.875  1.00  0.00    -0.328 C  
HETATM   30  C   UNL     1     -12.698  13.579  65.534  1.00  0.00    -0.493 C  
HETATM   31  C   UNL     1     -12.395  12.436  63.348  1.00  0.00    -0.603 C  
HETATM   32  C   UNL     1     -11.954  12.453  64.814  1.00  0.00    -0.462 C  
ENDBRANCH  28  29
BRANCH  28  33
HETATM   33  N   UNL     1      -8.638  13.332  66.469  1.00  0.00    -0.425 N  
HETATM   34  C   UNL     1      -8.806  14.626  66.872  1.00  0.00    -0.242 C  
HETATM   35  O   UNL     1      -9.880  15.178  67.053  1.00  0.00    -0.226 OA 
HETATM   36  H   UNL     1      -7.691  12.988  66.310  1.00  0.00     0.000 HD 
ENDBRANCH  28  33
ENDBRANCH  26  28
ENDBRANCH  25  26
ENDBRANCH  12  25
ENDBRANCH  11  12
ENDBRANCH  10  11
ENDBRANCH   9  10
ENDBRANCH   8   9
ENDBRANCH   7   8
ENDBRANCH   6   7
ENDBRANCH   5   6
ENDBRANCH   4   5
ENDBRANCH   3   4
ENDBRANCH   2   3
TORSDOF 22
ENDMDL
MODEL       70
REMARK 921   NORMALIZED FREE ENERGY PREDICTED BY IDOCK:   -4.66 KCAL/MOL
REMARK 922        TOTAL FREE ENERGY PREDICTED BY IDOCK:  -14.27 KCAL/MOL
REMARK 923 INTER-LIGAND FREE ENERGY PREDICTED BY IDOCK:  -11.56 KCAL/MOL
REMARK 924 INTRA-LIGAND FREE ENERGY PREDICTED BY IDOCK:   -2.71 KCAL/MOL
REMARK 927      BINDING AFFINITY PREDICTED BY RF-SCORE:    0.00 PKD
ROOT
HETATM    1  C   UNL     1      -7.941  15.172  67.225  1.00  0.00    -0.234 C  
HETATM    2  C   UNL     1      -8.853  16.189  66.559  1.00  0.00    -0.331 C  
ENDROOT
BRANCH   2   3
HETATM    3  C   UNL     1     -10.304  15.976  66.981  1.00  0.00    -0.292 C  
BRANCH   3   4
HETATM    4  C   UNL     1     -10.630  16.712  68.276  1.00  0.00    -0.338 C  
BRANCH   4   5
HETATM    5  C   UNL     1     -11.664  15.937  69.096  1.00  0.00    -0.369 C  
BRANCH   5   6
HETATM    6  C   UNL     1     -11.141  15.670  70.501  1.00  0.00    -0.375 C  
BRANCH   6   7
HETATM    7  C   UNL     1     -12.244  15.746  71.558  1.00  0.00    -0.513 C  
BRANCH   7   8
HETATM    8  C   UNL     1     -13.296  14.690  71.237  1.00  0.00    -0.447 C  
BRANCH   8   9
HETATM    9  C   UNL     1     -13.670  13.807  72.423  1.00  0.00    -0.692 C  
BRANCH   9  10
HETATM   10  C   UNL     1     -13.370  12.352  72.050  1.00  0.00    -0.511 C  
BRANCH  10  11
HETATM   11  C   UNL     1     -12.577  12.193  70.762  1.00  0.00    -0.305 C  
BRANCH  11  12
HETATM   12  C   UNL     1     -12.154  10.759  70.392  1.00  0.00    -0.354 C  
BRANCH  12  13
HETATM   13  C   UNL     1     -10.804  10.640  69.650  1.00  0.00    -0.318 C  
BRANCH  13  14
HETATM   14  C   UNL     1     -10.917  10.122  68.211  1.00  0.00    -0.248 C  
HETATM   15  O   UNL     1     -10.759   8.677  68.125  1.00  0.00    -0.167 OA 
HETATM   16  O   UNL     1      -9.000   7.870  66.873  1.00  0.00    -0.127 OA 
HETATM   17  C   UNL     1      -9.659  10.304  67.316  1.00  0.00    -0.186 C  
HETATM   18  C   UNL     1      -9.664   8.765  67.339  1.00  0.00    -0.174 C  
BRANCH  17  19
HETATM   19  C   UNL     1      -9.794  10.896  65.917  1.00  0.00    -0.285 C  
BRANCH  19  20
HETATM   20  C   UNL     1     -10.132  12.382  65.993  1.00  0.00    -0.269 C  
BRANCH  20  21
HETATM   21  C   UNL     1     -11.623  12.630  65.749  1.00  0.00    -0.431 C  
BRANCH  21  22
HETATM   22  C   UNL     1     -11.838  13.775  64.757  1.00  0.00    -0.413 C  
BRANCH  22  23
HETATM   23  C   UNL     1     -12.068  13.260  63.336  1.00  0.00    -0.508 C  
HETATM   24  C   UNL     1     -12.778  11.913  63.349  1.00  0.00    -0.496 C  
ENDBRANCH  22  23
ENDBRANCH  21  22
ENDBRANCH  20  21
ENDBRANCH  19  20
ENDBRANCH  17  19
ENDBRANCH  13  14
ENDBRANCH  12  13
BRANCH  12  25
HETATM   25  O   UNL     1     -12.069   9.929  71.573  1.00  0.00    -0.377 OA 
BRANCH  25  26
HETATM   26  C   UNL     1     -12.781   8.768  71.576  1.00  0.00    -0.328 C  
HETATM   27  O   UNL     1     -13.988   8.663  71.387  1.00  0.00    -0.352 OA 
BRANCH  26  28
HETATM   28  C   UNL     1     -11.870   7.571  71.830  1.00  0.00    -0.294 C  
BRANCH  28  29
HETATM   29  C   UNL     1     -10.960   7.791  73.049  1.00  0.00    -0.442 C  
HETATM   30  C   UNL     1      -8.844   8.727  71.906  1.00  0.00    -0.224 C  
HETATM   31  C   UNL     1      -8.721   7.706  74.170  1.00  0.00    -0.290 C  
HETATM   32  C   UNL     1      -9.438   7.651  72.818  1.00  0.00    -0.243 C  
ENDBRANCH  28  29
BRANCH  28  33
HETATM   33  N   UNL     1     -11.129   7.276  70.604  1.00  0.00    -0.257 N  
HETATM   34  C   UNL     1     -10.704   6.019  70.282  1.00  0.00    -0.300 C  
HETATM   35  O   UNL     1     -10.844   5.025  70.978  1.00  0.00    -0.070 OA 
HETATM   36  H   UNL     1     -10.921   8.042  69.963  1.00  0.00     0.000 HD 
ENDBRANCH  28  33
ENDBRANCH  26  28
ENDBRANCH  25  26
ENDBRANCH  12  25
ENDBRANCH  11  12
ENDBRANCH  10  11
ENDBRANCH   9  10
ENDBRANCH   8   9
ENDBRANCH   7   8
ENDBRANCH   6   7
ENDBRANCH   5   6
ENDBRANCH   4   5
ENDBRANCH   3   4
ENDBRANCH   2   3
TORSDOF 22
ENDMDL
MODEL       71
REMARK 921   NORMALIZED FREE ENERGY PREDICTED BY IDOCK:   -4.65 KCAL/MOL
REMARK 922        TOTAL FREE ENERGY PREDICTED BY IDOCK:  -14.25 KCAL/MOL
REMARK 923 INTER-LIGAND FREE ENERGY PREDICTED BY IDOCK:  -10.86 KCAL/MOL
REMARK 924 INTRA-LIGAND FREE ENERGY PREDICTED BY IDOCK:   -3.39 KCAL/MOL
REMARK 927      BINDING AFFINITY PREDICTED BY RF-SCORE:    0.00 PKD
ROOT
HETATM    1  C   UNL     1      -9.366  20.218  67.103  1.00  0.00    -0.536 C  
HETATM    2  C   UNL     1     -10.621  19.526  67.609  1.00  0.00    -0.566 C  
ENDROOT
BRANCH   2   3
HETATM    3  C   UNL     1     -10.458  18.009  67.568  1.00  0.00    -0.408 C  
BRANCH   3   4
HETATM    4  C   UNL     1      -9.097  17.600  67.013  1.00  0.00    -0.256 C  
BRANCH   4   5
HETATM    5  C   UNL     1      -9.233  16.402  66.071  1.00  0.00    -0.328 C  
BRANCH   5   6
HETATM    6  C   UNL     1     -10.552  16.465  65.313  1.00  0.00    -0.320 C  
BRANCH   6   7
HETATM    7  C   UNL     1     -11.051  15.080  64.895  1.00  0.00    -0.425 C  
BRANCH   7   8
HETATM    8  C   UNL     1     -10.992  14.158  66.107  1.00  0.00    -0.309 C  
BRANCH   8   9
HETATM    9  C   UNL     1     -12.210  14.255  67.021  1.00  0.00    -0.338 C  
BRANCH   9  10
HETATM   10  C   UNL     1     -11.717  14.482  68.453  1.00  0.00    -0.367 C  
BRANCH  10  11
HETATM   11  C   UNL     1     -10.997  13.287  69.058  1.00  0.00    -0.249 C  
BRANCH  11  12
HETATM   12  C   UNL     1     -11.822  11.995  69.207  1.00  0.00    -0.318 C  
BRANCH  12  13
HETATM   13  C   UNL     1     -11.839  11.076  67.966  1.00  0.00    -0.152 C  
BRANCH  13  14
HETATM   14  C   UNL     1     -10.512  10.357  67.693  1.00  0.00    -0.233 C  
HETATM   15  O   UNL     1      -9.744  10.990  66.631  1.00  0.00    -0.188 OA 
HETATM   16  O   UNL     1      -9.287   9.734  64.753  1.00  0.00    -0.252 OA 
HETATM   17  C   UNL     1     -10.598   9.057  66.845  1.00  0.00    -0.243 C  
HETATM   18  C   UNL     1      -9.776   9.890  65.846  1.00  0.00    -0.262 C  
BRANCH  17  19
HETATM   19  C   UNL     1      -9.892   7.789  67.312  1.00  0.00    -0.249 C  
BRANCH  19  20
HETATM   20  C   UNL     1     -10.822   6.585  67.203  1.00  0.00    -0.472 C  
BRANCH  20  21
HETATM   21  C   UNL     1     -10.432   5.485  68.194  1.00  0.00    -0.231 C  
BRANCH  21  22
HETATM   22  C   UNL     1      -8.936   5.530  68.510  1.00  0.00    -0.114 C  
BRANCH  22  23
HETATM   23  C   UNL     1      -8.659   5.266  69.989  1.00  0.00    -0.117 C  
HETATM   24  C   UNL     1      -9.953   5.029  70.756  1.00  0.00    -0.291 C  
ENDBRANCH  22  23
ENDBRANCH  21  22
ENDBRANCH  20  21
ENDBRANCH  19  20
ENDBRANCH  17  19
ENDBRANCH  13  14
ENDBRANCH  12  13
BRANCH  12  25
HETATM   25  O   UNL     1     -11.341  11.206  70.320  1.00  0.00    -0.268 OA 
BRANCH  25  26
HETATM   26  C   UNL     1     -12.257  10.805  71.246  1.00  0.00    -0.321 C  
HETATM   27  O   UNL     1     -13.119  11.510  71.758  1.00  0.00    -0.472 OA 
BRANCH  26  28
HETATM   28  C   UNL     1     -12.092   9.323  71.567  1.00  0.00    -0.361 C  
BRANCH  28  29
HETATM   29  C   UNL     1     -10.717   8.790  71.134  1.00  0.00    -0.316 C  
HETATM   30  C   UNL     1      -9.920   7.682  73.324  1.00  0.00    -0.379 C  
HETATM   31  C   UNL     1      -8.289   8.348  71.569  1.00  0.00    -0.196 C  
HETATM   32  C   UNL     1      -9.626   8.706  72.226  1.00  0.00    -0.348 C  
ENDBRANCH  28  29
BRANCH  28  33
HETATM   33  N   UNL     1     -13.207   8.587  70.973  1.00  0.00    -0.507 N  
HETATM   34  C   UNL     1     -13.514   7.302  71.321  1.00  0.00    -0.253 C  
HETATM   35  O   UNL     1     -12.887   6.615  72.112  1.00  0.00    -0.215 OA 
HETATM   36  H   UNL     1     -13.781   9.052  70.268  1.00  0.00     0.000 HD 
ENDBRANCH  28  33
ENDBRANCH  26  28
ENDBRANCH  25  26
ENDBRANCH  12  25
ENDBRANCH  11  12
ENDBRANCH  10  11
ENDBRANCH   9  10
ENDBRANCH   8   9
ENDBRANCH   7   8
ENDBRANCH   6   7
ENDBRANCH   5   6
ENDBRANCH   4   5
ENDBRANCH   3   4
ENDBRANCH   2   3
TORSDOF 22
ENDMDL
MODEL       72
REMARK 921   NORMALIZED FREE ENERGY PREDICTED BY IDOCK:   -4.65 KCAL/MOL
REMARK 922        TOTAL FREE ENERGY PREDICTED BY IDOCK:  -14.24 KCAL/MOL
REMARK 923 INTER-LIGAND FREE ENERGY PREDICTED BY IDOCK:  -10.62 KCAL/MOL
REMARK 924 INTRA-LIGAND FREE ENERGY PREDICTED BY IDOCK:   -3.62 KCAL/MOL
REMARK 927      BINDING AFFINITY PREDICTED BY RF-SCORE:    0.00 PKD
ROOT
HETATM    1  C   UNL     1      -9.648   9.805  64.936  1.00  0.00    -0.316 C  
HETATM    2  C   UNL     1      -8.828  10.327  63.768  1.00  0.00    -0.234 C  
ENDROOT
BRANCH   2   3
HETATM    3  C   UNL     1      -9.622  11.352  62.963  1.00  0.00    -0.397 C  
BRANCH   3   4
HETATM    4  C   UNL     1     -10.333  12.354  63.867  1.00  0.00    -0.450 C  
BRANCH   4   5
HETATM    5  C   UNL     1     -11.813  12.464  63.497  1.00  0.00    -0.605 C  
BRANCH   5   6
HETATM    6  C   UNL     1     -12.643  12.838  64.718  1.00  0.00    -0.518 C  
BRANCH   6   7
HETATM    7  C   UNL     1     -11.863  12.680  66.024  1.00  0.00    -0.492 C  
BRANCH   7   8
HETATM    8  C   UNL     1     -12.012  13.962  66.835  1.00  0.00    -0.467 C  
BRANCH   8   9
HETATM    9  C   UNL     1     -11.050  15.071  66.425  1.00  0.00    -0.329 C  
BRANCH   9  10
HETATM   10  C   UNL     1     -10.654  15.852  67.683  1.00  0.00    -0.307 C  
BRANCH  10  11
HETATM   11  C   UNL     1      -9.665  15.124  68.579  1.00  0.00    -0.214 C  
BRANCH  11  12
HETATM   12  C   UNL     1      -8.182  15.500  68.408  1.00  0.00    -0.145 C  
BRANCH  12  13
HETATM   13  C   UNL     1      -7.399  14.649  67.383  1.00  0.00    -0.195 C  
BRANCH  13  14
HETATM   14  C   UNL     1      -6.997  13.259  67.889  1.00  0.00    -0.137 C  
HETATM   15  O   UNL     1      -5.745  12.795  67.309  1.00  0.00    -0.291 OA 
HETATM   16  O   UNL     1      -5.804  10.866  66.050  1.00  0.00    -0.126 OA 
HETATM   17  C   UNL     1      -7.734  12.054  67.242  1.00  0.00    -0.168 C  
HETATM   18  C   UNL     1      -6.322  11.723  66.724  1.00  0.00    -0.083 C  
BRANCH  17  19
HETATM   19  C   UNL     1      -8.335  10.961  68.120  1.00  0.00    -0.123 C  
BRANCH  19  20
HETATM   20  C   UNL     1      -9.602  11.462  68.807  1.00  0.00    -0.139 C  
BRANCH  20  21
HETATM   21  C   UNL     1     -10.681  10.376  68.849  1.00  0.00    -0.255 C  
BRANCH  21  22
HETATM   22  C   UNL     1     -10.811   9.781  70.253  1.00  0.00    -0.356 C  
BRANCH  22  23
HETATM   23  C   UNL     1     -12.160  10.115  70.889  1.00  0.00    -0.453 C  
HETATM   24  C   UNL     1     -12.614  11.518  70.510  1.00  0.00    -0.286 C  
ENDBRANCH  22  23
ENDBRANCH  21  22
ENDBRANCH  20  21
ENDBRANCH  19  20
ENDBRANCH  17  19
ENDBRANCH  13  14
ENDBRANCH  12  13
BRANCH  12  25
HETATM   25  O   UNL     1      -8.046  16.884  68.010  1.00  0.00    -0.185 OA 
BRANCH  25  26
HETATM   26  C   UNL     1      -7.311  17.699  68.817  1.00  0.00    -0.261 C  
HETATM   27  O   UNL     1      -6.477  17.336  69.640  1.00  0.00    -0.243 OA 
BRANCH  26  28
HETATM   28  C   UNL     1      -7.640  19.165  68.554  1.00  0.00    -0.334 C  
BRANCH  28  29
HETATM   29  C   UNL     1      -8.447  19.349  67.259  1.00  0.00    -0.325 C  
HETATM   30  C   UNL     1     -10.530  20.576  68.163  1.00  0.00    -0.054 C  
HETATM   31  C   UNL     1     -10.611  19.361  65.995  1.00  0.00    -0.573 C  
HETATM   32  C   UNL     1      -9.987  19.370  67.394  1.00  0.00    -0.476 C  
ENDBRANCH  28  29
BRANCH  28  33
HETATM   33  N   UNL     1      -6.398  19.936  68.572  1.00  0.00    -0.265 N  
HETATM   34  C   UNL     1      -5.932  20.560  69.694  1.00  0.00    -0.322 C  
HETATM   35  O   UNL     1      -6.500  20.590  70.775  1.00  0.00    -0.491 OA 
HETATM   36  H   UNL     1      -5.856  20.011  67.711  1.00  0.00     0.000 HD 
ENDBRANCH  28  33
ENDBRANCH  26  28
ENDBRANCH  25  26
ENDBRANCH  12  25
ENDBRANCH  11  12
ENDBRANCH  10  11
ENDBRANCH   9  10
ENDBRANCH   8   9
ENDBRANCH   7   8
ENDBRANCH   6   7
ENDBRANCH   5   6
ENDBRANCH   4   5
ENDBRANCH   3   4
ENDBRANCH   2   3
TORSDOF 22
ENDMDL
MODEL       73
REMARK 921   NORMALIZED FREE ENERGY PREDICTED BY IDOCK:   -4.64 KCAL/MOL
REMARK 922        TOTAL FREE ENERGY PREDICTED BY IDOCK:  -14.23 KCAL/MOL
REMARK 923 INTER-LIGAND FREE ENERGY PREDICTED BY IDOCK:  -11.15 KCAL/MOL
REMARK 924 INTRA-LIGAND FREE ENERGY PREDICTED BY IDOCK:   -3.08 KCAL/MOL
REMARK 927      BINDING AFFINITY PREDICTED BY RF-SCORE:    0.00 PKD
ROOT
HETATM    1  C   UNL     1     -11.023   6.509  69.195  1.00  0.00    -0.380 C  
HETATM    2  C   UNL     1     -10.537   5.476  70.199  1.00  0.00    -0.367 C  
ENDROOT
BRANCH   2   3
HETATM    3  C   UNL     1      -9.628   6.120  71.242  1.00  0.00    -0.189 C  
BRANCH   3   4
HETATM    4  C   UNL     1     -10.358   6.353  72.561  1.00  0.00    -0.212 C  
BRANCH   4   5
HETATM    5  C   UNL     1     -10.567   7.849  72.809  1.00  0.00    -0.418 C  
BRANCH   5   6
HETATM    6  C   UNL     1      -9.646   8.672  71.919  1.00  0.00    -0.377 C  
BRANCH   6   7
HETATM    7  C   UNL     1     -10.418   9.605  70.985  1.00  0.00    -0.327 C  
BRANCH   7   8
HETATM    8  C   UNL     1     -11.899   9.525  71.335  1.00  0.00    -0.464 C  
BRANCH   8   9
HETATM    9  C   UNL     1     -12.789  10.423  70.482  1.00  0.00    -0.326 C  
BRANCH   9  10
HETATM   10  C   UNL     1     -11.887  11.334  69.644  1.00  0.00    -0.430 C  
BRANCH  10  11
HETATM   11  C   UNL     1     -12.183  12.818  69.805  1.00  0.00    -0.213 C  
BRANCH  11  12
HETATM   12  C   UNL     1     -11.905  13.707  68.579  1.00  0.00    -0.371 C  
BRANCH  12  13
HETATM   13  C   UNL     1     -11.313  15.099  68.893  1.00  0.00    -0.314 C  
BRANCH  13  14
HETATM   14  C   UNL     1     -10.269  15.586  67.881  1.00  0.00    -0.238 C  
HETATM   15  O   UNL     1      -8.905  15.402  68.356  1.00  0.00    -0.168 OA 
HETATM   16  O   UNL     1      -7.602  17.286  68.609  1.00  0.00    -0.240 OA 
HETATM   17  C   UNL     1     -10.034  17.121  67.824  1.00  0.00    -0.290 C  
HETATM   18  C   UNL     1      -8.632  16.725  68.323  1.00  0.00    -0.226 C  
BRANCH  17  19
HETATM   19  C   UNL     1     -10.023  17.845  66.482  1.00  0.00    -0.357 C  
BRANCH  19  20
HETATM   20  C   UNL     1     -10.656  19.227  66.613  1.00  0.00    -0.530 C  
BRANCH  20  21
HETATM   21  C   UNL     1      -9.638  20.337  66.335  1.00  0.00    -0.461 C  
BRANCH  21  22
HETATM   22  C   UNL     1      -8.530  20.346  67.390  1.00  0.00    -0.394 C  
BRANCH  22  23
HETATM   23  C   UNL     1      -7.145  20.476  66.757  1.00  0.00    -0.331 C  
HETATM   24  C   UNL     1      -6.907  19.380  65.726  1.00  0.00    -0.301 C  
ENDBRANCH  22  23
ENDBRANCH  21  22
ENDBRANCH  20  21
ENDBRANCH  19  20
ENDBRANCH  17  19
ENDBRANCH  13  14
ENDBRANCH  12  13
BRANCH  12  25
HETATM   25  O   UNL     1     -10.997  13.050  67.664  1.00  0.00    -0.243 OA 
BRANCH  25  26
HETATM   26  C   UNL     1     -11.486  12.689  66.446  1.00  0.00    -0.356 C  
HETATM   27  O   UNL     1     -12.559  13.040  65.967  1.00  0.00    -0.453 OA 
BRANCH  26  28
HETATM   28  C   UNL     1     -10.502  11.784  65.711  1.00  0.00    -0.260 C  
BRANCH  28  29
HETATM   29  C   UNL     1      -9.403  11.253  66.645  1.00  0.00    -0.196 C  
HETATM   30  C   UNL     1      -9.044   8.891  65.669  1.00  0.00    -0.269 C  
HETATM   31  C   UNL     1      -8.359   9.422  68.000  1.00  0.00    -0.119 C  
HETATM   32  C   UNL     1      -9.383   9.729  66.903  1.00  0.00    -0.184 C  
ENDBRANCH  28  29
BRANCH  28  33
HETATM   33  N   UNL     1      -9.974  12.505  64.553  1.00  0.00    -0.520 N  
HETATM   34  C   UNL     1      -9.872  11.940  63.314  1.00  0.00    -0.325 C  
HETATM   35  O   UNL     1     -10.155  10.784  63.038  1.00  0.00    -0.304 OA 
HETATM   36  H   UNL     1      -9.669  13.472  64.677  1.00  0.00     0.000 HD 
ENDBRANCH  28  33
ENDBRANCH  26  28
ENDBRANCH  25  26
ENDBRANCH  12  25
ENDBRANCH  11  12
ENDBRANCH  10  11
ENDBRANCH   9  10
ENDBRANCH   8   9
ENDBRANCH   7   8
ENDBRANCH   6   7
ENDBRANCH   5   6
ENDBRANCH   4   5
ENDBRANCH   3   4
ENDBRANCH   2   3
TORSDOF 22
ENDMDL
MODEL       74
REMARK 921   NORMALIZED FREE ENERGY PREDICTED BY IDOCK:   -4.62 KCAL/MOL
REMARK 922        TOTAL FREE ENERGY PREDICTED BY IDOCK:  -14.18 KCAL/MOL
REMARK 923 INTER-LIGAND FREE ENERGY PREDICTED BY IDOCK:  -10.13 KCAL/MOL
REMARK 924 INTRA-LIGAND FREE ENERGY PREDICTED BY IDOCK:   -4.05 KCAL/MOL
REMARK 927      BINDING AFFINITY PREDICTED BY RF-SCORE:    0.00 PKD
ROOT
HETATM    1  C   UNL     1     -11.148   6.349  67.289  1.00  0.00    -0.416 C  
HETATM    2  C   UNL     1      -9.838   7.072  67.021  1.00  0.00    -0.239 C  
ENDROOT
BRANCH   2   3
HETATM    3  C   UNL     1      -8.658   6.283  67.581  1.00  0.00    -0.114 C  
BRANCH   3   4
HETATM    4  C   UNL     1      -7.508   7.198  67.990  1.00  0.00    -0.099 C  
BRANCH   4   5
HETATM    5  C   UNL     1      -7.328   8.330  66.976  1.00  0.00    -0.084 C  
BRANCH   5   6
HETATM    6  C   UNL     1      -7.218   9.672  67.688  1.00  0.00    -0.089 C  
BRANCH   6   7
HETATM    7  C   UNL     1      -8.056  10.760  67.013  1.00  0.00    -0.124 C  
BRANCH   7   8
HETATM    8  C   UNL     1      -8.286  10.363  65.560  1.00  0.00    -0.168 C  
BRANCH   8   9
HETATM    9  C   UNL     1      -9.754  10.340  65.147  1.00  0.00    -0.364 C  
BRANCH   9  10
HETATM   10  C   UNL     1     -10.279  11.779  65.161  1.00  0.00    -0.309 C  
BRANCH  10  11
HETATM   11  C   UNL     1     -11.530  11.974  66.004  1.00  0.00    -0.399 C  
BRANCH  11  12
HETATM   12  C   UNL     1     -11.520  13.168  66.976  1.00  0.00    -0.336 C  
BRANCH  12  13
HETATM   13  C   UNL     1     -11.449  12.800  68.474  1.00  0.00    -0.344 C  
BRANCH  13  14
HETATM   14  C   UNL     1     -11.692  11.315  68.773  1.00  0.00    -0.338 C  
HETATM   15  O   UNL     1     -12.883  11.098  69.582  1.00  0.00    -0.111 OA 
HETATM   16  O   UNL     1     -12.605  10.105  71.643  1.00  0.00    -0.381 OA 
HETATM   17  C   UNL     1     -10.823  10.691  69.900  1.00  0.00    -0.301 C  
HETATM   18  C   UNL     1     -12.187  10.539  70.597  1.00  0.00    -0.352 C  
BRANCH  17  19
HETATM   19  C   UNL     1     -10.104   9.366  69.668  1.00  0.00    -0.218 C  
BRANCH  19  20
HETATM   20  C   UNL     1      -9.178   9.046  70.837  1.00  0.00    -0.320 C  
BRANCH  20  21
HETATM   21  C   UNL     1      -9.207   7.554  71.182  1.00  0.00    -0.151 C  
BRANCH  21  22
HETATM   22  C   UNL     1     -10.545   6.924  70.792  1.00  0.00    -0.245 C  
BRANCH  22  23
HETATM   23  C   UNL     1     -11.460   6.737  72.003  1.00  0.00    -0.317 C  
HETATM   24  C   UNL     1     -10.849   5.770  73.008  1.00  0.00    -0.306 C  
ENDBRANCH  22  23
ENDBRANCH  21  22
ENDBRANCH  20  21
ENDBRANCH  19  20
ENDBRANCH  17  19
ENDBRANCH  13  14
ENDBRANCH  12  13
BRANCH  12  25
HETATM   25  O   UNL     1     -10.405  14.047  66.696  1.00  0.00    -0.271 OA 
BRANCH  25  26
HETATM   26  C   UNL     1     -10.682  15.240  66.100  1.00  0.00    -0.320 C  
HETATM   27  O   UNL     1     -11.033  15.400  64.936  1.00  0.00    -0.417 OA 
BRANCH  26  28
HETATM   28  C   UNL     1     -10.520  16.393  67.087  1.00  0.00    -0.297 C  
BRANCH  28  29
HETATM   29  C   UNL     1     -10.024  17.674  66.397  1.00  0.00    -0.337 C  
HETATM   30  C   UNL     1      -9.804  19.255  68.424  1.00  0.00    -0.492 C  
HETATM   31  C   UNL     1     -10.016  20.164  66.120  1.00  0.00    -0.532 C  
HETATM   32  C   UNL     1     -10.427  19.017  67.048  1.00  0.00    -0.514 C  
ENDBRANCH  28  29
BRANCH  28  33
HETATM   33  N   UNL     1      -9.654  15.956  68.181  1.00  0.00    -0.207 N  
HETATM   34  C   UNL     1     -10.075  15.902  69.479  1.00  0.00    -0.277 C  
HETATM   35  O   UNL     1     -11.176  16.246  69.881  1.00  0.00    -0.340 OA 
HETATM   36  H   UNL     1      -8.696  15.680  67.966  1.00  0.00     0.000 HD 
ENDBRANCH  28  33
ENDBRANCH  26  28
ENDBRANCH  25  26
ENDBRANCH  12  25
ENDBRANCH  11  12
ENDBRANCH  10  11
ENDBRANCH   9  10
ENDBRANCH   8   9
ENDBRANCH   7   8
ENDBRANCH   6   7
ENDBRANCH   5   6
ENDBRANCH   4   5
ENDBRANCH   3   4
ENDBRANCH   2   3
TORSDOF 22
ENDMDL
MODEL       75
REMARK 921   NORMALIZED FREE ENERGY PREDICTED BY IDOCK:   -4.61 KCAL/MOL
REMARK 922        TOTAL FREE ENERGY PREDICTED BY IDOCK:  -14.17 KCAL/MOL
REMARK 923 INTER-LIGAND FREE ENERGY PREDICTED BY IDOCK:  -11.50 KCAL/MOL
REMARK 924 INTRA-LIGAND FREE ENERGY PREDICTED BY IDOCK:   -2.67 KCAL/MOL
REMARK 927      BINDING AFFINITY PREDICTED BY RF-SCORE:    0.00 PKD
ROOT
HETATM    1  C   UNL     1     -12.396   7.589  71.350  1.00  0.00    -0.374 C  
HETATM    2  C   UNL     1     -11.008   8.054  71.758  1.00  0.00    -0.305 C  
ENDROOT
BRANCH   2   3
HETATM    3  C   UNL     1      -9.956   7.555  70.771  1.00  0.00    -0.182 C  
BRANCH   3   4
HETATM    4  C   UNL     1     -10.585   6.773  69.622  1.00  0.00    -0.267 C  
BRANCH   4   5
HETATM    5  C   UNL     1     -10.039   7.253  68.276  1.00  0.00    -0.193 C  
BRANCH   5   6
HETATM    6  C   UNL     1      -8.918   8.263  68.483  1.00  0.00    -0.137 C  
BRANCH   6   7
HETATM    7  C   UNL     1      -9.034   9.464  67.543  1.00  0.00    -0.130 C  
BRANCH   7   8
HETATM    8  C   UNL     1     -10.128   9.177  66.522  1.00  0.00    -0.357 C  
BRANCH   8   9
HETATM    9  C   UNL     1     -10.040  10.029  65.260  1.00  0.00    -0.299 C  
BRANCH   9  10
HETATM   10  C   UNL     1      -9.510  11.412  65.652  1.00  0.00    -0.253 C  
BRANCH  10  11
HETATM   11  C   UNL     1     -10.321  12.569  65.088  1.00  0.00    -0.312 C  
BRANCH  11  12
HETATM   12  C   UNL     1     -11.292  13.261  66.061  1.00  0.00    -0.305 C  
BRANCH  12  13
HETATM   13  C   UNL     1     -11.910  12.346  67.141  1.00  0.00    -0.361 C  
BRANCH  13  14
HETATM   14  C   UNL     1     -11.294  12.508  68.536  1.00  0.00    -0.297 C  
HETATM   15  O   UNL     1     -11.257  11.255  69.277  1.00  0.00    -0.232 OA 
HETATM   16  O   UNL     1     -12.432  11.154  71.258  1.00  0.00    -0.376 OA 
HETATM   17  C   UNL     1     -12.218  13.117  69.627  1.00  0.00    -0.241 C  
HETATM   18  C   UNL     1     -12.051  11.726  70.264  1.00  0.00    -0.342 C  
BRANCH  17  19
HETATM   19  C   UNL     1     -11.715  14.257  70.508  1.00  0.00    -0.309 C  
BRANCH  19  20
HETATM   20  C   UNL     1     -12.660  15.453  70.427  1.00  0.00    -0.433 C  
BRANCH  20  21
HETATM   21  C   UNL     1     -13.403  15.668  71.749  1.00  0.00    -0.541 C  
BRANCH  21  22
HETATM   22  C   UNL     1     -13.162  14.505  72.713  1.00  0.00    -0.600 C  
BRANCH  22  23
HETATM   23  C   UNL     1     -12.608  14.985  74.055  1.00  0.00    -0.578 C  
HETATM   24  C   UNL     1     -12.428  16.497  74.065  1.00  0.00    -0.484 C  
ENDBRANCH  22  23
ENDBRANCH  21  22
ENDBRANCH  20  21
ENDBRANCH  19  20
ENDBRANCH  17  19
ENDBRANCH  13  14
ENDBRANCH  12  13
BRANCH  12  25
HETATM   25  O   UNL     1     -10.639  14.355  66.747  1.00  0.00    -0.277 OA 
BRANCH  25  26
HETATM   26  C   UNL     1     -10.382  15.482  66.027  1.00  0.00    -0.326 C  
HETATM   27  O   UNL     1     -10.921  15.804  64.974  1.00  0.00    -0.410 OA 
BRANCH  26  28
HETATM   28  C   UNL     1      -9.324  16.338  66.717  1.00  0.00    -0.237 C  
BRANCH  28  29
HETATM   29  C   UNL     1      -9.362  17.797  66.235  1.00  0.00    -0.219 C  
HETATM   30  C   UNL     1     -10.014  19.008  68.419  1.00  0.00    -0.473 C  
HETATM   31  C   UNL     1     -10.390  20.082  66.208  1.00  0.00    -0.570 C  
HETATM   32  C   UNL     1     -10.353  18.743  66.951  1.00  0.00    -0.456 C  
ENDBRANCH  28  29
BRANCH  28  33
HETATM   33  N   UNL     1      -8.018  15.707  66.538  1.00  0.00    -0.301 N  
HETATM   34  C   UNL     1      -7.108  15.589  67.550  1.00  0.00    -0.191 C  
HETATM   35  O   UNL     1      -7.250  16.024  68.683  1.00  0.00    -0.132 OA 
HETATM   36  H   UNL     1      -7.775  15.338  65.618  1.00  0.00     0.000 HD 
ENDBRANCH  28  33
ENDBRANCH  26  28
ENDBRANCH  25  26
ENDBRANCH  12  25
ENDBRANCH  11  12
ENDBRANCH  10  11
ENDBRANCH   9  10
ENDBRANCH   8   9
ENDBRANCH   7   8
ENDBRANCH   6   7
ENDBRANCH   5   6
ENDBRANCH   4   5
ENDBRANCH   3   4
ENDBRANCH   2   3
TORSDOF 22
ENDMDL
MODEL       76
REMARK 921   NORMALIZED FREE ENERGY PREDICTED BY IDOCK:   -4.60 KCAL/MOL
REMARK 922        TOTAL FREE ENERGY PREDICTED BY IDOCK:  -14.13 KCAL/MOL
REMARK 923 INTER-LIGAND FREE ENERGY PREDICTED BY IDOCK:   -9.97 KCAL/MOL
REMARK 924 INTRA-LIGAND FREE ENERGY PREDICTED BY IDOCK:   -4.16 KCAL/MOL
REMARK 927      BINDING AFFINITY PREDICTED BY RF-SCORE:    0.00 PKD
ROOT
HETATM    1  C   UNL     1     -10.173  18.246  67.371  1.00  0.00    -0.385 C  
HETATM    2  C   UNL     1     -10.215  17.782  68.818  1.00  0.00    -0.373 C  
ENDROOT
BRANCH   2   3
HETATM    3  C   UNL     1     -11.107  16.552  68.967  1.00  0.00    -0.284 C  
BRANCH   3   4
HETATM    4  C   UNL     1     -11.115  16.030  70.401  1.00  0.00    -0.376 C  
BRANCH   4   5
HETATM    5  C   UNL     1     -12.415  15.280  70.698  1.00  0.00    -0.458 C  
BRANCH   5   6
HETATM    6  C   UNL     1     -12.643  15.182  72.201  1.00  0.00    -0.407 C  
BRANCH   6   7
HETATM    7  C   UNL     1     -13.162  13.806  72.623  1.00  0.00    -0.571 C  
BRANCH   7   8
HETATM    8  C   UNL     1     -13.308  12.940  71.377  1.00  0.00    -0.153 C  
BRANCH   8   9
HETATM    9  C   UNL     1     -13.099  11.450  71.629  1.00  0.00    -0.498 C  
BRANCH   9  10
HETATM   10  C   UNL     1     -12.386  10.854  70.411  1.00  0.00    -0.436 C  
BRANCH  10  11
HETATM   11  C   UNL     1     -11.946  11.886  69.384  1.00  0.00    -0.350 C  
BRANCH  11  12
HETATM   12  C   UNL     1     -11.467  11.338  68.027  1.00  0.00    -0.298 C  
BRANCH  12  13
HETATM   13  C   UNL     1     -11.681  12.281  66.822  1.00  0.00    -0.411 C  
BRANCH  13  14
HETATM   14  C   UNL     1     -11.180  13.713  67.042  1.00  0.00    -0.312 C  
HETATM   15  O   UNL     1     -11.906  14.687  66.240  1.00  0.00    -0.364 OA 
HETATM   16  O   UNL     1     -10.702  15.914  64.705  1.00  0.00    -0.553 OA 
HETATM   17  C   UNL     1      -9.866  14.101  66.308  1.00  0.00    -0.321 C  
HETATM   18  C   UNL     1     -10.800  15.076  65.568  1.00  0.00    -0.351 C  
BRANCH  17  19
HETATM   19  C   UNL     1      -8.739  14.792  67.068  1.00  0.00    -0.258 C  
BRANCH  19  20
HETATM   20  C   UNL     1      -8.424  14.042  68.360  1.00  0.00    -0.166 C  
BRANCH  20  21
HETATM   21  C   UNL     1      -7.636  14.919  69.337  1.00  0.00    -0.162 C  
BRANCH  21  22
HETATM   22  C   UNL     1      -6.549  15.714  68.612  1.00  0.00    -0.110 C  
BRANCH  22  23
HETATM   23  C   UNL     1      -6.517  17.174  69.063  1.00  0.00    -0.208 C  
HETATM   24  C   UNL     1      -6.339  18.111  67.876  1.00  0.00    -0.182 C  
ENDBRANCH  22  23
ENDBRANCH  21  22
ENDBRANCH  20  21
ENDBRANCH  19  20
ENDBRANCH  17  19
ENDBRANCH  13  14
ENDBRANCH  12  13
BRANCH  12  25
HETATM   25  O   UNL     1     -10.058  11.013  68.073  1.00  0.00    -0.172 OA 
BRANCH  25  26
HETATM   26  C   UNL     1      -9.692   9.757  67.694  1.00  0.00    -0.156 C  
HETATM   27  O   UNL     1      -9.867   9.258  66.588  1.00  0.00    -0.204 OA 
BRANCH  26  28
HETATM   28  C   UNL     1      -8.997   9.025  68.838  1.00  0.00    -0.140 C  
BRANCH  28  29
HETATM   29  C   UNL     1      -9.940   8.040  69.547  1.00  0.00    -0.186 C  
HETATM   30  C   UNL     1      -8.380   6.004  69.833  1.00  0.00    -0.123 C  
HETATM   31  C   UNL     1     -10.851   5.734  69.907  1.00  0.00    -0.417 C  
HETATM   32  C   UNL     1      -9.705   6.536  69.282  1.00  0.00    -0.152 C  
ENDBRANCH  28  29
BRANCH  28  33
HETATM   33  N   UNL     1      -8.412  10.015  69.743  1.00  0.00    -0.247 N  
HETATM   34  C   UNL     1      -7.205   9.833  70.355  1.00  0.00    -0.142 C  
HETATM   35  O   UNL     1      -6.508   8.834  70.264  1.00  0.00    -0.037 OA 
HETATM   36  H   UNL     1      -8.927  10.877  69.923  1.00  0.00     0.000 HD 
ENDBRANCH  28  33
ENDBRANCH  26  28
ENDBRANCH  25  26
ENDBRANCH  12  25
ENDBRANCH  11  12
ENDBRANCH  10  11
ENDBRANCH   9  10
ENDBRANCH   8   9
ENDBRANCH   7   8
ENDBRANCH   6   7
ENDBRANCH   5   6
ENDBRANCH   4   5
ENDBRANCH   3   4
ENDBRANCH   2   3
TORSDOF 22
ENDMDL
MODEL       77
REMARK 921   NORMALIZED FREE ENERGY PREDICTED BY IDOCK:   -4.60 KCAL/MOL
REMARK 922        TOTAL FREE ENERGY PREDICTED BY IDOCK:  -14.12 KCAL/MOL
REMARK 923 INTER-LIGAND FREE ENERGY PREDICTED BY IDOCK:  -10.90 KCAL/MOL
REMARK 924 INTRA-LIGAND FREE ENERGY PREDICTED BY IDOCK:   -3.22 KCAL/MOL
REMARK 927      BINDING AFFINITY PREDICTED BY RF-SCORE:    0.00 PKD
ROOT
HETATM    1  C   UNL     1     -13.346  10.045  71.833  1.00  0.00    -0.516 C  
HETATM    2  C   UNL     1     -13.731   8.689  72.400  1.00  0.00    -0.410 C  
ENDROOT
BRANCH   2   3
HETATM    3  C   UNL     1     -13.329   7.568  71.446  1.00  0.00    -0.370 C  
BRANCH   3   4
HETATM    4  C   UNL     1     -12.452   6.526  72.134  1.00  0.00    -0.205 C  
BRANCH   4   5
HETATM    5  C   UNL     1     -11.188   6.255  71.316  1.00  0.00    -0.355 C  
BRANCH   5   6
HETATM    6  C   UNL     1     -11.441   6.519  69.838  1.00  0.00    -0.467 C  
BRANCH   6   7
HETATM    7  C   UNL     1     -10.357   7.396  69.208  1.00  0.00    -0.204 C  
BRANCH   7   8
HETATM    8  C   UNL     1     -10.048   8.545  70.161  1.00  0.00    -0.197 C  
BRANCH   8   9
HETATM    9  C   UNL     1     -10.627   9.887  69.724  1.00  0.00    -0.296 C  
BRANCH   9  10
HETATM   10  C   UNL     1     -10.228  10.128  68.265  1.00  0.00    -0.192 C  
BRANCH  10  11
HETATM   11  C   UNL     1      -9.050  11.075  68.093  1.00  0.00    -0.155 C  
BRANCH  11  12
HETATM   12  C   UNL     1      -9.351  12.425  67.416  1.00  0.00    -0.181 C  
BRANCH  12  13
HETATM   13  C   UNL     1     -10.756  12.549  66.787  1.00  0.00    -0.261 C  
BRANCH  13  14
HETATM   14  C   UNL     1     -10.752  12.824  65.278  1.00  0.00    -0.294 C  
HETATM   15  O   UNL     1     -12.043  13.292  64.794  1.00  0.00    -0.372 OA 
HETATM   16  O   UNL     1     -13.119  12.003  63.216  1.00  0.00    -0.701 OA 
HETATM   17  C   UNL     1     -10.865  11.580  64.354  1.00  0.00    -0.405 C  
HETATM   18  C   UNL     1     -12.201  12.238  63.963  1.00  0.00    -0.475 C  
BRANCH  17  19
HETATM   19  C   UNL     1      -9.903  11.405  63.183  1.00  0.00    -0.413 C  
BRANCH  19  20
HETATM   20  C   UNL     1      -9.096  10.120  63.339  1.00  0.00    -0.301 C  
BRANCH  20  21
HETATM   21  C   UNL     1      -9.118   9.618  64.786  1.00  0.00    -0.283 C  
BRANCH  21  22
HETATM   22  C   UNL     1      -8.207   8.401  64.962  1.00  0.00    -0.155 C  
BRANCH  22  23
HETATM   23  C   UNL     1      -8.817   7.367  65.908  1.00  0.00    -0.149 C  
HETATM   24  C   UNL     1      -8.468   5.951  65.472  1.00  0.00    -0.154 C  
ENDBRANCH  22  23
ENDBRANCH  21  22
ENDBRANCH  20  21
ENDBRANCH  19  20
ENDBRANCH  17  19
ENDBRANCH  13  14
ENDBRANCH  12  13
BRANCH  12  25
HETATM   25  O   UNL     1      -9.203  13.514  68.357  1.00  0.00    -0.195 OA 
BRANCH  25  26
HETATM   26  C   UNL     1      -8.641  14.666  67.898  1.00  0.00    -0.165 C  
HETATM   27  O   UNL     1      -7.602  14.755  67.253  1.00  0.00    -0.196 OA 
BRANCH  26  28
HETATM   28  C   UNL     1      -9.494  15.874  68.274  1.00  0.00    -0.201 C  
BRANCH  28  29
HETATM   29  C   UNL     1      -9.939  15.827  69.745  1.00  0.00    -0.250 C  
HETATM   30  C   UNL     1     -12.125  14.471  69.542  1.00  0.00    -0.348 C  
HETATM   31  C   UNL     1     -11.709  15.926  71.515  1.00  0.00    -0.545 C  
HETATM   32  C   UNL     1     -11.460  15.766  70.012  1.00  0.00    -0.359 C  
ENDBRANCH  28  29
BRANCH  28  33
HETATM   33  N   UNL     1     -10.613  15.970  67.337  1.00  0.00    -0.313 N  
HETATM   34  C   UNL     1     -10.502  16.565  66.113  1.00  0.00    -0.294 C  
HETATM   35  O   UNL     1      -9.500  17.114  65.681  1.00  0.00    -0.523 OA 
HETATM   36  H   UNL     1     -11.514  15.576  67.610  1.00  0.00     0.000 HD 
ENDBRANCH  28  33
ENDBRANCH  26  28
ENDBRANCH  25  26
ENDBRANCH  12  25
ENDBRANCH  11  12
ENDBRANCH  10  11
ENDBRANCH   9  10
ENDBRANCH   8   9
ENDBRANCH   7   8
ENDBRANCH   6   7
ENDBRANCH   5   6
ENDBRANCH   4   5
ENDBRANCH   3   4
ENDBRANCH   2   3
TORSDOF 22
ENDMDL
MODEL       78
REMARK 921   NORMALIZED FREE ENERGY PREDICTED BY IDOCK:   -4.59 KCAL/MOL
REMARK 922        TOTAL FREE ENERGY PREDICTED BY IDOCK:  -14.12 KCAL/MOL
REMARK 923 INTER-LIGAND FREE ENERGY PREDICTED BY IDOCK:  -11.89 KCAL/MOL
REMARK 924 INTRA-LIGAND FREE ENERGY PREDICTED BY IDOCK:   -2.23 KCAL/MOL
REMARK 927      BINDING AFFINITY PREDICTED BY RF-SCORE:    0.00 PKD
ROOT
HETATM    1  C   UNL     1     -10.544   7.801  67.004  1.00  0.00    -0.396 C  
HETATM    2  C   UNL     1     -10.329   9.288  67.233  1.00  0.00    -0.332 C  
ENDROOT
BRANCH   2   3
HETATM    3  C   UNL     1      -9.608   9.921  66.046  1.00  0.00    -0.284 C  
BRANCH   3   4
HETATM    4  C   UNL     1     -10.572  10.253  64.911  1.00  0.00     0.190 C  
BRANCH   4   5
HETATM    5  C   UNL     1      -9.874  11.087  63.834  1.00  0.00    -0.368 C  
BRANCH   5   6
HETATM    6  C   UNL     1     -10.699  12.321  63.495  1.00  0.00    -0.497 C  
BRANCH   6   7
HETATM    7  C   UNL     1     -11.497  12.837  64.695  1.00  0.00    -0.367 C  
BRANCH   7   8
HETATM    8  C   UNL     1     -10.705  13.958  65.358  1.00  0.00    -0.330 C  
BRANCH   8   9
HETATM    9  C   UNL     1      -9.738  13.481  66.436  1.00  0.00    -0.296 C  
BRANCH   9  10
HETATM   10  C   UNL     1     -10.024  14.268  67.719  1.00  0.00    -0.227 C  
BRANCH  10  11
HETATM   11  C   UNL     1     -10.926  15.476  67.517  1.00  0.00    -0.316 C  
BRANCH  11  12
HETATM   12  C   UNL     1     -10.911  16.535  68.634  1.00  0.00    -0.345 C  
BRANCH  12  13
HETATM   13  C   UNL     1     -10.748  15.982  70.067  1.00  0.00    -0.328 C  
BRANCH  13  14
HETATM   14  C   UNL     1     -12.052  15.916  70.871  1.00  0.00    -0.374 C  
HETATM   15  O   UNL     1     -11.990  16.700  72.097  1.00  0.00    -0.388 OA 
HETATM   16  O   UNL     1     -12.252  15.578  74.093  1.00  0.00    -0.576 OA 
HETATM   17  C   UNL     1     -12.273  14.630  71.715  1.00  0.00    -0.409 C  
HETATM   18  C   UNL     1     -12.186  15.622  72.889  1.00  0.00    -0.457 C  
BRANCH  17  19
HETATM   19  C   UNL     1     -13.602  13.885  71.641  1.00  0.00    -0.415 C  
BRANCH  19  20
HETATM   20  C   UNL     1     -13.475  12.498  72.264  1.00  0.00    -0.490 C  
BRANCH  20  21
HETATM   21  C   UNL     1     -12.739  11.531  71.332  1.00  0.00    -0.469 C  
BRANCH  21  22
HETATM   22  C   UNL     1     -13.156  10.083  71.596  1.00  0.00    -0.547 C  
BRANCH  22  23
HETATM   23  C   UNL     1     -12.098   9.091  71.113  1.00  0.00    -0.345 C  
HETATM   24  C   UNL     1     -10.781   9.793  70.814  1.00  0.00    -0.393 C  
ENDBRANCH  22  23
ENDBRANCH  21  22
ENDBRANCH  20  21
ENDBRANCH  19  20
ENDBRANCH  17  19
ENDBRANCH  13  14
ENDBRANCH  12  13
BRANCH  12  25
HETATM   25  O   UNL     1      -9.846  17.491  68.419  1.00  0.00    -0.291 OA 
BRANCH  25  26
HETATM   26  C   UNL     1      -9.981  18.356  67.376  1.00  0.00    -0.334 C  
HETATM   27  O   UNL     1     -10.964  19.050  67.137  1.00  0.00    -0.433 OA 
BRANCH  26  28
HETATM   28  C   UNL     1      -8.718  18.378  66.521  1.00  0.00    -0.278 C  
BRANCH  28  29
HETATM   29  C   UNL     1      -7.855  17.125  66.739  1.00  0.00    -0.277 C  
HETATM   30  C   UNL     1      -6.758  17.686  69.007  1.00  0.00    -0.250 C  
HETATM   31  C   UNL     1      -5.737  16.010  67.480  1.00  0.00    -0.157 C  
HETATM   32  C   UNL     1      -6.546  17.309  67.539  1.00  0.00    -0.165 C  
ENDBRANCH  28  29
BRANCH  28  33
HETATM   33  N   UNL     1      -7.998  19.624  66.779  1.00  0.00    -0.278 N  
HETATM   34  C   UNL     1      -7.110  20.162  65.890  1.00  0.00    -0.289 C  
HETATM   35  O   UNL     1      -6.783  19.661  64.826  1.00  0.00    -0.380 OA 
HETATM   36  H   UNL     1      -8.165  20.113  67.659  1.00  0.00     0.000 HD 
ENDBRANCH  28  33
ENDBRANCH  26  28
ENDBRANCH  25  26
ENDBRANCH  12  25
ENDBRANCH  11  12
ENDBRANCH  10  11
ENDBRANCH   9  10
ENDBRANCH   8   9
ENDBRANCH   7   8
ENDBRANCH   6   7
ENDBRANCH   5   6
ENDBRANCH   4   5
ENDBRANCH   3   4
ENDBRANCH   2   3
TORSDOF 22
ENDMDL
MODEL       79
REMARK 921   NORMALIZED FREE ENERGY PREDICTED BY IDOCK:   -4.59 KCAL/MOL
REMARK 922        TOTAL FREE ENERGY PREDICTED BY IDOCK:  -14.12 KCAL/MOL
REMARK 923 INTER-LIGAND FREE ENERGY PREDICTED BY IDOCK:  -10.45 KCAL/MOL
REMARK 924 INTRA-LIGAND FREE ENERGY PREDICTED BY IDOCK:   -3.67 KCAL/MOL
REMARK 927      BINDING AFFINITY PREDICTED BY RF-SCORE:    0.00 PKD
ROOT
HETATM    1  C   UNL     1     -10.567  17.734  67.896  1.00  0.00    -0.389 C  
HETATM    2  C   UNL     1     -10.484  17.008  69.229  1.00  0.00    -0.293 C  
ENDROOT
BRANCH   2   3
HETATM    3  C   UNL     1     -11.614  15.992  69.365  1.00  0.00    -0.320 C  
BRANCH   3   4
HETATM    4  C   UNL     1     -11.796  15.538  70.810  1.00  0.00    -0.406 C  
BRANCH   4   5
HETATM    5  C   UNL     1     -13.133  14.814  70.987  1.00  0.00    -0.433 C  
BRANCH   5   6
HETATM    6  C   UNL     1     -13.180  14.101  72.332  1.00  0.00    -0.566 C  
BRANCH   6   7
HETATM    7  C   UNL     1     -13.375  12.591  72.184  1.00  0.00    -0.540 C  
BRANCH   7   8
HETATM    8  C   UNL     1     -12.606  12.121  70.954  1.00  0.00    -0.340 C  
BRANCH   8   9
HETATM    9  C   UNL     1     -12.253  10.637  70.973  1.00  0.00    -0.498 C  
BRANCH   9  10
HETATM   10  C   UNL     1     -11.257  10.368  69.841  1.00  0.00    -0.371 C  
BRANCH  10  11
HETATM   11  C   UNL     1     -11.171  11.484  68.811  1.00  0.00    -0.309 C  
BRANCH  11  12
HETATM   12  C   UNL     1     -11.237  11.058  67.333  1.00  0.00    -0.285 C  
BRANCH  12  13
HETATM   13  C   UNL     1     -11.739  12.143  66.355  1.00  0.00    -0.394 C  
BRANCH  13  14
HETATM   14  C   UNL     1     -11.301  13.569  66.713  1.00  0.00    -0.328 C  
HETATM   15  O   UNL     1     -12.067  14.582  66.000  1.00  0.00    -0.364 OA 
HETATM   16  O   UNL     1     -10.913  15.998  64.596  1.00  0.00    -0.590 OA 
HETATM   17  C   UNL     1     -10.003  14.080  66.028  1.00  0.00    -0.331 C  
HETATM   18  C   UNL     1     -10.977  15.079  65.376  1.00  0.00    -0.373 C  
BRANCH  17  19
HETATM   19  C   UNL     1      -8.909  14.744  66.857  1.00  0.00    -0.274 C  
BRANCH  19  20
HETATM   20  C   UNL     1      -8.307  13.750  67.846  1.00  0.00    -0.172 C  
BRANCH  20  21
HETATM   21  C   UNL     1      -7.005  13.147  67.310  1.00  0.00    -0.021 C  
BRANCH  21  22
HETATM   22  C   UNL     1      -6.872  11.676  67.709  1.00  0.00    -0.079 C  
BRANCH  22  23
HETATM   23  C   UNL     1      -7.259  11.447  69.170  1.00  0.00    -0.102 C  
HETATM   24  C   UNL     1      -7.550   9.976  69.436  1.00  0.00    -0.123 C  
ENDBRANCH  22  23
ENDBRANCH  21  22
ENDBRANCH  20  21
ENDBRANCH  19  20
ENDBRANCH  17  19
ENDBRANCH  13  14
ENDBRANCH  12  13
BRANCH  12  25
HETATM   25  O   UNL     1      -9.939  10.625  66.866  1.00  0.00    -0.189 OA 
BRANCH  25  26
HETATM   26  C   UNL     1      -9.884  10.000  65.657  1.00  0.00    -0.295 C  
HETATM   27  O   UNL     1     -10.243  10.473  64.584  1.00  0.00    -0.345 OA 
BRANCH  26  28
HETATM   28  C   UNL     1      -9.284   8.604  65.794  1.00  0.00    -0.181 C  
BRANCH  28  29
HETATM   29  C   UNL     1      -9.582   7.983  67.168  1.00  0.00    -0.227 C  
HETATM   30  C   UNL     1     -10.542   5.694  66.462  1.00  0.00    -0.320 C  
HETATM   31  C   UNL     1     -11.028   6.638  68.710  1.00  0.00    -0.322 C  
HETATM   32  C   UNL     1     -10.764   6.990  67.243  1.00  0.00    -0.412 C  
ENDBRANCH  28  29
BRANCH  28  33
HETATM   33  N   UNL     1      -7.855   8.674  65.492  1.00  0.00    -0.095 N  
HETATM   34  C   UNL     1      -7.211   7.732  64.742  1.00  0.00    -0.067 C  
HETATM   35  O   UNL     1      -7.722   6.722  64.283  1.00  0.00    -0.099 OA 
HETATM   36  H   UNL     1      -7.316   9.461  65.857  1.00  0.00     0.000 HD 
ENDBRANCH  28  33
ENDBRANCH  26  28
ENDBRANCH  25  26
ENDBRANCH  12  25
ENDBRANCH  11  12
ENDBRANCH  10  11
ENDBRANCH   9  10
ENDBRANCH   8   9
ENDBRANCH   7   8
ENDBRANCH   6   7
ENDBRANCH   5   6
ENDBRANCH   4   5
ENDBRANCH   3   4
ENDBRANCH   2   3
TORSDOF 22
ENDMDL
MODEL       80
REMARK 921   NORMALIZED FREE ENERGY PREDICTED BY IDOCK:   -4.59 KCAL/MOL
REMARK 922        TOTAL FREE ENERGY PREDICTED BY IDOCK:  -14.11 KCAL/MOL
REMARK 923 INTER-LIGAND FREE ENERGY PREDICTED BY IDOCK:  -10.91 KCAL/MOL
REMARK 924 INTRA-LIGAND FREE ENERGY PREDICTED BY IDOCK:   -3.20 KCAL/MOL
REMARK 927      BINDING AFFINITY PREDICTED BY RF-SCORE:    0.00 PKD
ROOT
HETATM    1  C   UNL     1      -9.244   4.779  72.773  1.00  0.00    -0.143 C  
HETATM    2  C   UNL     1      -9.376   6.243  72.388  1.00  0.00    -0.141 C  
ENDROOT
BRANCH   2   3
HETATM    3  C   UNL     1     -10.512   6.441  71.388  1.00  0.00    -0.257 C  
BRANCH   3   4
HETATM    4  C   UNL     1     -11.864   6.563  72.085  1.00  0.00    -0.348 C  
BRANCH   4   5
HETATM    5  C   UNL     1     -12.823   7.425  71.262  1.00  0.00    -0.365 C  
BRANCH   5   6
HETATM    6  C   UNL     1     -13.376   8.566  72.106  1.00  0.00    -0.382 C  
BRANCH   6   7
HETATM    7  C   UNL     1     -12.892   9.935  71.625  1.00  0.00    -0.537 C  
BRANCH   7   8
HETATM    8  C   UNL     1     -12.091   9.742  70.342  1.00  0.00    -0.176 C  
BRANCH   8   9
HETATM    9  C   UNL     1     -11.136  10.889  70.028  1.00  0.00    -0.285 C  
BRANCH   9  10
HETATM   10  C   UNL     1     -11.803  11.799  68.992  1.00  0.00    -0.379 C  
BRANCH  10  11
HETATM   11  C   UNL     1     -11.890  13.258  69.412  1.00  0.00    -0.386 C  
BRANCH  11  12
HETATM   12  C   UNL     1     -11.776  14.302  68.286  1.00  0.00    -0.342 C  
BRANCH  12  13
HETATM   13  C   UNL     1     -12.634  14.018  67.033  1.00  0.00     0.075 C  
BRANCH  13  14
HETATM   14  C   UNL     1     -11.824  13.771  65.755  1.00  0.00    -0.372 C  
HETATM   15  O   UNL     1     -12.648  13.819  64.555  1.00  0.00    -0.620 OA 
HETATM   16  O   UNL     1     -12.766  11.912  63.267  1.00  0.00    -0.654 OA 
HETATM   17  C   UNL     1     -11.470  12.291  65.442  1.00  0.00    -0.402 C  
HETATM   18  C   UNL     1     -12.375  12.538  64.222  1.00  0.00    -0.456 C  
BRANCH  17  19
HETATM   19  C   UNL     1     -10.040  11.906  65.075  1.00  0.00    -0.297 C  
BRANCH  19  20
HETATM   20  C   UNL     1      -9.884  10.388  65.044  1.00  0.00    -0.384 C  
BRANCH  20  21
HETATM   21  C   UNL     1     -10.678   9.721  66.171  1.00  0.00     0.115 C  
BRANCH  21  22
HETATM   22  C   UNL     1      -9.926   8.515  66.736  1.00  0.00    -0.351 C  
BRANCH  22  23
HETATM   23  C   UNL     1     -10.882   7.464  67.301  1.00  0.00    -0.326 C  
HETATM   24  C   UNL     1     -10.128   6.410  68.101  1.00  0.00    -0.167 C  
ENDBRANCH  22  23
ENDBRANCH  21  22
ENDBRANCH  20  21
ENDBRANCH  19  20
ENDBRANCH  17  19
ENDBRANCH  13  14
ENDBRANCH  12  13
BRANCH  12  25
HETATM   25  O   UNL     1     -12.141  15.617  68.767  1.00  0.00    -0.301 OA 
BRANCH  25  26
HETATM   26  C   UNL     1     -11.192  16.323  69.443  1.00  0.00    -0.311 C  
HETATM   27  O   UNL     1     -11.091  16.410  70.661  1.00  0.00    -0.323 OA 
BRANCH  26  28
HETATM   28  C   UNL     1     -10.225  16.998  68.475  1.00  0.00    -0.324 C  
BRANCH  28  29
HETATM   29  C   UNL     1      -8.760  16.687  68.818  1.00  0.00    -0.260 C  
HETATM   30  C   UNL     1      -8.324  14.664  67.276  1.00  0.00    -0.234 C  
HETATM   31  C   UNL     1      -6.898  15.073  69.271  1.00  0.00    -0.149 C  
HETATM   32  C   UNL     1      -8.314  15.212  68.704  1.00  0.00    -0.160 C  
ENDBRANCH  28  29
BRANCH  28  33
HETATM   33  N   UNL     1     -10.517  18.430  68.441  1.00  0.00    -0.348 N  
HETATM   34  C   UNL     1     -10.730  19.114  67.278  1.00  0.00    -0.488 C  
HETATM   35  O   UNL     1     -10.659  18.639  66.155  1.00  0.00    -0.436 OA 
HETATM   36  H   UNL     1     -10.565  18.941  69.324  1.00  0.00     0.000 HD 
ENDBRANCH  28  33
ENDBRANCH  26  28
ENDBRANCH  25  26
ENDBRANCH  12  25
ENDBRANCH  11  12
ENDBRANCH  10  11
ENDBRANCH   9  10
ENDBRANCH   8   9
ENDBRANCH   7   8
ENDBRANCH   6   7
ENDBRANCH   5   6
ENDBRANCH   4   5
ENDBRANCH   3   4
ENDBRANCH   2   3
TORSDOF 22
ENDMDL
MODEL       81
REMARK 921   NORMALIZED FREE ENERGY PREDICTED BY IDOCK:   -4.58 KCAL/MOL
REMARK 922        TOTAL FREE ENERGY PREDICTED BY IDOCK:  -14.10 KCAL/MOL
REMARK 923 INTER-LIGAND FREE ENERGY PREDICTED BY IDOCK:  -10.63 KCAL/MOL
REMARK 924 INTRA-LIGAND FREE ENERGY PREDICTED BY IDOCK:   -3.47 KCAL/MOL
REMARK 927      BINDING AFFINITY PREDICTED BY RF-SCORE:    0.00 PKD
ROOT
HETATM    1  C   UNL     1     -10.989  15.702  64.843  1.00  0.00    -0.447 C  
HETATM    2  C   UNL     1     -12.234  14.964  64.380  1.00  0.00    -0.399 C  
ENDROOT
BRANCH   2   3
HETATM    3  C   UNL     1     -12.491  13.735  65.247  1.00  0.00    -0.512 C  
BRANCH   3   4
HETATM    4  C   UNL     1     -12.751  12.491  64.403  1.00  0.00    -0.447 C  
BRANCH   4   5
HETATM    5  C   UNL     1     -11.748  12.397  63.252  1.00  0.00    -0.466 C  
BRANCH   5   6
HETATM    6  C   UNL     1     -10.348  12.118  63.784  1.00  0.00    -0.465 C  
BRANCH   6   7
HETATM    7  C   UNL     1      -9.908  10.674  63.539  1.00  0.00    -0.384 C  
BRANCH   7   8
HETATM    8  C   UNL     1      -9.739   9.983  64.888  1.00  0.00    -0.377 C  
BRANCH   8   9
HETATM    9  C   UNL     1     -10.227  10.810  66.073  1.00  0.00    -0.310 C  
BRANCH   9  10
HETATM   10  C   UNL     1     -10.546   9.852  67.226  1.00  0.00    -0.316 C  
BRANCH  10  11
HETATM   11  C   UNL     1     -10.136  10.372  68.595  1.00  0.00    -0.188 C  
BRANCH  11  12
HETATM   12  C   UNL     1      -8.762   9.915  69.117  1.00  0.00    -0.159 C  
BRANCH  12  13
HETATM   13  C   UNL     1      -7.658  10.995  69.107  1.00  0.00    -0.113 C  
BRANCH  13  14
HETATM   14  C   UNL     1      -7.724  11.956  67.913  1.00  0.00    -0.131 C  
HETATM   15  O   UNL     1      -6.407  12.280  67.385  1.00  0.00    -0.124 OA 
HETATM   16  O   UNL     1      -5.754  14.490  67.434  1.00  0.00    -0.342 OA 
HETATM   17  C   UNL     1      -7.948  13.456  68.253  1.00  0.00    -0.147 C  
HETATM   18  C   UNL     1      -6.540  13.599  67.648  1.00  0.00    -0.165 C  
BRANCH  17  19
HETATM   19  C   UNL     1      -9.015  14.258  67.514  1.00  0.00    -0.197 C  
BRANCH  19  20
HETATM   20  C   UNL     1     -10.411  13.810  67.938  1.00  0.00    -0.247 C  
BRANCH  20  21
HETATM   21  C   UNL     1     -10.879  14.551  69.194  1.00  0.00    -0.278 C  
BRANCH  21  22
HETATM   22  C   UNL     1     -12.107  13.876  69.808  1.00  0.00    -0.404 C  
BRANCH  22  23
HETATM   23  C   UNL     1     -12.336  14.320  71.252  1.00  0.00    -0.439 C  
HETATM   24  C   UNL     1     -11.808  15.729  71.484  1.00  0.00    -0.514 C  
ENDBRANCH  22  23
ENDBRANCH  21  22
ENDBRANCH  20  21
ENDBRANCH  19  20
ENDBRANCH  17  19
ENDBRANCH  13  14
ENDBRANCH  12  13
BRANCH  12  25
HETATM   25  O   UNL     1      -8.867   9.421  70.473  1.00  0.00    -0.223 OA 
BRANCH  25  26
HETATM   26  C   UNL     1      -9.019   8.078  70.642  1.00  0.00    -0.148 C  
HETATM   27  O   UNL     1      -8.257   7.210  70.232  1.00  0.00    -0.126 OA 
BRANCH  26  28
HETATM   28  C   UNL     1     -10.280   7.771  71.444  1.00  0.00    -0.182 C  
BRANCH  28  29
HETATM   29  C   UNL     1     -11.049   9.048  71.817  1.00  0.00    -0.444 C  
HETATM   30  C   UNL     1     -13.483   8.251  71.501  1.00  0.00    -0.320 C  
HETATM   31  C   UNL     1     -12.923  10.673  71.462  1.00  0.00    -0.566 C  
HETATM   32  C   UNL     1     -12.410   9.272  71.118  1.00  0.00    -0.363 C  
ENDBRANCH  28  29
BRANCH  28  33
HETATM   33  N   UNL     1      -9.912   6.961  72.605  1.00  0.00    -0.168 N  
HETATM   34  C   UNL     1     -10.637   5.875  73.007  1.00  0.00    -0.243 C  
HETATM   35  O   UNL     1     -11.674   5.486  72.493  1.00  0.00    -0.272 OA 
HETATM   36  H   UNL     1      -9.080   7.217  73.136  1.00  0.00     0.000 HD 
ENDBRANCH  28  33
ENDBRANCH  26  28
ENDBRANCH  25  26
ENDBRANCH  12  25
ENDBRANCH  11  12
ENDBRANCH  10  11
ENDBRANCH   9  10
ENDBRANCH   8   9
ENDBRANCH   7   8
ENDBRANCH   6   7
ENDBRANCH   5   6
ENDBRANCH   4   5
ENDBRANCH   3   4
ENDBRANCH   2   3
TORSDOF 22
ENDMDL
MODEL       82
REMARK 921   NORMALIZED FREE ENERGY PREDICTED BY IDOCK:   -4.58 KCAL/MOL
REMARK 922        TOTAL FREE ENERGY PREDICTED BY IDOCK:  -14.09 KCAL/MOL
REMARK 923 INTER-LIGAND FREE ENERGY PREDICTED BY IDOCK:   -9.91 KCAL/MOL
REMARK 924 INTRA-LIGAND FREE ENERGY PREDICTED BY IDOCK:   -4.18 KCAL/MOL
REMARK 927      BINDING AFFINITY PREDICTED BY RF-SCORE:    0.00 PKD
ROOT
HETATM    1  C   UNL     1      -8.166   7.895  74.315  1.00  0.00    -0.303 C  
HETATM    2  C   UNL     1      -7.853   7.108  73.053  1.00  0.00    -0.109 C  
ENDROOT
BRANCH   2   3
HETATM    3  C   UNL     1      -7.784   8.032  71.840  1.00  0.00    -0.114 C  
BRANCH   3   4
HETATM    4  C   UNL     1      -7.635   7.248  70.540  1.00  0.00    -0.088 C  
BRANCH   4   5
HETATM    5  C   UNL     1      -8.201   8.042  69.360  1.00  0.00    -0.122 C  
BRANCH   5   6
HETATM    6  C   UNL     1      -7.798   9.508  69.460  1.00  0.00    -0.103 C  
BRANCH   6   7
HETATM    7  C   UNL     1      -7.745  10.192  68.093  1.00  0.00    -0.088 C  
BRANCH   7   8
HETATM    8  C   UNL     1      -8.098   9.166  67.023  1.00  0.00    -0.109 C  
BRANCH   8   9
HETATM    9  C   UNL     1      -9.327   9.530  66.196  1.00  0.00    -0.254 C  
BRANCH   9  10
HETATM   10  C   UNL     1     -10.042  10.694  66.887  1.00  0.00    -0.260 C  
BRANCH  10  11
HETATM   11  C   UNL     1     -11.254  10.279  67.707  1.00  0.00    -0.262 C  
BRANCH  11  12
HETATM   12  C   UNL     1     -11.552  11.121  68.961  1.00  0.00    -0.324 C  
BRANCH  12  13
HETATM   13  C   UNL     1     -11.102  10.494  70.300  1.00  0.00    -0.359 C  
BRANCH  13  14
HETATM   14  C   UNL     1     -11.907   9.260  70.723  1.00  0.00    -0.243 C  
HETATM   15  O   UNL     1     -13.315   9.560  70.937  1.00  0.00    -0.233 OA 
HETATM   16  O   UNL     1     -14.172   9.204  73.047  1.00  0.00    -0.429 OA 
HETATM   17  C   UNL     1     -11.779   8.836  72.213  1.00  0.00    -0.398 C  
HETATM   18  C   UNL     1     -13.275   9.200  72.239  1.00  0.00    -0.461 C  
BRANCH  17  19
HETATM   19  C   UNL     1     -11.498   7.381  72.573  1.00  0.00    -0.346 C  
BRANCH  19  20
HETATM   20  C   UNL     1     -11.784   6.468  71.385  1.00  0.00    -0.378 C  
BRANCH  20  21
HETATM   21  C   UNL     1     -10.579   5.583  71.055  1.00  0.00    -0.300 C  
BRANCH  21  22
HETATM   22  C   UNL     1     -10.497   5.299  69.554  1.00  0.00    -0.304 C  
BRANCH  22  23
HETATM   23  C   UNL     1     -11.184   6.388  68.731  1.00  0.00    -0.358 C  
HETATM   24  C   UNL     1     -10.900   6.214  67.245  1.00  0.00    -0.438 C  
ENDBRANCH  22  23
ENDBRANCH  21  22
ENDBRANCH  20  21
ENDBRANCH  19  20
ENDBRANCH  17  19
ENDBRANCH  13  14
ENDBRANCH  12  13
BRANCH  12  25
HETATM   25  O   UNL     1     -10.928  12.423  68.865  1.00  0.00    -0.229 OA 
BRANCH  25  26
HETATM   26  C   UNL     1     -11.742  13.513  68.923  1.00  0.00    -0.339 C  
HETATM   27  O   UNL     1     -12.596  13.731  69.776  1.00  0.00    -0.233 OA 
BRANCH  26  28
HETATM   28  C   UNL     1     -11.443  14.476  67.778  1.00  0.00    -0.340 C  
BRANCH  28  29
HETATM   29  C   UNL     1     -11.439  13.764  66.416  1.00  0.00    -0.351 C  
HETATM   30  C   UNL     1     -11.158  15.775  64.823  1.00  0.00    -0.413 C  
HETATM   31  C   UNL     1     -12.093  13.623  64.001  1.00  0.00    -0.474 C  
HETATM   32  C   UNL     1     -11.997  14.556  65.212  1.00  0.00    -0.353 C  
ENDBRANCH  28  29
BRANCH  28  33
HETATM   33  N   UNL     1     -10.192  15.176  68.065  1.00  0.00    -0.229 N  
HETATM   34  C   UNL     1     -10.095  16.157  69.010  1.00  0.00    -0.247 C  
HETATM   35  O   UNL     1     -11.021  16.591  69.678  1.00  0.00    -0.325 OA 
HETATM   36  H   UNL     1      -9.356  14.920  67.538  1.00  0.00     0.000 HD 
ENDBRANCH  28  33
ENDBRANCH  26  28
ENDBRANCH  25  26
ENDBRANCH  12  25
ENDBRANCH  11  12
ENDBRANCH  10  11
ENDBRANCH   9  10
ENDBRANCH   8   9
ENDBRANCH   7   8
ENDBRANCH   6   7
ENDBRANCH   5   6
ENDBRANCH   4   5
ENDBRANCH   3   4
ENDBRANCH   2   3
TORSDOF 22
ENDMDL
MODEL       83
REMARK 921   NORMALIZED FREE ENERGY PREDICTED BY IDOCK:   -4.56 KCAL/MOL
REMARK 922        TOTAL FREE ENERGY PREDICTED BY IDOCK:  -14.05 KCAL/MOL
REMARK 923 INTER-LIGAND FREE ENERGY PREDICTED BY IDOCK:  -10.07 KCAL/MOL
REMARK 924 INTRA-LIGAND FREE ENERGY PREDICTED BY IDOCK:   -3.99 KCAL/MOL
REMARK 927      BINDING AFFINITY PREDICTED BY RF-SCORE:    0.00 PKD
ROOT
HETATM    1  C   UNL     1     -10.864   6.055  67.519  1.00  0.00    -0.393 C  
HETATM    2  C   UNL     1     -10.156   7.061  66.626  1.00  0.00    -0.219 C  
ENDROOT
BRANCH   2   3
HETATM    3  C   UNL     1      -8.702   6.659  66.402  1.00  0.00    -0.144 C  
BRANCH   3   4
HETATM    4  C   UNL     1      -7.891   7.791  65.778  1.00  0.00    -0.104 C  
BRANCH   4   5
HETATM    5  C   UNL     1      -8.737   8.575  64.773  1.00  0.00    -0.055 C  
BRANCH   5   6
HETATM    6  C   UNL     1      -8.678  10.067  65.073  1.00  0.00    -0.192 C  
BRANCH   6   7
HETATM    7  C   UNL     1     -10.068  10.696  65.183  1.00  0.00    -0.374 C  
BRANCH   7   8
HETATM    8  C   UNL     1     -10.365  11.445  63.889  1.00  0.00    -0.434 C  
BRANCH   8   9
HETATM    9  C   UNL     1     -11.845  11.738  63.666  1.00  0.00    -0.498 C  
BRANCH   9  10
HETATM   10  C   UNL     1     -12.118  13.181  64.103  1.00  0.00    -0.496 C  
BRANCH  10  11
HETATM   11  C   UNL     1     -12.428  13.333  65.584  1.00  0.00    -0.510 C  
BRANCH  11  12
HETATM   12  C   UNL     1     -11.469  14.222  66.396  1.00  0.00    -0.355 C  
BRANCH  12  13
HETATM   13  C   UNL     1     -10.816  13.544  67.620  1.00  0.00    -0.273 C  
BRANCH  13  14
HETATM   14  C   UNL     1     -11.536  12.277  68.100  1.00  0.00    -0.316 C  
HETATM   15  O   UNL     1     -12.459  12.541  69.194  1.00  0.00     0.066 OA 
HETATM   16  O   UNL     1     -12.063  11.480  71.202  1.00  0.00    -0.253 OA 
HETATM   17  C   UNL     1     -10.719  11.334  69.027  1.00  0.00    -0.257 C  
HETATM   18  C   UNL     1     -11.799  11.730  70.050  1.00  0.00    -0.342 C  
BRANCH  17  19
HETATM   19  C   UNL     1     -10.666   9.837  68.742  1.00  0.00    -0.243 C  
BRANCH  19  20
HETATM   20  C   UNL     1     -10.054   9.088  69.922  1.00  0.00    -0.213 C  
BRANCH  20  21
HETATM   21  C   UNL     1      -8.615   8.657  69.624  1.00  0.00    -0.131 C  
BRANCH  21  22
HETATM   22  C   UNL     1      -7.621   9.385  70.532  1.00  0.00    -0.162 C  
BRANCH  22  23
HETATM   23  C   UNL     1      -6.957  10.562  69.819  1.00  0.00    -0.144 C  
HETATM   24  C   UNL     1      -6.850  10.308  68.322  1.00  0.00    -0.065 C  
ENDBRANCH  22  23
ENDBRANCH  21  22
ENDBRANCH  20  21
ENDBRANCH  19  20
ENDBRANCH  17  19
ENDBRANCH  13  14
ENDBRANCH  12  13
BRANCH  12  25
HETATM   25  O   UNL     1     -10.398  14.719  65.559  1.00  0.00    -0.315 OA 
BRANCH  25  26
HETATM   26  C   UNL     1     -10.305  16.068  65.394  1.00  0.00    -0.359 C  
HETATM   27  O   UNL     1     -10.911  16.736  64.564  1.00  0.00    -0.921 OA 
BRANCH  26  28
HETATM   28  C   UNL     1      -9.342  16.674  66.411  1.00  0.00    -0.281 C  
BRANCH  28  29
HETATM   29  C   UNL     1      -9.340  18.210  66.354  1.00  0.00    -0.274 C  
HETATM   30  C   UNL     1     -10.020  18.782  68.777  1.00  0.00    -0.442 C  
HETATM   31  C   UNL     1     -10.321  20.438  66.947  1.00  0.00    -0.311 C  
HETATM   32  C   UNL     1     -10.329  18.945  67.287  1.00  0.00    -0.486 C  
ENDBRANCH  28  29
BRANCH  28  33
HETATM   33  N   UNL     1      -8.018  16.089  66.212  1.00  0.00    -0.232 N  
HETATM   34  C   UNL     1      -7.138  15.887  67.236  1.00  0.00    -0.207 C  
HETATM   35  O   UNL     1      -7.323  16.203  68.401  1.00  0.00    -0.132 OA 
HETATM   36  H   UNL     1      -7.739  15.819  65.268  1.00  0.00     0.000 HD 
ENDBRANCH  28  33
ENDBRANCH  26  28
ENDBRANCH  25  26
ENDBRANCH  12  25
ENDBRANCH  11  12
ENDBRANCH  10  11
ENDBRANCH   9  10
ENDBRANCH   8   9
ENDBRANCH   7   8
ENDBRANCH   6   7
ENDBRANCH   5   6
ENDBRANCH   4   5
ENDBRANCH   3   4
ENDBRANCH   2   3
TORSDOF 22
ENDMDL
MODEL       84
REMARK 921   NORMALIZED FREE ENERGY PREDICTED BY IDOCK:   -4.56 KCAL/MOL
REMARK 922        TOTAL FREE ENERGY PREDICTED BY IDOCK:  -14.05 KCAL/MOL
REMARK 923 INTER-LIGAND FREE ENERGY PREDICTED BY IDOCK:  -11.05 KCAL/MOL
REMARK 924 INTRA-LIGAND FREE ENERGY PREDICTED BY IDOCK:   -2.99 KCAL/MOL
REMARK 927      BINDING AFFINITY PREDICTED BY RF-SCORE:    0.00 PKD
ROOT
HETATM    1  C   UNL     1     -10.447  19.246  66.280  1.00  0.00    -0.567 C  
HETATM    2  C   UNL     1     -10.017  19.862  67.601  1.00  0.00    -0.553 C  
ENDROOT
BRANCH   2   3
HETATM    3  C   UNL     1      -9.937  18.801  68.695  1.00  0.00    -0.444 C  
BRANCH   3   4
HETATM    4  C   UNL     1     -10.414  17.440  68.199  1.00  0.00    -0.389 C  
BRANCH   4   5
HETATM    5  C   UNL     1     -10.279  16.384  69.298  1.00  0.00    -0.278 C  
BRANCH   5   6
HETATM    6  C   UNL     1     -11.651  15.872  69.718  1.00  0.00    -0.340 C  
BRANCH   6   7
HETATM    7  C   UNL     1     -11.580  14.940  70.930  1.00  0.00    -0.344 C  
BRANCH   7   8
HETATM    8  C   UNL     1     -12.835  14.076  70.950  1.00  0.00    -0.389 C  
BRANCH   8   9
HETATM    9  C   UNL     1     -12.716  12.829  71.821  1.00  0.00    -0.244 C  
BRANCH   9  10
HETATM   10  C   UNL     1     -13.133  11.617  70.983  1.00  0.00    -0.074 C  
BRANCH  10  11
HETATM   11  C   UNL     1     -11.966  10.805  70.444  1.00  0.00    -0.448 C  
BRANCH  11  12
HETATM   12  C   UNL     1     -11.150  11.449  69.309  1.00  0.00    -0.254 C  
BRANCH  12  13
HETATM   13  C   UNL     1      -9.697  10.943  69.170  1.00  0.00    -0.141 C  
BRANCH  13  14
HETATM   14  C   UNL     1      -9.472   9.517  69.688  1.00  0.00    -0.199 C  
HETATM   15  O   UNL     1      -8.410   9.447  70.682  1.00  0.00    -0.186 OA 
HETATM   16  O   UNL     1      -6.576   8.141  70.192  1.00  0.00    -0.036 OA 
HETATM   17  C   UNL     1      -8.655   8.573  68.762  1.00  0.00    -0.131 C  
HETATM   18  C   UNL     1      -7.653   8.618  69.929  1.00  0.00    -0.071 C  
BRANCH  17  19
HETATM   19  C   UNL     1      -9.170   7.171  68.452  1.00  0.00    -0.133 C  
BRANCH  19  20
HETATM   20  C   UNL     1     -10.690   7.117  68.580  1.00  0.00    -0.198 C  
BRANCH  20  21
HETATM   21  C   UNL     1     -11.124   6.170  69.702  1.00  0.00    -0.489 C  
BRANCH  21  22
HETATM   22  C   UNL     1     -11.874   6.924  70.802  1.00  0.00    -0.427 C  
BRANCH  22  23
HETATM   23  C   UNL     1     -11.459   6.455  72.197  1.00  0.00    -0.344 C  
HETATM   24  C   UNL     1     -10.379   7.356  72.780  1.00  0.00    -0.306 C  
ENDBRANCH  22  23
ENDBRANCH  21  22
ENDBRANCH  20  21
ENDBRANCH  19  20
ENDBRANCH  17  19
ENDBRANCH  13  14
ENDBRANCH  12  13
BRANCH  12  25
HETATM   25  O   UNL     1     -11.799  11.248  68.032  1.00  0.00    -0.578 OA 
BRANCH  25  26
HETATM   26  C   UNL     1     -11.858  12.312  67.184  1.00  0.00    -0.258 C  
HETATM   27  O   UNL     1     -12.243  13.441  67.469  1.00  0.00    -0.311 OA 
BRANCH  26  28
HETATM   28  C   UNL     1     -11.354  11.929  65.795  1.00  0.00    -0.299 C  
BRANCH  28  29
HETATM   29  C   UNL     1      -9.927  11.360  65.839  1.00  0.00    -0.274 C  
HETATM   30  C   UNL     1      -9.689  10.474  63.427  1.00  0.00    -0.368 C  
HETATM   31  C   UNL     1      -8.234   9.610  65.249  1.00  0.00    -0.131 C  
HETATM   32  C   UNL     1      -9.628  10.153  64.922  1.00  0.00    -0.369 C  
ENDBRANCH  28  29
BRANCH  28  33
HETATM   33  N   UNL     1     -11.485  13.087  64.912  1.00  0.00    -0.306 N  
HETATM   34  C   UNL     1     -12.300  13.092  63.816  1.00  0.00    -0.397 C  
HETATM   35  O   UNL     1     -12.963  12.145  63.423  1.00  0.00    -0.776 OA 
HETATM   36  H   UNL     1     -10.945  13.927  65.124  1.00  0.00     0.000 HD 
ENDBRANCH  28  33
ENDBRANCH  26  28
ENDBRANCH  25  26
ENDBRANCH  12  25
ENDBRANCH  11  12
ENDBRANCH  10  11
ENDBRANCH   9  10
ENDBRANCH   8   9
ENDBRANCH   7   8
ENDBRANCH   6   7
ENDBRANCH   5   6
ENDBRANCH   4   5
ENDBRANCH   3   4
ENDBRANCH   2   3
TORSDOF 22
ENDMDL
MODEL       85
REMARK 921   NORMALIZED FREE ENERGY PREDICTED BY IDOCK:   -4.56 KCAL/MOL
REMARK 922        TOTAL FREE ENERGY PREDICTED BY IDOCK:  -14.03 KCAL/MOL
REMARK 923 INTER-LIGAND FREE ENERGY PREDICTED BY IDOCK:  -10.79 KCAL/MOL
REMARK 924 INTRA-LIGAND FREE ENERGY PREDICTED BY IDOCK:   -3.24 KCAL/MOL
REMARK 927      BINDING AFFINITY PREDICTED BY RF-SCORE:    0.00 PKD
ROOT
HETATM    1  C   UNL     1      -7.273  16.553  67.881  1.00  0.00    -0.153 C  
HETATM    2  C   UNL     1      -6.927  17.340  66.628  1.00  0.00    -0.272 C  
ENDROOT
BRANCH   2   3
HETATM    3  C   UNL     1      -6.812  18.830  66.937  1.00  0.00    -0.211 C  
BRANCH   3   4
HETATM    4  C   UNL     1      -7.828  19.652  66.150  1.00  0.00    -0.340 C  
BRANCH   4   5
HETATM    5  C   UNL     1      -8.831  20.322  67.091  1.00  0.00    -0.446 C  
BRANCH   5   6
HETATM    6  C   UNL     1     -10.177  19.613  67.030  1.00  0.00    -0.559 C  
BRANCH   6   7
HETATM    7  C   UNL     1     -10.307  18.514  68.086  1.00  0.00    -0.391 C  
BRANCH   7   8
HETATM    8  C   UNL     1     -10.713  17.220  67.392  1.00  0.00    -0.247 C  
BRANCH   8   9
HETATM    9  C   UNL     1     -10.553  17.253  65.875  1.00  0.00    -0.206 C  
BRANCH   9  10
HETATM   10  C   UNL     1     -10.546  15.809  65.362  1.00  0.00    -0.441 C  
BRANCH  10  11
HETATM   11  C   UNL     1     -11.264  14.824  66.272  1.00  0.00    -0.343 C  
BRANCH  11  12
HETATM   12  C   UNL     1     -10.424  13.651  66.808  1.00  0.00    -0.270 C  
BRANCH  12  13
HETATM   13  C   UNL     1     -10.500  13.429  68.335  1.00  0.00    -0.257 C  
BRANCH  13  14
HETATM   14  C   UNL     1     -11.907  13.120  68.861  1.00  0.00    -0.320 C  
HETATM   15  O   UNL     1     -12.510  14.258  69.540  1.00  0.00    -0.292 OA 
HETATM   16  O   UNL     1     -13.061  14.003  71.763  1.00  0.00    -0.333 OA 
HETATM   17  C   UNL     1     -11.982  12.303  70.181  1.00  0.00    -0.377 C  
HETATM   18  C   UNL     1     -12.611  13.602  70.717  1.00  0.00    -0.325 C  
BRANCH  17  19
HETATM   19  C   UNL     1     -12.902  11.091  70.281  1.00  0.00    -0.178 C  
BRANCH  19  20
HETATM   20  C   UNL     1     -12.884  10.519  71.695  1.00  0.00    -0.581 C  
BRANCH  20  21
HETATM   21  C   UNL     1     -12.523   9.031  71.692  1.00  0.00    -0.418 C  
BRANCH  21  22
HETATM   22  C   UNL     1     -11.016   8.828  71.865  1.00  0.00    -0.435 C  
BRANCH  22  23
HETATM   23  C   UNL     1     -10.559   7.475  71.320  1.00  0.00    -0.230 C  
HETATM   24  C   UNL     1     -11.728   6.697  70.730  1.00  0.00    -0.445 C  
ENDBRANCH  22  23
ENDBRANCH  21  22
ENDBRANCH  20  21
ENDBRANCH  19  20
ENDBRANCH  17  19
ENDBRANCH  13  14
ENDBRANCH  12  13
BRANCH  12  25
HETATM   25  O   UNL     1     -10.812  12.410  66.174  1.00  0.00    -0.259 OA 
BRANCH  25  26
HETATM   26  C   UNL     1     -10.170  12.067  65.023  1.00  0.00    -0.276 C  
HETATM   27  O   UNL     1     -10.257  12.650  63.948  1.00  0.00    -0.412 OA 
BRANCH  26  28
HETATM   28  C   UNL     1      -9.283  10.844  65.239  1.00  0.00    -0.210 C  
BRANCH  28  29
HETATM   29  C   UNL     1     -10.105   9.595  65.595  1.00  0.00    -0.231 C  
HETATM   30  C   UNL     1     -10.176   9.783  68.167  1.00  0.00    -0.220 C  
HETATM   31  C   UNL     1     -10.570   7.602  67.041  1.00  0.00    -0.406 C  
HETATM   32  C   UNL     1      -9.805   8.927  66.956  1.00  0.00    -0.277 C  
ENDBRANCH  28  29
BRANCH  28  33
HETATM   33  N   UNL     1      -8.269  11.170  66.241  1.00  0.00    -0.202 N  
HETATM   34  C   UNL     1      -6.958  10.809  66.109  1.00  0.00    -0.124 C  
HETATM   35  O   UNL     1      -6.494  10.150  65.192  1.00  0.00    -0.108 OA 
HETATM   36  H   UNL     1      -8.552  11.689  67.073  1.00  0.00     0.000 HD 
ENDBRANCH  28  33
ENDBRANCH  26  28
ENDBRANCH  25  26
ENDBRANCH  12  25
ENDBRANCH  11  12
ENDBRANCH  10  11
ENDBRANCH   9  10
ENDBRANCH   8   9
ENDBRANCH   7   8
ENDBRANCH   6   7
ENDBRANCH   5   6
ENDBRANCH   4   5
ENDBRANCH   3   4
ENDBRANCH   2   3
TORSDOF 22
ENDMDL
MODEL       86
REMARK 921   NORMALIZED FREE ENERGY PREDICTED BY IDOCK:   -4.55 KCAL/MOL
REMARK 922        TOTAL FREE ENERGY PREDICTED BY IDOCK:  -14.03 KCAL/MOL
REMARK 923 INTER-LIGAND FREE ENERGY PREDICTED BY IDOCK:   -8.81 KCAL/MOL
REMARK 924 INTRA-LIGAND FREE ENERGY PREDICTED BY IDOCK:   -5.22 KCAL/MOL
REMARK 927      BINDING AFFINITY PREDICTED BY RF-SCORE:    0.00 PKD
ROOT
HETATM    1  C   UNL     1      -8.086   7.875  73.409  1.00  0.00    -0.228 C  
HETATM    2  C   UNL     1      -7.288   7.371  72.218  1.00  0.00    -0.068 C  
ENDROOT
BRANCH   2   3
HETATM    3  C   UNL     1      -6.991   8.508  71.243  1.00  0.00    -0.075 C  
BRANCH   3   4
HETATM    4  C   UNL     1      -6.947   8.017  69.799  1.00  0.00    -0.052 C  
BRANCH   4   5
HETATM    5  C   UNL     1      -7.070   9.190  68.824  1.00  0.00    -0.073 C  
BRANCH   5   6
HETATM    6  C   UNL     1      -7.466  10.461  69.563  1.00  0.00    -0.148 C  
BRANCH   6   7
HETATM    7  C   UNL     1      -8.272  11.419  68.684  1.00  0.00    -0.142 C  
BRANCH   7   8
HETATM    8  C   UNL     1      -8.533  10.744  67.343  1.00  0.00    -0.119 C  
BRANCH   8   9
HETATM    9  C   UNL     1      -9.921  11.014  66.772  1.00  0.00    -0.240 C  
BRANCH   9  10
HETATM   10  C   UNL     1     -10.386  12.386  67.270  1.00  0.00    -0.227 C  
BRANCH  10  11
HETATM   11  C   UNL     1     -11.798  12.396  67.833  1.00  0.00    -0.370 C  
BRANCH  11  12
HETATM   12  C   UNL     1     -12.011  13.191  69.134  1.00  0.00    -0.281 C  
BRANCH  12  13
HETATM   13  C   UNL     1     -12.195  12.337  70.408  1.00  0.00    -0.371 C  
BRANCH  13  14
HETATM   14  C   UNL     1     -12.217  10.824  70.158  1.00  0.00    -0.346 C  
HETATM   15  O   UNL     1     -13.507  10.227  70.472  1.00  0.00    -0.175 OA 
HETATM   16  O   UNL     1     -13.562   8.618  72.122  1.00  0.00    -0.371 OA 
HETATM   17  C   UNL     1     -11.551   9.939  71.247  1.00  0.00    -0.456 C  
HETATM   18  C   UNL     1     -12.990   9.424  71.429  1.00  0.00    -0.346 C  
BRANCH  17  19
HETATM   19  C   UNL     1     -10.558   8.852  70.849  1.00  0.00    -0.295 C  
BRANCH  19  20
HETATM   20  C   UNL     1     -10.765   8.443  69.394  1.00  0.00    -0.162 C  
BRANCH  20  21
HETATM   21  C   UNL     1     -10.510   6.946  69.192  1.00  0.00    -0.224 C  
BRANCH  21  22
HETATM   22  C   UNL     1     -11.013   6.134  70.387  1.00  0.00    -0.404 C  
BRANCH  22  23
HETATM   23  C   UNL     1      -9.941   5.182  70.918  1.00  0.00    -0.280 C  
HETATM   24  C   UNL     1     -10.189   4.837  72.380  1.00  0.00    -0.252 C  
ENDBRANCH  22  23
ENDBRANCH  21  22
ENDBRANCH  20  21
ENDBRANCH  19  20
ENDBRANCH  17  19
ENDBRANCH  13  14
ENDBRANCH  12  13
BRANCH  12  25
HETATM   25  O   UNL     1     -10.901  14.087  69.374  1.00  0.00    -0.206 OA 
BRANCH  25  26
HETATM   26  C   UNL     1     -11.172  15.421  69.427  1.00  0.00    -0.296 C  
HETATM   27  O   UNL     1     -12.054  15.952  70.093  1.00  0.00    -0.344 OA 
BRANCH  26  28
HETATM   28  C   UNL     1     -10.204  16.208  68.548  1.00  0.00    -0.241 C  
BRANCH  28  29
HETATM   29  C   UNL     1      -8.759  15.707  68.694  1.00  0.00    -0.193 C  
HETATM   30  C   UNL     1      -7.724  16.576  66.496  1.00  0.00    -0.323 C  
HETATM   31  C   UNL     1      -6.668  14.704  67.746  1.00  0.00    -0.194 C  
HETATM   32  C   UNL     1      -8.002  15.367  67.390  1.00  0.00    -0.213 C  
ENDBRANCH  28  29
BRANCH  28  33
HETATM   33  N   UNL     1     -10.353  17.632  68.843  1.00  0.00    -0.358 N  
HETATM   34  C   UNL     1     -10.584  18.567  67.874  1.00  0.00    -0.348 C  
HETATM   35  O   UNL     1     -10.647  18.343  66.675  1.00  0.00    -0.382 OA 
HETATM   36  H   UNL     1     -10.281  17.941  69.813  1.00  0.00     0.000 HD 
ENDBRANCH  28  33
ENDBRANCH  26  28
ENDBRANCH  25  26
ENDBRANCH  12  25
ENDBRANCH  11  12
ENDBRANCH  10  11
ENDBRANCH   9  10
ENDBRANCH   8   9
ENDBRANCH   7   8
ENDBRANCH   6   7
ENDBRANCH   5   6
ENDBRANCH   4   5
ENDBRANCH   3   4
ENDBRANCH   2   3
TORSDOF 22
ENDMDL
MODEL       87
REMARK 921   NORMALIZED FREE ENERGY PREDICTED BY IDOCK:   -4.55 KCAL/MOL
REMARK 922        TOTAL FREE ENERGY PREDICTED BY IDOCK:  -14.03 KCAL/MOL
REMARK 923 INTER-LIGAND FREE ENERGY PREDICTED BY IDOCK:  -10.78 KCAL/MOL
REMARK 924 INTRA-LIGAND FREE ENERGY PREDICTED BY IDOCK:   -3.25 KCAL/MOL
REMARK 927      BINDING AFFINITY PREDICTED BY RF-SCORE:    0.00 PKD
ROOT
HETATM    1  C   UNL     1      -6.813   8.714  68.925  1.00  0.00    -0.061 C  
HETATM    2  C   UNL     1      -8.080   8.776  69.763  1.00  0.00    -0.111 C  
ENDROOT
BRANCH   2   3
HETATM    3  C   UNL     1      -8.495   7.382  70.223  1.00  0.00    -0.136 C  
BRANCH   3   4
HETATM    4  C   UNL     1      -9.209   6.610  69.117  1.00  0.00    -0.136 C  
BRANCH   4   5
HETATM    5  C   UNL     1     -10.588   7.211  68.840  1.00  0.00    -0.218 C  
BRANCH   5   6
HETATM    6  C   UNL     1     -10.714   7.606  67.374  1.00  0.00    -0.318 C  
BRANCH   6   7
HETATM    7  C   UNL     1      -9.452   7.281  66.572  1.00  0.00    -0.218 C  
BRANCH   7   8
HETATM    8  C   UNL     1      -8.924   8.572  65.957  1.00  0.00    -0.228 C  
BRANCH   8   9
HETATM    9  C   UNL     1      -9.999   9.624  65.705  1.00  0.00    -0.342 C  
BRANCH   9  10
HETATM   10  C   UNL     1      -9.306  10.974  65.489  1.00  0.00    -0.242 C  
BRANCH  10  11
HETATM   11  C   UNL     1      -8.638  11.535  66.735  1.00  0.00    -0.170 C  
BRANCH  11  12
HETATM   12  C   UNL     1      -9.462  12.541  67.558  1.00  0.00    -0.185 C  
BRANCH  12  13
HETATM   13  C   UNL     1     -10.621  13.224  66.799  1.00  0.00    -0.276 C  
BRANCH  13  14
HETATM   14  C   UNL     1     -10.537  14.754  66.760  1.00  0.00    -0.302 C  
HETATM   15  O   UNL     1     -11.660  15.356  66.054  1.00  0.00    -0.102 OA 
HETATM   16  O   UNL     1     -11.190  16.602  64.173  1.00  0.00    -1.103 OA 
HETATM   17  C   UNL     1      -9.563  15.361  65.711  1.00  0.00    -0.368 C  
HETATM   18  C   UNL     1     -10.868  15.917  65.113  1.00  0.00    -0.421 C  
BRANCH  17  19
HETATM   19  C   UNL     1      -8.570  16.442  66.124  1.00  0.00    -0.343 C  
BRANCH  19  20
HETATM   20  C   UNL     1      -8.542  16.593  67.642  1.00  0.00    -0.207 C  
BRANCH  20  21
HETATM   21  C   UNL     1      -8.962  18.002  68.072  1.00  0.00    -0.274 C  
BRANCH  21  22
HETATM   22  C   UNL     1     -10.478  18.181  67.968  1.00  0.00    -0.387 C  
BRANCH  22  23
HETATM   23  C   UNL     1     -10.849  19.514  67.319  1.00  0.00    -0.557 C  
HETATM   24  C   UNL     1     -10.726  19.440  65.803  1.00  0.00    -0.458 C  
ENDBRANCH  22  23
ENDBRANCH  21  22
ENDBRANCH  20  21
ENDBRANCH  19  20
ENDBRANCH  17  19
ENDBRANCH  13  14
ENDBRANCH  12  13
BRANCH  12  25
HETATM   25  O   UNL     1     -10.030  11.904  68.726  1.00  0.00    -0.184 OA 
BRANCH  25  26
HETATM   26  C   UNL     1     -11.386  11.926  68.856  1.00  0.00    -0.278 C  
HETATM   27  O   UNL     1     -12.196  11.519  68.030  1.00  0.00    -0.582 OA 
BRANCH  26  28
HETATM   28  C   UNL     1     -11.794  12.518  70.202  1.00  0.00    -0.258 C  
BRANCH  28  29
HETATM   29  C   UNL     1     -12.667  11.548  71.014  1.00  0.00    -0.426 C  
HETATM   30  C   UNL     1     -10.945   9.712  71.581  1.00  0.00    -0.149 C  
HETATM   31  C   UNL     1     -13.383   9.232  71.647  1.00  0.00    -0.461 C  
HETATM   32  C   UNL     1     -12.294  10.049  70.946  1.00  0.00    -0.438 C  
ENDBRANCH  28  29
BRANCH  28  33
HETATM   33  N   UNL     1     -12.433  13.813  69.972  1.00  0.00    -0.286 N  
HETATM   34  C   UNL     1     -11.748  14.993  70.018  1.00  0.00    -0.306 C  
HETATM   35  O   UNL     1     -10.564  15.114  70.294  1.00  0.00    -0.247 OA 
HETATM   36  H   UNL     1     -13.433  13.835  69.768  1.00  0.00     0.000 HD 
ENDBRANCH  28  33
ENDBRANCH  26  28
ENDBRANCH  25  26
ENDBRANCH  12  25
ENDBRANCH  11  12
ENDBRANCH  10  11
ENDBRANCH   9  10
ENDBRANCH   8   9
ENDBRANCH   7   8
ENDBRANCH   6   7
ENDBRANCH   5   6
ENDBRANCH   4   5
ENDBRANCH   3   4
ENDBRANCH   2   3
TORSDOF 22
ENDMDL
MODEL       88
REMARK 921   NORMALIZED FREE ENERGY PREDICTED BY IDOCK:   -4.55 KCAL/MOL
REMARK 922        TOTAL FREE ENERGY PREDICTED BY IDOCK:  -14.02 KCAL/MOL
REMARK 923 INTER-LIGAND FREE ENERGY PREDICTED BY IDOCK:  -10.06 KCAL/MOL
REMARK 924 INTRA-LIGAND FREE ENERGY PREDICTED BY IDOCK:   -3.96 KCAL/MOL
REMARK 927      BINDING AFFINITY PREDICTED BY RF-SCORE:    0.00 PKD
ROOT
HETATM    1  C   UNL     1     -11.379  16.104  64.591  1.00  0.00    -0.287 C  
HETATM    2  C   UNL     1     -12.343  14.958  64.333  1.00  0.00    -0.342 C  
ENDROOT
BRANCH   2   3
HETATM    3  C   UNL     1     -12.426  14.035  65.545  1.00  0.00    -0.533 C  
BRANCH   3   4
HETATM    4  C   UNL     1     -12.337  12.565  65.145  1.00  0.00    -0.496 C  
BRANCH   4   5
HETATM    5  C   UNL     1     -12.038  12.427  63.651  1.00  0.00    -0.648 C  
BRANCH   5   6
HETATM    6  C   UNL     1     -10.725  11.686  63.435  1.00  0.00    -0.460 C  
BRANCH   6   7
HETATM    7  C   UNL     1      -9.902  11.571  64.719  1.00  0.00    -0.286 C  
BRANCH   7   8
HETATM    8  C   UNL     1      -9.378  10.144  64.832  1.00  0.00    -0.310 C  
BRANCH   8   9
HETATM    9  C   UNL     1      -9.992   9.345  65.977  1.00  0.00    -0.352 C  
BRANCH   9  10
HETATM   10  C   UNL     1      -8.864   8.903  66.914  1.00  0.00    -0.141 C  
BRANCH  10  11
HETATM   11  C   UNL     1      -9.065   9.314  68.364  1.00  0.00    -0.128 C  
BRANCH  11  12
HETATM   12  C   UNL     1      -9.748  10.673  68.602  1.00  0.00    -0.178 C  
BRANCH  12  13
HETATM   13  C   UNL     1     -10.814  10.690  69.719  1.00  0.00    -0.317 C  
BRANCH  13  14
HETATM   14  C   UNL     1     -11.158   9.308  70.287  1.00  0.00    -0.251 C  
HETATM   15  O   UNL     1     -12.526   9.234  70.780  1.00  0.00    -0.191 OA 
HETATM   16  O   UNL     1     -12.828   8.764  73.017  1.00  0.00    -0.272 OA 
HETATM   17  C   UNL     1     -10.634   9.004  71.718  1.00  0.00    -0.426 C  
HETATM   18  C   UNL     1     -12.138   8.959  72.045  1.00  0.00    -0.371 C  
BRANCH  17  19
HETATM   19  C   UNL     1      -9.907   7.695  72.006  1.00  0.00    -0.211 C  
BRANCH  19  20
HETATM   20  C   UNL     1     -10.442   6.577  71.116  1.00  0.00    -0.257 C  
BRANCH  20  21
HETATM   21  C   UNL     1      -9.303   5.801  70.448  1.00  0.00    -0.186 C  
BRANCH  21  22
HETATM   22  C   UNL     1      -9.596   5.558  68.966  1.00  0.00    -0.180 C  
BRANCH  22  23
HETATM   23  C   UNL     1     -10.951   6.133  68.553  1.00  0.00    -0.404 C  
HETATM   24  C   UNL     1     -11.108   6.134  67.038  1.00  0.00    -0.332 C  
ENDBRANCH  22  23
ENDBRANCH  21  22
ENDBRANCH  20  21
ENDBRANCH  19  20
ENDBRANCH  17  19
ENDBRANCH  13  14
ENDBRANCH  12  13
BRANCH  12  25
HETATM   25  O   UNL     1      -8.769  11.688  68.926  1.00  0.00    -0.059 OA 
BRANCH  25  26
HETATM   26  C   UNL     1      -8.374  12.520  67.923  1.00  0.00    -0.167 C  
HETATM   27  O   UNL     1      -7.368  12.390  67.233  1.00  0.00    -0.143 OA 
BRANCH  26  28
HETATM   28  C   UNL     1      -9.371  13.660  67.736  1.00  0.00    -0.218 C  
BRANCH  28  29
HETATM   29  C   UNL     1      -8.826  14.752  66.802  1.00  0.00    -0.281 C  
HETATM   30  C   UNL     1      -7.026  15.821  68.311  1.00  0.00    -0.120 C  
HETATM   31  C   UNL     1      -7.978  17.073  66.385  1.00  0.00    -0.342 C  
HETATM   32  C   UNL     1      -8.286  16.037  67.470  1.00  0.00    -0.177 C  
ENDBRANCH  28  29
BRANCH  28  33
HETATM   33  N   UNL     1      -9.755  14.168  69.052  1.00  0.00    -0.411 N  
HETATM   34  C   UNL     1     -11.058  14.327  69.431  1.00  0.00    -0.246 C  
HETATM   35  O   UNL     1     -12.031  14.116  68.724  1.00  0.00    -0.334 OA 
HETATM   36  H   UNL     1      -9.020  14.414  69.716  1.00  0.00     0.000 HD 
ENDBRANCH  28  33
ENDBRANCH  26  28
ENDBRANCH  25  26
ENDBRANCH  12  25
ENDBRANCH  11  12
ENDBRANCH  10  11
ENDBRANCH   9  10
ENDBRANCH   8   9
ENDBRANCH   7   8
ENDBRANCH   6   7
ENDBRANCH   5   6
ENDBRANCH   4   5
ENDBRANCH   3   4
ENDBRANCH   2   3
TORSDOF 22
ENDMDL
MODEL       89
REMARK 921   NORMALIZED FREE ENERGY PREDICTED BY IDOCK:   -4.55 KCAL/MOL
REMARK 922        TOTAL FREE ENERGY PREDICTED BY IDOCK:  -14.01 KCAL/MOL
REMARK 923 INTER-LIGAND FREE ENERGY PREDICTED BY IDOCK:   -9.94 KCAL/MOL
REMARK 924 INTRA-LIGAND FREE ENERGY PREDICTED BY IDOCK:   -4.07 KCAL/MOL
REMARK 927      BINDING AFFINITY PREDICTED BY RF-SCORE:    0.00 PKD
ROOT
HETATM    1  C   UNL     1     -13.146  11.162  71.841  1.00  0.00    -0.513 C  
HETATM    2  C   UNL     1     -13.521   9.853  71.165  1.00  0.00    -0.308 C  
ENDROOT
BRANCH   2   3
HETATM    3  C   UNL     1     -13.906   8.799  72.200  1.00  0.00    -0.513 C  
BRANCH   3   4
HETATM    4  C   UNL     1     -13.940   7.399  71.595  1.00  0.00    -0.523 C  
BRANCH   4   5
HETATM    5  C   UNL     1     -12.566   7.011  71.047  1.00  0.00    -0.338 C  
BRANCH   5   6
HETATM    6  C   UNL     1     -11.757   6.272  72.104  1.00  0.00    -0.368 C  
BRANCH   6   7
HETATM    7  C   UNL     1     -10.309   6.759  72.177  1.00  0.00    -0.221 C  
BRANCH   7   8
HETATM    8  C   UNL     1     -10.306   8.282  72.107  1.00  0.00    -0.370 C  
BRANCH   8   9
HETATM    9  C   UNL     1      -9.303   8.855  71.111  1.00  0.00    -0.326 C  
BRANCH   9  10
HETATM   10  C   UNL     1     -10.036   9.863  70.219  1.00  0.00    -0.295 C  
BRANCH  10  11
HETATM   11  C   UNL     1     -10.504   9.290  68.890  1.00  0.00    -0.235 C  
BRANCH  11  12
HETATM   12  C   UNL     1      -9.873   9.897  67.624  1.00  0.00    -0.163 C  
BRANCH  12  13
HETATM   13  C   UNL     1      -9.789   8.948  66.408  1.00  0.00    -0.353 C  
BRANCH  13  14
HETATM   14  C   UNL     1      -8.375   8.445  66.095  1.00  0.00    -0.125 C  
HETATM   15  O   UNL     1      -7.621   9.379  65.271  1.00  0.00    -0.103 OA 
HETATM   16  O   UNL     1      -6.910   8.644  63.205  1.00  0.00    -0.089 OA 
HETATM   17  C   UNL     1      -8.260   7.375  64.973  1.00  0.00    -0.101 C  
HETATM   18  C   UNL     1      -7.479   8.494  64.260  1.00  0.00    -0.111 C  
BRANCH  17  19
HETATM   19  C   UNL     1      -7.442   6.109  65.203  1.00  0.00    -0.085 C  
BRANCH  19  20
HETATM   20  C   UNL     1      -8.294   4.867  64.955  1.00  0.00    -0.138 C  
BRANCH  20  21
HETATM   21  C   UNL     1      -8.938   4.363  66.249  1.00  0.00    -0.120 C  
BRANCH  21  22
HETATM   22  C   UNL     1     -10.387   4.840  66.367  1.00  0.00    -0.312 C  
BRANCH  22  23
HETATM   23  C   UNL     1     -10.587   5.759  67.572  1.00  0.00    -0.327 C  
HETATM   24  C   UNL     1      -9.493   5.548  68.610  1.00  0.00    -0.160 C  
ENDBRANCH  22  23
ENDBRANCH  21  22
ENDBRANCH  20  21
ENDBRANCH  19  20
ENDBRANCH  17  19
ENDBRANCH  13  14
ENDBRANCH  12  13
BRANCH  12  25
HETATM   25  O   UNL     1     -10.602  11.073  67.202  1.00  0.00    -0.223 OA 
BRANCH  25  26
HETATM   26  C   UNL     1      -9.886  12.213  66.994  1.00  0.00    -0.203 C  
HETATM   27  O   UNL     1      -8.727  12.410  67.342  1.00  0.00    -0.166 OA 
BRANCH  26  28
HETATM   28  C   UNL     1     -10.716  13.245  66.236  1.00  0.00    -0.286 C  
BRANCH  28  29
HETATM   29  C   UNL     1     -11.847  12.590  65.427  1.00  0.00    -0.479 C  
HETATM   30  C   UNL     1     -10.485  11.250  63.693  1.00  0.00    -0.464 C  
HETATM   31  C   UNL     1     -12.860  11.845  63.260  1.00  0.00    -0.303 C  
HETATM   32  C   UNL     1     -11.564  12.306  63.934  1.00  0.00    -0.525 C  
ENDBRANCH  28  29
BRANCH  28  33
HETATM   33  N   UNL     1      -9.818  14.058  65.416  1.00  0.00    -0.551 N  
HETATM   34  C   UNL     1     -10.005  15.397  65.221  1.00  0.00    -0.270 C  
HETATM   35  O   UNL     1     -10.941  16.051  65.655  1.00  0.00    -0.272 OA 
HETATM   36  H   UNL     1      -9.019  13.606  64.970  1.00  0.00     0.000 HD 
ENDBRANCH  28  33
ENDBRANCH  26  28
ENDBRANCH  25  26
ENDBRANCH  12  25
ENDBRANCH  11  12
ENDBRANCH  10  11
ENDBRANCH   9  10
ENDBRANCH   8   9
ENDBRANCH   7   8
ENDBRANCH   6   7
ENDBRANCH   5   6
ENDBRANCH   4   5
ENDBRANCH   3   4
ENDBRANCH   2   3
TORSDOF 22
ENDMDL
MODEL       90
REMARK 921   NORMALIZED FREE ENERGY PREDICTED BY IDOCK:   -4.55 KCAL/MOL
REMARK 922        TOTAL FREE ENERGY PREDICTED BY IDOCK:  -14.01 KCAL/MOL
REMARK 923 INTER-LIGAND FREE ENERGY PREDICTED BY IDOCK:  -11.26 KCAL/MOL
REMARK 924 INTRA-LIGAND FREE ENERGY PREDICTED BY IDOCK:   -2.75 KCAL/MOL
REMARK 927      BINDING AFFINITY PREDICTED BY RF-SCORE:    0.00 PKD
ROOT
HETATM    1  C   UNL     1      -9.819   4.890  69.903  1.00  0.00    -0.295 C  
HETATM    2  C   UNL     1     -10.850   5.997  70.053  1.00  0.00    -0.429 C  
ENDROOT
BRANCH   2   3
HETATM    3  C   UNL     1     -11.345   6.087  71.493  1.00  0.00    -0.309 C  
BRANCH   3   4
HETATM    4  C   UNL     1     -12.529   7.039  71.626  1.00  0.00    -0.413 C  
BRANCH   4   5
HETATM    5  C   UNL     1     -12.056   8.446  71.994  1.00  0.00    -0.417 C  
BRANCH   5   6
HETATM    6  C   UNL     1     -13.245   9.349  72.295  1.00  0.00    -0.528 C  
BRANCH   6   7
HETATM    7  C   UNL     1     -13.084  10.746  71.693  1.00  0.00    -0.551 C  
BRANCH   7   8
HETATM    8  C   UNL     1     -11.811  10.769  70.855  1.00  0.00    -0.400 C  
BRANCH   8   9
HETATM    9  C   UNL     1     -11.932  11.574  69.565  1.00  0.00    -0.402 C  
BRANCH   9  10
HETATM   10  C   UNL     1     -11.560  10.661  68.393  1.00  0.00    -0.269 C  
BRANCH  10  11
HETATM   11  C   UNL     1     -10.733  11.342  67.314  1.00  0.00    -0.283 C  
BRANCH  11  12
HETATM   12  C   UNL     1     -10.960  10.859  65.870  1.00  0.00     0.016 C  
BRANCH  12  13
HETATM   13  C   UNL     1     -11.154  11.977  64.822  1.00  0.00    -0.369 C  
BRANCH  13  14
HETATM   14  C   UNL     1     -11.958  13.182  65.325  1.00  0.00    -0.398 C  
HETATM   15  O   UNL     1     -12.636  13.888  64.246  1.00  0.00    -0.664 OA 
HETATM   16  O   UNL     1     -12.066  16.093  63.893  1.00  0.00    -0.956 OA 
HETATM   17  C   UNL     1     -11.142  14.466  65.642  1.00  0.00    -0.321 C  
HETATM   18  C   UNL     1     -11.965  15.039  64.474  1.00  0.00    -0.371 C  
BRANCH  17  19
HETATM   19  C   UNL     1     -11.356  15.204  66.960  1.00  0.00    -0.277 C  
BRANCH  19  20
HETATM   20  C   UNL     1     -10.272  16.258  67.166  1.00  0.00    -0.276 C  
BRANCH  20  21
HETATM   21  C   UNL     1     -10.566  17.130  68.390  1.00  0.00    -0.371 C  
BRANCH  21  22
HETATM   22  C   UNL     1     -10.190  18.590  68.130  1.00  0.00    -0.412 C  
BRANCH  22  23
HETATM   23  C   UNL     1     -10.659  19.061  66.753  1.00  0.00    -0.508 C  
HETATM   24  C   UNL     1      -9.535  19.756  65.998  1.00  0.00    -0.393 C  
ENDBRANCH  22  23
ENDBRANCH  21  22
ENDBRANCH  20  21
ENDBRANCH  19  20
ENDBRANCH  17  19
ENDBRANCH  13  14
ENDBRANCH  12  13
BRANCH  12  25
HETATM   25  O   UNL     1      -9.854  10.039  65.424  1.00  0.00    -0.281 OA 
BRANCH  25  26
HETATM   26  C   UNL     1      -8.660  10.198  66.059  1.00  0.00    -0.141 C  
HETATM   27  O   UNL     1      -7.879  11.130  65.902  1.00  0.00    -0.091 OA 
BRANCH  26  28
HETATM   28  C   UNL     1      -8.407   9.054  67.036  1.00  0.00    -0.116 C  
BRANCH  28  29
HETATM   29  C   UNL     1      -7.317   9.406  68.062  1.00  0.00    -0.079 C  
HETATM   30  C   UNL     1      -8.671   9.299  70.256  1.00  0.00    -0.246 C  
HETATM   31  C   UNL     1      -6.541  10.575  70.137  1.00  0.00    -0.149 C  
HETATM   32  C   UNL     1      -7.776  10.138  69.343  1.00  0.00    -0.138 C  
ENDBRANCH  28  29
BRANCH  28  33
HETATM   33  N   UNL     1      -8.110   7.842  66.274  1.00  0.00    -0.109 N  
HETATM   34  C   UNL     1      -9.014   6.830  66.115  1.00  0.00    -0.136 C  
HETATM   35  O   UNL     1     -10.129   6.793  66.611  1.00  0.00    -0.185 OA 
HETATM   36  H   UNL     1      -7.190   7.748  65.844  1.00  0.00     0.000 HD 
ENDBRANCH  28  33
ENDBRANCH  26  28
ENDBRANCH  25  26
ENDBRANCH  12  25
ENDBRANCH  11  12
ENDBRANCH  10  11
ENDBRANCH   9  10
ENDBRANCH   8   9
ENDBRANCH   7   8
ENDBRANCH   6   7
ENDBRANCH   5   6
ENDBRANCH   4   5
ENDBRANCH   3   4
ENDBRANCH   2   3
TORSDOF 22
ENDMDL
MODEL       91
REMARK 921   NORMALIZED FREE ENERGY PREDICTED BY IDOCK:   -4.54 KCAL/MOL
REMARK 922        TOTAL FREE ENERGY PREDICTED BY IDOCK:  -14.00 KCAL/MOL
REMARK 923 INTER-LIGAND FREE ENERGY PREDICTED BY IDOCK:  -10.68 KCAL/MOL
REMARK 924 INTRA-LIGAND FREE ENERGY PREDICTED BY IDOCK:   -3.32 KCAL/MOL
REMARK 927      BINDING AFFINITY PREDICTED BY RF-SCORE:    0.00 PKD
ROOT
HETATM    1  C   UNL     1     -10.093  18.827  68.356  1.00  0.00    -0.443 C  
HETATM    2  C   UNL     1     -10.538  17.504  67.754  1.00  0.00    -0.375 C  
ENDROOT
BRANCH   2   3
HETATM    3  C   UNL     1     -10.032  17.363  66.321  1.00  0.00    -0.306 C  
BRANCH   3   4
HETATM    4  C   UNL     1      -9.765  15.905  65.957  1.00  0.00    -0.375 C  
BRANCH   4   5
HETATM    5  C   UNL     1     -10.802  15.399  64.951  1.00  0.00    -0.445 C  
BRANCH   5   6
HETATM    6  C   UNL     1     -10.625  13.906  64.708  1.00  0.00    -0.444 C  
BRANCH   6   7
HETATM    7  C   UNL     1     -11.818  13.289  63.975  1.00  0.00    -0.512 C  
BRANCH   7   8
HETATM    8  C   UNL     1     -11.493  11.834  63.659  1.00  0.00    -0.524 C  
BRANCH   8   9
HETATM    9  C   UNL     1     -10.013  11.572  63.395  1.00  0.00    -0.445 C  
BRANCH   9  10
HETATM   10  C   UNL     1      -9.614  10.291  64.134  1.00  0.00    -0.376 C  
BRANCH  10  11
HETATM   11  C   UNL     1     -10.317  10.101  65.469  1.00  0.00    -0.196 C  
BRANCH  11  12
HETATM   12  C   UNL     1      -9.552   9.296  66.536  1.00  0.00    -0.224 C  
BRANCH  12  13
HETATM   13  C   UNL     1      -9.567   7.764  66.344  1.00  0.00    -0.235 C  
BRANCH  13  14
HETATM   14  C   UNL     1      -9.411   6.962  67.641  1.00  0.00    -0.121 C  
HETATM   15  O   UNL     1      -8.643   5.739  67.451  1.00  0.00    -0.108 OA 
HETATM   16  O   UNL     1      -9.698   3.739  67.901  1.00  0.00    -0.162 OA 
HETATM   17  C   UNL     1     -10.639   6.114  68.076  1.00  0.00    -0.334 C  
HETATM   18  C   UNL     1      -9.670   4.944  67.826  1.00  0.00    -0.157 C  
BRANCH  17  19
HETATM   19  C   UNL     1     -11.152   6.187  69.510  1.00  0.00    -0.490 C  
BRANCH  19  20
HETATM   20  C   UNL     1     -10.582   7.411  70.222  1.00  0.00    -0.241 C  
BRANCH  20  21
HETATM   21  C   UNL     1     -11.577   7.983  71.235  1.00  0.00    -0.306 C  
BRANCH  21  22
HETATM   22  C   UNL     1     -12.710   6.994  71.515  1.00  0.00    -0.425 C  
BRANCH  22  23
HETATM   23  C   UNL     1     -14.051   7.704  71.702  1.00  0.00    -0.547 C  
HETATM   24  C   UNL     1     -13.858   9.091  72.300  1.00  0.00    -0.547 C  
ENDBRANCH  22  23
ENDBRANCH  21  22
ENDBRANCH  20  21
ENDBRANCH  19  20
ENDBRANCH  17  19
ENDBRANCH  13  14
ENDBRANCH  12  13
BRANCH  12  25
HETATM   25  O   UNL     1      -8.166   9.708  66.593  1.00  0.00    -0.118 OA 
BRANCH  25  26
HETATM   26  C   UNL     1      -7.897  10.932  67.126  1.00  0.00    -0.127 C  
HETATM   27  O   UNL     1      -7.151  11.779  66.647  1.00  0.00    -0.090 OA 
BRANCH  26  28
HETATM   28  C   UNL     1      -8.675  11.144  68.422  1.00  0.00    -0.157 C  
BRANCH  28  29
HETATM   29  C   UNL     1      -9.578  12.385  68.353  1.00  0.00    -0.180 C  
HETATM   30  C   UNL     1     -11.619  11.570  69.705  1.00  0.00    -0.401 C  
HETATM   31  C   UNL     1     -11.827  13.463  68.107  1.00  0.00    -0.396 C  
HETATM   32  C   UNL     1     -11.104  12.141  68.383  1.00  0.00    -0.289 C  
ENDBRANCH  28  29
BRANCH  28  33
HETATM   33  N   UNL     1      -7.729  11.180  69.537  1.00  0.00    -0.373 N  
HETATM   34  C   UNL     1      -7.198  10.051  70.091  1.00  0.00    -0.161 C  
HETATM   35  O   UNL     1      -7.472   8.906  69.767  1.00  0.00    -0.054 OA 
HETATM   36  H   UNL     1      -7.455  12.087  69.916  1.00  0.00     0.000 HD 
ENDBRANCH  28  33
ENDBRANCH  26  28
ENDBRANCH  25  26
ENDBRANCH  12  25
ENDBRANCH  11  12
ENDBRANCH  10  11
ENDBRANCH   9  10
ENDBRANCH   8   9
ENDBRANCH   7   8
ENDBRANCH   6   7
ENDBRANCH   5   6
ENDBRANCH   4   5
ENDBRANCH   3   4
ENDBRANCH   2   3
TORSDOF 22
ENDMDL
MODEL       92
REMARK 921   NORMALIZED FREE ENERGY PREDICTED BY IDOCK:   -4.54 KCAL/MOL
REMARK 922        TOTAL FREE ENERGY PREDICTED BY IDOCK:  -13.99 KCAL/MOL
REMARK 923 INTER-LIGAND FREE ENERGY PREDICTED BY IDOCK:  -10.65 KCAL/MOL
REMARK 924 INTRA-LIGAND FREE ENERGY PREDICTED BY IDOCK:   -3.34 KCAL/MOL
REMARK 927      BINDING AFFINITY PREDICTED BY RF-SCORE:    0.00 PKD
ROOT
HETATM    1  C   UNL     1      -9.972  11.107  63.724  1.00  0.00    -0.401 C  
HETATM    2  C   UNL     1      -9.199   9.799  63.692  1.00  0.00    -0.229 C  
ENDROOT
BRANCH   2   3
HETATM    3  C   UNL     1      -7.839   9.955  64.366  1.00  0.00    -0.142 C  
BRANCH   3   4
HETATM    4  C   UNL     1      -6.792   9.033  63.750  1.00  0.00    -0.088 C  
BRANCH   4   5
HETATM    5  C   UNL     1      -7.165   7.565  63.970  1.00  0.00    -0.077 C  
BRANCH   5   6
HETATM    6  C   UNL     1      -6.361   6.976  65.121  1.00  0.00    -0.037 C  
BRANCH   6   7
HETATM    7  C   UNL     1      -7.238   6.622  66.324  1.00  0.00    -0.072 C  
BRANCH   7   8
HETATM    8  C   UNL     1      -8.699   6.676  65.890  1.00  0.00    -0.147 C  
BRANCH   8   9
HETATM    9  C   UNL     1      -9.546   7.663  66.687  1.00  0.00    -0.271 C  
BRANCH   9  10
HETATM   10  C   UNL     1      -8.850   7.921  68.026  1.00  0.00    -0.124 C  
BRANCH  10  11
HETATM   11  C   UNL     1      -8.899   9.371  68.482  1.00  0.00    -0.128 C  
BRANCH  11  12
HETATM   12  C   UNL     1     -10.292   9.935  68.819  1.00  0.00    -0.203 C  
BRANCH  12  13
HETATM   13  C   UNL     1     -11.033  10.611  67.645  1.00  0.00    -0.370 C  
BRANCH  13  14
HETATM   14  C   UNL     1     -11.919  11.794  68.053  1.00  0.00    -0.125 C  
HETATM   15  O   UNL     1     -12.202  12.688  66.938  1.00  0.00    -0.489 OA 
HETATM   16  O   UNL     1     -11.487  14.871  67.116  1.00  0.00    -0.352 OA 
HETATM   17  C   UNL     1     -11.208  12.959  68.796  1.00  0.00    -0.323 C  
HETATM   18  C   UNL     1     -11.605  13.744  67.533  1.00  0.00    -0.354 C  
BRANCH  17  19
HETATM   19  C   UNL     1     -11.805  13.525  70.081  1.00  0.00    -0.348 C  
BRANCH  19  20
HETATM   20  C   UNL     1     -12.552  12.439  70.849  1.00  0.00    -0.337 C  
BRANCH  20  21
HETATM   21  C   UNL     1     -13.395  13.034  71.981  1.00  0.00    -0.588 C  
BRANCH  21  22
HETATM   22  C   UNL     1     -13.705  14.510  71.721  1.00  0.00    -0.501 C  
BRANCH  22  23
HETATM   23  C   UNL     1     -13.481  15.365  72.968  1.00  0.00    -0.604 C  
HETATM   24  C   UNL     1     -12.099  16.004  72.956  1.00  0.00    -0.628 C  
ENDBRANCH  22  23
ENDBRANCH  21  22
ENDBRANCH  20  21
ENDBRANCH  19  20
ENDBRANCH  17  19
ENDBRANCH  13  14
ENDBRANCH  12  13
BRANCH  12  25
HETATM   25  O   UNL     1     -11.156   8.893  69.330  1.00  0.00    -0.114 OA 
BRANCH  25  26
HETATM   26  C   UNL     1     -11.153   8.680  70.675  1.00  0.00    -0.249 C  
HETATM   27  O   UNL     1     -10.663   9.420  71.521  1.00  0.00    -0.346 OA 
BRANCH  26  28
HETATM   28  C   UNL     1     -11.874   7.381  71.021  1.00  0.00    -0.307 C  
BRANCH  28  29
HETATM   29  C   UNL     1     -11.407   6.212  70.139  1.00  0.00    -0.433 C  
HETATM   30  C   UNL     1     -10.161   4.767  71.875  1.00  0.00    -0.264 C  
HETATM   31  C   UNL     1      -9.689   4.524  69.446  1.00  0.00    -0.272 C  
HETATM   32  C   UNL     1     -10.088   5.516  70.544  1.00  0.00    -0.293 C  
ENDBRANCH  28  29
BRANCH  28  33
HETATM   33  N   UNL     1     -13.316   7.611  70.955  1.00  0.00    -0.583 N  
HETATM   34  C   UNL     1     -13.978   8.412  71.842  1.00  0.00    -0.421 C  
HETATM   35  O   UNL     1     -13.471   8.980  72.797  1.00  0.00    -0.428 OA 
HETATM   36  H   UNL     1     -13.851   7.154  70.216  1.00  0.00     0.000 HD 
ENDBRANCH  28  33
ENDBRANCH  26  28
ENDBRANCH  25  26
ENDBRANCH  12  25
ENDBRANCH  11  12
ENDBRANCH  10  11
ENDBRANCH   9  10
ENDBRANCH   8   9
ENDBRANCH   7   8
ENDBRANCH   6   7
ENDBRANCH   5   6
ENDBRANCH   4   5
ENDBRANCH   3   4
ENDBRANCH   2   3
TORSDOF 22
ENDMDL
MODEL       93
REMARK 921   NORMALIZED FREE ENERGY PREDICTED BY IDOCK:   -4.53 KCAL/MOL
REMARK 922        TOTAL FREE ENERGY PREDICTED BY IDOCK:  -13.98 KCAL/MOL
REMARK 923 INTER-LIGAND FREE ENERGY PREDICTED BY IDOCK:  -11.55 KCAL/MOL
REMARK 924 INTRA-LIGAND FREE ENERGY PREDICTED BY IDOCK:   -2.44 KCAL/MOL
REMARK 927      BINDING AFFINITY PREDICTED BY RF-SCORE:    0.00 PKD
ROOT
HETATM    1  C   UNL     1     -10.525   5.633  70.360  1.00  0.00    -0.355 C  
HETATM    2  C   UNL     1     -11.361   6.453  69.392  1.00  0.00    -0.443 C  
ENDROOT
BRANCH   2   3
HETATM    3  C   UNL     1     -11.003   6.116  67.947  1.00  0.00    -0.399 C  
BRANCH   3   4
HETATM    4  C   UNL     1     -10.094   4.895  67.858  1.00  0.00    -0.146 C  
BRANCH   4   5
HETATM    5  C   UNL     1      -9.304   4.899  66.548  1.00  0.00    -0.142 C  
BRANCH   5   6
HETATM    6  C   UNL     1      -9.426   6.250  65.855  1.00  0.00     0.049 C  
BRANCH   6   7
HETATM    7  C   UNL     1      -8.121   6.683  65.186  1.00  0.00    -0.133 C  
BRANCH   7   8
HETATM    8  C   UNL     1      -7.821   8.121  65.594  1.00  0.00    -0.098 C  
BRANCH   8   9
HETATM    9  C   UNL     1      -8.348   9.166  64.617  1.00  0.00    -0.179 C  
BRANCH   9  10
HETATM   10  C   UNL     1      -8.938  10.325  65.427  1.00  0.00    -0.205 C  
BRANCH  10  11
HETATM   11  C   UNL     1     -10.359  10.697  65.033  1.00  0.00    -0.341 C  
BRANCH  11  12
HETATM   12  C   UNL     1     -11.019  11.829  65.841  1.00  0.00    -0.304 C  
BRANCH  12  13
HETATM   13  C   UNL     1     -12.263  12.469  65.187  1.00  0.00    -0.509 C  
BRANCH  13  14
HETATM   14  C   UNL     1     -12.501  13.932  65.577  1.00  0.00    -0.511 C  
HETATM   15  O   UNL     1     -12.862  14.761  64.436  1.00  0.00    -0.534 OA 
HETATM   16  O   UNL     1     -11.460  16.512  63.905  1.00  0.00    -1.145 OA 
HETATM   17  C   UNL     1     -11.230  14.800  65.795  1.00  0.00    -0.337 C  
HETATM   18  C   UNL     1     -11.779  15.559  64.573  1.00  0.00    -0.253 C  
BRANCH  17  19
HETATM   19  C   UNL     1     -11.097  15.665  67.043  1.00  0.00    -0.200 C  
BRANCH  19  20
HETATM   20  C   UNL     1      -9.627  15.903  67.377  1.00  0.00    -0.221 C  
BRANCH  20  21
HETATM   21  C   UNL     1      -9.297  17.398  67.413  1.00  0.00    -0.237 C  
BRANCH  21  22
HETATM   22  C   UNL     1     -10.523  18.243  67.063  1.00  0.00    -0.407 C  
BRANCH  22  23
HETATM   23  C   UNL     1     -10.153  19.450  66.201  1.00  0.00    -0.533 C  
HETATM   24  C   UNL     1      -8.781  19.992  66.575  1.00  0.00    -0.384 C  
ENDBRANCH  22  23
ENDBRANCH  21  22
ENDBRANCH  20  21
ENDBRANCH  19  20
ENDBRANCH  17  19
ENDBRANCH  13  14
ENDBRANCH  12  13
BRANCH  12  25
HETATM   25  O   UNL     1     -11.415  11.359  67.151  1.00  0.00    -0.450 OA 
BRANCH  25  26
HETATM   26  C   UNL     1     -10.597  11.657  68.198  1.00  0.00    -0.201 C  
HETATM   27  O   UNL     1      -9.985  12.708  68.359  1.00  0.00    -0.226 OA 
BRANCH  26  28
HETATM   28  C   UNL     1     -10.544  10.502  69.193  1.00  0.00    -0.229 C  
BRANCH  28  29
HETATM   29  C   UNL     1     -11.598  10.649  70.301  1.00  0.00    -0.424 C  
HETATM   30  C   UNL     1     -10.812   8.832  71.957  1.00  0.00    -0.428 C  
HETATM   31  C   UNL     1     -13.151   9.673  72.008  1.00  0.00    -0.537 C  
HETATM   32  C   UNL     1     -11.956   9.374  71.098  1.00  0.00    -0.413 C  
ENDBRANCH  28  29
BRANCH  28  33
HETATM   33  N   UNL     1      -9.180  10.387  69.707  1.00  0.00    -0.411 N  
HETATM   34  C   UNL     1      -8.358   9.342  69.395  1.00  0.00    -0.127 C  
HETATM   35  O   UNL     1      -8.665   8.381  68.707  1.00  0.00    -0.134 OA 
HETATM   36  H   UNL     1      -8.827  11.118  70.326  1.00  0.00     0.000 HD 
ENDBRANCH  28  33
ENDBRANCH  26  28
ENDBRANCH  25  26
ENDBRANCH  12  25
ENDBRANCH  11  12
ENDBRANCH  10  11
ENDBRANCH   9  10
ENDBRANCH   8   9
ENDBRANCH   7   8
ENDBRANCH   6   7
ENDBRANCH   5   6
ENDBRANCH   4   5
ENDBRANCH   3   4
ENDBRANCH   2   3
TORSDOF 22
ENDMDL
MODEL       94
REMARK 921   NORMALIZED FREE ENERGY PREDICTED BY IDOCK:   -4.53 KCAL/MOL
REMARK 922        TOTAL FREE ENERGY PREDICTED BY IDOCK:  -13.97 KCAL/MOL
REMARK 923 INTER-LIGAND FREE ENERGY PREDICTED BY IDOCK:  -10.38 KCAL/MOL
REMARK 924 INTRA-LIGAND FREE ENERGY PREDICTED BY IDOCK:   -3.59 KCAL/MOL
REMARK 927      BINDING AFFINITY PREDICTED BY RF-SCORE:    0.00 PKD
ROOT
HETATM    1  C   UNL     1     -11.222  12.418  63.603  1.00  0.00    -0.544 C  
HETATM    2  C   UNL     1     -11.035  13.406  64.742  1.00  0.00    -0.371 C  
ENDROOT
BRANCH   2   3
HETATM    3  C   UNL     1     -12.247  13.400  65.670  1.00  0.00    -0.510 C  
BRANCH   3   4
HETATM    4  C   UNL     1     -12.081  14.384  66.823  1.00  0.00    -0.393 C  
BRANCH   4   5
HETATM    5  C   UNL     1     -10.640  14.893  66.901  1.00  0.00    -0.300 C  
BRANCH   5   6
HETATM    6  C   UNL     1     -10.514  15.985  67.954  1.00  0.00    -0.292 C  
BRANCH   6   7
HETATM    7  C   UNL     1     -10.389  15.418  69.370  1.00  0.00    -0.258 C  
BRANCH   7   8
HETATM    8  C   UNL     1     -11.409  16.114  70.263  1.00  0.00    -0.363 C  
BRANCH   8   9
HETATM    9  C   UNL     1     -12.165  15.171  71.193  1.00  0.00    -0.392 C  
BRANCH   9  10
HETATM   10  C   UNL     1     -12.529  13.909  70.405  1.00  0.00    -0.404 C  
BRANCH  10  11
HETATM   11  C   UNL     1     -12.553  12.640  71.243  1.00  0.00    -0.339 C  
BRANCH  11  12
HETATM   12  C   UNL     1     -12.511  11.309  70.471  1.00  0.00    -0.310 C  
BRANCH  12  13
HETATM   13  C   UNL     1     -12.105  11.421  68.984  1.00  0.00    -0.316 C  
BRANCH  13  14
HETATM   14  C   UNL     1     -10.780  10.731  68.637  1.00  0.00    -0.208 C  
HETATM   15  O   UNL     1      -9.677  11.674  68.517  1.00  0.00    -0.195 OA 
HETATM   16  O   UNL     1      -8.612  11.814  66.478  1.00  0.00    -0.183 OA 
HETATM   17  C   UNL     1     -10.587  10.328  67.149  1.00  0.00    -0.320 C  
HETATM   18  C   UNL     1      -9.451  11.364  67.221  1.00  0.00    -0.167 C  
BRANCH  17  19
HETATM   19  C   UNL     1     -10.112   8.924  66.791  1.00  0.00    -0.350 C  
BRANCH  19  20
HETATM   20  C   UNL     1      -8.966   8.496  67.703  1.00  0.00    -0.141 C  
BRANCH  20  21
HETATM   21  C   UNL     1      -7.935   7.652  66.948  1.00  0.00    -0.115 C  
BRANCH  21  22
HETATM   22  C   UNL     1      -8.616   6.571  66.107  1.00  0.00    -0.146 C  
BRANCH  22  23
HETATM   23  C   UNL     1      -9.060   5.383  66.961  1.00  0.00    -0.112 C  
HETATM   24  C   UNL     1      -7.860   4.634  67.525  1.00  0.00    -0.090 C  
ENDBRANCH  22  23
ENDBRANCH  21  22
ENDBRANCH  20  21
ENDBRANCH  19  20
ENDBRANCH  17  19
ENDBRANCH  13  14
ENDBRANCH  12  13
BRANCH  12  25
HETATM   25  O   UNL     1     -11.596  10.381  71.097  1.00  0.00    -0.333 OA 
BRANCH  25  26
HETATM   26  C   UNL     1     -12.135   9.328  71.772  1.00  0.00    -0.387 C  
HETATM   27  O   UNL     1     -13.173   9.345  72.425  1.00  0.00    -0.434 OA 
BRANCH  26  28
HETATM   28  C   UNL     1     -11.281   8.076  71.598  1.00  0.00    -0.255 C  
BRANCH  28  29
HETATM   29  C   UNL     1      -9.850   8.280  72.121  1.00  0.00    -0.342 C  
HETATM   30  C   UNL     1      -9.581   6.190  73.611  1.00  0.00    -0.156 C  
HETATM   31  C   UNL     1      -8.139   8.186  73.949  1.00  0.00    -0.301 C  
HETATM   32  C   UNL     1      -9.534   7.716  73.526  1.00  0.00    -0.347 C  
ENDBRANCH  28  29
BRANCH  28  33
HETATM   33  N   UNL     1     -11.328   7.666  70.195  1.00  0.00    -0.445 N  
HETATM   34  C   UNL     1     -11.229   6.361  69.803  1.00  0.00    -0.419 C  
HETATM   35  O   UNL     1     -11.048   5.410  70.548  1.00  0.00    -0.139 OA 
HETATM   36  H   UNL     1     -11.439   8.384  69.479  1.00  0.00     0.000 HD 
ENDBRANCH  28  33
ENDBRANCH  26  28
ENDBRANCH  25  26
ENDBRANCH  12  25
ENDBRANCH  11  12
ENDBRANCH  10  11
ENDBRANCH   9  10
ENDBRANCH   8   9
ENDBRANCH   7   8
ENDBRANCH   6   7
ENDBRANCH   5   6
ENDBRANCH   4   5
ENDBRANCH   3   4
ENDBRANCH   2   3
TORSDOF 22
ENDMDL
MODEL       95
REMARK 921   NORMALIZED FREE ENERGY PREDICTED BY IDOCK:   -4.52 KCAL/MOL
REMARK 922        TOTAL FREE ENERGY PREDICTED BY IDOCK:  -13.96 KCAL/MOL
REMARK 923 INTER-LIGAND FREE ENERGY PREDICTED BY IDOCK:   -9.94 KCAL/MOL
REMARK 924 INTRA-LIGAND FREE ENERGY PREDICTED BY IDOCK:   -4.02 KCAL/MOL
REMARK 927      BINDING AFFINITY PREDICTED BY RF-SCORE:    0.00 PKD
ROOT
HETATM    1  C   UNL     1     -10.327  19.898  67.994  1.00  0.00    -0.547 C  
HETATM    2  C   UNL     1      -9.707  19.632  66.633  1.00  0.00    -0.494 C  
ENDROOT
BRANCH   2   3
HETATM    3  C   UNL     1      -8.389  18.875  66.775  1.00  0.00    -0.289 C  
BRANCH   3   4
HETATM    4  C   UNL     1      -8.078  18.550  68.233  1.00  0.00    -0.324 C  
BRANCH   4   5
HETATM    5  C   UNL     1      -8.094  17.038  68.467  1.00  0.00    -0.251 C  
BRANCH   5   6
HETATM    6  C   UNL     1      -6.834  16.598  69.201  1.00  0.00    -0.224 C  
BRANCH   6   7
HETATM    7  C   UNL     1      -6.655  15.079  69.193  1.00  0.00    -0.120 C  
BRANCH   7   8
HETATM    8  C   UNL     1      -7.944  14.442  68.688  1.00  0.00    -0.145 C  
BRANCH   8   9
HETATM    9  C   UNL     1      -7.727  13.215  67.809  1.00  0.00    -0.153 C  
BRANCH   9  10
HETATM   10  C   UNL     1      -7.062  12.127  68.658  1.00  0.00    -0.103 C  
BRANCH  10  11
HETATM   11  C   UNL     1      -7.001  10.765  67.985  1.00  0.00    -0.073 C  
BRANCH  11  12
HETATM   12  C   UNL     1      -8.324   9.983  67.901  1.00  0.00    -0.117 C  
BRANCH  12  13
HETATM   13  C   UNL     1      -8.692   9.456  66.496  1.00  0.00    -0.148 C  
BRANCH  13  14
HETATM   14  C   UNL     1     -10.043   9.954  65.968  1.00  0.00    -0.244 C  
HETATM   15  O   UNL     1     -10.057  10.094  64.519  1.00  0.00    -0.304 OA 
HETATM   16  O   UNL     1     -10.441  12.196  63.655  1.00  0.00    -0.393 OA 
HETATM   17  C   UNL     1     -10.315  11.478  66.109  1.00  0.00    -0.287 C  
HETATM   18  C   UNL     1     -10.301  11.422  64.571  1.00  0.00    -0.313 C  
BRANCH  17  19
HETATM   19  C   UNL     1     -11.637  11.969  66.691  1.00  0.00    -0.389 C  
BRANCH  19  20
HETATM   20  C   UNL     1     -11.461  12.383  68.149  1.00  0.00    -0.370 C  
BRANCH  20  21
HETATM   21  C   UNL     1     -11.831  13.853  68.362  1.00  0.00    -0.409 C  
BRANCH  21  22
HETATM   22  C   UNL     1     -11.972  14.586  67.026  1.00  0.00    -0.371 C  
BRANCH  22  23
HETATM   23  C   UNL     1     -10.917  15.681  66.865  1.00  0.00    -0.243 C  
HETATM   24  C   UNL     1     -10.043  15.425  65.645  1.00  0.00    -0.406 C  
ENDBRANCH  22  23
ENDBRANCH  21  22
ENDBRANCH  20  21
ENDBRANCH  19  20
ENDBRANCH  17  19
ENDBRANCH  13  14
ENDBRANCH  12  13
BRANCH  12  25
HETATM   25  O   UNL     1      -8.305   8.846  68.795  1.00  0.00    -0.120 OA 
BRANCH  25  26
HETATM   26  C   UNL     1      -8.667   9.060  70.090  1.00  0.00    -0.173 C  
HETATM   27  O   UNL     1      -7.934   9.465  70.986  1.00  0.00    -0.303 OA 
BRANCH  26  28
HETATM   28  C   UNL     1     -10.146   8.747  70.301  1.00  0.00    -0.191 C  
BRANCH  28  29
HETATM   29  C   UNL     1     -10.871   9.877  71.049  1.00  0.00    -0.300 C  
HETATM   30  C   UNL     1     -13.157   8.767  71.497  1.00  0.00    -0.358 C  
HETATM   31  C   UNL     1     -12.916  11.241  71.532  1.00  0.00    -0.520 C  
HETATM   32  C   UNL     1     -12.406   9.950  70.885  1.00  0.00    -0.403 C  
ENDBRANCH  28  29
BRANCH  28  33
HETATM   33  N   UNL     1     -10.262   7.450  70.965  1.00  0.00    -0.192 N  
HETATM   34  C   UNL     1     -10.828   6.361  70.366  1.00  0.00    -0.286 C  
HETATM   35  O   UNL     1     -11.334   6.349  69.254  1.00  0.00    -0.379 OA 
HETATM   36  H   UNL     1      -9.904   7.354  71.916  1.00  0.00     0.000 HD 
ENDBRANCH  28  33
ENDBRANCH  26  28
ENDBRANCH  25  26
ENDBRANCH  12  25
ENDBRANCH  11  12
ENDBRANCH  10  11
ENDBRANCH   9  10
ENDBRANCH   8   9
ENDBRANCH   7   8
ENDBRANCH   6   7
ENDBRANCH   5   6
ENDBRANCH   4   5
ENDBRANCH   3   4
ENDBRANCH   2   3
TORSDOF 22
ENDMDL
MODEL       96
REMARK 921   NORMALIZED FREE ENERGY PREDICTED BY IDOCK:   -4.52 KCAL/MOL
REMARK 922        TOTAL FREE ENERGY PREDICTED BY IDOCK:  -13.95 KCAL/MOL
REMARK 923 INTER-LIGAND FREE ENERGY PREDICTED BY IDOCK:  -11.15 KCAL/MOL
REMARK 924 INTRA-LIGAND FREE ENERGY PREDICTED BY IDOCK:   -2.81 KCAL/MOL
REMARK 927      BINDING AFFINITY PREDICTED BY RF-SCORE:    0.00 PKD
ROOT
HETATM    1  C   UNL     1      -9.747   4.163  70.236  1.00  0.00    -0.277 C  
HETATM    2  C   UNL     1      -9.951   5.669  70.194  1.00  0.00    -0.270 C  
ENDROOT
BRANCH   2   3
HETATM    3  C   UNL     1     -10.985   6.047  69.137  1.00  0.00    -0.429 C  
BRANCH   3   4
HETATM    4  C   UNL     1     -10.745   7.449  68.587  1.00  0.00    -0.134 C  
BRANCH   4   5
HETATM    5  C   UNL     1     -10.467   7.402  67.083  1.00  0.00    -0.403 C  
BRANCH   5   6
HETATM    6  C   UNL     1      -9.138   8.075  66.764  1.00  0.00    -0.189 C  
BRANCH   6   7
HETATM    7  C   UNL     1      -8.662   8.992  67.893  1.00  0.00    -0.129 C  
BRANCH   7   8
HETATM    8  C   UNL     1      -8.534  10.408  67.345  1.00  0.00    -0.121 C  
BRANCH   8   9
HETATM    9  C   UNL     1      -8.084  11.435  68.378  1.00  0.00    -0.145 C  
BRANCH   9  10
HETATM   10  C   UNL     1      -7.580  12.676  67.634  1.00  0.00    -0.152 C  
BRANCH  10  11
HETATM   11  C   UNL     1      -8.126  13.988  68.176  1.00  0.00    -0.151 C  
BRANCH  11  12
HETATM   12  C   UNL     1      -8.067  15.198  67.225  1.00  0.00    -0.201 C  
BRANCH  12  13
HETATM   13  C   UNL     1      -9.389  15.532  66.499  1.00  0.00    -0.311 C  
BRANCH  13  14
HETATM   14  C   UNL     1     -10.170  14.306  66.012  1.00  0.00    -0.315 C  
HETATM   15  O   UNL     1     -11.060  14.617  64.902  1.00  0.00    -0.366 OA 
HETATM   16  O   UNL     1     -13.318  14.282  65.220  1.00  0.00    -0.660 OA 
HETATM   17  C   UNL     1     -11.399  13.891  66.869  1.00  0.00    -0.343 C  
HETATM   18  C   UNL     1     -12.169  14.266  65.590  1.00  0.00    -0.400 C  
BRANCH  17  19
HETATM   19  C   UNL     1     -11.583  12.437  67.290  1.00  0.00    -0.435 C  
BRANCH  19  20
HETATM   20  C   UNL     1     -11.528  12.307  68.809  1.00  0.00    -0.360 C  
BRANCH  20  21
HETATM   21  C   UNL     1     -11.827  10.874  69.260  1.00  0.00    -0.395 C  
BRANCH  21  22
HETATM   22  C   UNL     1     -12.484  10.855  70.641  1.00  0.00    -0.460 C  
BRANCH  22  23
HETATM   23  C   UNL     1     -12.263   9.523  71.357  1.00  0.00    -0.455 C  
HETATM   24  C   UNL     1     -10.778   9.237  71.539  1.00  0.00    -0.425 C  
ENDBRANCH  22  23
ENDBRANCH  21  22
ENDBRANCH  20  21
ENDBRANCH  19  20
ENDBRANCH  17  19
ENDBRANCH  13  14
ENDBRANCH  12  13
BRANCH  12  25
HETATM   25  O   UNL     1      -7.655  16.388  67.936  1.00  0.00    -0.142 OA 
BRANCH  25  26
HETATM   26  C   UNL     1      -8.619  17.095  68.588  1.00  0.00    -0.260 C  
HETATM   27  O   UNL     1      -9.429  16.640  69.389  1.00  0.00    -0.173 OA 
BRANCH  26  28
HETATM   28  C   UNL     1      -8.561  18.572  68.211  1.00  0.00    -0.318 C  
BRANCH  28  29
HETATM   29  C   UNL     1      -7.715  19.385  69.204  1.00  0.00    -0.287 C  
HETATM   30  C   UNL     1      -6.568  21.054  67.604  1.00  0.00    -0.416 C  
HETATM   31  C   UNL     1      -5.602  20.571  69.843  1.00  0.00    -0.381 C  
HETATM   32  C   UNL     1      -6.388  19.974  68.672  1.00  0.00    -0.332 C  
ENDBRANCH  28  29
BRANCH  28  33
HETATM   33  N   UNL     1      -9.926  19.076  68.070  1.00  0.00    -0.348 N  
HETATM   34  C   UNL     1     -10.594  19.076  66.879  1.00  0.00    -0.436 C  
HETATM   35  O   UNL     1     -10.133  18.710  65.809  1.00  0.00    -0.529 OA 
HETATM   36  H   UNL     1     -10.399  19.443  68.896  1.00  0.00     0.000 HD 
ENDBRANCH  28  33
ENDBRANCH  26  28
ENDBRANCH  25  26
ENDBRANCH  12  25
ENDBRANCH  11  12
ENDBRANCH  10  11
ENDBRANCH   9  10
ENDBRANCH   8   9
ENDBRANCH   7   8
ENDBRANCH   6   7
ENDBRANCH   5   6
ENDBRANCH   4   5
ENDBRANCH   3   4
ENDBRANCH   2   3
TORSDOF 22
ENDMDL
MODEL       97
REMARK 921   NORMALIZED FREE ENERGY PREDICTED BY IDOCK:   -4.52 KCAL/MOL
REMARK 922        TOTAL FREE ENERGY PREDICTED BY IDOCK:  -13.95 KCAL/MOL
REMARK 923 INTER-LIGAND FREE ENERGY PREDICTED BY IDOCK:   -9.86 KCAL/MOL
REMARK 924 INTRA-LIGAND FREE ENERGY PREDICTED BY IDOCK:   -4.09 KCAL/MOL
REMARK 927      BINDING AFFINITY PREDICTED BY RF-SCORE:    0.00 PKD
ROOT
HETATM    1  C   UNL     1     -10.635   5.530  68.525  1.00  0.00    -0.208 C  
HETATM    2  C   UNL     1      -9.791   6.786  68.669  1.00  0.00    -0.142 C  
ENDROOT
BRANCH   2   3
HETATM    3  C   UNL     1      -9.084   6.811  70.022  1.00  0.00    -0.148 C  
BRANCH   3   4
HETATM    4  C   UNL     1      -7.704   7.454  69.927  1.00  0.00    -0.099 C  
BRANCH   4   5
HETATM    5  C   UNL     1      -7.758   8.738  69.097  1.00  0.00    -0.093 C  
BRANCH   5   6
HETATM    6  C   UNL     1      -7.422   9.947  69.959  1.00  0.00    -0.173 C  
BRANCH   6   7
HETATM    7  C   UNL     1      -7.008  11.161  69.126  1.00  0.00    -0.108 C  
BRANCH   7   8
HETATM    8  C   UNL     1      -7.322  10.874  67.662  1.00  0.00    -0.094 C  
BRANCH   8   9
HETATM    9  C   UNL     1      -7.405  12.122  66.789  1.00  0.00     0.079 C  
BRANCH   9  10
HETATM   10  C   UNL     1      -7.515  13.343  67.708  1.00  0.00    -0.160 C  
BRANCH  10  11
HETATM   11  C   UNL     1      -8.859  14.052  67.637  1.00  0.00    -0.190 C  
BRANCH  11  12
HETATM   12  C   UNL     1      -9.083  14.974  66.425  1.00  0.00    -0.277 C  
BRANCH  12  13
HETATM   13  C   UNL     1     -10.418  14.765  65.675  1.00  0.00    -0.365 C  
BRANCH  13  14
HETATM   14  C   UNL     1     -10.532  13.419  64.950  1.00  0.00    -0.390 C  
HETATM   15  O   UNL     1     -11.594  13.412  63.953  1.00  0.00    -0.392 OA 
HETATM   16  O   UNL     1     -13.313  11.903  64.238  1.00  0.00    -0.610 OA 
HETATM   17  C   UNL     1     -11.261  12.284  65.722  1.00  0.00    -0.378 C  
HETATM   18  C   UNL     1     -12.275  12.422  64.571  1.00  0.00    -0.431 C  
BRANCH  17  19
HETATM   19  C   UNL     1     -10.632  10.898  65.821  1.00  0.00    -0.230 C  
BRANCH  19  20
HETATM   20  C   UNL     1     -10.996  10.237  67.147  1.00  0.00    -0.233 C  
BRANCH  20  21
HETATM   21  C   UNL     1     -11.084  11.265  68.278  1.00  0.00    -0.297 C  
BRANCH  21  22
HETATM   22  C   UNL     1     -11.968  10.757  69.419  1.00  0.00    -0.353 C  
BRANCH  22  23
HETATM   23  C   UNL     1     -11.152  10.037  70.493  1.00  0.00    -0.400 C  
HETATM   24  C   UNL     1     -12.052   9.218  71.408  1.00  0.00    -0.424 C  
ENDBRANCH  22  23
ENDBRANCH  21  22
ENDBRANCH  20  21
ENDBRANCH  19  20
ENDBRANCH  17  19
ENDBRANCH  13  14
ENDBRANCH  12  13
BRANCH  12  25
HETATM   25  O   UNL     1      -9.025  16.364  66.820  1.00  0.00    -0.205 OA 
BRANCH  25  26
HETATM   26  C   UNL     1      -9.039  16.638  68.154  1.00  0.00    -0.213 C  
HETATM   27  O   UNL     1      -8.114  16.454  68.937  1.00  0.00    -0.216 OA 
BRANCH  26  28
HETATM   28  C   UNL     1     -10.378  17.240  68.571  1.00  0.00    -0.371 C  
BRANCH  28  29
HETATM   29  C   UNL     1     -11.440  16.159  68.825  1.00  0.00    -0.340 C  
HETATM   30  C   UNL     1     -11.568  16.208  71.402  1.00  0.00    -0.495 C  
HETATM   31  C   UNL     1     -12.337  14.216  70.129  1.00  0.00    -0.413 C  
HETATM   32  C   UNL     1     -11.326  15.367  70.148  1.00  0.00    -0.321 C  
ENDBRANCH  28  29
BRANCH  28  33
HETATM   33  N   UNL     1     -10.785  18.222  67.567  1.00  0.00    -0.406 N  
HETATM   34  C   UNL     1     -10.341  19.514  67.574  1.00  0.00    -0.444 C  
HETATM   35  O   UNL     1      -9.610  20.006  68.419  1.00  0.00    -0.316 OA 
HETATM   36  H   UNL     1     -11.428  17.930  66.830  1.00  0.00     0.000 HD 
ENDBRANCH  28  33
ENDBRANCH  26  28
ENDBRANCH  25  26
ENDBRANCH  12  25
ENDBRANCH  11  12
ENDBRANCH  10  11
ENDBRANCH   9  10
ENDBRANCH   8   9
ENDBRANCH   7   8
ENDBRANCH   6   7
ENDBRANCH   5   6
ENDBRANCH   4   5
ENDBRANCH   3   4
ENDBRANCH   2   3
TORSDOF 22
ENDMDL
MODEL       98
REMARK 921   NORMALIZED FREE ENERGY PREDICTED BY IDOCK:   -4.51 KCAL/MOL
REMARK 922        TOTAL FREE ENERGY PREDICTED BY IDOCK:  -13.92 KCAL/MOL
REMARK 923 INTER-LIGAND FREE ENERGY PREDICTED BY IDOCK:  -11.04 KCAL/MOL
REMARK 924 INTRA-LIGAND FREE ENERGY PREDICTED BY IDOCK:   -2.88 KCAL/MOL
REMARK 927      BINDING AFFINITY PREDICTED BY RF-SCORE:    0.00 PKD
ROOT
HETATM    1  C   UNL     1      -9.807  20.245  67.349  1.00  0.00    -0.586 C  
HETATM    2  C   UNL     1     -10.232  19.525  66.080  1.00  0.00    -0.567 C  
ENDROOT
BRANCH   2   3
HETATM    3  C   UNL     1     -10.618  18.079  66.379  1.00  0.00    -0.259 C  
BRANCH   3   4
HETATM    4  C   UNL     1      -9.452  17.123  66.151  1.00  0.00    -0.228 C  
BRANCH   4   5
HETATM    5  C   UNL     1      -9.947  15.784  65.601  1.00  0.00    -0.378 C  
BRANCH   5   6
HETATM    6  C   UNL     1     -11.219  15.979  64.786  1.00  0.00    -0.348 C  
BRANCH   6   7
HETATM    7  C   UNL     1     -12.002  14.677  64.607  1.00  0.00    -0.472 C  
BRANCH   7   8
HETATM    8  C   UNL     1     -11.010  13.524  64.504  1.00  0.00    -0.405 C  
BRANCH   8   9
HETATM    9  C   UNL     1     -11.662  12.147  64.449  1.00  0.00    -0.430 C  
BRANCH   9  10
HETATM   10  C   UNL     1     -10.655  11.119  64.974  1.00  0.00    -0.340 C  
BRANCH  10  11
HETATM   11  C   UNL     1      -9.839  11.601  66.163  1.00  0.00    -0.250 C  
BRANCH  11  12
HETATM   12  C   UNL     1     -10.191  10.985  67.530  1.00  0.00    -0.188 C  
BRANCH  12  13
HETATM   13  C   UNL     1     -10.972  11.910  68.489  1.00  0.00    -0.277 C  
BRANCH  13  14
HETATM   14  C   UNL     1     -10.813  13.407  68.195  1.00  0.00    -0.255 C  
HETATM   15  O   UNL     1      -9.420  13.797  68.030  1.00  0.00    -0.194 OA 
HETATM   16  O   UNL     1      -8.566  15.348  69.507  1.00  0.00    -0.257 OA 
HETATM   17  C   UNL     1     -10.928  14.362  69.416  1.00  0.00    -0.261 C  
HETATM   18  C   UNL     1      -9.454  14.650  69.078  1.00  0.00    -0.127 C  
BRANCH  17  19
HETATM   19  C   UNL     1     -11.824  15.594  69.343  1.00  0.00    -0.391 C  
BRANCH  19  20
HETATM   20  C   UNL     1     -12.772  15.638  70.538  1.00  0.00    -0.391 C  
BRANCH  20  21
HETATM   21  C   UNL     1     -12.949  14.252  71.164  1.00  0.00    -0.423 C  
BRANCH  21  22
HETATM   22  C   UNL     1     -13.124  14.349  72.680  1.00  0.00    -0.564 C  
BRANCH  22  23
HETATM   23  C   UNL     1     -11.924  15.019  73.349  1.00  0.00    -0.432 C  
HETATM   24  C   UNL     1     -12.371  16.096  74.328  1.00  0.00    -0.676 C  
ENDBRANCH  22  23
ENDBRANCH  21  22
ENDBRANCH  20  21
ENDBRANCH  19  20
ENDBRANCH  17  19
ENDBRANCH  13  14
ENDBRANCH  12  13
BRANCH  12  25
HETATM   25  O   UNL     1     -10.974   9.780  67.363  1.00  0.00    -0.259 OA 
BRANCH  25  26
HETATM   26  C   UNL     1     -10.455   8.622  67.857  1.00  0.00    -0.209 C  
HETATM   27  O   UNL     1     -10.243   7.597  67.218  1.00  0.00    -0.216 OA 
BRANCH  26  28
HETATM   28  C   UNL     1     -10.136   8.759  69.342  1.00  0.00    -0.203 C  
BRANCH  28  29
HETATM   29  C   UNL     1      -8.808   8.078  69.710  1.00  0.00    -0.144 C  
HETATM   30  C   UNL     1      -7.242  10.124  69.849  1.00  0.00    -0.155 C  
HETATM   31  C   UNL     1      -6.322   7.841  69.500  1.00  0.00    -0.034 C  
HETATM   32  C   UNL     1      -7.513   8.760  69.212  1.00  0.00    -0.078 C  
ENDBRANCH  28  29
BRANCH  28  33
HETATM   33  N   UNL     1     -11.272   8.259  70.115  1.00  0.00    -0.411 N  
HETATM   34  C   UNL     1     -11.870   8.986  71.104  1.00  0.00    -0.301 C  
HETATM   35  O   UNL     1     -11.513  10.090  71.486  1.00  0.00    -0.332 OA 
HETATM   36  H   UNL     1     -11.634   7.328  69.906  1.00  0.00     0.000 HD 
ENDBRANCH  28  33
ENDBRANCH  26  28
ENDBRANCH  25  26
ENDBRANCH  12  25
ENDBRANCH  11  12
ENDBRANCH  10  11
ENDBRANCH   9  10
ENDBRANCH   8   9
ENDBRANCH   7   8
ENDBRANCH   6   7
ENDBRANCH   5   6
ENDBRANCH   4   5
ENDBRANCH   3   4
ENDBRANCH   2   3
TORSDOF 22
ENDMDL
MODEL       99
REMARK 921   NORMALIZED FREE ENERGY PREDICTED BY IDOCK:   -4.51 KCAL/MOL
REMARK 922        TOTAL FREE ENERGY PREDICTED BY IDOCK:  -13.92 KCAL/MOL
REMARK 923 INTER-LIGAND FREE ENERGY PREDICTED BY IDOCK:  -10.96 KCAL/MOL
REMARK 924 INTRA-LIGAND FREE ENERGY PREDICTED BY IDOCK:   -2.97 KCAL/MOL
REMARK 927      BINDING AFFINITY PREDICTED BY RF-SCORE:    0.00 PKD
ROOT
HETATM    1  C   UNL     1     -11.285   6.352  69.001  1.00  0.00    -0.402 C  
HETATM    2  C   UNL     1     -10.921   6.702  67.568  1.00  0.00    -0.416 C  
ENDROOT
BRANCH   2   3
HETATM    3  C   UNL     1      -9.448   6.409  67.295  1.00  0.00    -0.135 C  
BRANCH   3   4
HETATM    4  C   UNL     1      -8.536   7.120  68.290  1.00  0.00    -0.122 C  
BRANCH   4   5
HETATM    5  C   UNL     1      -7.305   7.694  67.586  1.00  0.00    -0.095 C  
BRANCH   5   6
HETATM    6  C   UNL     1      -7.157   7.092  66.195  1.00  0.00    -0.073 C  
BRANCH   6   7
HETATM    7  C   UNL     1      -6.952   8.158  65.117  1.00  0.00    -0.063 C  
BRANCH   7   8
HETATM    8  C   UNL     1      -7.862   9.341  65.426  1.00  0.00    -0.100 C  
BRANCH   8   9
HETATM    9  C   UNL     1      -9.146   9.368  64.604  1.00  0.00    -0.228 C  
BRANCH   9  10
HETATM   10  C   UNL     1      -9.589  10.826  64.452  1.00  0.00    -0.330 C  
BRANCH  10  11
HETATM   11  C   UNL     1     -10.885  11.160  65.175  1.00  0.00    -0.229 C  
BRANCH  11  12
HETATM   12  C   UNL     1     -10.754  11.610  66.641  1.00  0.00    -0.270 C  
BRANCH  12  13
HETATM   13  C   UNL     1     -10.715  10.469  67.681  1.00  0.00    -0.324 C  
BRANCH  13  14
HETATM   14  C   UNL     1     -10.648  10.943  69.138  1.00  0.00    -0.220 C  
HETATM   15  O   UNL     1     -10.021   9.963  70.014  1.00  0.00    -0.242 OA 
HETATM   16  O   UNL     1     -11.290   9.109  71.738  1.00  0.00    -0.350 OA 
HETATM   17  C   UNL     1     -11.962  10.824  69.959  1.00  0.00    -0.427 C  
HETATM   18  C   UNL     1     -11.129   9.818  70.774  1.00  0.00    -0.345 C  
BRANCH  17  19
HETATM   19  C   UNL     1     -12.462  12.009  70.780  1.00  0.00    -0.372 C  
BRANCH  19  20
HETATM   20  C   UNL     1     -12.238  13.316  70.026  1.00  0.00    -0.345 C  
BRANCH  20  21
HETATM   21  C   UNL     1     -12.017  14.486  70.988  1.00  0.00    -0.394 C  
BRANCH  21  22
HETATM   22  C   UNL     1     -13.247  15.395  71.045  1.00  0.00    -0.560 C  
BRANCH  22  23
HETATM   23  C   UNL     1     -13.817  15.491  72.460  1.00  0.00    -0.669 C  
HETATM   24  C   UNL     1     -12.776  15.099  73.499  1.00  0.00    -0.678 C  
ENDBRANCH  22  23
ENDBRANCH  21  22
ENDBRANCH  20  21
ENDBRANCH  19  20
ENDBRANCH  17  19
ENDBRANCH  13  14
ENDBRANCH  12  13
BRANCH  12  25
HETATM   25  O   UNL     1      -9.559  12.404  66.829  1.00  0.00    -0.212 OA 
BRANCH  25  26
HETATM   26  C   UNL     1      -9.716  13.676  67.289  1.00  0.00    -0.243 C  
HETATM   27  O   UNL     1      -9.351  14.098  68.380  1.00  0.00    -0.202 OA 
BRANCH  26  28
HETATM   28  C   UNL     1     -10.405  14.550  66.244  1.00  0.00    -0.294 C  
BRANCH  28  29
HETATM   29  C   UNL     1      -9.801  15.963  66.190  1.00  0.00    -0.343 C  
HETATM   30  C   UNL     1     -10.785  16.988  68.345  1.00  0.00    -0.361 C  
HETATM   31  C   UNL     1      -9.969  18.443  66.501  1.00  0.00    -0.392 C  
HETATM   32  C   UNL     1     -10.631  17.101  66.827  1.00  0.00    -0.192 C  
ENDBRANCH  28  29
BRANCH  28  33
HETATM   33  N   UNL     1     -11.843  14.549  66.504  1.00  0.00    -0.377 N  
HETATM   34  C   UNL     1     -12.772  14.380  65.518  1.00  0.00    -0.293 C  
HETATM   35  O   UNL     1     -12.527  14.260  64.327  1.00  0.00    -0.657 OA 
HETATM   36  H   UNL     1     -12.167  14.679  67.464  1.00  0.00     0.000 HD 
ENDBRANCH  28  33
ENDBRANCH  26  28
ENDBRANCH  25  26
ENDBRANCH  12  25
ENDBRANCH  11  12
ENDBRANCH  10  11
ENDBRANCH   9  10
ENDBRANCH   8   9
ENDBRANCH   7   8
ENDBRANCH   6   7
ENDBRANCH   5   6
ENDBRANCH   4   5
ENDBRANCH   3   4
ENDBRANCH   2   3
TORSDOF 22
ENDMDL
MODEL      100
REMARK 921   NORMALIZED FREE ENERGY PREDICTED BY IDOCK:   -4.49 KCAL/MOL
REMARK 922        TOTAL FREE ENERGY PREDICTED BY IDOCK:  -13.89 KCAL/MOL
REMARK 923 INTER-LIGAND FREE ENERGY PREDICTED BY IDOCK:  -11.14 KCAL/MOL
REMARK 924 INTRA-LIGAND FREE ENERGY PREDICTED BY IDOCK:   -2.75 KCAL/MOL
REMARK 927      BINDING AFFINITY PREDICTED BY RF-SCORE:    0.00 PKD
ROOT
HETATM    1  C   UNL     1      -7.210  19.475  68.273  1.00  0.00    -0.338 C  
HETATM    2  C   UNL     1      -7.634  20.621  67.369  1.00  0.00    -0.375 C  
ENDROOT
BRANCH   2   3
HETATM    3  C   UNL     1      -9.098  20.478  66.963  1.00  0.00    -0.416 C  
BRANCH   3   4
HETATM    4  C   UNL     1      -9.931  19.830  68.065  1.00  0.00    -0.553 C  
BRANCH   4   5
HETATM    5  C   UNL     1     -10.687  18.612  67.529  1.00  0.00    -0.447 C  
BRANCH   5   6
HETATM    6  C   UNL     1     -10.277  18.318  66.093  1.00  0.00    -0.393 C  
BRANCH   6   7
HETATM    7  C   UNL     1      -9.945  16.841  65.871  1.00  0.00    -0.299 C  
BRANCH   7   8
HETATM    8  C   UNL     1      -9.967  16.132  67.221  1.00  0.00    -0.248 C  
BRANCH   8   9
HETATM    9  C   UNL     1     -11.202  15.267  67.448  1.00  0.00    -0.311 C  
BRANCH   9  10
HETATM   10  C   UNL     1     -10.948  14.381  68.671  1.00  0.00    -0.264 C  
BRANCH  10  11
HETATM   11  C   UNL     1     -10.209  13.089  68.358  1.00  0.00    -0.246 C  
BRANCH  11  12
HETATM   12  C   UNL     1     -11.037  11.793  68.427  1.00  0.00    -0.237 C  
BRANCH  12  13
HETATM   13  C   UNL     1     -11.248  11.071  67.077  1.00  0.00    -0.255 C  
BRANCH  13  14
HETATM   14  C   UNL     1     -10.991  11.947  65.845  1.00  0.00    -0.307 C  
HETATM   15  O   UNL     1     -12.169  12.705  65.446  1.00  0.00    -0.452 OA 
HETATM   16  O   UNL     1     -13.029  12.309  63.345  1.00  0.00    -0.753 OA 
HETATM   17  C   UNL     1     -11.005  11.219  64.472  1.00  0.00    -0.301 C  
HETATM   18  C   UNL     1     -12.233  12.115  64.232  1.00  0.00    -0.377 C  
BRANCH  17  19
HETATM   19  C   UNL     1      -9.876  11.448  63.472  1.00  0.00    -0.404 C  
BRANCH  19  20
HETATM   20  C   UNL     1      -9.331  10.116  62.963  1.00  0.00    -0.330 C  
BRANCH  20  21
HETATM   21  C   UNL     1      -8.571   9.367  64.061  1.00  0.00    -0.222 C  
BRANCH  21  22
HETATM   22  C   UNL     1      -7.432  10.219  64.624  1.00  0.00    -0.093 C  
BRANCH  22  23
HETATM   23  C   UNL     1      -7.390  10.172  66.152  1.00  0.00    -0.115 C  
HETATM   24  C   UNL     1      -8.183   8.988  66.687  1.00  0.00    -0.118 C  
ENDBRANCH  22  23
ENDBRANCH  21  22
ENDBRANCH  20  21
ENDBRANCH  19  20
ENDBRANCH  17  19
ENDBRANCH  13  14
ENDBRANCH  12  13
BRANCH  12  25
HETATM   25  O   UNL     1     -10.428  10.843  69.331  1.00  0.00    -0.219 OA 
BRANCH  25  26
HETATM   26  C   UNL     1     -11.226  10.278  70.279  1.00  0.00    -0.323 C  
HETATM   27  O   UNL     1     -12.044  10.868  70.977  1.00  0.00    -0.338 OA 
BRANCH  26  28
HETATM   28  C   UNL     1     -10.993   8.773  70.361  1.00  0.00    -0.235 C  
BRANCH  28  29
HETATM   29  C   UNL     1      -9.927   8.413  71.409  1.00  0.00    -0.275 C  
HETATM   30  C   UNL     1     -11.186   6.625  72.779  1.00  0.00    -0.263 C  
HETATM   31  C   UNL     1      -9.247   7.840  73.752  1.00  0.00    -0.316 C  
HETATM   32  C   UNL     1     -10.438   7.959  72.796  1.00  0.00    -0.412 C  
ENDBRANCH  28  29
BRANCH  28  33
HETATM   33  N   UNL     1     -10.676   8.273  69.024  1.00  0.00    -0.392 N  
HETATM   34  C   UNL     1     -10.957   6.996  68.627  1.00  0.00    -0.090 C  
HETATM   35  O   UNL     1     -11.449   6.128  69.331  1.00  0.00    -0.423 OA 
HETATM   36  H   UNL     1     -10.227   8.904  68.360  1.00  0.00     0.000 HD 
ENDBRANCH  28  33
ENDBRANCH  26  28
ENDBRANCH  25  26
ENDBRANCH  12  25
ENDBRANCH  11  12
ENDBRANCH  10  11
ENDBRANCH   9  10
ENDBRANCH   8   9
ENDBRANCH   7   8
ENDBRANCH   6   7
ENDBRANCH   5   6
ENDBRANCH   4   5
ENDBRANCH   3   4
ENDBRANCH   2   3
TORSDOF 22
ENDMDL
MODEL      101
REMARK 921   NORMALIZED FREE ENERGY PREDICTED BY IDOCK:   -4.49 KCAL/MOL
REMARK 922        TOTAL FREE ENERGY PREDICTED BY IDOCK:  -13.88 KCAL/MOL
REMARK 923 INTER-LIGAND FREE ENERGY PREDICTED BY IDOCK:  -11.10 KCAL/MOL
REMARK 924 INTRA-LIGAND FREE ENERGY PREDICTED BY IDOCK:   -2.78 KCAL/MOL
REMARK 927      BINDING AFFINITY PREDICTED BY RF-SCORE:    0.00 PKD
ROOT
HETATM    1  C   UNL     1     -10.490  15.454  65.282  1.00  0.00    -0.440 C  
HETATM    2  C   UNL     1     -11.621  14.956  64.398  1.00  0.00    -0.296 C  
ENDROOT
BRANCH   2   3
HETATM    3  C   UNL     1     -12.626  14.143  65.209  1.00  0.00    -0.460 C  
BRANCH   3   4
HETATM    4  C   UNL     1     -12.631  12.674  64.795  1.00  0.00    -0.530 C  
BRANCH   4   5
HETATM    5  C   UNL     1     -11.718  12.447  63.589  1.00  0.00    -0.596 C  
BRANCH   5   6
HETATM    6  C   UNL     1     -10.738  11.315  63.866  1.00  0.00    -0.451 C  
BRANCH   6   7
HETATM    7  C   UNL     1     -10.138  11.393  65.271  1.00  0.00    -0.315 C  
BRANCH   7   8
HETATM    8  C   UNL     1     -10.256  10.022  65.925  1.00  0.00    -0.275 C  
BRANCH   8   9
HETATM    9  C   UNL     1     -10.853  10.052  67.328  1.00  0.00    -0.284 C  
BRANCH   9  10
HETATM   10  C   UNL     1      -9.707  10.195  68.334  1.00  0.00    -0.157 C  
BRANCH  10  11
HETATM   11  C   UNL     1     -10.067  10.998  69.575  1.00  0.00     0.019 C  
BRANCH  11  12
HETATM   12  C   UNL     1     -11.553  11.000  69.980  1.00  0.00    -0.344 C  
BRANCH  12  13
HETATM   13  C   UNL     1     -11.919  10.063  71.152  1.00  0.00    -0.484 C  
BRANCH  13  14
HETATM   14  C   UNL     1     -11.174   8.723  71.148  1.00  0.00    -0.277 C  
HETATM   15  O   UNL     1     -11.845   7.710  71.951  1.00  0.00    -0.275 OA 
HETATM   16  O   UNL     1     -10.691   6.837  73.745  1.00  0.00    -0.325 OA 
HETATM   17  C   UNL     1      -9.932   8.626  72.077  1.00  0.00    -0.399 C  
HETATM   18  C   UNL     1     -10.796   7.572  72.792  1.00  0.00    -0.346 C  
BRANCH  17  19
HETATM   19  C   UNL     1      -8.615   8.075  71.541  1.00  0.00    -0.157 C  
BRANCH  19  20
HETATM   20  C   UNL     1      -8.813   7.467  70.155  1.00  0.00    -0.147 C  
BRANCH  20  21
HETATM   21  C   UNL     1      -8.322   6.017  70.105  1.00  0.00    -0.120 C  
BRANCH  21  22
HETATM   22  C   UNL     1      -8.919   5.273  68.909  1.00  0.00    -0.120 C  
BRANCH  22  23
HETATM   23  C   UNL     1      -8.998   6.163  67.668  1.00  0.00    -0.111 C  
HETATM   24  C   UNL     1     -10.435   6.571  67.376  1.00  0.00    -0.314 C  
ENDBRANCH  22  23
ENDBRANCH  21  22
ENDBRANCH  20  21
ENDBRANCH  19  20
ENDBRANCH  17  19
ENDBRANCH  13  14
ENDBRANCH  12  13
BRANCH  12  25
HETATM   25  O   UNL     1     -11.982  12.333  70.345  1.00  0.00    -0.343 OA 
BRANCH  25  26
HETATM   26  C   UNL     1     -11.940  13.292  69.378  1.00  0.00    -0.301 C  
HETATM   27  O   UNL     1     -11.712  13.105  68.188  1.00  0.00    -0.315 OA 
BRANCH  26  28
HETATM   28  C   UNL     1     -12.239  14.668  69.965  1.00  0.00    -0.333 C  
BRANCH  28  29
HETATM   29  C   UNL     1     -11.815  15.801  69.016  1.00  0.00    -0.367 C  
HETATM   30  C   UNL     1      -9.257  15.463  68.977  1.00  0.00    -0.235 C  
HETATM   31  C   UNL     1     -10.260  17.648  68.347  1.00  0.00    -0.381 C  
HETATM   32  C   UNL     1     -10.418  16.420  69.248  1.00  0.00    -0.303 C  
ENDBRANCH  28  29
BRANCH  28  33
HETATM   33  N   UNL     1     -11.618  14.762  71.285  1.00  0.00    -0.479 N  
HETATM   34  C   UNL     1     -12.276  15.249  72.378  1.00  0.00    -0.383 C  
HETATM   35  O   UNL     1     -13.412  15.697  72.378  1.00  0.00    -0.454 OA 
HETATM   36  H   UNL     1     -10.652  14.449  71.395  1.00  0.00     0.000 HD 
ENDBRANCH  28  33
ENDBRANCH  26  28
ENDBRANCH  25  26
ENDBRANCH  12  25
ENDBRANCH  11  12
ENDBRANCH  10  11
ENDBRANCH   9  10
ENDBRANCH   8   9
ENDBRANCH   7   8
ENDBRANCH   6   7
ENDBRANCH   5   6
ENDBRANCH   4   5
ENDBRANCH   3   4
ENDBRANCH   2   3
TORSDOF 22
ENDMDL
MODEL      102
REMARK 921   NORMALIZED FREE ENERGY PREDICTED BY IDOCK:   -4.49 KCAL/MOL
REMARK 922        TOTAL FREE ENERGY PREDICTED BY IDOCK:  -13.87 KCAL/MOL
REMARK 923 INTER-LIGAND FREE ENERGY PREDICTED BY IDOCK:  -11.89 KCAL/MOL
REMARK 924 INTRA-LIGAND FREE ENERGY PREDICTED BY IDOCK:   -1.98 KCAL/MOL
REMARK 927      BINDING AFFINITY PREDICTED BY RF-SCORE:    0.00 PKD
ROOT
HETATM    1  C   UNL     1      -9.579   2.164  63.280  1.00  0.00    -0.097 C  
HETATM    2  C   UNL     1     -10.654   3.235  63.370  1.00  0.00    -0.250 C  
ENDROOT
BRANCH   2   3
HETATM    3  C   UNL     1     -10.550   3.998  64.687  1.00  0.00    -0.188 C  
BRANCH   3   4
HETATM    4  C   UNL     1      -9.197   4.688  64.836  1.00  0.00    -0.144 C  
BRANCH   4   5
HETATM    5  C   UNL     1      -9.194   5.620  66.050  1.00  0.00    -0.164 C  
BRANCH   5   6
HETATM    6  C   UNL     1     -10.514   5.522  66.802  1.00  0.00    -0.355 C  
BRANCH   6   7
HETATM    7  C   UNL     1     -10.890   6.834  67.493  1.00  0.00    -0.388 C  
BRANCH   7   8
HETATM    8  C   UNL     1      -9.942   7.926  67.009  1.00  0.00    -0.322 C  
BRANCH   8   9
HETATM    9  C   UNL     1     -10.602   9.290  66.840  1.00  0.00    -0.239 C  
BRANCH   9  10
HETATM   10  C   UNL     1     -10.206  10.165  68.034  1.00  0.00    -0.205 C  
BRANCH  10  11
HETATM   11  C   UNL     1     -10.221  11.657  67.741  1.00  0.00    -0.202 C  
BRANCH  11  12
HETATM   12  C   UNL     1     -11.605  12.332  67.702  1.00  0.00    -0.354 C  
BRANCH  12  13
HETATM   13  C   UNL     1     -11.624  13.822  68.111  1.00  0.00    -0.370 C  
BRANCH  13  14
HETATM   14  C   UNL     1     -12.509  14.134  69.324  1.00  0.00    -0.023 C  
HETATM   15  O   UNL     1     -12.112  15.359  70.003  1.00  0.00    -0.321 OA 
HETATM   16  O   UNL     1     -11.441  15.191  72.201  1.00  0.00    -0.420 OA 
HETATM   17  C   UNL     1     -12.206  13.329  70.619  1.00  0.00    -0.417 C  
HETATM   18  C   UNL     1     -11.836  14.721  71.161  1.00  0.00    -0.334 C  
BRANCH  17  19
HETATM   19  C   UNL     1     -13.340  12.655  71.385  1.00  0.00    -0.087 C  
BRANCH  19  20
HETATM   20  C   UNL     1     -12.935  11.248  71.814  1.00  0.00    -0.519 C  
BRANCH  20  21
HETATM   21  C   UNL     1     -11.932  10.631  70.835  1.00  0.00    -0.469 C  
BRANCH  21  22
HETATM   22  C   UNL     1     -11.329   9.344  71.401  1.00  0.00    -0.451 C  
BRANCH  22  23
HETATM   23  C   UNL     1     -12.375   8.496  72.123  1.00  0.00    -0.444 C  
HETATM   24  C   UNL     1     -12.652   7.204  71.367  1.00  0.00    -0.432 C  
ENDBRANCH  22  23
ENDBRANCH  21  22
ENDBRANCH  20  21
ENDBRANCH  19  20
ENDBRANCH  17  19
ENDBRANCH  13  14
ENDBRANCH  12  13
BRANCH  12  25
HETATM   25  O   UNL     1     -12.182  12.243  66.379  1.00  0.00    -0.613 OA 
BRANCH  25  26
HETATM   26  C   UNL     1     -12.324  13.401  65.677  1.00  0.00    -0.470 C  
HETATM   27  O   UNL     1     -13.339  14.085  65.613  1.00  0.00    -0.636 OA 
BRANCH  26  28
HETATM   28  C   UNL     1     -11.022  13.772  64.972  1.00  0.00    -0.357 C  
BRANCH  28  29
HETATM   29  C   UNL     1     -10.834  15.295  64.879  1.00  0.00    -0.444 C  
HETATM   30  C   UNL     1      -8.772  15.618  66.396  1.00  0.00    -0.354 C  
HETATM   31  C   UNL     1     -10.302  17.516  65.910  1.00  0.00    -0.265 C  
HETATM   32  C   UNL     1     -10.226  16.000  66.113  1.00  0.00    -0.340 C  
ENDBRANCH  28  29
BRANCH  28  33
HETATM   33  N   UNL     1     -10.986  13.107  63.670  1.00  0.00    -0.540 N  
HETATM   34  C   UNL     1     -10.274  11.964  63.444  1.00  0.00    -0.449 C  
HETATM   35  O   UNL     1      -9.564  11.400  64.262  1.00  0.00    -0.229 OA 
HETATM   36  H   UNL     1     -11.516  13.514  62.899  1.00  0.00     0.000 HD 
ENDBRANCH  28  33
ENDBRANCH  26  28
ENDBRANCH  25  26
ENDBRANCH  12  25
ENDBRANCH  11  12
ENDBRANCH  10  11
ENDBRANCH   9  10
ENDBRANCH   8   9
ENDBRANCH   7   8
ENDBRANCH   6   7
ENDBRANCH   5   6
ENDBRANCH   4   5
ENDBRANCH   3   4
ENDBRANCH   2   3
TORSDOF 22
ENDMDL
MODEL      103
REMARK 921   NORMALIZED FREE ENERGY PREDICTED BY IDOCK:   -4.48 KCAL/MOL
REMARK 922        TOTAL FREE ENERGY PREDICTED BY IDOCK:  -13.87 KCAL/MOL
REMARK 923 INTER-LIGAND FREE ENERGY PREDICTED BY IDOCK:  -10.92 KCAL/MOL
REMARK 924 INTRA-LIGAND FREE ENERGY PREDICTED BY IDOCK:   -2.95 KCAL/MOL
REMARK 927      BINDING AFFINITY PREDICTED BY RF-SCORE:    0.00 PKD
ROOT
HETATM    1  C   UNL     1      -9.977  11.221  63.397  1.00  0.00    -0.433 C  
HETATM    2  C   UNL     1      -9.507   9.862  63.889  1.00  0.00    -0.207 C  
ENDROOT
BRANCH   2   3
HETATM    3  C   UNL     1      -8.038   9.913  64.300  1.00  0.00    -0.152 C  
BRANCH   3   4
HETATM    4  C   UNL     1      -7.326   8.594  64.018  1.00  0.00    -0.106 C  
BRANCH   4   5
HETATM    5  C   UNL     1      -8.092   7.421  64.633  1.00  0.00    -0.092 C  
BRANCH   5   6
HETATM    6  C   UNL     1      -7.436   6.976  65.933  1.00  0.00    -0.080 C  
BRANCH   6   7
HETATM    7  C   UNL     1      -8.314   7.254  67.154  1.00  0.00    -0.118 C  
BRANCH   7   8
HETATM    8  C   UNL     1      -9.767   7.326  66.700  1.00  0.00    -0.249 C  
BRANCH   8   9
HETATM    9  C   UNL     1     -10.446   8.659  66.999  1.00  0.00    -0.354 C  
BRANCH   9  10
HETATM   10  C   UNL     1      -9.530   9.466  67.926  1.00  0.00    -0.150 C  
BRANCH  10  11
HETATM   11  C   UNL     1      -9.650  10.972  67.758  1.00  0.00    -0.180 C  
BRANCH  11  12
HETATM   12  C   UNL     1     -11.014  11.593  68.113  1.00  0.00    -0.226 C  
BRANCH  12  13
HETATM   13  C   UNL     1     -11.911  11.949  66.908  1.00  0.00    -0.002 C  
BRANCH  13  14
HETATM   14  C   UNL     1     -12.232  13.443  66.776  1.00  0.00    -0.312 C  
HETATM   15  O   UNL     1     -13.001  13.744  65.577  1.00  0.00    -0.651 OA 
HETATM   16  O   UNL     1     -12.052  15.164  64.030  1.00  0.00    -0.546 OA 
HETATM   17  C   UNL     1     -11.081  14.347  66.254  1.00  0.00    -0.331 C  
HETATM   18  C   UNL     1     -12.042  14.549  65.069  1.00  0.00    -0.389 C  
BRANCH  17  19
HETATM   19  C   UNL     1     -10.730  15.640  66.984  1.00  0.00    -0.314 C  
BRANCH  19  20
HETATM   20  C   UNL     1      -9.272  16.015  66.740  1.00  0.00    -0.264 C  
BRANCH  20  21
HETATM   21  C   UNL     1      -9.140  17.463  66.258  1.00  0.00    -0.232 C  
BRANCH  21  22
HETATM   22  C   UNL     1     -10.512  18.124  66.114  1.00  0.00    -0.377 C  
BRANCH  22  23
HETATM   23  C   UNL     1     -10.745  19.189  67.185  1.00  0.00    -0.567 C  
HETATM   24  C   UNL     1      -9.754  20.336  67.044  1.00  0.00    -0.598 C  
ENDBRANCH  22  23
ENDBRANCH  21  22
ENDBRANCH  20  21
ENDBRANCH  19  20
ENDBRANCH  17  19
ENDBRANCH  13  14
ENDBRANCH  12  13
BRANCH  12  25
HETATM   25  O   UNL     1     -11.773  10.708  68.968  1.00  0.00    -0.277 OA 
BRANCH  25  26
HETATM   26  C   UNL     1     -11.975  11.101  70.257  1.00  0.00    -0.373 C  
HETATM   27  O   UNL     1     -12.124  12.255  70.643  1.00  0.00    -0.363 OA 
BRANCH  26  28
HETATM   28  C   UNL     1     -12.018   9.896  71.192  1.00  0.00    -0.384 C  
BRANCH  28  29
HETATM   29  C   UNL     1     -10.666   9.168  71.252  1.00  0.00    -0.401 C  
HETATM   30  C   UNL     1     -11.292   6.907  70.176  1.00  0.00    -0.364 C  
HETATM   31  C   UNL     1      -9.287   7.110  71.633  1.00  0.00    -0.158 C  
HETATM   32  C   UNL     1     -10.708   7.629  71.392  1.00  0.00    -0.247 C  
ENDBRANCH  28  29
BRANCH  28  33
HETATM   33  N   UNL     1     -13.123   9.028  70.790  1.00  0.00    -0.451 N  
HETATM   34  C   UNL     1     -14.148   8.700  71.631  1.00  0.00    -0.400 C  
HETATM   35  O   UNL     1     -14.243   9.042  72.799  1.00  0.00    -0.572 OA 
HETATM   36  H   UNL     1     -13.128   8.650  69.842  1.00  0.00     0.000 HD 
ENDBRANCH  28  33
ENDBRANCH  26  28
ENDBRANCH  25  26
ENDBRANCH  12  25
ENDBRANCH  11  12
ENDBRANCH  10  11
ENDBRANCH   9  10
ENDBRANCH   8   9
ENDBRANCH   7   8
ENDBRANCH   6   7
ENDBRANCH   5   6
ENDBRANCH   4   5
ENDBRANCH   3   4
ENDBRANCH   2   3
TORSDOF 22
ENDMDL
MODEL      104
REMARK 921   NORMALIZED FREE ENERGY PREDICTED BY IDOCK:   -4.48 KCAL/MOL
REMARK 922        TOTAL FREE ENERGY PREDICTED BY IDOCK:  -13.86 KCAL/MOL
REMARK 923 INTER-LIGAND FREE ENERGY PREDICTED BY IDOCK:  -12.00 KCAL/MOL
REMARK 924 INTRA-LIGAND FREE ENERGY PREDICTED BY IDOCK:   -1.86 KCAL/MOL
REMARK 927      BINDING AFFINITY PREDICTED BY RF-SCORE:    0.00 PKD
ROOT
HETATM    1  C   UNL     1      -9.061   3.905  73.138  1.00  0.00    -0.117 C  
HETATM    2  C   UNL     1     -10.523   3.880  72.723  1.00  0.00    -0.231 C  
ENDROOT
BRANCH   2   3
HETATM    3  C   UNL     1     -11.261   5.103  73.260  1.00  0.00    -0.389 C  
BRANCH   3   4
HETATM    4  C   UNL     1     -10.295   6.195  73.709  1.00  0.00    -0.288 C  
BRANCH   4   5
HETATM    5  C   UNL     1     -10.670   7.541  73.086  1.00  0.00    -0.452 C  
BRANCH   5   6
HETATM    6  C   UNL     1     -11.332   7.337  71.730  1.00  0.00    -0.285 C  
BRANCH   6   7
HETATM    7  C   UNL     1     -12.276   8.484  71.363  1.00  0.00    -0.343 C  
BRANCH   7   8
HETATM    8  C   UNL     1     -11.566   9.803  71.643  1.00  0.00    -0.345 C  
BRANCH   8   9
HETATM    9  C   UNL     1     -11.964  10.934  70.700  1.00  0.00    -0.467 C  
BRANCH   9  10
HETATM   10  C   UNL     1     -11.771  10.447  69.260  1.00  0.00    -0.212 C  
BRANCH  10  11
HETATM   11  C   UNL     1     -10.670  11.173  68.502  1.00  0.00    -0.235 C  
BRANCH  11  12
HETATM   12  C   UNL     1     -11.117  12.045  67.315  1.00  0.00    -0.285 C  
BRANCH  12  13
HETATM   13  C   UNL     1     -11.741  13.407  67.695  1.00  0.00    -0.397 C  
BRANCH  13  14
HETATM   14  C   UNL     1     -10.736  14.439  68.220  1.00  0.00    -0.242 C  
HETATM   15  O   UNL     1     -10.687  14.478  69.674  1.00  0.00    -0.204 OA 
HETATM   16  O   UNL     1     -11.250  16.461  70.706  1.00  0.00    -0.350 OA 
HETATM   17  C   UNL     1     -11.203  15.921  68.203  1.00  0.00    -0.339 C  
HETATM   18  C   UNL     1     -11.083  15.769  69.731  1.00  0.00    -0.322 C  
BRANCH  17  19
HETATM   19  C   UNL     1     -10.298  17.003  67.624  1.00  0.00    -0.332 C  
BRANCH  19  20
HETATM   20  C   UNL     1     -10.996  18.360  67.655  1.00  0.00    -0.160 C  
BRANCH  20  21
HETATM   21  C   UNL     1     -10.503  19.270  66.527  1.00  0.00    -0.552 C  
BRANCH  21  22
HETATM   22  C   UNL     1      -9.509  20.308  67.050  1.00  0.00    -0.546 C  
BRANCH  22  23
HETATM   23  C   UNL     1      -8.107  19.722  67.211  1.00  0.00    -0.327 C  
HETATM   24  C   UNL     1      -7.795  19.439  68.674  1.00  0.00    -0.399 C  
ENDBRANCH  22  23
ENDBRANCH  21  22
ENDBRANCH  20  21
ENDBRANCH  19  20
ENDBRANCH  17  19
ENDBRANCH  13  14
ENDBRANCH  12  13
BRANCH  12  25
HETATM   25  O   UNL     1     -10.006  12.314  66.429  1.00  0.00    -0.219 OA 
BRANCH  25  26
HETATM   26  C   UNL     1     -10.290  12.531  65.115  1.00  0.00    -0.289 C  
HETATM   27  O   UNL     1     -10.211  13.605  64.528  1.00  0.00    -0.402 OA 
BRANCH  26  28
HETATM   28  C   UNL     1     -10.712  11.236  64.429  1.00  0.00    -0.339 C  
BRANCH  28  29
HETATM   29  C   UNL     1      -9.505  10.348  64.087  1.00  0.00    -0.353 C  
HETATM   30  C   UNL     1      -9.599   8.644  66.023  1.00  0.00    -0.265 C  
HETATM   31  C   UNL     1      -7.492   9.014  64.756  1.00  0.00    -0.102 C  
HETATM   32  C   UNL     1      -8.767   9.686  65.273  1.00  0.00    -0.186 C  
ENDBRANCH  28  29
BRANCH  28  33
HETATM   33  N   UNL     1     -11.531  11.566  63.264  1.00  0.00    -0.852 N  
HETATM   34  C   UNL     1     -12.773  12.125  63.369  1.00  0.00    -0.381 C  
HETATM   35  O   UNL     1     -13.354  12.367  64.415  1.00  0.00    -0.789 OA 
HETATM   36  H   UNL     1     -11.160  11.371  62.333  1.00  0.00     0.000 HD 
ENDBRANCH  28  33
ENDBRANCH  26  28
ENDBRANCH  25  26
ENDBRANCH  12  25
ENDBRANCH  11  12
ENDBRANCH  10  11
ENDBRANCH   9  10
ENDBRANCH   8   9
ENDBRANCH   7   8
ENDBRANCH   6   7
ENDBRANCH   5   6
ENDBRANCH   4   5
ENDBRANCH   3   4
ENDBRANCH   2   3
TORSDOF 22
ENDMDL
MODEL      105
REMARK 921   NORMALIZED FREE ENERGY PREDICTED BY IDOCK:   -4.48 KCAL/MOL
REMARK 922        TOTAL FREE ENERGY PREDICTED BY IDOCK:  -13.86 KCAL/MOL
REMARK 923 INTER-LIGAND FREE ENERGY PREDICTED BY IDOCK:  -11.81 KCAL/MOL
REMARK 924 INTRA-LIGAND FREE ENERGY PREDICTED BY IDOCK:   -2.05 KCAL/MOL
REMARK 927      BINDING AFFINITY PREDICTED BY RF-SCORE:    0.00 PKD
ROOT
HETATM    1  C   UNL     1     -11.704   5.947  72.406  1.00  0.00    -0.307 C  
HETATM    2  C   UNL     1     -10.223   5.978  72.068  1.00  0.00    -0.228 C  
ENDROOT
BRANCH   2   3
HETATM    3  C   UNL     1     -10.008   5.860  70.561  1.00  0.00    -0.243 C  
BRANCH   3   4
HETATM    4  C   UNL     1     -11.274   6.200  69.781  1.00  0.00    -0.494 C  
BRANCH   4   5
HETATM    5  C   UNL     1     -10.956   6.419  68.300  1.00  0.00    -0.396 C  
BRANCH   5   6
HETATM    6  C   UNL     1      -9.450   6.424  68.072  1.00  0.00    -0.116 C  
BRANCH   6   7
HETATM    7  C   UNL     1      -8.939   7.782  67.586  1.00  0.00    -0.128 C  
BRANCH   7   8
HETATM    8  C   UNL     1     -10.133   8.621  67.147  1.00  0.00    -0.329 C  
BRANCH   8   9
HETATM    9  C   UNL     1      -9.809   9.643  66.062  1.00  0.00    -0.345 C  
BRANCH   9  10
HETATM   10  C   UNL     1      -9.005  10.780  66.700  1.00  0.00    -0.164 C  
BRANCH  10  11
HETATM   11  C   UNL     1      -9.407  12.167  66.222  1.00  0.00    -0.221 C  
BRANCH  11  12
HETATM   12  C   UNL     1      -9.727  13.202  67.317  1.00  0.00    -0.230 C  
BRANCH  12  13
HETATM   13  C   UNL     1      -9.209  14.631  67.046  1.00  0.00    -0.252 C  
BRANCH  13  14
HETATM   14  C   UNL     1     -10.313  15.677  66.845  1.00  0.00    -0.293 C  
HETATM   15  O   UNL     1     -11.281  15.277  65.834  1.00  0.00    -0.322 OA 
HETATM   16  O   UNL     1     -11.499  16.624  63.976  1.00  0.00    -1.192 OA 
HETATM   17  C   UNL     1      -9.937  16.914  65.984  1.00  0.00    -0.313 C  
HETATM   18  C   UNL     1     -11.006  16.336  65.040  1.00  0.00    -0.298 C  
BRANCH  17  19
HETATM   19  C   UNL     1     -10.256  18.320  66.482  1.00  0.00    -0.409 C  
BRANCH  19  20
HETATM   20  C   UNL     1      -9.266  18.745  67.562  1.00  0.00    -0.306 C  
BRANCH  20  21
HETATM   21  C   UNL     1      -8.780  20.181  67.342  1.00  0.00    -0.425 C  
BRANCH  21  22
HETATM   22  C   UNL     1      -7.262  20.280  67.497  1.00  0.00    -0.333 C  
BRANCH  22  23
HETATM   23  C   UNL     1      -6.569  20.530  66.158  1.00  0.00    -0.278 C  
HETATM   24  C   UNL     1      -6.063  19.229  65.549  1.00  0.00    -0.252 C  
ENDBRANCH  22  23
ENDBRANCH  21  22
ENDBRANCH  20  21
ENDBRANCH  19  20
ENDBRANCH  17  19
ENDBRANCH  13  14
ENDBRANCH  12  13
BRANCH  12  25
HETATM   25  O   UNL     1     -11.154  13.295  67.532  1.00  0.00    -0.257 OA 
BRANCH  25  26
HETATM   26  C   UNL     1     -11.725  12.378  68.362  1.00  0.00    -0.336 C  
HETATM   27  O   UNL     1     -12.198  11.298  68.026  1.00  0.00    -0.621 OA 
BRANCH  26  28
HETATM   28  C   UNL     1     -11.685  12.857  69.811  1.00  0.00    -0.281 C  
BRANCH  28  29
HETATM   29  C   UNL     1     -12.262  11.810  70.777  1.00  0.00    -0.424 C  
HETATM   30  C   UNL     1     -10.430   9.996  70.667  1.00  0.00    -0.211 C  
HETATM   31  C   UNL     1     -12.729   9.436  71.430  1.00  0.00    -0.425 C  
HETATM   32  C   UNL     1     -11.912  10.331  70.493  1.00  0.00    -0.415 C  
ENDBRANCH  28  29
BRANCH  28  33
HETATM   33  N   UNL     1     -12.359  14.152  69.896  1.00  0.00    -0.367 N  
HETATM   34  C   UNL     1     -11.721  15.292  70.292  1.00  0.00    -0.308 C  
HETATM   35  O   UNL     1     -10.557  15.361  70.657  1.00  0.00    -0.290 OA 
HETATM   36  H   UNL     1     -13.348  14.206  69.649  1.00  0.00     0.000 HD 
ENDBRANCH  28  33
ENDBRANCH  26  28
ENDBRANCH  25  26
ENDBRANCH  12  25
ENDBRANCH  11  12
ENDBRANCH  10  11
ENDBRANCH   9  10
ENDBRANCH   8   9
ENDBRANCH   7   8
ENDBRANCH   6   7
ENDBRANCH   5   6
ENDBRANCH   4   5
ENDBRANCH   3   4
ENDBRANCH   2   3
TORSDOF 22
ENDMDL
MODEL      106
REMARK 921   NORMALIZED FREE ENERGY PREDICTED BY IDOCK:   -4.47 KCAL/MOL
REMARK 922        TOTAL FREE ENERGY PREDICTED BY IDOCK:  -13.84 KCAL/MOL
REMARK 923 INTER-LIGAND FREE ENERGY PREDICTED BY IDOCK:  -10.26 KCAL/MOL
REMARK 924 INTRA-LIGAND FREE ENERGY PREDICTED BY IDOCK:   -3.58 KCAL/MOL
REMARK 927      BINDING AFFINITY PREDICTED BY RF-SCORE:    0.00 PKD
ROOT
HETATM    1  C   UNL     1      -8.915   3.923  68.271  1.00  0.00    -0.162 C  
HETATM    2  C   UNL     1      -9.572   4.801  67.218  1.00  0.00    -0.185 C  
ENDROOT
BRANCH   2   3
HETATM    3  C   UNL     1      -8.604   5.093  66.074  1.00  0.00    -0.124 C  
BRANCH   3   4
HETATM    4  C   UNL     1      -7.415   5.927  66.539  1.00  0.00    -0.087 C  
BRANCH   4   5
HETATM    5  C   UNL     1      -6.962   6.887  65.437  1.00  0.00    -0.059 C  
BRANCH   5   6
HETATM    6  C   UNL     1      -8.064   7.887  65.113  1.00  0.00    -0.144 C  
BRANCH   6   7
HETATM    7  C   UNL     1      -8.042   8.324  63.647  1.00  0.00    -0.126 C  
BRANCH   7   8
HETATM    8  C   UNL     1      -8.206   9.838  63.590  1.00  0.00    -0.158 C  
BRANCH   8   9
HETATM    9  C   UNL     1      -9.326  10.307  62.668  1.00  0.00    -0.335 C  
BRANCH   9  10
HETATM   10  C   UNL     1     -10.241  11.244  63.463  1.00  0.00    -0.456 C  
BRANCH  10  11
HETATM   11  C   UNL     1     -10.046  11.170  64.969  1.00  0.00    -0.338 C  
BRANCH  11  12
HETATM   12  C   UNL     1     -11.114  11.867  65.832  1.00  0.00    -0.316 C  
BRANCH  12  13
HETATM   13  C   UNL     1     -12.259  12.543  65.047  1.00  0.00    -0.519 C  
BRANCH  13  14
HETATM   14  C   UNL     1     -12.521  14.002  65.440  1.00  0.00    -0.498 C  
HETATM   15  O   UNL     1     -12.693  14.868  64.282  1.00  0.00    -0.678 OA 
HETATM   16  O   UNL     1     -11.192  16.596  64.011  1.00  0.00    -1.052 OA 
HETATM   17  C   UNL     1     -11.277  14.831  65.865  1.00  0.00    -0.340 C  
HETATM   18  C   UNL     1     -11.626  15.634  64.598  1.00  0.00    -0.249 C  
BRANCH  17  19
HETATM   19  C   UNL     1     -11.310  15.661  67.144  1.00  0.00    -0.082 C  
BRANCH  19  20
HETATM   20  C   UNL     1     -11.756  14.807  68.327  1.00  0.00    -0.340 C  
BRANCH  20  21
HETATM   21  C   UNL     1     -11.121  15.287  69.634  1.00  0.00    -0.284 C  
BRANCH  21  22
HETATM   22  C   UNL     1     -12.190  15.648  70.668  1.00  0.00    -0.446 C  
BRANCH  22  23
HETATM   23  C   UNL     1     -13.244  14.548  70.802  1.00  0.00    -0.313 C  
HETATM   24  C   UNL     1     -13.171  13.882  72.170  1.00  0.00    -0.536 C  
ENDBRANCH  22  23
ENDBRANCH  21  22
ENDBRANCH  20  21
ENDBRANCH  19  20
ENDBRANCH  17  19
ENDBRANCH  13  14
ENDBRANCH  12  13
BRANCH  12  25
HETATM   25  O   UNL     1     -11.719  10.930  66.754  1.00  0.00    -0.174 OA 
BRANCH  25  26
HETATM   26  C   UNL     1     -11.461  11.100  68.080  1.00  0.00    -0.303 C  
HETATM   27  O   UNL     1     -12.291  11.338  68.951  1.00  0.00    -0.485 OA 
BRANCH  26  28
HETATM   28  C   UNL     1      -9.973  10.934  68.371  1.00  0.00    -0.178 C  
BRANCH  28  29
HETATM   29  C   UNL     1      -9.699   9.741  69.301  1.00  0.00    -0.204 C  
HETATM   30  C   UNL     1      -7.325   9.074  68.540  1.00  0.00    -0.077 C  
HETATM   31  C   UNL     1      -8.782   7.450  69.733  1.00  0.00    -0.141 C  
HETATM   32  C   UNL     1      -8.773   8.630  68.756  1.00  0.00    -0.135 C  
ENDBRANCH  28  29
BRANCH  28  33
HETATM   33  N   UNL     1      -9.450  12.198  68.887  1.00  0.00    -0.406 N  
HETATM   34  C   UNL     1      -8.421  12.870  68.291  1.00  0.00    -0.161 C  
HETATM   35  O   UNL     1      -7.799  12.488  67.313  1.00  0.00    -0.165 OA 
HETATM   36  H   UNL     1      -9.872  12.595  69.727  1.00  0.00     0.000 HD 
ENDBRANCH  28  33
ENDBRANCH  26  28
ENDBRANCH  25  26
ENDBRANCH  12  25
ENDBRANCH  11  12
ENDBRANCH  10  11
ENDBRANCH   9  10
ENDBRANCH   8   9
ENDBRANCH   7   8
ENDBRANCH   6   7
ENDBRANCH   5   6
ENDBRANCH   4   5
ENDBRANCH   3   4
ENDBRANCH   2   3
TORSDOF 22
ENDMDL
MODEL      107
REMARK 921   NORMALIZED FREE ENERGY PREDICTED BY IDOCK:   -4.47 KCAL/MOL
REMARK 922        TOTAL FREE ENERGY PREDICTED BY IDOCK:  -13.83 KCAL/MOL
REMARK 923 INTER-LIGAND FREE ENERGY PREDICTED BY IDOCK:   -9.82 KCAL/MOL
REMARK 924 INTRA-LIGAND FREE ENERGY PREDICTED BY IDOCK:   -4.01 KCAL/MOL
REMARK 927      BINDING AFFINITY PREDICTED BY RF-SCORE:    0.00 PKD
ROOT
HETATM    1  C   UNL     1     -13.492  12.571  72.022  1.00  0.00    -0.486 C  
HETATM    2  C   UNL     1     -12.851  11.438  71.237  1.00  0.00    -0.481 C  
ENDROOT
BRANCH   2   3
HETATM    3  C   UNL     1     -12.816  10.157  72.065  1.00  0.00    -0.472 C  
BRANCH   3   4
HETATM    4  C   UNL     1     -13.697   9.068  71.460  1.00  0.00    -0.388 C  
BRANCH   4   5
HETATM    5  C   UNL     1     -12.986   7.713  71.495  1.00  0.00    -0.378 C  
BRANCH   5   6
HETATM    6  C   UNL     1     -11.849   7.732  72.508  1.00  0.00    -0.354 C  
BRANCH   6   7
HETATM    7  C   UNL     1     -10.504   7.360  71.882  1.00  0.00    -0.229 C  
BRANCH   7   8
HETATM    8  C   UNL     1      -9.546   8.533  72.058  1.00  0.00    -0.371 C  
BRANCH   8   9
HETATM    9  C   UNL     1      -8.903   9.010  70.760  1.00  0.00    -0.281 C  
BRANCH   9  10
HETATM   10  C   UNL     1      -9.923   9.869  70.007  1.00  0.00    -0.302 C  
BRANCH  10  11
HETATM   11  C   UNL     1     -10.194   9.406  68.584  1.00  0.00    -0.222 C  
BRANCH  11  12
HETATM   12  C   UNL     1      -9.406  10.118  67.470  1.00  0.00    -0.151 C  
BRANCH  12  13
HETATM   13  C   UNL     1      -7.937   9.666  67.308  1.00  0.00    -0.106 C  
BRANCH  13  14
HETATM   14  C   UNL     1      -6.903  10.763  67.587  1.00  0.00    -0.073 C  
HETATM   15  O   UNL     1      -6.039  10.440  68.714  1.00  0.00    -0.041 OA 
HETATM   16  O   UNL     1      -6.080  11.860  70.529  1.00  0.00    -0.253 OA 
HETATM   17  C   UNL     1      -7.419  12.014  68.352  1.00  0.00    -0.110 C  
HETATM   18  C   UNL     1      -6.440  11.514  69.430  1.00  0.00    -0.111 C  
BRANCH  17  19
HETATM   19  C   UNL     1      -7.099  13.413  67.836  1.00  0.00    -0.137 C  
BRANCH  19  20
HETATM   20  C   UNL     1      -7.476  14.466  68.874  1.00  0.00    -0.132 C  
BRANCH  20  21
HETATM   21  C   UNL     1      -7.575  15.859  68.246  1.00  0.00    -0.135 C  
BRANCH  21  22
HETATM   22  C   UNL     1      -8.836  16.588  68.716  1.00  0.00    -0.255 C  
BRANCH  22  23
HETATM   23  C   UNL     1      -9.000  17.942  68.027  1.00  0.00    -0.267 C  
HETATM   24  C   UNL     1      -8.637  17.854  66.550  1.00  0.00    -0.279 C  
ENDBRANCH  22  23
ENDBRANCH  21  22
ENDBRANCH  20  21
ENDBRANCH  19  20
ENDBRANCH  17  19
ENDBRANCH  13  14
ENDBRANCH  12  13
BRANCH  12  25
HETATM   25  O   UNL     1     -10.053   9.941  66.189  1.00  0.00    -0.250 OA 
BRANCH  25  26
HETATM   26  C   UNL     1      -9.730  10.816  65.197  1.00  0.00    -0.265 C  
HETATM   27  O   UNL     1      -8.725  10.770  64.495  1.00  0.00    -0.168 OA 
BRANCH  26  28
HETATM   28  C   UNL     1     -10.808  11.884  65.040  1.00  0.00    -0.300 C  
BRANCH  28  29
HETATM   29  C   UNL     1     -11.465  12.239  66.383  1.00  0.00    -0.434 C  
HETATM   30  C   UNL     1     -11.009  14.777  66.485  1.00  0.00    -0.325 C  
HETATM   31  C   UNL     1     -11.503  13.490  68.554  1.00  0.00    -0.345 C  
HETATM   32  C   UNL     1     -10.850  13.419  67.170  1.00  0.00    -0.284 C  
ENDBRANCH  28  29
BRANCH  28  33
HETATM   33  N   UNL     1     -11.768  11.438  64.030  1.00  0.00    -0.309 N  
HETATM   34  C   UNL     1     -12.518  12.307  63.290  1.00  0.00    -0.375 C  
HETATM   35  O   UNL     1     -12.516  13.522  63.408  1.00  0.00    -0.750 OA 
HETATM   36  H   UNL     1     -11.881  10.436  63.872  1.00  0.00     0.000 HD 
ENDBRANCH  28  33
ENDBRANCH  26  28
ENDBRANCH  25  26
ENDBRANCH  12  25
ENDBRANCH  11  12
ENDBRANCH  10  11
ENDBRANCH   9  10
ENDBRANCH   8   9
ENDBRANCH   7   8
ENDBRANCH   6   7
ENDBRANCH   5   6
ENDBRANCH   4   5
ENDBRANCH   3   4
ENDBRANCH   2   3
TORSDOF 22
ENDMDL
MODEL      108
REMARK 921   NORMALIZED FREE ENERGY PREDICTED BY IDOCK:   -4.47 KCAL/MOL
REMARK 922        TOTAL FREE ENERGY PREDICTED BY IDOCK:  -13.83 KCAL/MOL
REMARK 923 INTER-LIGAND FREE ENERGY PREDICTED BY IDOCK:  -10.40 KCAL/MOL
REMARK 924 INTRA-LIGAND FREE ENERGY PREDICTED BY IDOCK:   -3.42 KCAL/MOL
REMARK 927      BINDING AFFINITY PREDICTED BY RF-SCORE:    0.00 PKD
ROOT
HETATM    1  C   UNL     1     -11.228  15.784  64.579  1.00  0.00    -0.334 C  
HETATM    2  C   UNL     1     -12.229  14.689  64.250  1.00  0.00    -0.432 C  
ENDROOT
BRANCH   2   3
HETATM    3  C   UNL     1     -12.563  13.868  65.493  1.00  0.00    -0.560 C  
BRANCH   3   4
HETATM    4  C   UNL     1     -12.123  12.415  65.346  1.00  0.00    -0.428 C  
BRANCH   4   5
HETATM    5  C   UNL     1     -11.859  12.073  63.878  1.00  0.00    -0.543 C  
BRANCH   5   6
HETATM    6  C   UNL     1     -10.695  11.099  63.757  1.00  0.00    -0.399 C  
BRANCH   6   7
HETATM    7  C   UNL     1      -9.815  11.083  65.009  1.00  0.00    -0.321 C  
BRANCH   7   8
HETATM    8  C   UNL     1      -9.734   9.651  65.526  1.00  0.00    -0.372 C  
BRANCH   8   9
HETATM    9  C   UNL     1     -10.568   9.395  66.777  1.00  0.00    -0.210 C  
BRANCH   9  10
HETATM   10  C   UNL     1      -9.614   9.068  67.930  1.00  0.00    -0.170 C  
BRANCH  10  11
HETATM   11  C   UNL     1      -9.859   9.885  69.189  1.00  0.00    -0.204 C  
BRANCH  11  12
HETATM   12  C   UNL     1     -10.792  11.101  69.043  1.00  0.00    -0.231 C  
BRANCH  12  13
HETATM   13  C   UNL     1     -12.110  11.023  69.846  1.00  0.00    -0.435 C  
BRANCH  13  14
HETATM   14  C   UNL     1     -12.461   9.617  70.348  1.00  0.00     0.108 C  
HETATM   15  O   UNL     1     -13.867   9.490  70.708  1.00  0.00    -0.087 OA 
HETATM   16  O   UNL     1     -14.362   8.958  72.895  1.00  0.00    -0.548 OA 
HETATM   17  C   UNL     1     -12.065   9.295  71.816  1.00  0.00    -0.457 C  
HETATM   18  C   UNL     1     -13.590   9.197  71.998  1.00  0.00    -0.459 C  
BRANCH  17  19
HETATM   19  C   UNL     1     -11.326   8.001  72.144  1.00  0.00    -0.387 C  
BRANCH  19  20
HETATM   20  C   UNL     1     -12.011   6.810  71.481  1.00  0.00    -0.396 C  
BRANCH  20  21
HETATM   21  C   UNL     1     -11.147   6.218  70.364  1.00  0.00    -0.416 C  
BRANCH  21  22
HETATM   22  C   UNL     1     -10.226   5.121  70.900  1.00  0.00    -0.299 C  
BRANCH  22  23
HETATM   23  C   UNL     1      -8.782   5.314  70.437  1.00  0.00    -0.138 C  
HETATM   24  C   UNL     1      -8.243   6.670  70.869  1.00  0.00    -0.124 C  
ENDBRANCH  22  23
ENDBRANCH  21  22
ENDBRANCH  20  21
ENDBRANCH  19  20
ENDBRANCH  17  19
ENDBRANCH  13  14
ENDBRANCH  12  13
BRANCH  12  25
HETATM   25  O   UNL     1     -10.117  12.316  69.444  1.00  0.00     0.310 OA 
BRANCH  25  26
HETATM   26  C   UNL     1      -9.789  13.204  68.464  1.00  0.00    -0.153 C  
HETATM   27  O   UNL     1      -9.217  12.937  67.413  1.00  0.00    -0.182 OA 
BRANCH  26  28
HETATM   28  C   UNL     1     -10.249  14.612  68.829  1.00  0.00    -0.242 C  
BRANCH  28  29
HETATM   29  C   UNL     1     -11.717  14.636  69.286  1.00  0.00    -0.348 C  
HETATM   30  C   UNL     1     -11.556  16.197  71.335  1.00  0.00    -0.495 C  
HETATM   31  C   UNL     1     -13.466  14.625  71.080  1.00  0.00    -0.375 C  
HETATM   32  C   UNL     1     -11.974  14.827  70.798  1.00  0.00    -0.371 C  
ENDBRANCH  28  29
BRANCH  28  33
HETATM   33  N   UNL     1      -9.983  15.501  67.700  1.00  0.00    -0.232 N  
HETATM   34  C   UNL     1      -9.282  16.666  67.826  1.00  0.00    -0.214 C  
HETATM   35  O   UNL     1      -8.845  17.119  68.872  1.00  0.00    -0.259 OA 
HETATM   36  H   UNL     1     -10.336  15.240  66.778  1.00  0.00     0.000 HD 
ENDBRANCH  28  33
ENDBRANCH  26  28
ENDBRANCH  25  26
ENDBRANCH  12  25
ENDBRANCH  11  12
ENDBRANCH  10  11
ENDBRANCH   9  10
ENDBRANCH   8   9
ENDBRANCH   7   8
ENDBRANCH   6   7
ENDBRANCH   5   6
ENDBRANCH   4   5
ENDBRANCH   3   4
ENDBRANCH   2   3
TORSDOF 22
ENDMDL
MODEL      109
REMARK 921   NORMALIZED FREE ENERGY PREDICTED BY IDOCK:   -4.46 KCAL/MOL
REMARK 922        TOTAL FREE ENERGY PREDICTED BY IDOCK:  -13.83 KCAL/MOL
REMARK 923 INTER-LIGAND FREE ENERGY PREDICTED BY IDOCK:  -10.55 KCAL/MOL
REMARK 924 INTRA-LIGAND FREE ENERGY PREDICTED BY IDOCK:   -3.28 KCAL/MOL
REMARK 927      BINDING AFFINITY PREDICTED BY RF-SCORE:    0.00 PKD
ROOT
HETATM    1  C   UNL     1     -13.928  15.496  72.377  1.00  0.00    -0.653 C  
HETATM    2  C   UNL     1     -12.515  15.983  72.653  1.00  0.00    -0.572 C  
ENDROOT
BRANCH   2   3
HETATM    3  C   UNL     1     -11.623  15.779  71.432  1.00  0.00    -0.511 C  
BRANCH   3   4
HETATM    4  C   UNL     1     -12.153  14.675  70.522  1.00  0.00    -0.388 C  
BRANCH   4   5
HETATM    5  C   UNL     1     -11.926  15.028  69.051  1.00  0.00    -0.298 C  
BRANCH   5   6
HETATM    6  C   UNL     1     -11.068  16.281  68.928  1.00  0.00    -0.345 C  
BRANCH   6   7
HETATM    7  C   UNL     1     -10.689  16.588  67.478  1.00  0.00    -0.283 C  
BRANCH   7   8
HETATM    8  C   UNL     1      -9.182  16.419  67.326  1.00  0.00    -0.224 C  
BRANCH   8   9
HETATM    9  C   UNL     1      -8.574  15.388  68.271  1.00  0.00    -0.158 C  
BRANCH   9  10
HETATM   10  C   UNL     1      -8.381  14.081  67.495  1.00  0.00    -0.200 C  
BRANCH  10  11
HETATM   11  C   UNL     1      -8.921  12.851  68.208  1.00  0.00    -0.175 C  
BRANCH  11  12
HETATM   12  C   UNL     1      -8.689  11.499  67.509  1.00  0.00    -0.145 C  
BRANCH  12  13
HETATM   13  C   UNL     1      -7.834  10.485  68.300  1.00  0.00    -0.111 C  
BRANCH  13  14
HETATM   14  C   UNL     1      -8.144  10.431  69.801  1.00  0.00    -0.044 C  
HETATM   15  O   UNL     1      -6.973  10.096  70.600  1.00  0.00    -0.298 OA 
HETATM   16  O   UNL     1      -7.060   8.168  71.860  1.00  0.00    -0.068 OA 
HETATM   17  C   UNL     1      -8.850   9.144  70.311  1.00  0.00    -0.238 C  
HETATM   18  C   UNL     1      -7.532   8.965  71.086  1.00  0.00    -0.106 C  
BRANCH  17  19
HETATM   19  C   UNL     1     -10.078   9.248  71.208  1.00  0.00    -0.361 C  
BRANCH  19  20
HETATM   20  C   UNL     1     -10.283   7.954  71.990  1.00  0.00    -0.270 C  
BRANCH  20  21
HETATM   21  C   UNL     1     -11.715   7.840  72.520  1.00  0.00    -0.393 C  
BRANCH  21  22
HETATM   22  C   UNL     1     -12.566   6.941  71.621  1.00  0.00    -0.410 C  
BRANCH  22  23
HETATM   23  C   UNL     1     -13.956   7.531  71.380  1.00  0.00    -0.468 C  
HETATM   24  C   UNL     1     -14.068   8.930  71.971  1.00  0.00    -0.477 C  
ENDBRANCH  22  23
ENDBRANCH  21  22
ENDBRANCH  20  21
ENDBRANCH  19  20
ENDBRANCH  17  19
ENDBRANCH  13  14
ENDBRANCH  12  13
BRANCH  12  25
HETATM   25  O   UNL     1      -9.949  10.855  67.206  1.00  0.00    -0.179 OA 
BRANCH  25  26
HETATM   26  C   UNL     1     -10.012  10.103  66.073  1.00  0.00    -0.256 C  
HETATM   27  O   UNL     1      -9.964   8.879  66.017  1.00  0.00    -0.270 OA 
BRANCH  26  28
HETATM   28  C   UNL     1     -10.176  10.988  64.841  1.00  0.00    -0.311 C  
BRANCH  28  29
HETATM   29  C   UNL     1     -11.486  11.791  64.882  1.00  0.00    -0.269 C  
HETATM   30  C   UNL     1     -10.576  14.202  64.735  1.00  0.00    -0.439 C  
HETATM   31  C   UNL     1     -12.845  13.752  65.648  1.00  0.00    -0.456 C  
HETATM   32  C   UNL     1     -11.423  13.198  65.520  1.00  0.00    -0.343 C  
ENDBRANCH  28  29
BRANCH  28  33
HETATM   33  N   UNL     1     -10.048  10.158  63.645  1.00  0.00    -0.465 N  
HETATM   34  C   UNL     1      -8.861   9.982  62.991  1.00  0.00    -0.234 C  
HETATM   35  O   UNL     1      -7.804  10.517  63.288  1.00  0.00    -0.131 OA 
HETATM   36  H   UNL     1     -10.879   9.689  63.283  1.00  0.00     0.000 HD 
ENDBRANCH  28  33
ENDBRANCH  26  28
ENDBRANCH  25  26
ENDBRANCH  12  25
ENDBRANCH  11  12
ENDBRANCH  10  11
ENDBRANCH   9  10
ENDBRANCH   8   9
ENDBRANCH   7   8
ENDBRANCH   6   7
ENDBRANCH   5   6
ENDBRANCH   4   5
ENDBRANCH   3   4
ENDBRANCH   2   3
TORSDOF 22
ENDMDL
MODEL      110
REMARK 921   NORMALIZED FREE ENERGY PREDICTED BY IDOCK:   -4.46 KCAL/MOL
REMARK 922        TOTAL FREE ENERGY PREDICTED BY IDOCK:  -13.82 KCAL/MOL
REMARK 923 INTER-LIGAND FREE ENERGY PREDICTED BY IDOCK:   -9.01 KCAL/MOL
REMARK 924 INTRA-LIGAND FREE ENERGY PREDICTED BY IDOCK:   -4.82 KCAL/MOL
REMARK 927      BINDING AFFINITY PREDICTED BY RF-SCORE:    0.00 PKD
ROOT
HETATM    1  C   UNL     1     -11.767  11.962  63.454  1.00  0.00    -0.500 C  
HETATM    2  C   UNL     1     -11.955  12.914  64.624  1.00  0.00    -0.445 C  
ENDROOT
BRANCH   2   3
HETATM    3  C   UNL     1     -10.654  13.645  64.943  1.00  0.00    -0.421 C  
BRANCH   3   4
HETATM    4  C   UNL     1     -10.785  14.515  66.189  1.00  0.00    -0.310 C  
BRANCH   4   5
HETATM    5  C   UNL     1     -12.052  14.160  66.969  1.00  0.00    -0.449 C  
BRANCH   5   6
HETATM    6  C   UNL     1     -12.007  14.765  68.366  1.00  0.00    -0.270 C  
BRANCH   6   7
HETATM    7  C   UNL     1     -11.237  13.889  69.356  1.00  0.00    -0.273 C  
BRANCH   7   8
HETATM    8  C   UNL     1     -12.223  13.320  70.369  1.00  0.00    -0.404 C  
BRANCH   8   9
HETATM    9  C   UNL     1     -12.488  11.827  70.207  1.00  0.00    -0.237 C  
BRANCH   9  10
HETATM   10  C   UNL     1     -12.974  11.277  71.552  1.00  0.00    -0.520 C  
BRANCH  10  11
HETATM   11  C   UNL     1     -12.586   9.829  71.806  1.00  0.00    -0.506 C  
BRANCH  11  12
HETATM   12  C   UNL     1     -11.688   9.165  70.746  1.00  0.00    -0.256 C  
BRANCH  12  13
HETATM   13  C   UNL     1     -10.169   9.365  70.948  1.00  0.00    -0.373 C  
BRANCH  13  14
HETATM   14  C   UNL     1      -9.367   9.476  69.646  1.00  0.00    -0.200 C  
HETATM   15  O   UNL     1      -7.937   9.293  69.856  1.00  0.00    -0.087 OA 
HETATM   16  O   UNL     1      -6.547  11.048  69.310  1.00  0.00    -0.070 OA 
HETATM   17  C   UNL     1      -9.098  10.916  69.127  1.00  0.00    -0.058 C  
HETATM   18  C   UNL     1      -7.634  10.532  69.409  1.00  0.00    -0.145 C  
BRANCH  17  19
HETATM   19  C   UNL     1      -9.368  11.267  67.668  1.00  0.00    -0.162 C  
BRANCH  19  20
HETATM   20  C   UNL     1     -10.702  10.683  67.213  1.00  0.00    -0.338 C  
BRANCH  20  21
HETATM   21  C   UNL     1     -10.501   9.561  66.190  1.00  0.00    -0.077 C  
BRANCH  21  22
HETATM   22  C   UNL     1      -9.248   9.801  65.347  1.00  0.00    -0.282 C  
BRANCH  22  23
HETATM   23  C   UNL     1      -8.368   8.553  65.270  1.00  0.00    -0.168 C  
HETATM   24  C   UNL     1      -7.209   8.636  66.254  1.00  0.00    -0.079 C  
ENDBRANCH  22  23
ENDBRANCH  21  22
ENDBRANCH  20  21
ENDBRANCH  19  20
ENDBRANCH  17  19
ENDBRANCH  13  14
ENDBRANCH  12  13
BRANCH  12  25
HETATM   25  O   UNL     1     -11.929   7.740  70.689  1.00  0.00    -0.207 OA 
BRANCH  25  26
HETATM   26  C   UNL     1     -11.211   6.948  71.533  1.00  0.00    -0.256 C  
HETATM   27  O   UNL     1     -11.305   6.925  72.755  1.00  0.00    -0.258 OA 
BRANCH  26  28
HETATM   28  C   UNL     1     -10.257   6.047  70.753  1.00  0.00    -0.204 C  
BRANCH  28  29
HETATM   29  C   UNL     1     -10.791   5.727  69.348  1.00  0.00    -0.393 C  
HETATM   30  C   UNL     1      -8.587   5.637  68.007  1.00  0.00    -0.101 C  
HETATM   31  C   UNL     1     -10.759   6.022  66.860  1.00  0.00    -0.407 C  
HETATM   32  C   UNL     1      -9.974   6.267  68.152  1.00  0.00    -0.149 C  
ENDBRANCH  28  29
BRANCH  28  33
HETATM   33  N   UNL     1      -9.982   4.853  71.550  1.00  0.00    -0.186 N  
HETATM   34  C   UNL     1      -8.717   4.468  71.892  1.00  0.00    -0.117 C  
HETATM   35  O   UNL     1      -7.689   5.029  71.546  1.00  0.00    -0.098 OA 
HETATM   36  H   UNL     1     -10.769   4.283  71.864  1.00  0.00     0.000 HD 
ENDBRANCH  28  33
ENDBRANCH  26  28
ENDBRANCH  25  26
ENDBRANCH  12  25
ENDBRANCH  11  12
ENDBRANCH  10  11
ENDBRANCH   9  10
ENDBRANCH   8   9
ENDBRANCH   7   8
ENDBRANCH   6   7
ENDBRANCH   5   6
ENDBRANCH   4   5
ENDBRANCH   3   4
ENDBRANCH   2   3
TORSDOF 22
ENDMDL
MODEL      111
REMARK 921   NORMALIZED FREE ENERGY PREDICTED BY IDOCK:   -4.46 KCAL/MOL
REMARK 922        TOTAL FREE ENERGY PREDICTED BY IDOCK:  -13.80 KCAL/MOL
REMARK 923 INTER-LIGAND FREE ENERGY PREDICTED BY IDOCK:  -11.18 KCAL/MOL
REMARK 924 INTRA-LIGAND FREE ENERGY PREDICTED BY IDOCK:   -2.62 KCAL/MOL
REMARK 927      BINDING AFFINITY PREDICTED BY RF-SCORE:    0.00 PKD
ROOT
HETATM    1  C   UNL     1     -13.180   7.578  71.684  1.00  0.00    -0.404 C  
HETATM    2  C   UNL     1     -12.470   8.875  72.037  1.00  0.00    -0.461 C  
ENDROOT
BRANCH   2   3
HETATM    3  C   UNL     1     -13.109  10.058  71.314  1.00  0.00    -0.493 C  
BRANCH   3   4
HETATM    4  C   UNL     1     -12.060  10.967  70.681  1.00  0.00    -0.471 C  
BRANCH   4   5
HETATM    5  C   UNL     1     -11.285  10.225  69.591  1.00  0.00    -0.322 C  
BRANCH   5   6
HETATM    6  C   UNL     1      -9.856   9.954  70.041  1.00  0.00    -0.291 C  
BRANCH   6   7
HETATM    7  C   UNL     1      -8.827  10.320  68.970  1.00  0.00    -0.170 C  
BRANCH   7   8
HETATM    8  C   UNL     1      -9.352  11.516  68.183  1.00  0.00    -0.185 C  
BRANCH   8   9
HETATM    9  C   UNL     1      -8.373  12.054  67.145  1.00  0.00    -0.181 C  
BRANCH   9  10
HETATM   10  C   UNL     1      -7.847  13.406  67.637  1.00  0.00    -0.174 C  
BRANCH  10  11
HETATM   11  C   UNL     1      -8.928  14.460  67.826  1.00  0.00    -0.192 C  
BRANCH  11  12
HETATM   12  C   UNL     1      -9.444  15.147  66.549  1.00  0.00    -0.283 C  
BRANCH  12  13
HETATM   13  C   UNL     1     -10.881  14.768  66.129  1.00  0.00    -0.321 C  
BRANCH  13  14
HETATM   14  C   UNL     1     -10.985  14.116  64.745  1.00  0.00    -0.400 C  
HETATM   15  O   UNL     1     -12.357  14.058  64.259  1.00  0.00    -0.593 OA 
HETATM   16  O   UNL     1     -13.254  11.975  63.848  1.00  0.00    -0.705 OA 
HETATM   17  C   UNL     1     -10.917  12.563  64.712  1.00  0.00    -0.339 C  
HETATM   18  C   UNL     1     -12.361  12.707  64.200  1.00  0.00    -0.436 C  
BRANCH  17  19
HETATM   19  C   UNL     1      -9.987  11.859  63.730  1.00  0.00    -0.379 C  
BRANCH  19  20
HETATM   20  C   UNL     1      -9.886  10.372  64.058  1.00  0.00    -0.355 C  
BRANCH  20  21
HETATM   21  C   UNL     1      -8.506   9.812  63.702  1.00  0.00    -0.184 C  
BRANCH  21  22
HETATM   22  C   UNL     1      -7.830   9.192  64.926  1.00  0.00    -0.117 C  
BRANCH  22  23
HETATM   23  C   UNL     1      -8.807   8.358  65.754  1.00  0.00    -0.204 C  
HETATM   24  C   UNL     1      -8.643   6.872  65.463  1.00  0.00    -0.087 C  
ENDBRANCH  22  23
ENDBRANCH  21  22
ENDBRANCH  20  21
ENDBRANCH  19  20
ENDBRANCH  17  19
ENDBRANCH  13  14
ENDBRANCH  12  13
BRANCH  12  25
HETATM   25  O   UNL     1      -9.402  16.586  66.688  1.00  0.00    -0.230 OA 
BRANCH  25  26
HETATM   26  C   UNL     1      -8.208  17.203  66.469  1.00  0.00    -0.273 C  
HETATM   27  O   UNL     1      -7.115  16.652  66.393  1.00  0.00    -0.218 OA 
BRANCH  26  28
HETATM   28  C   UNL     1      -8.396  18.708  66.301  1.00  0.00    -0.230 C  
BRANCH  28  29
HETATM   29  C   UNL     1      -7.104  19.485  66.598  1.00  0.00    -0.226 C  
HETATM   30  C   UNL     1      -7.026  19.320  69.172  1.00  0.00    -0.375 C  
HETATM   31  C   UNL     1      -5.772  21.101  67.974  1.00  0.00    -0.396 C  
HETATM   32  C   UNL     1      -7.036  20.236  67.947  1.00  0.00    -0.326 C  
ENDBRANCH  28  29
BRANCH  28  33
HETATM   33  N   UNL     1      -9.527  19.135  67.124  1.00  0.00    -0.308 N  
HETATM   34  C   UNL     1     -10.679  19.639  66.592  1.00  0.00    -0.440 C  
HETATM   35  O   UNL     1     -10.885  19.833  65.403  1.00  0.00    -0.413 OA 
HETATM   36  H   UNL     1      -9.451  19.053  68.138  1.00  0.00     0.000 HD 
ENDBRANCH  28  33
ENDBRANCH  26  28
ENDBRANCH  25  26
ENDBRANCH  12  25
ENDBRANCH  11  12
ENDBRANCH  10  11
ENDBRANCH   9  10
ENDBRANCH   8   9
ENDBRANCH   7   8
ENDBRANCH   6   7
ENDBRANCH   5   6
ENDBRANCH   4   5
ENDBRANCH   3   4
ENDBRANCH   2   3
TORSDOF 22
ENDMDL
MODEL      112
REMARK 921   NORMALIZED FREE ENERGY PREDICTED BY IDOCK:   -4.45 KCAL/MOL
REMARK 922        TOTAL FREE ENERGY PREDICTED BY IDOCK:  -13.80 KCAL/MOL
REMARK 923 INTER-LIGAND FREE ENERGY PREDICTED BY IDOCK:  -10.85 KCAL/MOL
REMARK 924 INTRA-LIGAND FREE ENERGY PREDICTED BY IDOCK:   -2.95 KCAL/MOL
REMARK 927      BINDING AFFINITY PREDICTED BY RF-SCORE:    0.00 PKD
ROOT
HETATM    1  C   UNL     1      -9.752   5.103  68.051  1.00  0.00    -0.188 C  
HETATM    2  C   UNL     1     -10.599   5.440  69.267  1.00  0.00    -0.271 C  
ENDROOT
BRANCH   2   3
HETATM    3  C   UNL     1      -9.795   5.270  70.553  1.00  0.00    -0.274 C  
BRANCH   3   4
HETATM    4  C   UNL     1     -10.695   5.244  71.784  1.00  0.00    -0.240 C  
BRANCH   4   5
HETATM    5  C   UNL     1     -10.198   6.234  72.840  1.00  0.00    -0.207 C  
BRANCH   5   6
HETATM    6  C   UNL     1      -8.968   6.978  72.339  1.00  0.00    -0.142 C  
BRANCH   6   7
HETATM    7  C   UNL     1      -9.138   8.497  72.405  1.00  0.00    -0.308 C  
BRANCH   7   8
HETATM    8  C   UNL     1     -10.506   8.857  71.837  1.00  0.00    -0.415 C  
BRANCH   8   9
HETATM    9  C   UNL     1     -10.532   8.989  70.317  1.00  0.00    -0.248 C  
BRANCH   9  10
HETATM   10  C   UNL     1      -9.394   9.925  69.899  1.00  0.00    -0.250 C  
BRANCH  10  11
HETATM   11  C   UNL     1      -9.831  11.065  68.992  1.00  0.00    -0.165 C  
BRANCH  11  12
HETATM   12  C   UNL     1     -11.277  11.006  68.468  1.00  0.00    -0.268 C  
BRANCH  12  13
HETATM   13  C   UNL     1     -12.275  11.950  69.175  1.00  0.00    -0.141 C  
BRANCH  13  14
HETATM   14  C   UNL     1     -11.620  13.118  69.923  1.00  0.00    -0.185 C  
HETATM   15  O   UNL     1     -12.455  13.625  71.003  1.00  0.00    -0.354 OA 
HETATM   16  O   UNL     1     -13.140  15.822  70.876  1.00  0.00    -0.516 OA 
HETATM   17  C   UNL     1     -11.692  14.505  69.226  1.00  0.00    -0.350 C  
HETATM   18  C   UNL     1     -12.552  14.856  70.453  1.00  0.00    -0.343 C  
BRANCH  17  19
HETATM   19  C   UNL     1     -10.437  15.361  69.093  1.00  0.00    -0.239 C  
BRANCH  19  20
HETATM   20  C   UNL     1     -10.793  16.762  68.605  1.00  0.00    -0.336 C  
BRANCH  20  21
HETATM   21  C   UNL     1      -9.550  17.651  68.499  1.00  0.00    -0.315 C  
BRANCH  21  22
HETATM   22  C   UNL     1      -9.926  19.133  68.540  1.00  0.00    -0.496 C  
BRANCH  22  23
HETATM   23  C   UNL     1     -10.891  19.506  67.414  1.00  0.00    -0.536 C  
HETATM   24  C   UNL     1     -10.139  19.808  66.125  1.00  0.00    -0.600 C  
ENDBRANCH  22  23
ENDBRANCH  21  22
ENDBRANCH  20  21
ENDBRANCH  19  20
ENDBRANCH  17  19
ENDBRANCH  13  14
ENDBRANCH  12  13
BRANCH  12  25
HETATM   25  O   UNL     1     -11.323  11.313  67.055  1.00  0.00    -0.383 OA 
BRANCH  25  26
HETATM   26  C   UNL     1     -10.473  10.633  66.237  1.00  0.00    -0.203 C  
HETATM   27  O   UNL     1     -10.258   9.426  66.266  1.00  0.00    -0.274 OA 
BRANCH  26  28
HETATM   28  C   UNL     1      -9.813  11.574  65.234  1.00  0.00    -0.250 C  
BRANCH  28  29
HETATM   29  C   UNL     1      -9.879  13.039  65.693  1.00  0.00    -0.181 C  
HETATM   30  C   UNL     1     -12.204  13.717  64.800  1.00  0.00    -0.438 C  
HETATM   31  C   UNL     1     -10.487  15.441  65.314  1.00  0.00    -0.440 C  
HETATM   32  C   UNL     1     -10.702  14.009  64.814  1.00  0.00    -0.442 C  
ENDBRANCH  28  29
BRANCH  28  33
HETATM   33  N   UNL     1     -10.413  11.355  63.919  1.00  0.00    -0.353 N  
HETATM   34  C   UNL     1      -9.686  10.963  62.831  1.00  0.00    -0.317 C  
HETATM   35  O   UNL     1      -8.476  10.798  62.811  1.00  0.00    -0.182 OA 
HETATM   36  H   UNL     1     -11.417  11.501  63.809  1.00  0.00     0.000 HD 
ENDBRANCH  28  33
ENDBRANCH  26  28
ENDBRANCH  25  26
ENDBRANCH  12  25
ENDBRANCH  11  12
ENDBRANCH  10  11
ENDBRANCH   9  10
ENDBRANCH   8   9
ENDBRANCH   7   8
ENDBRANCH   6   7
ENDBRANCH   5   6
ENDBRANCH   4   5
ENDBRANCH   3   4
ENDBRANCH   2   3
TORSDOF 22
ENDMDL
MODEL      113
REMARK 921   NORMALIZED FREE ENERGY PREDICTED BY IDOCK:   -4.45 KCAL/MOL
REMARK 922        TOTAL FREE ENERGY PREDICTED BY IDOCK:  -13.79 KCAL/MOL
REMARK 923 INTER-LIGAND FREE ENERGY PREDICTED BY IDOCK:   -9.94 KCAL/MOL
REMARK 924 INTRA-LIGAND FREE ENERGY PREDICTED BY IDOCK:   -3.85 KCAL/MOL
REMARK 927      BINDING AFFINITY PREDICTED BY RF-SCORE:    0.00 PKD
ROOT
HETATM    1  C   UNL     1     -13.236  11.128  71.914  1.00  0.00    -0.488 C  
HETATM    2  C   UNL     1     -13.556   9.827  71.197  1.00  0.00    -0.233 C  
ENDROOT
BRANCH   2   3
HETATM    3  C   UNL     1     -14.330   8.880  72.110  1.00  0.00    -0.418 C  
BRANCH   3   4
HETATM    4  C   UNL     1     -14.167   7.424  71.684  1.00  0.00    -0.583 C  
BRANCH   4   5
HETATM    5  C   UNL     1     -12.732   7.149  71.230  1.00  0.00    -0.412 C  
BRANCH   5   6
HETATM    6  C   UNL     1     -12.031   6.216  72.208  1.00  0.00    -0.285 C  
BRANCH   6   7
HETATM    7  C   UNL     1     -10.688   6.772  72.685  1.00  0.00    -0.271 C  
BRANCH   7   8
HETATM    8  C   UNL     1     -10.513   8.173  72.112  1.00  0.00    -0.352 C  
BRANCH   8   9
HETATM    9  C   UNL     1      -9.439   8.274  71.034  1.00  0.00    -0.197 C  
BRANCH   9  10
HETATM   10  C   UNL     1      -9.673   9.564  70.243  1.00  0.00    -0.314 C  
BRANCH  10  11
HETATM   11  C   UNL     1     -10.705   9.433  69.133  1.00  0.00    -0.216 C  
BRANCH  11  12
HETATM   12  C   UNL     1     -10.534  10.373  67.926  1.00  0.00    -0.209 C  
BRANCH  12  13
HETATM   13  C   UNL     1     -10.164   9.680  66.596  1.00  0.00    -0.302 C  
BRANCH  13  14
HETATM   14  C   UNL     1      -8.961   8.733  66.689  1.00  0.00    -0.139 C  
HETATM   15  O   UNL     1      -7.769   9.396  67.200  1.00  0.00    -0.091 OA 
HETATM   16  O   UNL     1      -5.922   9.474  65.824  1.00  0.00    -0.053 OA 
HETATM   17  C   UNL     1      -8.216   8.438  65.357  1.00  0.00    -0.144 C  
HETATM   18  C   UNL     1      -7.063   9.166  66.071  1.00  0.00    -0.090 C  
BRANCH  17  19
HETATM   19  C   UNL     1      -7.884   7.002  64.967  1.00  0.00    -0.125 C  
BRANCH  19  20
HETATM   20  C   UNL     1      -7.971   6.082  66.182  1.00  0.00    -0.107 C  
BRANCH  20  21
HETATM   21  C   UNL     1      -8.798   4.830  65.878  1.00  0.00    -0.127 C  
BRANCH  21  22
HETATM   22  C   UNL     1      -9.415   4.253  67.154  1.00  0.00    -0.204 C  
BRANCH  22  23
HETATM   23  C   UNL     1      -9.562   5.315  68.244  1.00  0.00    -0.168 C  
HETATM   24  C   UNL     1     -10.948   5.944  68.215  1.00  0.00    -0.262 C  
ENDBRANCH  22  23
ENDBRANCH  21  22
ENDBRANCH  20  21
ENDBRANCH  19  20
ENDBRANCH  17  19
ENDBRANCH  13  14
ENDBRANCH  12  13
BRANCH  12  25
HETATM   25  O   UNL     1     -11.742  11.133  67.693  1.00  0.00    -0.573 OA 
BRANCH  25  26
HETATM   26  C   UNL     1     -11.740  12.444  68.064  1.00  0.00    -0.356 C  
HETATM   27  O   UNL     1     -11.979  12.876  69.186  1.00  0.00    -0.298 OA 
BRANCH  26  28
HETATM   28  C   UNL     1     -11.373  13.342  66.886  1.00  0.00    -0.318 C  
BRANCH  28  29
HETATM   29  C   UNL     1     -11.555  14.831  67.221  1.00  0.00    -0.385 C  
HETATM   30  C   UNL     1      -9.404  15.820  66.194  1.00  0.00    -0.381 C  
HETATM   31  C   UNL     1     -10.653  17.049  67.958  1.00  0.00    -0.373 C  
HETATM   32  C   UNL     1     -10.268  15.658  67.445  1.00  0.00    -0.264 C  
ENDBRANCH  28  29
BRANCH  28  33
HETATM   33  N   UNL     1     -12.138  12.917  65.715  1.00  0.00    -0.444 N  
HETATM   34  C   UNL     1     -11.574  12.758  64.481  1.00  0.00    -0.347 C  
HETATM   35  O   UNL     1     -10.407  12.988  64.202  1.00  0.00    -0.419 OA 
HETATM   36  H   UNL     1     -13.136  12.732  65.823  1.00  0.00     0.000 HD 
ENDBRANCH  28  33
ENDBRANCH  26  28
ENDBRANCH  25  26
ENDBRANCH  12  25
ENDBRANCH  11  12
ENDBRANCH  10  11
ENDBRANCH   9  10
ENDBRANCH   8   9
ENDBRANCH   7   8
ENDBRANCH   6   7
ENDBRANCH   5   6
ENDBRANCH   4   5
ENDBRANCH   3   4
ENDBRANCH   2   3
TORSDOF 22
ENDMDL
MODEL      114
REMARK 921   NORMALIZED FREE ENERGY PREDICTED BY IDOCK:   -4.45 KCAL/MOL
REMARK 922        TOTAL FREE ENERGY PREDICTED BY IDOCK:  -13.78 KCAL/MOL
REMARK 923 INTER-LIGAND FREE ENERGY PREDICTED BY IDOCK:   -9.88 KCAL/MOL
REMARK 924 INTRA-LIGAND FREE ENERGY PREDICTED BY IDOCK:   -3.90 KCAL/MOL
REMARK 927      BINDING AFFINITY PREDICTED BY RF-SCORE:    0.00 PKD
ROOT
HETATM    1  C   UNL     1     -13.436  14.203  72.240  1.00  0.00    -0.578 C  
HETATM    2  C   UNL     1     -12.672  14.085  70.932  1.00  0.00    -0.420 C  
ENDROOT
BRANCH   2   3
HETATM    3  C   UNL     1     -11.975  15.398  70.590  1.00  0.00    -0.396 C  
BRANCH   3   4
HETATM    4  C   UNL     1     -11.811  15.577  69.084  1.00  0.00    -0.373 C  
BRANCH   4   5
HETATM    5  C   UNL     1     -11.784  14.221  68.376  1.00  0.00    -0.373 C  
BRANCH   5   6
HETATM    6  C   UNL     1     -11.379  14.386  66.917  1.00  0.00    -0.357 C  
BRANCH   6   7
HETATM    7  C   UNL     1     -12.530  14.089  65.955  1.00  0.00    -0.513 C  
BRANCH   7   8
HETATM    8  C   UNL     1     -12.138  12.903  65.082  1.00  0.00    -0.489 C  
BRANCH   8   9
HETATM    9  C   UNL     1     -10.674  12.494  65.212  1.00  0.00    -0.318 C  
BRANCH   9  10
HETATM   10  C   UNL     1     -10.395  11.380  64.198  1.00  0.00    -0.400 C  
BRANCH  10  11
HETATM   11  C   UNL     1      -9.697  10.165  64.788  1.00  0.00    -0.389 C  
BRANCH  11  12
HETATM   12  C   UNL     1      -9.583  10.120  66.322  1.00  0.00    -0.193 C  
BRANCH  12  13
HETATM   13  C   UNL     1     -10.608   9.208  67.034  1.00  0.00    -0.266 C  
BRANCH  13  14
HETATM   14  C   UNL     1     -10.029   7.883  67.543  1.00  0.00    -0.192 C  
HETATM   15  O   UNL     1      -9.665   6.981  66.460  1.00  0.00    -0.177 OA 
HETATM   16  O   UNL     1     -10.743   4.946  66.361  1.00  0.00    -0.281 OA 
HETATM   17  C   UNL     1     -11.058   6.838  68.058  1.00  0.00    -0.246 C  
HETATM   18  C   UNL     1     -10.536   6.027  66.858  1.00  0.00    -0.280 C  
BRANCH  17  19
HETATM   19  C   UNL     1     -10.843   6.148  69.401  1.00  0.00    -0.420 C  
BRANCH  19  20
HETATM   20  C   UNL     1     -10.614   7.179  70.503  1.00  0.00    -0.243 C  
BRANCH  20  21
HETATM   21  C   UNL     1     -11.940   7.679  71.085  1.00  0.00    -0.319 C  
BRANCH  21  22
HETATM   22  C   UNL     1     -11.751   9.002  71.829  1.00  0.00    -0.440 C  
BRANCH  22  23
HETATM   23  C   UNL     1     -12.654  10.102  71.269  1.00  0.00    -0.508 C  
HETATM   24  C   UNL     1     -12.061  10.707  70.004  1.00  0.00    -0.393 C  
ENDBRANCH  22  23
ENDBRANCH  21  22
ENDBRANCH  20  21
ENDBRANCH  19  20
ENDBRANCH  17  19
ENDBRANCH  13  14
ENDBRANCH  12  13
BRANCH  12  25
HETATM   25  O   UNL     1      -8.265   9.681  66.726  1.00  0.00    -0.112 OA 
BRANCH  25  26
HETATM   26  C   UNL     1      -7.262  10.602  66.698  1.00  0.00    -0.128 C  
HETATM   27  O   UNL     1      -6.336  10.635  65.895  1.00  0.00    -0.118 OA 
BRANCH  26  28
HETATM   28  C   UNL     1      -7.442  11.637  67.805  1.00  0.00    -0.111 C  
BRANCH  28  29
HETATM   29  C   UNL     1      -7.022  13.043  67.351  1.00  0.00    -0.123 C  
HETATM   30  C   UNL     1      -8.077  14.485  69.213  1.00  0.00     0.029 C  
HETATM   31  C   UNL     1      -7.492  15.481  67.011  1.00  0.00    -0.205 C  
HETATM   32  C   UNL     1      -7.973  14.207  67.713  1.00  0.00    -0.175 C  
ENDBRANCH  28  29
BRANCH  28  33
HETATM   33  N   UNL     1      -6.728  11.179  68.996  1.00  0.00    -0.076 N  
HETATM   34  C   UNL     1      -7.316  10.413  69.961  1.00  0.00    -0.111 C  
HETATM   35  O   UNL     1      -8.486  10.064  69.973  1.00  0.00    -0.187 OA 
HETATM   36  H   UNL     1      -5.749  11.444  69.111  1.00  0.00     0.000 HD 
ENDBRANCH  28  33
ENDBRANCH  26  28
ENDBRANCH  25  26
ENDBRANCH  12  25
ENDBRANCH  11  12
ENDBRANCH  10  11
ENDBRANCH   9  10
ENDBRANCH   8   9
ENDBRANCH   7   8
ENDBRANCH   6   7
ENDBRANCH   5   6
ENDBRANCH   4   5
ENDBRANCH   3   4
ENDBRANCH   2   3
TORSDOF 22
ENDMDL
MODEL      115
REMARK 921   NORMALIZED FREE ENERGY PREDICTED BY IDOCK:   -4.45 KCAL/MOL
REMARK 922        TOTAL FREE ENERGY PREDICTED BY IDOCK:  -13.78 KCAL/MOL
REMARK 923 INTER-LIGAND FREE ENERGY PREDICTED BY IDOCK:  -11.00 KCAL/MOL
REMARK 924 INTRA-LIGAND FREE ENERGY PREDICTED BY IDOCK:   -2.78 KCAL/MOL
REMARK 927      BINDING AFFINITY PREDICTED BY RF-SCORE:    0.00 PKD
ROOT
HETATM    1  C   UNL     1     -10.628  18.794  66.738  1.00  0.00    -0.458 C  
HETATM    2  C   UNL     1      -9.706  17.587  66.802  1.00  0.00    -0.296 C  
ENDROOT
BRANCH   2   3
HETATM    3  C   UNL     1     -10.425  16.386  67.408  1.00  0.00    -0.309 C  
BRANCH   3   4
HETATM    4  C   UNL     1     -10.560  15.243  66.406  1.00  0.00    -0.308 C  
BRANCH   4   5
HETATM    5  C   UNL     1     -11.843  14.449  66.658  1.00  0.00    -0.417 C  
BRANCH   5   6
HETATM    6  C   UNL     1     -12.563  14.165  65.346  1.00  0.00    -0.485 C  
BRANCH   6   7
HETATM    7  C   UNL     1     -12.621  12.670  65.024  1.00  0.00    -0.504 C  
BRANCH   7   8
HETATM    8  C   UNL     1     -12.237  12.475  63.562  1.00  0.00    -0.652 C  
BRANCH   8   9
HETATM    9  C   UNL     1     -10.763  12.150  63.346  1.00  0.00    -0.461 C  
BRANCH   9  10
HETATM   10  C   UNL     1     -10.410  10.929  64.201  1.00  0.00    -0.432 C  
BRANCH  10  11
HETATM   11  C   UNL     1      -9.190  11.124  65.087  1.00  0.00    -0.209 C  
BRANCH  11  12
HETATM   12  C   UNL     1      -9.341  10.706  66.561  1.00  0.00    -0.167 C  
BRANCH  12  13
HETATM   13  C   UNL     1     -10.349  11.539  67.383  1.00  0.00    -0.235 C  
BRANCH  13  14
HETATM   14  C   UNL     1     -11.310  10.706  68.240  1.00  0.00    -0.289 C  
HETATM   15  O   UNL     1     -12.398  11.501  68.790  1.00  0.00    -0.425 OA 
HETATM   16  O   UNL     1     -12.568  11.629  71.085  1.00  0.00    -0.385 OA 
HETATM   17  C   UNL     1     -10.833  10.375  69.681  1.00  0.00    -0.320 C  
HETATM   18  C   UNL     1     -12.041  11.247  70.069  1.00  0.00    -0.348 C  
BRANCH  17  19
HETATM   19  C   UNL     1     -10.917   8.946  70.207  1.00  0.00    -0.266 C  
BRANCH  19  20
HETATM   20  C   UNL     1     -10.668   8.913  71.712  1.00  0.00    -0.432 C  
BRANCH  20  21
HETATM   21  C   UNL     1     -11.627   7.949  72.417  1.00  0.00    -0.436 C  
BRANCH  21  22
HETATM   22  C   UNL     1     -12.427   7.128  71.404  1.00  0.00    -0.427 C  
BRANCH  22  23
HETATM   23  C   UNL     1     -13.932   7.229  71.652  1.00  0.00    -0.488 C  
HETATM   24  C   UNL     1     -14.349   8.668  71.921  1.00  0.00    -0.492 C  
ENDBRANCH  22  23
ENDBRANCH  21  22
ENDBRANCH  20  21
ENDBRANCH  19  20
ENDBRANCH  17  19
ENDBRANCH  13  14
ENDBRANCH  12  13
BRANCH  12  25
HETATM   25  O   UNL     1      -9.746   9.321  66.662  1.00  0.00    -0.183 OA 
BRANCH  25  26
HETATM   26  C   UNL     1      -8.793   8.414  67.015  1.00  0.00    -0.134 C  
HETATM   27  O   UNL     1      -7.586   8.621  67.069  1.00  0.00    -0.084 OA 
BRANCH  26  28
HETATM   28  C   UNL     1      -9.425   7.071  67.369  1.00  0.00    -0.133 C  
BRANCH  28  29
HETATM   29  C   UNL     1      -8.541   6.254  68.325  1.00  0.00    -0.117 C  
HETATM   30  C   UNL     1     -10.340   5.037  69.719  1.00  0.00    -0.286 C  
HETATM   31  C   UNL     1      -8.029   5.318  70.592  1.00  0.00    -0.103 C  
HETATM   32  C   UNL     1      -9.119   5.959  69.728  1.00  0.00    -0.147 C  
ENDBRANCH  28  29
BRANCH  28  33
HETATM   33  N   UNL     1      -9.742   6.360  66.131  1.00  0.00    -0.385 N  
HETATM   34  C   UNL     1      -8.805   5.675  65.411  1.00  0.00    -0.106 C  
HETATM   35  O   UNL     1      -7.615   5.612  65.678  1.00  0.00    -0.083 OA 
HETATM   36  H   UNL     1     -10.704   6.376  65.791  1.00  0.00     0.000 HD 
ENDBRANCH  28  33
ENDBRANCH  26  28
ENDBRANCH  25  26
ENDBRANCH  12  25
ENDBRANCH  11  12
ENDBRANCH  10  11
ENDBRANCH   9  10
ENDBRANCH   8   9
ENDBRANCH   7   8
ENDBRANCH   6   7
ENDBRANCH   5   6
ENDBRANCH   4   5
ENDBRANCH   3   4
ENDBRANCH   2   3
TORSDOF 22
ENDMDL
MODEL      116
REMARK 921   NORMALIZED FREE ENERGY PREDICTED BY IDOCK:   -4.44 KCAL/MOL
REMARK 922        TOTAL FREE ENERGY PREDICTED BY IDOCK:  -13.77 KCAL/MOL
REMARK 923 INTER-LIGAND FREE ENERGY PREDICTED BY IDOCK:  -11.18 KCAL/MOL
REMARK 924 INTRA-LIGAND FREE ENERGY PREDICTED BY IDOCK:   -2.59 KCAL/MOL
REMARK 927      BINDING AFFINITY PREDICTED BY RF-SCORE:    0.00 PKD
ROOT
HETATM    1  C   UNL     1     -11.315  15.966  64.515  1.00  0.00    -0.316 C  
HETATM    2  C   UNL     1     -12.407  14.920  64.363  1.00  0.00    -0.342 C  
ENDROOT
BRANCH   2   3
HETATM    3  C   UNL     1     -12.326  13.885  65.482  1.00  0.00    -0.506 C  
BRANCH   3   4
HETATM    4  C   UNL     1     -12.347  12.460  64.937  1.00  0.00    -0.475 C  
BRANCH   4   5
HETATM    5  C   UNL     1     -11.604  12.378  63.602  1.00  0.00    -0.580 C  
BRANCH   5   6
HETATM    6  C   UNL     1     -10.115  12.155  63.832  1.00  0.00    -0.387 C  
BRANCH   6   7
HETATM    7  C   UNL     1      -9.601  10.891  63.140  1.00  0.00    -0.384 C  
BRANCH   7   8
HETATM    8  C   UNL     1      -8.728  10.122  64.124  1.00  0.00    -0.216 C  
BRANCH   8   9
HETATM    9  C   UNL     1      -9.513   9.271  65.117  1.00  0.00    -0.184 C  
BRANCH   9  10
HETATM   10  C   UNL     1      -8.817   9.357  66.478  1.00  0.00    -0.155 C  
BRANCH  10  11
HETATM   11  C   UNL     1      -9.772   9.469  67.657  1.00  0.00    -0.188 C  
BRANCH  11  12
HETATM   12  C   UNL     1      -9.203  10.099  68.941  1.00  0.00    -0.172 C  
BRANCH  12  13
HETATM   13  C   UNL     1      -8.696  11.551  68.796  1.00  0.00    -0.048 C  
BRANCH  13  14
HETATM   14  C   UNL     1      -9.637  12.474  68.012  1.00  0.00    -0.212 C  
HETATM   15  O   UNL     1      -9.099  12.839  66.708  1.00  0.00    -0.217 OA 
HETATM   16  O   UNL     1      -8.717  15.075  66.303  1.00  0.00    -0.216 OA 
HETATM   17  C   UNL     1      -9.630  13.972  68.425  1.00  0.00    -0.222 C  
HETATM   18  C   UNL     1      -9.074  14.158  67.002  1.00  0.00    -0.243 C  
BRANCH  17  19
HETATM   19  C   UNL     1     -10.945  14.705  68.669  1.00  0.00    -0.266 C  
BRANCH  19  20
HETATM   20  C   UNL     1     -10.695  16.030  69.384  1.00  0.00    -0.294 C  
BRANCH  20  21
HETATM   21  C   UNL     1     -10.681  17.203  68.400  1.00  0.00    -0.347 C  
BRANCH  21  22
HETATM   22  C   UNL     1      -9.448  18.084  68.610  1.00  0.00    -0.317 C  
BRANCH  22  23
HETATM   23  C   UNL     1      -9.781  19.570  68.468  1.00  0.00    -0.503 C  
HETATM   24  C   UNL     1     -10.223  19.900  67.049  1.00  0.00    -0.588 C  
ENDBRANCH  22  23
ENDBRANCH  21  22
ENDBRANCH  20  21
ENDBRANCH  19  20
ENDBRANCH  17  19
ENDBRANCH  13  14
ENDBRANCH  12  13
BRANCH  12  25
HETATM   25  O   UNL     1     -10.191  10.092  69.997  1.00  0.00    -0.254 OA 
BRANCH  25  26
HETATM   26  C   UNL     1      -9.897   9.391  71.127  1.00  0.00    -0.216 C  
HETATM   27  O   UNL     1      -8.776   9.074  71.507  1.00  0.00    -0.304 OA 
BRANCH  26  28
HETATM   28  C   UNL     1     -11.167   9.051  71.902  1.00  0.00    -0.368 C  
BRANCH  28  29
HETATM   29  C   UNL     1     -11.070   7.680  72.590  1.00  0.00    -0.412 C  
HETATM   30  C   UNL     1     -10.793   6.133  70.543  1.00  0.00    -0.364 C  
HETATM   31  C   UNL     1     -11.603   5.235  72.715  1.00  0.00    -0.270 C  
HETATM   32  C   UNL     1     -11.601   6.463  71.799  1.00  0.00    -0.367 C  
ENDBRANCH  28  29
BRANCH  28  33
HETATM   33  N   UNL     1     -12.312   9.162  71.000  1.00  0.00    -0.437 N  
HETATM   34  C   UNL     1     -13.260  10.137  71.126  1.00  0.00    -0.355 C  
HETATM   35  O   UNL     1     -13.293  10.982  72.007  1.00  0.00    -0.455 OA 
HETATM   36  H   UNL     1     -12.407   8.482  70.244  1.00  0.00     0.000 HD 
ENDBRANCH  28  33
ENDBRANCH  26  28
ENDBRANCH  25  26
ENDBRANCH  12  25
ENDBRANCH  11  12
ENDBRANCH  10  11
ENDBRANCH   9  10
ENDBRANCH   8   9
ENDBRANCH   7   8
ENDBRANCH   6   7
ENDBRANCH   5   6
ENDBRANCH   4   5
ENDBRANCH   3   4
ENDBRANCH   2   3
TORSDOF 22
ENDMDL
MODEL      117
REMARK 921   NORMALIZED FREE ENERGY PREDICTED BY IDOCK:   -4.44 KCAL/MOL
REMARK 922        TOTAL FREE ENERGY PREDICTED BY IDOCK:  -13.77 KCAL/MOL
REMARK 923 INTER-LIGAND FREE ENERGY PREDICTED BY IDOCK:  -10.38 KCAL/MOL
REMARK 924 INTRA-LIGAND FREE ENERGY PREDICTED BY IDOCK:   -3.38 KCAL/MOL
REMARK 927      BINDING AFFINITY PREDICTED BY RF-SCORE:    0.00 PKD
ROOT
HETATM    1  C   UNL     1      -5.323  17.273  66.571  1.00  0.00    -0.206 C  
HETATM    2  C   UNL     1      -6.026  18.444  65.904  1.00  0.00    -0.239 C  
ENDROOT
BRANCH   2   3
HETATM    3  C   UNL     1      -6.935  19.167  66.895  1.00  0.00    -0.209 C  
BRANCH   3   4
HETATM    4  C   UNL     1      -8.403  19.069  66.490  1.00  0.00    -0.313 C  
BRANCH   4   5
HETATM    5  C   UNL     1      -9.132  18.026  67.339  1.00  0.00    -0.250 C  
BRANCH   5   6
HETATM    6  C   UNL     1      -9.579  16.853  66.477  1.00  0.00    -0.295 C  
BRANCH   6   7
HETATM    7  C   UNL     1      -8.611  15.671  66.552  1.00  0.00    -0.335 C  
BRANCH   7   8
HETATM    8  C   UNL     1      -8.059  15.586  67.970  1.00  0.00    -0.140 C  
BRANCH   8   9
HETATM    9  C   UNL     1      -7.470  14.225  68.327  1.00  0.00    -0.125 C  
BRANCH   9  10
HETATM   10  C   UNL     1      -8.126  13.170  67.432  1.00  0.00    -0.181 C  
BRANCH  10  11
HETATM   11  C   UNL     1      -8.214  11.789  68.064  1.00  0.00    -0.152 C  
BRANCH  11  12
HETATM   12  C   UNL     1      -9.603  11.354  68.567  1.00  0.00    -0.189 C  
BRANCH  12  13
HETATM   13  C   UNL     1     -10.674  11.170  67.470  1.00  0.00    -0.280 C  
BRANCH  13  14
HETATM   14  C   UNL     1     -11.827  12.179  67.535  1.00  0.00    -0.237 C  
HETATM   15  O   UNL     1     -12.490  12.351  66.250  1.00  0.00    -0.462 OA 
HETATM   16  O   UNL     1     -12.456  14.453  65.306  1.00  0.00    -0.412 OA 
HETATM   17  C   UNL     1     -11.425  13.680  67.518  1.00  0.00    -0.360 C  
HETATM   18  C   UNL     1     -12.179  13.664  66.177  1.00  0.00    -0.444 C  
BRANCH  17  19
HETATM   19  C   UNL     1     -12.018  14.644  68.541  1.00  0.00    -0.298 C  
BRANCH  19  20
HETATM   20  C   UNL     1     -11.675  14.197  69.960  1.00  0.00    -0.358 C  
BRANCH  20  21
HETATM   21  C   UNL     1     -12.936  14.029  70.813  1.00  0.00    -0.298 C  
BRANCH  21  22
HETATM   22  C   UNL     1     -13.467  15.383  71.286  1.00  0.00    -0.598 C  
BRANCH  22  23
HETATM   23  C   UNL     1     -13.705  15.404  72.796  1.00  0.00    -0.613 C  
HETATM   24  C   UNL     1     -12.718  16.328  73.495  1.00  0.00    -0.603 C  
ENDBRANCH  22  23
ENDBRANCH  21  22
ENDBRANCH  20  21
ENDBRANCH  19  20
ENDBRANCH  17  19
ENDBRANCH  13  14
ENDBRANCH  12  13
BRANCH  12  25
HETATM   25  O   UNL     1      -9.517  10.108  69.297  1.00  0.00    -0.195 OA 
BRANCH  25  26
HETATM   26  C   UNL     1     -10.601   9.735  70.031  1.00  0.00    -0.276 C  
HETATM   27  O   UNL     1     -11.310  10.480  70.699  1.00  0.00    -0.322 OA 
BRANCH  26  28
HETATM   28  C   UNL     1     -10.854   8.235  69.906  1.00  0.00    -0.213 C  
BRANCH  28  29
HETATM   29  C   UNL     1     -10.741   7.754  68.451  1.00  0.00    -0.088 C  
HETATM   30  C   UNL     1     -10.207   5.255  68.813  1.00  0.00    -0.231 C  
HETATM   31  C   UNL     1      -9.650   6.377  66.665  1.00  0.00    -0.194 C  
HETATM   32  C   UNL     1      -9.775   6.578  68.178  1.00  0.00    -0.126 C  
ENDBRANCH  28  29
BRANCH  28  33
HETATM   33  N   UNL     1     -12.145   7.924  70.517  1.00  0.00    -0.483 N  
HETATM   34  C   UNL     1     -12.315   6.896  71.401  1.00  0.00    -0.376 C  
HETATM   35  O   UNL     1     -11.448   6.107  71.744  1.00  0.00    -0.285 OA 
HETATM   36  H   UNL     1     -12.953   8.498  70.273  1.00  0.00     0.000 HD 
ENDBRANCH  28  33
ENDBRANCH  26  28
ENDBRANCH  25  26
ENDBRANCH  12  25
ENDBRANCH  11  12
ENDBRANCH  10  11
ENDBRANCH   9  10
ENDBRANCH   8   9
ENDBRANCH   7   8
ENDBRANCH   6   7
ENDBRANCH   5   6
ENDBRANCH   4   5
ENDBRANCH   3   4
ENDBRANCH   2   3
TORSDOF 22
ENDMDL
MODEL      118
REMARK 921   NORMALIZED FREE ENERGY PREDICTED BY IDOCK:   -4.44 KCAL/MOL
REMARK 922        TOTAL FREE ENERGY PREDICTED BY IDOCK:  -13.76 KCAL/MOL
REMARK 923 INTER-LIGAND FREE ENERGY PREDICTED BY IDOCK:  -11.72 KCAL/MOL
REMARK 924 INTRA-LIGAND FREE ENERGY PREDICTED BY IDOCK:   -2.04 KCAL/MOL
REMARK 927      BINDING AFFINITY PREDICTED BY RF-SCORE:    0.00 PKD
ROOT
HETATM    1  C   UNL     1     -10.795  14.782  65.013  1.00  0.00    -0.440 C  
HETATM    2  C   UNL     1     -12.232  14.365  64.747  1.00  0.00    -0.458 C  
ENDROOT
BRANCH   2   3
HETATM    3  C   UNL     1     -12.392  12.854  64.888  1.00  0.00    -0.532 C  
BRANCH   3   4
HETATM    4  C   UNL     1     -12.297  12.146  63.540  1.00  0.00    -0.682 C  
BRANCH   4   5
HETATM    5  C   UNL     1     -10.876  11.632  63.296  1.00  0.00    -0.380 C  
BRANCH   5   6
HETATM    6  C   UNL     1     -10.350  10.909  64.529  1.00  0.00    -0.417 C  
BRANCH   6   7
HETATM    7  C   UNL     1      -9.047  10.157  64.253  1.00  0.00    -0.288 C  
BRANCH   7   8
HETATM    8  C   UNL     1      -8.660   9.381  65.507  1.00  0.00    -0.169 C  
BRANCH   8   9
HETATM    9  C   UNL     1      -9.841   8.733  66.224  1.00  0.00    -0.342 C  
BRANCH   9  10
HETATM   10  C   UNL     1      -9.457   8.532  67.693  1.00  0.00    -0.173 C  
BRANCH  10  11
HETATM   11  C   UNL     1     -10.622   8.666  68.662  1.00  0.00    -0.165 C  
BRANCH  11  12
HETATM   12  C   UNL     1     -10.590   9.880  69.607  1.00  0.00    -0.250 C  
BRANCH  12  13
HETATM   13  C   UNL     1     -11.851  10.771  69.581  1.00  0.00    -0.392 C  
BRANCH  13  14
HETATM   14  C   UNL     1     -11.754  11.979  68.641  1.00  0.00    -0.326 C  
HETATM   15  O   UNL     1     -10.558  11.943  67.811  1.00  0.00    -0.195 OA 
HETATM   16  O   UNL     1      -9.052  13.673  68.039  1.00  0.00    -0.178 OA 
HETATM   17  C   UNL     1     -11.261  13.307  69.280  1.00  0.00    -0.266 C  
HETATM   18  C   UNL     1     -10.076  13.099  68.321  1.00  0.00    -0.247 C  
BRANCH  17  19
HETATM   19  C   UNL     1     -12.025  14.604  69.035  1.00  0.00    -0.318 C  
BRANCH  19  20
HETATM   20  C   UNL     1     -11.314  15.779  69.700  1.00  0.00    -0.334 C  
BRANCH  20  21
HETATM   21  C   UNL     1     -11.735  15.932  71.164  1.00  0.00    -0.490 C  
BRANCH  21  22
HETATM   22  C   UNL     1     -13.181  15.479  71.373  1.00  0.00    -0.587 C  
BRANCH  22  23
HETATM   23  C   UNL     1     -13.521  15.330  72.856  1.00  0.00    -0.611 C  
HETATM   24  C   UNL     1     -12.607  16.191  73.718  1.00  0.00    -0.698 C  
ENDBRANCH  22  23
ENDBRANCH  21  22
ENDBRANCH  20  21
ENDBRANCH  19  20
ENDBRANCH  17  19
ENDBRANCH  13  14
ENDBRANCH  12  13
BRANCH  12  25
HETATM   25  O   UNL     1     -10.389   9.459  70.976  1.00  0.00    -0.286 OA 
BRANCH  25  26
HETATM   26  C   UNL     1     -10.868   8.234  71.332  1.00  0.00    -0.239 C  
HETATM   27  O   UNL     1     -12.039   7.876  71.282  1.00  0.00    -0.296 OA 
BRANCH  26  28
HETATM   28  C   UNL     1      -9.736   7.322  71.796  1.00  0.00    -0.153 C  
BRANCH  28  29
HETATM   29  C   UNL     1      -9.936   5.873  71.324  1.00  0.00    -0.232 C  
HETATM   30  C   UNL     1     -11.350   4.927  73.264  1.00  0.00    -0.408 C  
HETATM   31  C   UNL     1     -10.070   3.411  71.767  1.00  0.00    -0.136 C  
HETATM   32  C   UNL     1     -10.080   4.795  72.422  1.00  0.00    -0.235 C  
ENDBRANCH  28  29
BRANCH  28  33
HETATM   33  N   UNL     1      -9.601   7.441  73.247  1.00  0.00    -0.207 N  
HETATM   34  C   UNL     1      -8.560   8.095  73.841  1.00  0.00    -0.222 C  
HETATM   35  O   UNL     1      -7.617   8.605  73.255  1.00  0.00    -0.364 OA 
HETATM   36  H   UNL     1     -10.315   7.018  73.841  1.00  0.00     0.000 HD 
ENDBRANCH  28  33
ENDBRANCH  26  28
ENDBRANCH  25  26
ENDBRANCH  12  25
ENDBRANCH  11  12
ENDBRANCH  10  11
ENDBRANCH   9  10
ENDBRANCH   8   9
ENDBRANCH   7   8
ENDBRANCH   6   7
ENDBRANCH   5   6
ENDBRANCH   4   5
ENDBRANCH   3   4
ENDBRANCH   2   3
TORSDOF 22
ENDMDL
MODEL      119
REMARK 921   NORMALIZED FREE ENERGY PREDICTED BY IDOCK:   -4.43 KCAL/MOL
REMARK 922        TOTAL FREE ENERGY PREDICTED BY IDOCK:  -13.76 KCAL/MOL
REMARK 923 INTER-LIGAND FREE ENERGY PREDICTED BY IDOCK:   -9.97 KCAL/MOL
REMARK 924 INTRA-LIGAND FREE ENERGY PREDICTED BY IDOCK:   -3.79 KCAL/MOL
REMARK 927      BINDING AFFINITY PREDICTED BY RF-SCORE:    0.00 PKD
ROOT
HETATM    1  C   UNL     1      -9.290   5.757  66.036  1.00  0.00    -0.134 C  
HETATM    2  C   UNL     1      -8.897   7.218  66.179  1.00  0.00    -0.181 C  
ENDROOT
BRANCH   2   3
HETATM    3  C   UNL     1      -9.428   7.797  67.488  1.00  0.00    -0.170 C  
BRANCH   3   4
HETATM    4  C   UNL     1      -9.731   9.287  67.366  1.00  0.00    -0.208 C  
BRANCH   4   5
HETATM    5  C   UNL     1      -9.678   9.966  68.736  1.00  0.00    -0.164 C  
BRANCH   5   6
HETATM    6  C   UNL     1      -9.128  11.380  68.611  1.00  0.00    -0.138 C  
BRANCH   6   7
HETATM    7  C   UNL     1      -8.449  11.625  67.262  1.00  0.00    -0.156 C  
BRANCH   7   8
HETATM    8  C   UNL     1      -8.361  13.129  67.030  1.00  0.00    -0.094 C  
BRANCH   8   9
HETATM    9  C   UNL     1      -8.351  13.955  68.313  1.00  0.00    -0.163 C  
BRANCH   9  10
HETATM   10  C   UNL     1      -8.285  15.436  67.928  1.00  0.00    -0.150 C  
BRANCH  10  11
HETATM   11  C   UNL     1      -9.630  16.041  67.555  1.00  0.00    -0.222 C  
BRANCH  11  12
HETATM   12  C   UNL     1     -10.260  16.996  68.586  1.00  0.00    -0.321 C  
BRANCH  12  13
HETATM   13  C   UNL     1     -10.799  16.323  69.867  1.00  0.00    -0.352 C  
BRANCH  13  14
HETATM   14  C   UNL     1     -12.002  15.400  69.638  1.00  0.00    -0.343 C  
HETATM   15  O   UNL     1     -12.944  15.428  70.748  1.00  0.00    -0.448 OA 
HETATM   16  O   UNL     1     -13.322  13.452  71.874  1.00  0.00    -0.407 OA 
HETATM   17  C   UNL     1     -11.761  13.885  69.892  1.00  0.00    -0.358 C  
HETATM   18  C   UNL     1     -12.786  14.113  71.017  1.00  0.00    -0.351 C  
BRANCH  17  19
HETATM   19  C   UNL     1     -12.206  12.855  68.858  1.00  0.00    -0.044 C  
BRANCH  19  20
HETATM   20  C   UNL     1     -12.101  13.430  67.449  1.00  0.00    -0.338 C  
BRANCH  20  21
HETATM   21  C   UNL     1     -11.962  12.322  66.402  1.00  0.00    -0.286 C  
BRANCH  21  22
HETATM   22  C   UNL     1     -12.345  12.827  65.009  1.00  0.00    -0.559 C  
BRANCH  22  23
HETATM   23  C   UNL     1     -11.118  13.032  64.122  1.00  0.00    -0.437 C  
HETATM   24  C   UNL     1     -10.679  11.723  63.480  1.00  0.00    -0.501 C  
ENDBRANCH  22  23
ENDBRANCH  21  22
ENDBRANCH  20  21
ENDBRANCH  19  20
ENDBRANCH  17  19
ENDBRANCH  13  14
ENDBRANCH  12  13
BRANCH  12  25
HETATM   25  O   UNL     1      -9.308  18.004  68.998  1.00  0.00    -0.203 OA 
BRANCH  25  26
HETATM   26  C   UNL     1      -9.412  19.236  68.426  1.00  0.00    -0.376 C  
HETATM   27  O   UNL     1     -10.439  19.743  67.988  1.00  0.00    -0.434 OA 
BRANCH  26  28
HETATM   28  C   UNL     1      -8.061  19.946  68.413  1.00  0.00    -0.204 C  
BRANCH  28  29
HETATM   29  C   UNL     1      -7.711  20.488  67.018  1.00  0.00    -0.346 C  
HETATM   30  C   UNL     1      -7.010  18.312  65.820  1.00  0.00    -0.284 C  
HETATM   31  C   UNL     1      -6.271  20.528  64.968  1.00  0.00    -0.314 C  
HETATM   32  C   UNL     1      -6.616  19.733  66.230  1.00  0.00    -0.215 C  
ENDBRANCH  28  29
BRANCH  28  33
HETATM   33  N   UNL     1      -7.048  19.037  68.948  1.00  0.00    -0.317 N  
HETATM   34  C   UNL     1      -6.181  19.400  69.940  1.00  0.00    -0.268 C  
HETATM   35  O   UNL     1      -6.115  20.506  70.453  1.00  0.00    -0.484 OA 
HETATM   36  H   UNL     1      -6.986  18.093  68.566  1.00  0.00     0.000 HD 
ENDBRANCH  28  33
ENDBRANCH  26  28
ENDBRANCH  25  26
ENDBRANCH  12  25
ENDBRANCH  11  12
ENDBRANCH  10  11
ENDBRANCH   9  10
ENDBRANCH   8   9
ENDBRANCH   7   8
ENDBRANCH   6   7
ENDBRANCH   5   6
ENDBRANCH   4   5
ENDBRANCH   3   4
ENDBRANCH   2   3
TORSDOF 22
ENDMDL
MODEL      120
REMARK 921   NORMALIZED FREE ENERGY PREDICTED BY IDOCK:   -4.43 KCAL/MOL
REMARK 922        TOTAL FREE ENERGY PREDICTED BY IDOCK:  -13.76 KCAL/MOL
REMARK 923 INTER-LIGAND FREE ENERGY PREDICTED BY IDOCK:  -10.54 KCAL/MOL
REMARK 924 INTRA-LIGAND FREE ENERGY PREDICTED BY IDOCK:   -3.22 KCAL/MOL
REMARK 927      BINDING AFFINITY PREDICTED BY RF-SCORE:    0.00 PKD
ROOT
HETATM    1  C   UNL     1      -9.444   5.808  69.354  1.00  0.00    -0.162 C  
HETATM    2  C   UNL     1     -10.900   6.095  69.027  1.00  0.00    -0.416 C  
ENDROOT
BRANCH   2   3
HETATM    3  C   UNL     1     -11.063   6.469  67.557  1.00  0.00    -0.396 C  
BRANCH   3   4
HETATM    4  C   UNL     1     -10.462   7.838  67.252  1.00  0.00    -0.392 C  
BRANCH   4   5
HETATM    5  C   UNL     1      -9.347   7.722  66.210  1.00  0.00    -0.210 C  
BRANCH   5   6
HETATM    6  C   UNL     1      -8.036   8.259  66.769  1.00  0.00    -0.099 C  
BRANCH   6   7
HETATM    7  C   UNL     1      -8.252   9.244  67.919  1.00  0.00    -0.115 C  
BRANCH   7   8
HETATM    8  C   UNL     1      -7.942  10.650  67.416  1.00  0.00    -0.111 C  
BRANCH   8   9
HETATM    9  C   UNL     1      -7.771  11.682  68.526  1.00  0.00    -0.134 C  
BRANCH   9  10
HETATM   10  C   UNL     1      -7.082  12.915  67.933  1.00  0.00    -0.127 C  
BRANCH  10  11
HETATM   11  C   UNL     1      -7.844  14.213  68.146  1.00  0.00    -0.142 C  
BRANCH  11  12
HETATM   12  C   UNL     1      -7.916  15.170  66.941  1.00  0.00    -0.120 C  
BRANCH  12  13
HETATM   13  C   UNL     1      -9.334  15.420  66.381  1.00  0.00    -0.331 C  
BRANCH  13  14
HETATM   14  C   UNL     1     -10.058  14.155  65.904  1.00  0.00    -0.321 C  
HETATM   15  O   UNL     1     -10.970  14.418  64.800  1.00  0.00    -0.387 OA 
HETATM   16  O   UNL     1     -13.207  13.974  65.136  1.00  0.00    -0.768 OA 
HETATM   17  C   UNL     1     -11.258  13.684  66.772  1.00  0.00    -0.327 C  
HETATM   18  C   UNL     1     -12.055  14.016  65.498  1.00  0.00    -0.410 C  
BRANCH  17  19
HETATM   19  C   UNL     1     -11.368  12.224  67.199  1.00  0.00    -0.398 C  
BRANCH  19  20
HETATM   20  C   UNL     1     -11.430  12.113  68.720  1.00  0.00    -0.359 C  
BRANCH  20  21
HETATM   21  C   UNL     1     -11.441  10.651  69.174  1.00  0.00    -0.349 C  
BRANCH  21  22
HETATM   22  C   UNL     1     -12.142  10.498  70.526  1.00  0.00    -0.437 C  
BRANCH  22  23
HETATM   23  C   UNL     1     -11.705   9.225  71.251  1.00  0.00    -0.416 C  
HETATM   24  C   UNL     1     -10.188   9.106  71.285  1.00  0.00    -0.400 C  
ENDBRANCH  22  23
ENDBRANCH  21  22
ENDBRANCH  20  21
ENDBRANCH  19  20
ENDBRANCH  17  19
ENDBRANCH  13  14
ENDBRANCH  12  13
BRANCH  12  25
HETATM   25  O   UNL     1      -7.353  16.459  67.276  1.00  0.00    -0.142 OA 
BRANCH  25  26
HETATM   26  C   UNL     1      -7.869  17.107  68.358  1.00  0.00    -0.244 C  
HETATM   27  O   UNL     1      -8.467  16.586  69.292  1.00  0.00    -0.196 OA 
BRANCH  26  28
HETATM   28  C   UNL     1      -7.588  18.605  68.279  1.00  0.00    -0.284 C  
BRANCH  28  29
HETATM   29  C   UNL     1      -8.371  19.277  67.140  1.00  0.00    -0.305 C  
HETATM   30  C   UNL     1     -10.514  19.992  68.388  1.00  0.00    -0.369 C  
HETATM   31  C   UNL     1     -10.504  19.750  65.914  1.00  0.00    -0.587 C  
HETATM   32  C   UNL     1      -9.913  19.209  67.219  1.00  0.00    -0.436 C  
ENDBRANCH  28  29
BRANCH  28  33
HETATM   33  N   UNL     1      -6.143  18.807  68.182  1.00  0.00    -0.209 N  
HETATM   34  C   UNL     1      -5.328  18.854  69.278  1.00  0.00    -0.200 C  
HETATM   35  O   UNL     1      -5.699  18.782  70.439  1.00  0.00    -0.236 OA 
HETATM   36  H   UNL     1      -5.726  18.919  67.258  1.00  0.00     0.000 HD 
ENDBRANCH  28  33
ENDBRANCH  26  28
ENDBRANCH  25  26
ENDBRANCH  12  25
ENDBRANCH  11  12
ENDBRANCH  10  11
ENDBRANCH   9  10
ENDBRANCH   8   9
ENDBRANCH   7   8
ENDBRANCH   6   7
ENDBRANCH   5   6
ENDBRANCH   4   5
ENDBRANCH   3   4
ENDBRANCH   2   3
TORSDOF 22
ENDMDL
MODEL      121
REMARK 921   NORMALIZED FREE ENERGY PREDICTED BY IDOCK:   -4.43 KCAL/MOL
REMARK 922        TOTAL FREE ENERGY PREDICTED BY IDOCK:  -13.76 KCAL/MOL
REMARK 923 INTER-LIGAND FREE ENERGY PREDICTED BY IDOCK:   -9.12 KCAL/MOL
REMARK 924 INTRA-LIGAND FREE ENERGY PREDICTED BY IDOCK:   -4.64 KCAL/MOL
REMARK 927      BINDING AFFINITY PREDICTED BY RF-SCORE:    0.00 PKD
ROOT
HETATM    1  C   UNL     1      -8.246   6.322  65.439  1.00  0.00    -0.142 C  
HETATM    2  C   UNL     1      -8.580   6.899  66.805  1.00  0.00    -0.120 C  
ENDROOT
BRANCH   2   3
HETATM    3  C   UNL     1      -7.560   6.450  67.847  1.00  0.00    -0.102 C  
BRANCH   3   4
HETATM    4  C   UNL     1      -7.189   7.583  68.800  1.00  0.00    -0.082 C  
BRANCH   4   5
HETATM    5  C   UNL     1      -6.946   8.882  68.030  1.00  0.00    -0.078 C  
BRANCH   5   6
HETATM    6  C   UNL     1      -7.219  10.089  68.918  1.00  0.00    -0.077 C  
BRANCH   6   7
HETATM    7  C   UNL     1      -8.439  10.889  68.457  1.00  0.00    -0.147 C  
BRANCH   7   8
HETATM    8  C   UNL     1      -8.511  10.828  66.936  1.00  0.00    -0.131 C  
BRANCH   8   9
HETATM    9  C   UNL     1      -9.860  10.361  66.397  1.00  0.00    -0.266 C  
BRANCH   9  10
HETATM   10  C   UNL     1     -10.752  11.592  66.208  1.00  0.00    -0.321 C  
BRANCH  10  11
HETATM   11  C   UNL     1     -11.900  11.684  67.202  1.00  0.00    -0.090 C  
BRANCH  11  12
HETATM   12  C   UNL     1     -11.785  12.779  68.279  1.00  0.00    -0.344 C  
BRANCH  12  13
HETATM   13  C   UNL     1     -11.664  12.266  69.731  1.00  0.00    -0.368 C  
BRANCH  13  14
HETATM   14  C   UNL     1     -11.879  10.756  69.890  1.00  0.00    -0.335 C  
HETATM   15  O   UNL     1     -13.139  10.440  70.549  1.00  0.00    -0.328 OA 
HETATM   16  O   UNL     1     -13.037   9.296  72.547  1.00  0.00    -0.418 OA 
HETATM   17  C   UNL     1     -11.108  10.072  71.052  1.00  0.00    -0.341 C  
HETATM   18  C   UNL     1     -12.530   9.824  71.587  1.00  0.00    -0.410 C  
BRANCH  17  19
HETATM   19  C   UNL     1     -10.319   8.792  70.799  1.00  0.00    -0.264 C  
BRANCH  19  20
HETATM   20  C   UNL     1     -10.881   8.045  69.593  1.00  0.00    -0.172 C  
BRANCH  20  21
HETATM   21  C   UNL     1     -11.511   6.711  70.005  1.00  0.00    -0.434 C  
BRANCH  21  22
HETATM   22  C   UNL     1     -10.562   5.543  69.727  1.00  0.00    -0.388 C  
BRANCH  22  23
HETATM   23  C   UNL     1     -10.041   4.914  71.019  1.00  0.00    -0.288 C  
HETATM   24  C   UNL     1      -8.572   5.247  71.238  1.00  0.00    -0.132 C  
ENDBRANCH  22  23
ENDBRANCH  21  22
ENDBRANCH  20  21
ENDBRANCH  19  20
ENDBRANCH  17  19
ENDBRANCH  13  14
ENDBRANCH  12  13
BRANCH  12  25
HETATM   25  O   UNL     1     -10.643  13.629  68.026  1.00  0.00    -0.239 OA 
BRANCH  25  26
HETATM   26  C   UNL     1     -10.888  14.927  67.692  1.00  0.00    -0.286 C  
HETATM   27  O   UNL     1     -11.708  15.666  68.227  1.00  0.00    -0.349 OA 
BRANCH  26  28
HETATM   28  C   UNL     1      -9.980  15.376  66.551  1.00  0.00    -0.268 C  
BRANCH  28  29
HETATM   29  C   UNL     1      -8.516  14.972  66.790  1.00  0.00    -0.239 C  
HETATM   30  C   UNL     1      -8.064  16.122  69.055  1.00  0.00    -0.237 C  
HETATM   31  C   UNL     1      -6.186  15.484  67.555  1.00  0.00    -0.141 C  
HETATM   32  C   UNL     1      -7.642  15.960  67.594  1.00  0.00    -0.171 C  
ENDBRANCH  28  29
BRANCH  28  33
HETATM   33  N   UNL     1     -10.155  16.813  66.350  1.00  0.00    -0.304 N  
HETATM   34  C   UNL     1     -10.759  17.336  65.242  1.00  0.00    -0.010 C  
HETATM   35  O   UNL     1     -11.172  16.691  64.291  1.00  0.00    -1.098 OA 
HETATM   36  H   UNL     1      -9.811  17.453  67.067  1.00  0.00     0.000 HD 
ENDBRANCH  28  33
ENDBRANCH  26  28
ENDBRANCH  25  26
ENDBRANCH  12  25
ENDBRANCH  11  12
ENDBRANCH  10  11
ENDBRANCH   9  10
ENDBRANCH   8   9
ENDBRANCH   7   8
ENDBRANCH   6   7
ENDBRANCH   5   6
ENDBRANCH   4   5
ENDBRANCH   3   4
ENDBRANCH   2   3
TORSDOF 22
ENDMDL
MODEL      122
REMARK 921   NORMALIZED FREE ENERGY PREDICTED BY IDOCK:   -4.43 KCAL/MOL
REMARK 922        TOTAL FREE ENERGY PREDICTED BY IDOCK:  -13.75 KCAL/MOL
REMARK 923 INTER-LIGAND FREE ENERGY PREDICTED BY IDOCK:  -10.79 KCAL/MOL
REMARK 924 INTRA-LIGAND FREE ENERGY PREDICTED BY IDOCK:   -2.96 KCAL/MOL
REMARK 927      BINDING AFFINITY PREDICTED BY RF-SCORE:    0.00 PKD
ROOT
HETATM    1  C   UNL     1      -9.930  18.974  68.333  1.00  0.00    -0.473 C  
HETATM    2  C   UNL     1     -10.872  19.459  67.243  1.00  0.00    -0.561 C  
ENDROOT
BRANCH   2   3
HETATM    3  C   UNL     1     -10.643  18.689  65.946  1.00  0.00    -0.365 C  
BRANCH   3   4
HETATM    4  C   UNL     1     -10.383  17.208  66.205  1.00  0.00    -0.327 C  
BRANCH   4   5
HETATM    5  C   UNL     1     -10.758  16.369  64.981  1.00  0.00    -0.279 C  
BRANCH   5   6
HETATM    6  C   UNL     1     -11.423  15.068  65.409  1.00  0.00    -0.287 C  
BRANCH   6   7
HETATM    7  C   UNL     1     -12.313  14.480  64.313  1.00  0.00    -0.396 C  
BRANCH   7   8
HETATM    8  C   UNL     1     -12.654  13.042  64.685  1.00  0.00    -0.425 C  
BRANCH   8   9
HETATM    9  C   UNL     1     -12.227  12.013  63.643  1.00  0.00    -0.642 C  
BRANCH   9  10
HETATM   10  C   UNL     1     -10.702  11.878  63.699  1.00  0.00    -0.502 C  
BRANCH  10  11
HETATM   11  C   UNL     1     -10.218  10.566  64.295  1.00  0.00    -0.314 C  
BRANCH  11  12
HETATM   12  C   UNL     1      -9.788  10.603  65.773  1.00  0.00    -0.241 C  
BRANCH  12  13
HETATM   13  C   UNL     1      -8.285  10.357  66.030  1.00  0.00    -0.144 C  
BRANCH  13  14
HETATM   14  C   UNL     1      -7.961   8.981  66.623  1.00  0.00    -0.100 C  
HETATM   15  O   UNL     1      -7.427   8.058  65.631  1.00  0.00    -0.077 OA 
HETATM   16  O   UNL     1      -8.620   6.131  65.217  1.00  0.00    -0.143 OA 
HETATM   17  C   UNL     1      -9.169   8.028  66.846  1.00  0.00    -0.191 C  
HETATM   18  C   UNL     1      -8.446   7.184  65.781  1.00  0.00    -0.146 C  
BRANCH  17  19
HETATM   19  C   UNL     1      -9.344   7.311  68.180  1.00  0.00    -0.131 C  
BRANCH  19  20
HETATM   20  C   UNL     1     -10.703   6.621  68.244  1.00  0.00    -0.317 C  
BRANCH  20  21
HETATM   21  C   UNL     1     -10.897   5.888  69.575  1.00  0.00    -0.442 C  
BRANCH  21  22
HETATM   22  C   UNL     1     -11.737   6.720  70.546  1.00  0.00    -0.430 C  
BRANCH  22  23
HETATM   23  C   UNL     1     -10.876   7.688  71.357  1.00  0.00    -0.250 C  
HETATM   24  C   UNL     1     -11.691   8.363  72.452  1.00  0.00    -0.452 C  
ENDBRANCH  22  23
ENDBRANCH  21  22
ENDBRANCH  20  21
ENDBRANCH  19  20
ENDBRANCH  17  19
ENDBRANCH  13  14
ENDBRANCH  12  13
BRANCH  12  25
HETATM   25  O   UNL     1     -10.124  11.876  66.373  1.00  0.00    -0.207 OA 
BRANCH  25  26
HETATM   26  C   UNL     1     -11.013  11.868  67.404  1.00  0.00    -0.263 C  
HETATM   27  O   UNL     1     -11.969  11.109  67.526  1.00  0.00    -0.580 OA 
BRANCH  26  28
HETATM   28  C   UNL     1     -10.659  12.934  68.436  1.00  0.00    -0.253 C  
BRANCH  28  29
HETATM   29  C   UNL     1      -9.160  13.276  68.417  1.00  0.00    -0.137 C  
HETATM   30  C   UNL     1      -9.193  15.636  69.461  1.00  0.00    -0.259 C  
HETATM   31  C   UNL     1      -7.273  14.888  68.070  1.00  0.00    -0.143 C  
HETATM   32  C   UNL     1      -8.787  14.769  68.268  1.00  0.00    -0.179 C  
ENDBRANCH  28  29
BRANCH  28  33
HETATM   33  N   UNL     1     -11.132  12.494  69.748  1.00  0.00    -0.471 N  
HETATM   34  C   UNL     1     -12.085  13.171  70.455  1.00  0.00    -0.317 C  
HETATM   35  O   UNL     1     -12.610  14.219  70.111  1.00  0.00    -0.350 OA 
HETATM   36  H   UNL     1     -10.733  11.646  70.153  1.00  0.00     0.000 HD 
ENDBRANCH  28  33
ENDBRANCH  26  28
ENDBRANCH  25  26
ENDBRANCH  12  25
ENDBRANCH  11  12
ENDBRANCH  10  11
ENDBRANCH   9  10
ENDBRANCH   8   9
ENDBRANCH   7   8
ENDBRANCH   6   7
ENDBRANCH   5   6
ENDBRANCH   4   5
ENDBRANCH   3   4
ENDBRANCH   2   3
TORSDOF 22
ENDMDL
MODEL      123
REMARK 921   NORMALIZED FREE ENERGY PREDICTED BY IDOCK:   -4.43 KCAL/MOL
REMARK 922        TOTAL FREE ENERGY PREDICTED BY IDOCK:  -13.75 KCAL/MOL
REMARK 923 INTER-LIGAND FREE ENERGY PREDICTED BY IDOCK:  -10.16 KCAL/MOL
REMARK 924 INTRA-LIGAND FREE ENERGY PREDICTED BY IDOCK:   -3.59 KCAL/MOL
REMARK 927      BINDING AFFINITY PREDICTED BY RF-SCORE:    0.00 PKD
ROOT
HETATM    1  C   UNL     1     -10.319  11.671  63.716  1.00  0.00    -0.445 C  
HETATM    2  C   UNL     1      -9.603  10.354  63.969  1.00  0.00    -0.376 C  
ENDROOT
BRANCH   2   3
HETATM    3  C   UNL     1      -8.272  10.588  64.676  1.00  0.00    -0.088 C  
BRANCH   3   4
HETATM    4  C   UNL     1      -7.258   9.495  64.350  1.00  0.00    -0.111 C  
BRANCH   4   5
HETATM    5  C   UNL     1      -7.801   8.118  64.737  1.00  0.00    -0.137 C  
BRANCH   5   6
HETATM    6  C   UNL     1      -7.146   7.627  66.021  1.00  0.00    -0.069 C  
BRANCH   6   7
HETATM    7  C   UNL     1      -8.102   7.661  67.214  1.00  0.00    -0.119 C  
BRANCH   7   8
HETATM    8  C   UNL     1      -9.533   7.625  66.689  1.00  0.00    -0.255 C  
BRANCH   8   9
HETATM    9  C   UNL     1     -10.373   8.832  67.094  1.00  0.00    -0.364 C  
BRANCH   9  10
HETATM   10  C   UNL     1      -9.577   9.650  68.115  1.00  0.00    -0.159 C  
BRANCH  10  11
HETATM   11  C   UNL     1      -9.693  11.155  67.931  1.00  0.00    -0.184 C  
BRANCH  11  12
HETATM   12  C   UNL     1     -11.085  11.768  68.173  1.00  0.00    -0.243 C  
BRANCH  12  13
HETATM   13  C   UNL     1     -11.891  12.100  66.898  1.00  0.00    -0.295 C  
BRANCH  13  14
HETATM   14  C   UNL     1     -12.200  13.591  66.716  1.00  0.00    -0.340 C  
HETATM   15  O   UNL     1     -13.058  13.846  65.567  1.00  0.00    -0.699 OA 
HETATM   16  O   UNL     1     -12.215  15.170  63.880  1.00  0.00    -0.592 OA 
HETATM   17  C   UNL     1     -11.081  14.448  66.060  1.00  0.00    -0.324 C  
HETATM   18  C   UNL     1     -12.131  14.607  64.945  1.00  0.00    -0.382 C  
BRANCH  17  19
HETATM   19  C   UNL     1     -10.656  15.769  66.693  1.00  0.00    -0.307 C  
BRANCH  19  20
HETATM   20  C   UNL     1      -9.161  16.001  66.497  1.00  0.00    -0.307 C  
BRANCH  20  21
HETATM   21  C   UNL     1      -8.428  16.088  67.838  1.00  0.00    -0.165 C  
BRANCH  21  22
HETATM   22  C   UNL     1      -8.094  14.695  68.376  1.00  0.00    -0.147 C  
BRANCH  22  23
HETATM   23  C   UNL     1      -7.349  13.850  67.341  1.00  0.00    -0.129 C  
HETATM   24  C   UNL     1      -6.430  12.841  68.015  1.00  0.00    -0.099 C  
ENDBRANCH  22  23
ENDBRANCH  21  22
ENDBRANCH  20  21
ENDBRANCH  19  20
ENDBRANCH  17  19
ENDBRANCH  13  14
ENDBRANCH  12  13
BRANCH  12  25
HETATM   25  O   UNL     1     -11.900  10.886  68.980  1.00  0.00    -0.314 OA 
BRANCH  25  26
HETATM   26  C   UNL     1     -12.186  11.284  70.251  1.00  0.00    -0.345 C  
HETATM   27  O   UNL     1     -12.486  12.421  70.600  1.00  0.00    -0.315 OA 
BRANCH  26  28
HETATM   28  C   UNL     1     -12.107  10.108  71.219  1.00  0.00    -0.394 C  
BRANCH  28  29
HETATM   29  C   UNL     1     -10.711   9.467  71.232  1.00  0.00    -0.421 C  
HETATM   30  C   UNL     1     -11.254   7.114  70.322  1.00  0.00    -0.309 C  
HETATM   31  C   UNL     1      -9.183   7.522  71.635  1.00  0.00    -0.152 C  
HETATM   32  C   UNL     1     -10.646   7.939  71.457  1.00  0.00    -0.262 C  
ENDBRANCH  28  29
BRANCH  28  33
HETATM   33  N   UNL     1     -13.173   9.160  70.895  1.00  0.00    -0.539 N  
HETATM   34  C   UNL     1     -14.050   8.688  71.829  1.00  0.00    -0.429 C  
HETATM   35  O   UNL     1     -14.026   8.953  73.021  1.00  0.00    -0.343 OA 
HETATM   36  H   UNL     1     -13.265   8.839  69.931  1.00  0.00     0.000 HD 
ENDBRANCH  28  33
ENDBRANCH  26  28
ENDBRANCH  25  26
ENDBRANCH  12  25
ENDBRANCH  11  12
ENDBRANCH  10  11
ENDBRANCH   9  10
ENDBRANCH   8   9
ENDBRANCH   7   8
ENDBRANCH   6   7
ENDBRANCH   5   6
ENDBRANCH   4   5
ENDBRANCH   3   4
ENDBRANCH   2   3
TORSDOF 22
ENDMDL
MODEL      124
REMARK 921   NORMALIZED FREE ENERGY PREDICTED BY IDOCK:   -4.43 KCAL/MOL
REMARK 922        TOTAL FREE ENERGY PREDICTED BY IDOCK:  -13.75 KCAL/MOL
REMARK 923 INTER-LIGAND FREE ENERGY PREDICTED BY IDOCK:   -9.97 KCAL/MOL
REMARK 924 INTRA-LIGAND FREE ENERGY PREDICTED BY IDOCK:   -3.78 KCAL/MOL
REMARK 927      BINDING AFFINITY PREDICTED BY RF-SCORE:    0.00 PKD
ROOT
HETATM    1  C   UNL     1     -12.376  14.953  64.376  1.00  0.00    -0.342 C  
HETATM    2  C   UNL     1     -12.402  13.747  65.301  1.00  0.00    -0.491 C  
ENDROOT
BRANCH   2   3
HETATM    3  C   UNL     1     -12.605  12.459  64.507  1.00  0.00    -0.477 C  
BRANCH   3   4
HETATM    4  C   UNL     1     -11.638  12.361  63.331  1.00  0.00    -0.541 C  
BRANCH   4   5
HETATM    5  C   UNL     1     -10.195  12.234  63.824  1.00  0.00    -0.427 C  
BRANCH   5   6
HETATM    6  C   UNL     1      -9.471  11.121  63.077  1.00  0.00    -0.386 C  
BRANCH   6   7
HETATM    7  C   UNL     1      -9.392   9.828  63.891  1.00  0.00    -0.195 C  
BRANCH   7   8
HETATM    8  C   UNL     1      -9.268  10.191  65.366  1.00  0.00    -0.249 C  
BRANCH   8   9
HETATM    9  C   UNL     1     -10.518   9.891  66.187  1.00  0.00    -0.144 C  
BRANCH   9  10
HETATM   10  C   UNL     1     -10.139   8.905  67.296  1.00  0.00    -0.303 C  
BRANCH  10  11
HETATM   11  C   UNL     1      -8.676   8.967  67.707  1.00  0.00    -0.125 C  
BRANCH  11  12
HETATM   12  C   UNL     1      -8.385   9.488  69.126  1.00  0.00    -0.125 C  
BRANCH  12  13
HETATM   13  C   UNL     1      -7.555  10.789  69.194  1.00  0.00    -0.133 C  
BRANCH  13  14
HETATM   14  C   UNL     1      -7.507  11.579  67.880  1.00  0.00    -0.103 C  
HETATM   15  O   UNL     1      -6.160  12.018  67.544  1.00  0.00    -0.083 OA 
HETATM   16  O   UNL     1      -5.790  14.287  67.382  1.00  0.00    -0.348 OA 
HETATM   17  C   UNL     1      -7.964  13.062  67.954  1.00  0.00    -0.157 C  
HETATM   18  C   UNL     1      -6.493  13.328  67.585  1.00  0.00    -0.162 C  
BRANCH  17  19
HETATM   19  C   UNL     1      -8.958  13.609  66.936  1.00  0.00    -0.229 C  
BRANCH  19  20
HETATM   20  C   UNL     1     -10.129  14.289  67.640  1.00  0.00    -0.229 C  
BRANCH  20  21
HETATM   21  C   UNL     1     -10.059  15.812  67.499  1.00  0.00    -0.245 C  
BRANCH  21  22
HETATM   22  C   UNL     1      -9.357  16.214  66.200  1.00  0.00    -0.372 C  
BRANCH  22  23
HETATM   23  C   UNL     1      -8.196  17.174  66.457  1.00  0.00    -0.308 C  
HETATM   24  C   UNL     1      -7.932  17.331  67.948  1.00  0.00    -0.205 C  
ENDBRANCH  22  23
ENDBRANCH  21  22
ENDBRANCH  20  21
ENDBRANCH  19  20
ENDBRANCH  17  19
ENDBRANCH  13  14
ENDBRANCH  12  13
BRANCH  12  25
HETATM   25  O   UNL     1      -9.617   9.726  69.847  1.00  0.00    -0.211 OA 
BRANCH  25  26
HETATM   26  C   UNL     1      -9.803   9.044  71.011  1.00  0.00    -0.282 C  
HETATM   27  O   UNL     1      -9.013   8.985  71.946  1.00  0.00    -0.364 OA 
BRANCH  26  28
HETATM   28  C   UNL     1     -11.165   8.355  71.025  1.00  0.00    -0.266 C  
BRANCH  28  29
HETATM   29  C   UNL     1     -11.140   7.020  70.263  1.00  0.00    -0.323 C  
HETATM   30  C   UNL     1     -10.521   5.393  72.168  1.00  0.00    -0.273 C  
HETATM   31  C   UNL     1     -10.140   4.772  69.791  1.00  0.00    -0.289 C  
HETATM   32  C   UNL     1     -10.167   5.938  70.784  1.00  0.00    -0.268 C  
ENDBRANCH  28  29
BRANCH  28  33
HETATM   33  N   UNL     1     -12.169   9.289  70.518  1.00  0.00    -0.483 N  
HETATM   34  C   UNL     1     -13.204   9.748  71.282  1.00  0.00    -0.373 C  
HETATM   35  O   UNL     1     -13.438   9.411  72.432  1.00  0.00    -0.457 OA 
HETATM   36  H   UNL     1     -12.094   9.611  69.552  1.00  0.00     0.000 HD 
ENDBRANCH  28  33
ENDBRANCH  26  28
ENDBRANCH  25  26
ENDBRANCH  12  25
ENDBRANCH  11  12
ENDBRANCH  10  11
ENDBRANCH   9  10
ENDBRANCH   8   9
ENDBRANCH   7   8
ENDBRANCH   6   7
ENDBRANCH   5   6
ENDBRANCH   4   5
ENDBRANCH   3   4
ENDBRANCH   2   3
TORSDOF 22
ENDMDL
MODEL      125
REMARK 921   NORMALIZED FREE ENERGY PREDICTED BY IDOCK:   -4.43 KCAL/MOL
REMARK 922        TOTAL FREE ENERGY PREDICTED BY IDOCK:  -13.75 KCAL/MOL
REMARK 923 INTER-LIGAND FREE ENERGY PREDICTED BY IDOCK:  -10.74 KCAL/MOL
REMARK 924 INTRA-LIGAND FREE ENERGY PREDICTED BY IDOCK:   -3.01 KCAL/MOL
REMARK 927      BINDING AFFINITY PREDICTED BY RF-SCORE:    0.00 PKD
ROOT
HETATM    1  C   UNL     1      -9.969  19.301  67.915  1.00  0.00    -0.462 C  
HETATM    2  C   UNL     1     -10.638  17.983  67.564  1.00  0.00    -0.402 C  
ENDROOT
BRANCH   2   3
HETATM    3  C   UNL     1     -10.436  17.648  66.089  1.00  0.00    -0.295 C  
BRANCH   3   4
HETATM    4  C   UNL     1     -10.148  16.164  65.880  1.00  0.00    -0.379 C  
BRANCH   4   5
HETATM    5  C   UNL     1     -11.143  15.552  64.891  1.00  0.00    -0.428 C  
BRANCH   5   6
HETATM    6  C   UNL     1     -10.916  14.052  64.763  1.00  0.00    -0.410 C  
BRANCH   6   7
HETATM    7  C   UNL     1     -11.962  13.377  63.874  1.00  0.00    -0.520 C  
BRANCH   7   8
HETATM    8  C   UNL     1     -11.628  11.893  63.775  1.00  0.00    -0.555 C  
BRANCH   8   9
HETATM    9  C   UNL     1     -10.208  11.546  64.209  1.00  0.00    -0.361 C  
BRANCH   9  10
HETATM   10  C   UNL     1     -10.280  10.372  65.190  1.00  0.00    -0.326 C  
BRANCH  10  11
HETATM   11  C   UNL     1     -10.453  10.787  66.643  1.00  0.00    -0.302 C  
BRANCH  11  12
HETATM   12  C   UNL     1     -10.197   9.699  67.701  1.00  0.00    -0.216 C  
BRANCH  12  13
HETATM   13  C   UNL     1      -9.036   8.730  67.384  1.00  0.00    -0.143 C  
BRANCH  13  14
HETATM   14  C   UNL     1      -9.282   7.282  67.824  1.00  0.00    -0.126 C  
HETATM   15  O   UNL     1      -9.156   6.337  66.723  1.00  0.00    -0.126 OA 
HETATM   16  O   UNL     1     -11.014   5.090  66.171  1.00  0.00    -0.242 OA 
HETATM   17  C   UNL     1     -10.768   6.863  68.002  1.00  0.00    -0.276 C  
HETATM   18  C   UNL     1     -10.438   5.922  66.829  1.00  0.00    -0.281 C  
BRANCH  17  19
HETATM   19  C   UNL     1     -11.211   6.132  69.266  1.00  0.00    -0.438 C  
BRANCH  19  20
HETATM   20  C   UNL     1     -10.001   5.717  70.098  1.00  0.00    -0.258 C  
BRANCH  20  21
HETATM   21  C   UNL     1     -10.030   4.220  70.419  1.00  0.00    -0.213 C  
BRANCH  21  22
HETATM   22  C   UNL     1     -10.194   3.981  71.921  1.00  0.00    -0.160 C  
BRANCH  22  23
HETATM   23  C   UNL     1      -8.882   4.188  72.677  1.00  0.00    -0.114 C  
HETATM   24  C   UNL     1      -9.119   4.263  74.179  1.00  0.00    -0.103 C  
ENDBRANCH  22  23
ENDBRANCH  21  22
ENDBRANCH  20  21
ENDBRANCH  19  20
ENDBRANCH  17  19
ENDBRANCH  13  14
ENDBRANCH  12  13
BRANCH  12  25
HETATM   25  O   UNL     1      -9.922  10.292  68.991  1.00  0.00    -0.191 OA 
BRANCH  25  26
HETATM   26  C   UNL     1     -10.989  10.678  69.744  1.00  0.00    -0.280 C  
HETATM   27  O   UNL     1     -11.719  11.638  69.522  1.00  0.00    -0.289 OA 
BRANCH  26  28
HETATM   28  C   UNL     1     -11.191   9.734  70.926  1.00  0.00    -0.359 C  
BRANCH  28  29
HETATM   29  C   UNL     1      -9.931   8.903  71.218  1.00  0.00    -0.358 C  
HETATM   30  C   UNL     1     -10.756   7.458  73.190  1.00  0.00    -0.436 C  
HETATM   31  C   UNL     1      -8.326   7.821  72.810  1.00  0.00    -0.183 C  
HETATM   32  C   UNL     1      -9.714   8.456  72.682  1.00  0.00    -0.332 C  
ENDBRANCH  28  29
BRANCH  28  33
HETATM   33  N   UNL     1     -12.375   8.914  70.675  1.00  0.00    -0.486 N  
HETATM   34  C   UNL     1     -13.513   9.011  71.425  1.00  0.00    -0.277 C  
HETATM   35  O   UNL     1     -13.661   9.738  72.396  1.00  0.00    -0.407 OA 
HETATM   36  H   UNL     1     -12.351   8.241  69.908  1.00  0.00     0.000 HD 
ENDBRANCH  28  33
ENDBRANCH  26  28
ENDBRANCH  25  26
ENDBRANCH  12  25
ENDBRANCH  11  12
ENDBRANCH  10  11
ENDBRANCH   9  10
ENDBRANCH   8   9
ENDBRANCH   7   8
ENDBRANCH   6   7
ENDBRANCH   5   6
ENDBRANCH   4   5
ENDBRANCH   3   4
ENDBRANCH   2   3
TORSDOF 22
ENDMDL
MODEL      126
REMARK 921   NORMALIZED FREE ENERGY PREDICTED BY IDOCK:   -4.43 KCAL/MOL
REMARK 922        TOTAL FREE ENERGY PREDICTED BY IDOCK:  -13.75 KCAL/MOL
REMARK 923 INTER-LIGAND FREE ENERGY PREDICTED BY IDOCK:   -9.72 KCAL/MOL
REMARK 924 INTRA-LIGAND FREE ENERGY PREDICTED BY IDOCK:   -4.03 KCAL/MOL
REMARK 927      BINDING AFFINITY PREDICTED BY RF-SCORE:    0.00 PKD
ROOT
HETATM    1  C   UNL     1     -13.192  12.188  71.975  1.00  0.00    -0.496 C  
HETATM    2  C   UNL     1     -14.105  13.355  72.313  1.00  0.00    -0.515 C  
ENDROOT
BRANCH   2   3
HETATM    3  C   UNL     1     -13.292  14.576  72.734  1.00  0.00    -0.600 C  
BRANCH   3   4
HETATM    4  C   UNL     1     -13.075  15.539  71.570  1.00  0.00    -0.573 C  
BRANCH   4   5
HETATM    5  C   UNL     1     -11.701  16.204  71.666  1.00  0.00    -0.558 C  
BRANCH   5   6
HETATM    6  C   UNL     1     -11.001  16.183  70.313  1.00  0.00    -0.345 C  
BRANCH   6   7
HETATM    7  C   UNL     1     -11.978  15.967  69.155  1.00  0.00    -0.268 C  
BRANCH   7   8
HETATM    8  C   UNL     1     -11.177  15.628  67.903  1.00  0.00    -0.328 C  
BRANCH   8   9
HETATM    9  C   UNL     1     -11.550  14.291  67.270  1.00  0.00    -0.401 C  
BRANCH   9  10
HETATM   10  C   UNL     1     -12.079  13.369  68.374  1.00  0.00    -0.270 C  
BRANCH  10  11
HETATM   11  C   UNL     1     -11.027  12.445  68.966  1.00  0.00    -0.247 C  
BRANCH  11  12
HETATM   12  C   UNL     1     -11.322  10.936  68.891  1.00  0.00    -0.288 C  
BRANCH  12  13
HETATM   13  C   UNL     1     -11.003  10.267  67.535  1.00  0.00    -0.344 C  
BRANCH  13  14
HETATM   14  C   UNL     1     -10.008  11.044  66.665  1.00  0.00    -0.209 C  
HETATM   15  O   UNL     1      -9.622  10.309  65.468  1.00  0.00    -0.204 OA 
HETATM   16  O   UNL     1      -7.394   9.778  65.217  1.00  0.00    -0.108 OA 
HETATM   17  C   UNL     1      -8.528  11.034  67.138  1.00  0.00    -0.137 C  
HETATM   18  C   UNL     1      -8.318  10.271  65.818  1.00  0.00    -0.152 C  
BRANCH  17  19
HETATM   19  C   UNL     1      -7.742  12.339  67.223  1.00  0.00    -0.161 C  
BRANCH  19  20
HETATM   20  C   UNL     1      -7.186  12.540  68.630  1.00  0.00    -0.103 C  
BRANCH  20  21
HETATM   21  C   UNL     1      -6.663  13.965  68.826  1.00  0.00    -0.102 C  
BRANCH  21  22
HETATM   22  C   UNL     1      -7.815  14.964  68.953  1.00  0.00    -0.161 C  
BRANCH  22  23
HETATM   23  C   UNL     1      -7.476  16.307  68.306  1.00  0.00    -0.157 C  
HETATM   24  C   UNL     1      -7.503  16.207  66.787  1.00  0.00    -0.246 C  
ENDBRANCH  22  23
ENDBRANCH  21  22
ENDBRANCH  20  21
ENDBRANCH  19  20
ENDBRANCH  17  19
ENDBRANCH  13  14
ENDBRANCH  12  13
BRANCH  12  25
HETATM   25  O   UNL     1     -10.586  10.218  69.908  1.00  0.00    -0.258 OA 
BRANCH  25  26
HETATM   26  C   UNL     1     -11.225   9.195  70.540  1.00  0.00    -0.264 C  
HETATM   27  O   UNL     1     -12.409   9.173  70.860  1.00  0.00    -0.254 OA 
BRANCH  26  28
HETATM   28  C   UNL     1     -10.271   8.032  70.795  1.00  0.00    -0.194 C  
BRANCH  28  29
HETATM   29  C   UNL     1     -10.542   6.850  69.851  1.00  0.00    -0.256 C  
HETATM   30  C   UNL     1      -8.731   7.246  68.055  1.00  0.00    -0.127 C  
HETATM   31  C   UNL     1     -10.736   5.865  67.555  1.00  0.00    -0.359 C  
HETATM   32  C   UNL     1     -10.220   7.065  68.354  1.00  0.00    -0.196 C  
ENDBRANCH  28  29
BRANCH  28  33
HETATM   33  N   UNL     1     -10.343   7.666  72.209  1.00  0.00    -0.211 N  
HETATM   34  C   UNL     1      -9.362   7.984  73.105  1.00  0.00    -0.277 C  
HETATM   35  O   UNL     1      -8.315   8.554  72.836  1.00  0.00    -0.348 OA 
HETATM   36  H   UNL     1     -11.160   7.153  72.541  1.00  0.00     0.000 HD 
ENDBRANCH  28  33
ENDBRANCH  26  28
ENDBRANCH  25  26
ENDBRANCH  12  25
ENDBRANCH  11  12
ENDBRANCH  10  11
ENDBRANCH   9  10
ENDBRANCH   8   9
ENDBRANCH   7   8
ENDBRANCH   6   7
ENDBRANCH   5   6
ENDBRANCH   4   5
ENDBRANCH   3   4
ENDBRANCH   2   3
TORSDOF 22
ENDMDL
MODEL      127
REMARK 921   NORMALIZED FREE ENERGY PREDICTED BY IDOCK:   -4.43 KCAL/MOL
REMARK 922        TOTAL FREE ENERGY PREDICTED BY IDOCK:  -13.75 KCAL/MOL
REMARK 923 INTER-LIGAND FREE ENERGY PREDICTED BY IDOCK:  -11.34 KCAL/MOL
REMARK 924 INTRA-LIGAND FREE ENERGY PREDICTED BY IDOCK:   -2.40 KCAL/MOL
REMARK 927      BINDING AFFINITY PREDICTED BY RF-SCORE:    0.00 PKD
ROOT
HETATM    1  C   UNL     1      -7.062   7.864  65.102  1.00  0.00    -0.060 C  
HETATM    2  C   UNL     1      -8.503   8.092  65.525  1.00  0.00    -0.159 C  
ENDROOT
BRANCH   2   3
HETATM    3  C   UNL     1      -8.739   9.557  65.882  1.00  0.00    -0.168 C  
BRANCH   3   4
HETATM    4  C   UNL     1      -9.931  10.138  65.127  1.00  0.00    -0.379 C  
BRANCH   4   5
HETATM    5  C   UNL     1      -9.540  10.503  63.694  1.00  0.00    -0.370 C  
BRANCH   5   6
HETATM    6  C   UNL     1     -10.146  11.843  63.299  1.00  0.00    -0.427 C  
BRANCH   6   7
HETATM    7  C   UNL     1     -11.630  11.940  63.659  1.00  0.00    -0.559 C  
BRANCH   7   8
HETATM    8  C   UNL     1     -11.941  13.381  64.046  1.00  0.00    -0.520 C  
BRANCH   8   9
HETATM    9  C   UNL     1     -12.562  13.532  65.431  1.00  0.00    -0.531 C  
BRANCH   9  10
HETATM   10  C   UNL     1     -11.462  13.321  66.476  1.00  0.00    -0.372 C  
BRANCH  10  11
HETATM   11  C   UNL     1     -11.836  12.347  67.582  1.00  0.00    -0.363 C  
BRANCH  11  12
HETATM   12  C   UNL     1     -11.330  12.689  68.995  1.00  0.00    -0.292 C  
BRANCH  12  13
HETATM   13  C   UNL     1     -11.781  14.061  69.544  1.00  0.00    -0.367 C  
BRANCH  13  14
HETATM   14  C   UNL     1     -10.678  15.125  69.575  1.00  0.00    -0.266 C  
HETATM   15  O   UNL     1     -11.200  16.463  69.812  1.00  0.00    -0.325 OA 
HETATM   16  O   UNL     1     -10.852  18.049  68.176  1.00  0.00    -0.303 OA 
HETATM   17  C   UNL     1     -10.135  15.591  68.195  1.00  0.00    -0.218 C  
HETATM   18  C   UNL     1     -10.749  16.934  68.629  1.00  0.00    -0.345 C  
BRANCH  17  19
HETATM   19  C   UNL     1      -8.632  15.657  67.945  1.00  0.00    -0.163 C  
BRANCH  19  20
HETATM   20  C   UNL     1      -8.346  16.066  66.503  1.00  0.00    -0.348 C  
BRANCH  20  21
HETATM   21  C   UNL     1      -7.774  17.484  66.426  1.00  0.00    -0.332 C  
BRANCH  21  22
HETATM   22  C   UNL     1      -7.053  17.859  67.723  1.00  0.00    -0.207 C  
BRANCH  22  23
HETATM   23  C   UNL     1      -7.524  19.209  68.265  1.00  0.00    -0.334 C  
HETATM   24  C   UNL     1      -8.036  20.102  67.143  1.00  0.00    -0.370 C  
ENDBRANCH  22  23
ENDBRANCH  21  22
ENDBRANCH  20  21
ENDBRANCH  19  20
ENDBRANCH  17  19
ENDBRANCH  13  14
ENDBRANCH  12  13
BRANCH  12  25
HETATM   25  O   UNL     1     -11.750  11.686  69.948  1.00  0.00    -0.309 OA 
BRANCH  25  26
HETATM   26  C   UNL     1     -10.991  10.560  70.049  1.00  0.00    -0.286 C  
HETATM   27  O   UNL     1      -9.994  10.300  69.383  1.00  0.00    -0.214 OA 
BRANCH  26  28
HETATM   28  C   UNL     1     -11.528   9.637  71.139  1.00  0.00    -0.384 C  
BRANCH  28  29
HETATM   29  C   UNL     1     -10.532   8.520  71.488  1.00  0.00    -0.318 C  
HETATM   30  C   UNL     1     -10.900   6.910  69.506  1.00  0.00    -0.287 C  
HETATM   31  C   UNL     1      -9.895   6.101  71.631  1.00  0.00    -0.191 C  
HETATM   32  C   UNL     1     -10.894   7.091  71.025  1.00  0.00    -0.264 C  
ENDBRANCH  28  29
BRANCH  28  33
HETATM   33  N   UNL     1     -12.836   9.132  70.723  1.00  0.00    -0.498 N  
HETATM   34  C   UNL     1     -13.863   8.930  71.601  1.00  0.00    -0.384 C  
HETATM   35  O   UNL     1     -13.803   9.097  72.810  1.00  0.00    -0.430 OA 
HETATM   36  H   UNL     1     -12.988   8.921  69.737  1.00  0.00     0.000 HD 
ENDBRANCH  28  33
ENDBRANCH  26  28
ENDBRANCH  25  26
ENDBRANCH  12  25
ENDBRANCH  11  12
ENDBRANCH  10  11
ENDBRANCH   9  10
ENDBRANCH   8   9
ENDBRANCH   7   8
ENDBRANCH   6   7
ENDBRANCH   5   6
ENDBRANCH   4   5
ENDBRANCH   3   4
ENDBRANCH   2   3
TORSDOF 22
ENDMDL
MODEL      128
REMARK 921   NORMALIZED FREE ENERGY PREDICTED BY IDOCK:   -4.43 KCAL/MOL
REMARK 922        TOTAL FREE ENERGY PREDICTED BY IDOCK:  -13.73 KCAL/MOL
REMARK 923 INTER-LIGAND FREE ENERGY PREDICTED BY IDOCK:  -10.51 KCAL/MOL
REMARK 924 INTRA-LIGAND FREE ENERGY PREDICTED BY IDOCK:   -3.22 KCAL/MOL
REMARK 927      BINDING AFFINITY PREDICTED BY RF-SCORE:    0.00 PKD
ROOT
HETATM    1  C   UNL     1     -10.930   5.937  69.722  1.00  0.00    -0.452 C  
HETATM    2  C   UNL     1     -10.254   6.299  71.034  1.00  0.00    -0.234 C  
ENDROOT
BRANCH   2   3
HETATM    3  C   UNL     1     -11.154   7.196  71.879  1.00  0.00    -0.268 C  
BRANCH   3   4
HETATM    4  C   UNL     1     -10.774   8.667  71.745  1.00  0.00    -0.392 C  
BRANCH   4   5
HETATM    5  C   UNL     1      -9.265   8.822  71.542  1.00  0.00    -0.332 C  
BRANCH   5   6
HETATM    6  C   UNL     1      -8.975   9.609  70.271  1.00  0.00    -0.263 C  
BRANCH   6   7
HETATM    7  C   UNL     1      -7.480   9.872  70.076  1.00  0.00    -0.173 C  
BRANCH   7   8
HETATM    8  C   UNL     1      -7.203  10.010  68.584  1.00  0.00    -0.080 C  
BRANCH   8   9
HETATM    9  C   UNL     1      -6.007  10.897  68.254  1.00  0.00    -0.046 C  
BRANCH   9  10
HETATM   10  C   UNL     1      -6.304  12.311  68.761  1.00  0.00    -0.077 C  
BRANCH  10  11
HETATM   11  C   UNL     1      -6.521  13.333  67.656  1.00  0.00    -0.167 C  
BRANCH  11  12
HETATM   12  C   UNL     1      -7.961  13.847  67.472  1.00  0.00    -0.179 C  
BRANCH  12  13
HETATM   13  C   UNL     1      -8.946  13.469  68.600  1.00  0.00    -0.002 C  
BRANCH  13  14
HETATM   14  C   UNL     1      -9.889  12.310  68.255  1.00  0.00    -0.217 C  
HETATM   15  O   UNL     1     -10.286  12.314  66.854  1.00  0.00    -0.215 OA 
HETATM   16  O   UNL     1     -12.532  12.537  66.384  1.00  0.00    -0.436 OA 
HETATM   17  C   UNL     1     -11.376  12.489  68.669  1.00  0.00    -0.329 C  
HETATM   18  C   UNL     1     -11.597  12.464  67.146  1.00  0.00    -0.365 C  
BRANCH  17  19
HETATM   19  C   UNL     1     -12.104  11.374  69.412  1.00  0.00    -0.358 C  
BRANCH  19  20
HETATM   20  C   UNL     1     -12.322  11.756  70.873  1.00  0.00    -0.420 C  
BRANCH  20  21
HETATM   21  C   UNL     1     -12.412  13.275  71.046  1.00  0.00    -0.422 C  
BRANCH  21  22
HETATM   22  C   UNL     1     -13.641  13.665  71.870  1.00  0.00    -0.512 C  
BRANCH  22  23
HETATM   23  C   UNL     1     -13.502  15.063  72.471  1.00  0.00    -0.547 C  
HETATM   24  C   UNL     1     -12.460  15.082  73.582  1.00  0.00    -0.660 C  
ENDBRANCH  22  23
ENDBRANCH  21  22
ENDBRANCH  20  21
ENDBRANCH  19  20
ENDBRANCH  17  19
ENDBRANCH  13  14
ENDBRANCH  12  13
BRANCH  12  25
HETATM   25  O   UNL     1      -7.979  15.288  67.352  1.00  0.00    -0.154 OA 
BRANCH  25  26
HETATM   26  C   UNL     1      -9.099  15.860  66.828  1.00  0.00    -0.248 C  
HETATM   27  O   UNL     1      -9.723  15.458  65.851  1.00  0.00    -0.311 OA 
BRANCH  26  28
HETATM   28  C   UNL     1      -9.513  17.085  67.636  1.00  0.00    -0.236 C  
BRANCH  28  29
HETATM   29  C   UNL     1      -8.512  18.241  67.480  1.00  0.00    -0.252 C  
HETATM   30  C   UNL     1      -9.948  19.949  66.184  1.00  0.00    -0.593 C  
HETATM   31  C   UNL     1      -7.466  20.084  66.144  1.00  0.00    -0.324 C  
HETATM   32  C   UNL     1      -8.659  19.127  66.222  1.00  0.00    -0.303 C  
ENDBRANCH  28  29
BRANCH  28  33
HETATM   33  N   UNL     1      -9.718  16.684  69.027  1.00  0.00    -0.267 N  
HETATM   34  C   UNL     1     -10.908  16.201  69.490  1.00  0.00    -0.329 C  
HETATM   35  O   UNL     1     -11.931  16.092  68.831  1.00  0.00    -0.348 OA 
HETATM   36  H   UNL     1      -8.937  16.768  69.680  1.00  0.00     0.000 HD 
ENDBRANCH  28  33
ENDBRANCH  26  28
ENDBRANCH  25  26
ENDBRANCH  12  25
ENDBRANCH  11  12
ENDBRANCH  10  11
ENDBRANCH   9  10
ENDBRANCH   8   9
ENDBRANCH   7   8
ENDBRANCH   6   7
ENDBRANCH   5   6
ENDBRANCH   4   5
ENDBRANCH   3   4
ENDBRANCH   2   3
TORSDOF 22
ENDMDL
MODEL      129
REMARK 921   NORMALIZED FREE ENERGY PREDICTED BY IDOCK:   -4.42 KCAL/MOL
REMARK 922        TOTAL FREE ENERGY PREDICTED BY IDOCK:  -13.73 KCAL/MOL
REMARK 923 INTER-LIGAND FREE ENERGY PREDICTED BY IDOCK:  -10.82 KCAL/MOL
REMARK 924 INTRA-LIGAND FREE ENERGY PREDICTED BY IDOCK:   -2.90 KCAL/MOL
REMARK 927      BINDING AFFINITY PREDICTED BY RF-SCORE:    0.00 PKD
ROOT
HETATM    1  C   UNL     1      -9.049   5.665  68.068  1.00  0.00    -0.107 C  
HETATM    2  C   UNL     1      -9.641   6.844  67.314  1.00  0.00    -0.173 C  
ENDROOT
BRANCH   2   3
HETATM    3  C   UNL     1      -8.827   7.150  66.060  1.00  0.00    -0.154 C  
BRANCH   3   4
HETATM    4  C   UNL     1      -7.533   7.887  66.391  1.00  0.00    -0.087 C  
BRANCH   4   5
HETATM    5  C   UNL     1      -6.959   8.564  65.145  1.00  0.00    -0.075 C  
BRANCH   5   6
HETATM    6  C   UNL     1      -7.893   8.376  63.957  1.00  0.00    -0.146 C  
BRANCH   6   7
HETATM    7  C   UNL     1      -8.323   9.708  63.337  1.00  0.00    -0.170 C  
BRANCH   7   8
HETATM    8  C   UNL     1      -9.175  10.462  64.352  1.00  0.00    -0.291 C  
BRANCH   8   9
HETATM    9  C   UNL     1     -10.476  11.015  63.780  1.00  0.00    -0.408 C  
BRANCH   9  10
HETATM   10  C   UNL     1     -10.361  12.541  63.714  1.00  0.00    -0.418 C  
BRANCH  10  11
HETATM   11  C   UNL     1     -11.699  13.263  63.683  1.00  0.00    -0.447 C  
BRANCH  11  12
HETATM   12  C   UNL     1     -12.083  14.047  64.951  1.00  0.00    -0.420 C  
BRANCH  12  13
HETATM   13  C   UNL     1     -12.636  13.193  66.113  1.00  0.00    -0.116 C  
BRANCH  13  14
HETATM   14  C   UNL     1     -11.653  12.990  67.272  1.00  0.00    -0.356 C  
HETATM   15  O   UNL     1     -11.033  11.672  67.252  1.00  0.00    -0.236 OA 
HETATM   16  O   UNL     1     -11.398  10.295  69.064  1.00  0.00    -0.231 OA 
HETATM   17  C   UNL     1     -12.283  12.663  68.655  1.00  0.00     0.031 C  
HETATM   18  C   UNL     1     -11.544  11.327  68.455  1.00  0.00    -0.308 C  
BRANCH  17  19
HETATM   19  C   UNL     1     -11.839  13.427  69.899  1.00  0.00    -0.385 C  
BRANCH  19  20
HETATM   20  C   UNL     1     -11.877  14.931  69.646  1.00  0.00    -0.356 C  
BRANCH  20  21
HETATM   21  C   UNL     1     -12.305  15.698  70.900  1.00  0.00    -0.479 C  
BRANCH  21  22
HETATM   22  C   UNL     1     -13.804  15.536  71.161  1.00  0.00    -0.348 C  
BRANCH  22  23
HETATM   23  C   UNL     1     -14.076  14.854  72.502  1.00  0.00    -0.478 C  
HETATM   24  C   UNL     1     -12.790  14.669  73.295  1.00  0.00    -0.580 C  
ENDBRANCH  22  23
ENDBRANCH  21  22
ENDBRANCH  20  21
ENDBRANCH  19  20
ENDBRANCH  17  19
ENDBRANCH  13  14
ENDBRANCH  12  13
BRANCH  12  25
HETATM   25  O   UNL     1     -10.948  14.784  65.462  1.00  0.00    -0.315 OA 
BRANCH  25  26
HETATM   26  C   UNL     1     -10.884  16.114  65.177  1.00  0.00    -0.361 C  
HETATM   27  O   UNL     1     -11.521  16.696  64.305  1.00  0.00    -1.075 OA 
BRANCH  26  28
HETATM   28  C   UNL     1      -9.912  16.825  66.114  1.00  0.00    -0.327 C  
BRANCH  28  29
HETATM   29  C   UNL     1      -9.001  15.834  66.856  1.00  0.00    -0.266 C  
HETATM   30  C   UNL     1      -7.282  17.451  67.899  1.00  0.00    -0.193 C  
HETATM   31  C   UNL     1      -6.738  15.045  67.586  1.00  0.00    -0.201 C  
HETATM   32  C   UNL     1      -7.515  16.231  67.006  1.00  0.00    -0.257 C  
ENDBRANCH  28  29
BRANCH  28  33
HETATM   33  N   UNL     1     -10.674  17.690  67.014  1.00  0.00    -0.241 N  
HETATM   34  C   UNL     1     -10.643  19.053  66.930  1.00  0.00    -0.436 C  
HETATM   35  O   UNL     1      -9.961  19.699  66.150  1.00  0.00    -0.415 OA 
HETATM   36  H   UNL     1     -11.254  17.258  67.734  1.00  0.00     0.000 HD 
ENDBRANCH  28  33
ENDBRANCH  26  28
ENDBRANCH  25  26
ENDBRANCH  12  25
ENDBRANCH  11  12
ENDBRANCH  10  11
ENDBRANCH   9  10
ENDBRANCH   8   9
ENDBRANCH   7   8
ENDBRANCH   6   7
ENDBRANCH   5   6
ENDBRANCH   4   5
ENDBRANCH   3   4
ENDBRANCH   2   3
TORSDOF 22
ENDMDL
MODEL      130
REMARK 921   NORMALIZED FREE ENERGY PREDICTED BY IDOCK:   -4.42 KCAL/MOL
REMARK 922        TOTAL FREE ENERGY PREDICTED BY IDOCK:  -13.72 KCAL/MOL
REMARK 923 INTER-LIGAND FREE ENERGY PREDICTED BY IDOCK:  -10.07 KCAL/MOL
REMARK 924 INTRA-LIGAND FREE ENERGY PREDICTED BY IDOCK:   -3.65 KCAL/MOL
REMARK 927      BINDING AFFINITY PREDICTED BY RF-SCORE:    0.00 PKD
ROOT
HETATM    1  C   UNL     1      -9.468  19.808  67.893  1.00  0.00    -0.458 C  
HETATM    2  C   UNL     1     -10.726  19.193  67.303  1.00  0.00    -0.585 C  
ENDROOT
BRANCH   2   3
HETATM    3  C   UNL     1     -10.413  18.462  66.001  1.00  0.00    -0.400 C  
BRANCH   3   4
HETATM    4  C   UNL     1     -10.544  16.949  66.155  1.00  0.00    -0.195 C  
BRANCH   4   5
HETATM    5  C   UNL     1     -10.978  16.305  64.837  1.00  0.00    -0.321 C  
BRANCH   5   6
HETATM    6  C   UNL     1     -10.861  14.789  64.920  1.00  0.00    -0.433 C  
BRANCH   6   7
HETATM    7  C   UNL     1     -12.155  14.080  64.515  1.00  0.00    -0.484 C  
BRANCH   7   8
HETATM    8  C   UNL     1     -12.075  12.628  64.971  1.00  0.00    -0.497 C  
BRANCH   8   9
HETATM    9  C   UNL     1     -11.255  11.731  64.049  1.00  0.00    -0.461 C  
BRANCH   9  10
HETATM   10  C   UNL     1     -10.137  11.089  64.876  1.00  0.00    -0.359 C  
BRANCH  10  11
HETATM   11  C   UNL     1     -10.518  10.806  66.321  1.00  0.00    -0.287 C  
BRANCH  11  12
HETATM   12  C   UNL     1      -9.356  10.548  67.296  1.00  0.00    -0.146 C  
BRANCH  12  13
HETATM   13  C   UNL     1      -8.662   9.176  67.148  1.00  0.00    -0.130 C  
BRANCH  13  14
HETATM   14  C   UNL     1      -8.315   8.495  68.478  1.00  0.00    -0.123 C  
HETATM   15  O   UNL     1      -8.384   7.043  68.395  1.00  0.00    -0.123 OA 
HETATM   16  O   UNL     1      -9.898   5.968  69.760  1.00  0.00    -0.156 OA 
HETATM   17  C   UNL     1      -9.437   8.478  69.553  1.00  0.00    -0.165 C  
HETATM   18  C   UNL     1      -9.357   6.957  69.329  1.00  0.00    -0.144 C  
BRANCH  17  19
HETATM   19  C   UNL     1      -9.132   8.902  70.986  1.00  0.00    -0.303 C  
BRANCH  19  20
HETATM   20  C   UNL     1     -10.377   8.777  71.859  1.00  0.00    -0.414 C  
BRANCH  20  21
HETATM   21  C   UNL     1     -11.657   8.944  71.036  1.00  0.00    -0.347 C  
BRANCH  21  22
HETATM   22  C   UNL     1     -12.628   9.912  71.715  1.00  0.00    -0.506 C  
BRANCH  22  23
HETATM   23  C   UNL     1     -12.580  11.303  71.083  1.00  0.00    -0.501 C  
HETATM   24  C   UNL     1     -12.114  11.231  69.635  1.00  0.00    -0.391 C  
ENDBRANCH  22  23
ENDBRANCH  21  22
ENDBRANCH  20  21
ENDBRANCH  19  20
ENDBRANCH  17  19
ENDBRANCH  13  14
ENDBRANCH  12  13
BRANCH  12  25
HETATM   25  O   UNL     1      -8.335  11.563  67.158  1.00  0.00    -0.146 OA 
BRANCH  25  26
HETATM   26  C   UNL     1      -7.931  12.205  68.289  1.00  0.00    -0.163 C  
HETATM   27  O   UNL     1      -7.374  11.689  69.251  1.00  0.00    -0.077 OA 
BRANCH  26  28
HETATM   28  C   UNL     1      -8.245  13.697  68.209  1.00  0.00    -0.156 C  
BRANCH  28  29
HETATM   29  C   UNL     1      -9.745  13.957  67.997  1.00  0.00    -0.226 C  
HETATM   30  C   UNL     1     -10.079  16.056  69.460  1.00  0.00    -0.266 C  
HETATM   31  C   UNL     1     -12.008  14.613  68.848  1.00  0.00    -0.309 C  
HETATM   32  C   UNL     1     -10.510  14.619  69.166  1.00  0.00    -0.239 C  
ENDBRANCH  28  29
BRANCH  28  33
HETATM   33  N   UNL     1      -7.405  14.299  67.174  1.00  0.00    -0.291 N  
HETATM   34  C   UNL     1      -6.879  15.554  67.288  1.00  0.00    -0.133 C  
HETATM   35  O   UNL     1      -7.077  16.323  68.216  1.00  0.00    -0.130 OA 
HETATM   36  H   UNL     1      -7.203  13.758  66.332  1.00  0.00     0.000 HD 
ENDBRANCH  28  33
ENDBRANCH  26  28
ENDBRANCH  25  26
ENDBRANCH  12  25
ENDBRANCH  11  12
ENDBRANCH  10  11
ENDBRANCH   9  10
ENDBRANCH   8   9
ENDBRANCH   7   8
ENDBRANCH   6   7
ENDBRANCH   5   6
ENDBRANCH   4   5
ENDBRANCH   3   4
ENDBRANCH   2   3
TORSDOF 22
ENDMDL
MODEL      131
REMARK 921   NORMALIZED FREE ENERGY PREDICTED BY IDOCK:   -4.42 KCAL/MOL
REMARK 922        TOTAL FREE ENERGY PREDICTED BY IDOCK:  -13.71 KCAL/MOL
REMARK 923 INTER-LIGAND FREE ENERGY PREDICTED BY IDOCK:  -11.30 KCAL/MOL
REMARK 924 INTRA-LIGAND FREE ENERGY PREDICTED BY IDOCK:   -2.41 KCAL/MOL
REMARK 927      BINDING AFFINITY PREDICTED BY RF-SCORE:    0.00 PKD
ROOT
HETATM    1  C   UNL     1      -7.935   7.411  72.525  1.00  0.00    -0.114 C  
HETATM    2  C   UNL     1      -8.554   6.988  71.203  1.00  0.00    -0.133 C  
ENDROOT
BRANCH   2   3
HETATM    3  C   UNL     1      -8.771   5.478  71.163  1.00  0.00    -0.134 C  
BRANCH   3   4
HETATM    4  C   UNL     1      -9.942   5.098  70.262  1.00  0.00    -0.320 C  
BRANCH   4   5
HETATM    5  C   UNL     1     -10.881   6.289  70.061  1.00  0.00    -0.387 C  
BRANCH   5   6
HETATM    6  C   UNL     1     -11.224   6.456  68.586  1.00  0.00    -0.338 C  
BRANCH   6   7
HETATM    7  C   UNL     1     -10.095   5.985  67.668  1.00  0.00    -0.190 C  
BRANCH   7   8
HETATM    8  C   UNL     1      -9.222   7.185  67.319  1.00  0.00    -0.145 C  
BRANCH   8   9
HETATM    9  C   UNL     1     -10.009   8.443  66.964  1.00  0.00    -0.323 C  
BRANCH   9  10
HETATM   10  C   UNL     1      -9.100   9.656  67.188  1.00  0.00    -0.152 C  
BRANCH  10  11
HETATM   11  C   UNL     1      -9.592  10.606  68.269  1.00  0.00    -0.167 C  
BRANCH  11  12
HETATM   12  C   UNL     1      -9.879  12.053  67.829  1.00  0.00    -0.190 C  
BRANCH  12  13
HETATM   13  C   UNL     1     -10.167  12.240  66.323  1.00  0.00    -0.251 C  
BRANCH  13  14
HETATM   14  C   UNL     1     -11.157  13.366  66.002  1.00  0.00    -0.283 C  
HETATM   15  O   UNL     1     -12.313  12.895  65.253  1.00  0.00    -0.449 OA 
HETATM   16  O   UNL     1     -12.660  13.788  63.157  1.00  0.00    -0.793 OA 
HETATM   17  C   UNL     1     -10.777  14.296  64.816  1.00  0.00    -0.435 C  
HETATM   18  C   UNL     1     -12.043  13.684  64.190  1.00  0.00    -0.435 C  
BRANCH  17  19
HETATM   19  C   UNL     1     -10.845  15.811  64.978  1.00  0.00    -0.461 C  
BRANCH  19  20
HETATM   20  C   UNL     1      -9.818  16.288  66.000  1.00  0.00    -0.371 C  
BRANCH  20  21
HETATM   21  C   UNL     1     -10.490  16.730  67.303  1.00  0.00    -0.310 C  
BRANCH  21  22
HETATM   22  C   UNL     1      -9.778  17.942  67.908  1.00  0.00    -0.288 C  
BRANCH  22  23
HETATM   23  C   UNL     1     -10.455  19.254  67.513  1.00  0.00    -0.564 C  
HETATM   24  C   UNL     1      -9.613  20.026  66.506  1.00  0.00    -0.539 C  
ENDBRANCH  22  23
ENDBRANCH  21  22
ENDBRANCH  20  21
ENDBRANCH  19  20
ENDBRANCH  17  19
ENDBRANCH  13  14
ENDBRANCH  12  13
BRANCH  12  25
HETATM   25  O   UNL     1     -11.009  12.594  68.552  1.00  0.00    -0.238 OA 
BRANCH  25  26
HETATM   26  C   UNL     1     -11.974  11.721  68.952  1.00  0.00    -0.271 C  
HETATM   27  O   UNL     1     -12.487  10.847  68.261  1.00  0.00    -0.165 OA 
BRANCH  26  28
HETATM   28  C   UNL     1     -12.341  11.949  70.416  1.00  0.00    -0.251 C  
BRANCH  28  29
HETATM   29  C   UNL     1     -11.991  13.371  70.880  1.00  0.00    -0.129 C  
HETATM   30  C   UNL     1     -14.123  13.984  72.199  1.00  0.00    -0.641 C  
HETATM   31  C   UNL     1     -12.613  15.757  71.331  1.00  0.00    -0.516 C  
HETATM   32  C   UNL     1     -13.170  14.355  71.063  1.00  0.00    -0.395 C  
ENDBRANCH  28  29
BRANCH  28  33
HETATM   33  N   UNL     1     -11.712  10.907  71.226  1.00  0.00    -0.137 N  
HETATM   34  C   UNL     1     -12.366   9.771  71.607  1.00  0.00    -0.408 C  
HETATM   35  O   UNL     1     -13.535   9.513  71.366  1.00  0.00    -0.374 OA 
HETATM   36  H   UNL     1     -10.742  11.035  71.519  1.00  0.00     0.000 HD 
ENDBRANCH  28  33
ENDBRANCH  26  28
ENDBRANCH  25  26
ENDBRANCH  12  25
ENDBRANCH  11  12
ENDBRANCH  10  11
ENDBRANCH   9  10
ENDBRANCH   8   9
ENDBRANCH   7   8
ENDBRANCH   6   7
ENDBRANCH   5   6
ENDBRANCH   4   5
ENDBRANCH   3   4
ENDBRANCH   2   3
TORSDOF 22
ENDMDL
MODEL      132
REMARK 921   NORMALIZED FREE ENERGY PREDICTED BY IDOCK:   -4.41 KCAL/MOL
REMARK 922        TOTAL FREE ENERGY PREDICTED BY IDOCK:  -13.70 KCAL/MOL
REMARK 923 INTER-LIGAND FREE ENERGY PREDICTED BY IDOCK:  -10.26 KCAL/MOL
REMARK 924 INTRA-LIGAND FREE ENERGY PREDICTED BY IDOCK:   -3.44 KCAL/MOL
REMARK 927      BINDING AFFINITY PREDICTED BY RF-SCORE:    0.00 PKD
ROOT
HETATM    1  C   UNL     1     -13.380  11.377  71.863  1.00  0.00    -0.409 C  
HETATM    2  C   UNL     1     -13.212   9.961  71.337  1.00  0.00    -0.487 C  
ENDROOT
BRANCH   2   3
HETATM    3  C   UNL     1     -14.107   8.989  72.101  1.00  0.00    -0.461 C  
BRANCH   3   4
HETATM    4  C   UNL     1     -13.751   7.536  71.800  1.00  0.00    -0.414 C  
BRANCH   4   5
HETATM    5  C   UNL     1     -12.313   7.425  71.288  1.00  0.00    -0.380 C  
BRANCH   5   6
HETATM    6  C   UNL     1     -11.451   6.655  72.281  1.00  0.00    -0.319 C  
BRANCH   6   7
HETATM    7  C   UNL     1     -10.259   7.476  72.777  1.00  0.00    -0.307 C  
BRANCH   7   8
HETATM    8  C   UNL     1     -10.153   8.738  71.929  1.00  0.00    -0.409 C  
BRANCH   8   9
HETATM    9  C   UNL     1      -8.982   8.734  70.953  1.00  0.00    -0.247 C  
BRANCH   9  10
HETATM   10  C   UNL     1      -9.254   9.785  69.872  1.00  0.00    -0.263 C  
BRANCH  10  11
HETATM   11  C   UNL     1     -10.500   9.515  69.044  1.00  0.00    -0.229 C  
BRANCH  11  12
HETATM   12  C   UNL     1     -10.448   9.951  67.568  1.00  0.00    -0.255 C  
BRANCH  12  13
HETATM   13  C   UNL     1     -10.323   8.801  66.544  1.00  0.00    -0.254 C  
BRANCH  13  14
HETATM   14  C   UNL     1      -9.832   7.475  67.138  1.00  0.00    -0.201 C  
HETATM   15  O   UNL     1      -9.278   6.584  66.128  1.00  0.00    -0.156 OA 
HETATM   16  O   UNL     1     -10.307   4.544  65.829  1.00  0.00    -0.266 OA 
HETATM   17  C   UNL     1     -10.926   6.420  67.458  1.00  0.00    -0.454 C  
HETATM   18  C   UNL     1     -10.198   5.622  66.362  1.00  0.00    -0.171 C  
BRANCH  17  19
HETATM   19  C   UNL     1     -10.944   5.721  68.813  1.00  0.00    -0.223 C  
BRANCH  19  20
HETATM   20  C   UNL     1      -9.711   4.837  68.978  1.00  0.00    -0.248 C  
BRANCH  20  21
HETATM   21  C   UNL     1      -8.712   5.448  69.964  1.00  0.00    -0.130 C  
BRANCH  21  22
HETATM   22  C   UNL     1      -7.288   4.968  69.676  1.00  0.00    -0.056 C  
BRANCH  22  23
HETATM   23  C   UNL     1      -7.127   4.504  68.228  1.00  0.00    -0.057 C  
HETATM   24  C   UNL     1      -6.281   5.484  67.428  1.00  0.00    -0.031 C  
ENDBRANCH  22  23
ENDBRANCH  21  22
ENDBRANCH  20  21
ENDBRANCH  19  20
ENDBRANCH  17  19
ENDBRANCH  13  14
ENDBRANCH  12  13
BRANCH  12  25
HETATM   25  O   UNL     1     -11.627  10.712  67.217  1.00  0.00    -0.392 OA 
BRANCH  25  26
HETATM   26  C   UNL     1     -11.639  12.035  67.542  1.00  0.00    -0.330 C  
HETATM   27  O   UNL     1     -11.762  12.498  68.671  1.00  0.00    -0.290 OA 
BRANCH  26  28
HETATM   28  C   UNL     1     -11.454  12.902  66.300  1.00  0.00    -0.348 C  
BRANCH  28  29
HETATM   29  C   UNL     1     -11.663  14.394  66.606  1.00  0.00    -0.410 C  
HETATM   30  C   UNL     1      -9.381  15.357  65.882  1.00  0.00    -0.329 C  
HETATM   31  C   UNL     1     -10.846  16.604  67.457  1.00  0.00    -0.221 C  
HETATM   32  C   UNL     1     -10.411  15.207  67.004  1.00  0.00    -0.271 C  
ENDBRANCH  28  29
BRANCH  28  33
HETATM   33  N   UNL     1     -12.331  12.402  65.243  1.00  0.00    -0.386 N  
HETATM   34  C   UNL     1     -11.981  12.419  63.923  1.00  0.00    -0.486 C  
HETATM   35  O   UNL     1     -10.944  12.881  63.472  1.00  0.00    -0.370 OA 
HETATM   36  H   UNL     1     -13.244  12.025  65.502  1.00  0.00     0.000 HD 
ENDBRANCH  28  33
ENDBRANCH  26  28
ENDBRANCH  25  26
ENDBRANCH  12  25
ENDBRANCH  11  12
ENDBRANCH  10  11
ENDBRANCH   9  10
ENDBRANCH   8   9
ENDBRANCH   7   8
ENDBRANCH   6   7
ENDBRANCH   5   6
ENDBRANCH   4   5
ENDBRANCH   3   4
ENDBRANCH   2   3
TORSDOF 22
ENDMDL
MODEL      133
REMARK 921   NORMALIZED FREE ENERGY PREDICTED BY IDOCK:   -4.41 KCAL/MOL
REMARK 922        TOTAL FREE ENERGY PREDICTED BY IDOCK:  -13.69 KCAL/MOL
REMARK 923 INTER-LIGAND FREE ENERGY PREDICTED BY IDOCK:   -9.68 KCAL/MOL
REMARK 924 INTRA-LIGAND FREE ENERGY PREDICTED BY IDOCK:   -4.01 KCAL/MOL
REMARK 927      BINDING AFFINITY PREDICTED BY RF-SCORE:    0.00 PKD
ROOT
HETATM    1  C   UNL     1     -11.022   6.403  67.313  1.00  0.00    -0.474 C  
HETATM    2  C   UNL     1     -10.404   6.544  68.694  1.00  0.00    -0.216 C  
ENDROOT
BRANCH   2   3
HETATM    3  C   UNL     1     -11.457   6.354  69.782  1.00  0.00    -0.468 C  
BRANCH   3   4
HETATM    4  C   UNL     1     -10.885   6.604  71.174  1.00  0.00    -0.284 C  
BRANCH   4   5
HETATM    5  C   UNL     1     -12.007   6.795  72.196  1.00  0.00    -0.309 C  
BRANCH   5   6
HETATM    6  C   UNL     1     -13.248   7.371  71.527  1.00  0.00    -0.426 C  
BRANCH   6   7
HETATM    7  C   UNL     1     -13.590   8.772  72.039  1.00  0.00    -0.469 C  
BRANCH   7   8
HETATM    8  C   UNL     1     -13.169   9.789  70.985  1.00  0.00    -0.341 C  
BRANCH   8   9
HETATM    9  C   UNL     1     -11.886  10.541  71.325  1.00  0.00    -0.323 C  
BRANCH   9  10
HETATM   10  C   UNL     1     -10.979  10.525  70.091  1.00  0.00    -0.338 C  
BRANCH  10  11
HETATM   11  C   UNL     1     -11.728  10.623  68.770  1.00  0.00    -0.259 C  
BRANCH  11  12
HETATM   12  C   UNL     1     -11.293  11.754  67.821  1.00  0.00    -0.289 C  
BRANCH  12  13
HETATM   13  C   UNL     1     -11.222  11.371  66.326  1.00  0.00    -0.228 C  
BRANCH  13  14
HETATM   14  C   UNL     1      -9.846  11.584  65.683  1.00  0.00    -0.236 C  
HETATM   15  O   UNL     1      -9.925  12.327  64.433  1.00  0.00    -0.270 OA 
HETATM   16  O   UNL     1      -9.186  11.274  62.520  1.00  0.00    -0.338 OA 
HETATM   17  C   UNL     1      -9.252  10.370  64.915  1.00  0.00    -0.263 C  
HETATM   18  C   UNL     1      -9.407  11.311  63.707  1.00  0.00    -0.146 C  
BRANCH  17  19
HETATM   19  C   UNL     1      -7.814   9.933  65.170  1.00  0.00    -0.133 C  
BRANCH  19  20
HETATM   20  C   UNL     1      -7.305  10.503  66.490  1.00  0.00    -0.125 C  
BRANCH  20  21
HETATM   21  C   UNL     1      -6.384   9.512  67.209  1.00  0.00    -0.069 C  
BRANCH  21  22
HETATM   22  C   UNL     1      -7.176   8.611  68.159  1.00  0.00    -0.087 C  
BRANCH  22  23
HETATM   23  C   UNL     1      -7.718   9.388  69.359  1.00  0.00    -0.085 C  
HETATM   24  C   UNL     1      -7.872   8.483  70.574  1.00  0.00    -0.086 C  
ENDBRANCH  22  23
ENDBRANCH  21  22
ENDBRANCH  20  21
ENDBRANCH  19  20
ENDBRANCH  17  19
ENDBRANCH  13  14
ENDBRANCH  12  13
BRANCH  12  25
HETATM   25  O   UNL     1     -12.186  12.887  67.931  1.00  0.00    -0.234 OA 
BRANCH  25  26
HETATM   26  C   UNL     1     -11.650  14.127  67.758  1.00  0.00    -0.347 C  
HETATM   27  O   UNL     1     -11.517  14.712  66.689  1.00  0.00    -0.351 OA 
BRANCH  26  28
HETATM   28  C   UNL     1     -11.239  14.733  69.097  1.00  0.00    -0.271 C  
BRANCH  28  29
HETATM   29  C   UNL     1     -12.418  14.808  70.079  1.00  0.00    -0.327 C  
HETATM   30  C   UNL     1     -11.172  15.283  72.289  1.00  0.00    -0.242 C  
HETATM   31  C   UNL     1     -13.466  14.324  72.303  1.00  0.00    -0.552 C  
HETATM   32  C   UNL     1     -12.141  14.370  71.536  1.00  0.00    -0.373 C  
ENDBRANCH  28  29
BRANCH  28  33
HETATM   33  N   UNL     1     -10.611  16.031  68.852  1.00  0.00    -0.240 N  
HETATM   34  C   UNL     1      -9.297  16.280  69.130  1.00  0.00    -0.236 C  
HETATM   35  O   UNL     1      -8.521  15.490  69.645  1.00  0.00    -0.244 OA 
HETATM   36  H   UNL     1     -11.177  16.782  68.456  1.00  0.00     0.000 HD 
ENDBRANCH  28  33
ENDBRANCH  26  28
ENDBRANCH  25  26
ENDBRANCH  12  25
ENDBRANCH  11  12
ENDBRANCH  10  11
ENDBRANCH   9  10
ENDBRANCH   8   9
ENDBRANCH   7   8
ENDBRANCH   6   7
ENDBRANCH   5   6
ENDBRANCH   4   5
ENDBRANCH   3   4
ENDBRANCH   2   3
TORSDOF 22
ENDMDL
MODEL      134
REMARK 921   NORMALIZED FREE ENERGY PREDICTED BY IDOCK:   -4.39 KCAL/MOL
REMARK 922        TOTAL FREE ENERGY PREDICTED BY IDOCK:  -13.66 KCAL/MOL
REMARK 923 INTER-LIGAND FREE ENERGY PREDICTED BY IDOCK:  -10.71 KCAL/MOL
REMARK 924 INTRA-LIGAND FREE ENERGY PREDICTED BY IDOCK:   -2.95 KCAL/MOL
REMARK 927      BINDING AFFINITY PREDICTED BY RF-SCORE:    0.00 PKD
ROOT
HETATM    1  C   UNL     1     -10.780  15.939  65.187  1.00  0.00    -0.449 C  
HETATM    2  C   UNL     1     -11.763  14.966  64.557  1.00  0.00    -0.388 C  
ENDROOT
BRANCH   2   3
HETATM    3  C   UNL     1     -11.713  13.612  65.260  1.00  0.00    -0.349 C  
BRANCH   3   4
HETATM    4  C   UNL     1     -12.588  12.578  64.559  1.00  0.00    -0.503 C  
BRANCH   4   5
HETATM    5  C   UNL     1     -11.789  11.821  63.496  1.00  0.00    -0.481 C  
BRANCH   5   6
HETATM    6  C   UNL     1     -10.308  11.807  63.850  1.00  0.00    -0.428 C  
BRANCH   6   7
HETATM    7  C   UNL     1      -9.546  10.693  63.130  1.00  0.00    -0.382 C  
BRANCH   7   8
HETATM    8  C   UNL     1      -8.402  10.231  64.025  1.00  0.00    -0.165 C  
BRANCH   8   9
HETATM    9  C   UNL     1      -8.619   8.858  64.652  1.00  0.00    -0.169 C  
BRANCH   9  10
HETATM   10  C   UNL     1      -7.574   8.664  65.754  1.00  0.00    -0.089 C  
BRANCH  10  11
HETATM   11  C   UNL     1      -8.021   7.740  66.876  1.00  0.00    -0.112 C  
BRANCH  11  12
HETATM   12  C   UNL     1      -8.848   8.384  68.004  1.00  0.00    -0.142 C  
BRANCH  12  13
HETATM   13  C   UNL     1      -8.598   9.892  68.227  1.00  0.00    -0.115 C  
BRANCH  13  14
HETATM   14  C   UNL     1      -9.788  10.790  67.867  1.00  0.00    -0.167 C  
HETATM   15  O   UNL     1      -9.372  12.049  67.264  1.00  0.00    -0.174 OA 
HETATM   16  O   UNL     1      -9.936  13.994  68.364  1.00  0.00    -0.227 OA 
HETATM   17  C   UNL     1     -10.434  11.576  69.042  1.00  0.00    -0.175 C  
HETATM   18  C   UNL     1      -9.919  12.793  68.251  1.00  0.00    -0.230 C  
BRANCH  17  19
HETATM   19  C   UNL     1     -11.948  11.565  69.230  1.00  0.00    -0.397 C  
BRANCH  19  20
HETATM   20  C   UNL     1     -12.340  10.623  70.364  1.00  0.00    -0.428 C  
BRANCH  20  21
HETATM   21  C   UNL     1     -13.001  11.382  71.518  1.00  0.00    -0.505 C  
BRANCH  21  22
HETATM   22  C   UNL     1     -12.814  12.893  71.363  1.00  0.00    -0.377 C  
BRANCH  22  23
HETATM   23  C   UNL     1     -13.796  13.678  72.233  1.00  0.00    -0.689 C  
HETATM   24  C   UNL     1     -14.059  15.061  71.652  1.00  0.00    -0.619 C  
ENDBRANCH  22  23
ENDBRANCH  21  22
ENDBRANCH  20  21
ENDBRANCH  19  20
ENDBRANCH  17  19
ENDBRANCH  13  14
ENDBRANCH  12  13
BRANCH  12  25
HETATM   25  O   UNL     1     -10.264   8.214  67.763  1.00  0.00    -0.202 OA 
BRANCH  25  26
HETATM   26  C   UNL     1     -10.778   6.961  67.903  1.00  0.00    -0.232 C  
HETATM   27  O   UNL     1     -11.161   6.233  66.993  1.00  0.00    -0.336 OA 
BRANCH  26  28
HETATM   28  C   UNL     1     -10.803   6.544  69.371  1.00  0.00    -0.308 C  
BRANCH  28  29
HETATM   29  C   UNL     1     -10.283   5.112  69.569  1.00  0.00    -0.318 C  
HETATM   30  C   UNL     1      -7.854   5.580  70.305  1.00  0.00    -0.093 C  
HETATM   31  C   UNL     1      -8.494   3.369  69.365  1.00  0.00    -0.096 C  
HETATM   32  C   UNL     1      -8.777   4.873  69.311  1.00  0.00    -0.107 C  
ENDBRANCH  28  29
BRANCH  28  33
HETATM   33  N   UNL     1     -12.154   6.744  69.893  1.00  0.00    -0.625 N  
HETATM   34  C   UNL     1     -12.398   7.154  71.173  1.00  0.00    -0.364 C  
HETATM   35  O   UNL     1     -11.547   7.354  72.026  1.00  0.00    -0.268 OA 
HETATM   36  H   UNL     1     -12.948   6.570  69.276  1.00  0.00     0.000 HD 
ENDBRANCH  28  33
ENDBRANCH  26  28
ENDBRANCH  25  26
ENDBRANCH  12  25
ENDBRANCH  11  12
ENDBRANCH  10  11
ENDBRANCH   9  10
ENDBRANCH   8   9
ENDBRANCH   7   8
ENDBRANCH   6   7
ENDBRANCH   5   6
ENDBRANCH   4   5
ENDBRANCH   3   4
ENDBRANCH   2   3
TORSDOF 22
ENDMDL
MODEL      135
REMARK 921   NORMALIZED FREE ENERGY PREDICTED BY IDOCK:   -4.38 KCAL/MOL
REMARK 922        TOTAL FREE ENERGY PREDICTED BY IDOCK:  -13.64 KCAL/MOL
REMARK 923 INTER-LIGAND FREE ENERGY PREDICTED BY IDOCK:   -9.72 KCAL/MOL
REMARK 924 INTRA-LIGAND FREE ENERGY PREDICTED BY IDOCK:   -3.92 KCAL/MOL
REMARK 927      BINDING AFFINITY PREDICTED BY RF-SCORE:    0.00 PKD
ROOT
HETATM    1  C   UNL     1      -6.947   4.175  64.565  1.00  0.00    -0.050 C  
HETATM    2  C   UNL     1      -6.630   5.609  64.959  1.00  0.00    -0.043 C  
ENDROOT
BRANCH   2   3
HETATM    3  C   UNL     1      -6.439   6.482  63.722  1.00  0.00    -0.033 C  
BRANCH   3   4
HETATM    4  C   UNL     1      -7.769   6.817  63.054  1.00  0.00    -0.103 C  
BRANCH   4   5
HETATM    5  C   UNL     1      -7.747   8.237  62.484  1.00  0.00    -0.127 C  
BRANCH   5   6
HETATM    6  C   UNL     1      -7.118   9.203  63.478  1.00  0.00    -0.089 C  
BRANCH   6   7
HETATM    7  C   UNL     1      -8.096  10.286  63.938  1.00  0.00    -0.138 C  
BRANCH   7   8
HETATM    8  C   UNL     1      -9.343  10.215  63.065  1.00  0.00    -0.330 C  
BRANCH   8   9
HETATM    9  C   UNL     1     -10.456  11.165  63.494  1.00  0.00    -0.422 C  
BRANCH   9  10
HETATM   10  C   UNL     1     -10.459  11.242  65.023  1.00  0.00    -0.359 C  
BRANCH  10  11
HETATM   11  C   UNL     1     -11.389  12.303  65.590  1.00  0.00    -0.394 C  
BRANCH  11  12
HETATM   12  C   UNL     1     -11.413  12.444  67.123  1.00  0.00    -0.357 C  
BRANCH  12  13
HETATM   13  C   UNL     1     -12.135  13.700  67.659  1.00  0.00    -0.328 C  
BRANCH  13  14
HETATM   14  C   UNL     1     -11.576  14.234  68.983  1.00  0.00    -0.305 C  
HETATM   15  O   UNL     1     -12.471  13.986  70.105  1.00  0.00    -0.344 OA 
HETATM   16  O   UNL     1     -13.290  15.818  71.239  1.00  0.00    -0.532 OA 
HETATM   17  C   UNL     1     -11.717  15.764  69.220  1.00  0.00    -0.384 C  
HETATM   18  C   UNL     1     -12.631  15.302  70.369  1.00  0.00    -0.375 C  
BRANCH  17  19
HETATM   19  C   UNL     1     -10.515  16.581  69.685  1.00  0.00    -0.267 C  
BRANCH  19  20
HETATM   20  C   UNL     1     -10.279  17.764  68.752  1.00  0.00    -0.373 C  
BRANCH  20  21
HETATM   21  C   UNL     1     -10.740  17.453  67.325  1.00  0.00    -0.219 C  
BRANCH  21  22
HETATM   22  C   UNL     1      -9.549  17.145  66.415  1.00  0.00    -0.296 C  
BRANCH  22  23
HETATM   23  C   UNL     1      -9.525  15.677  65.989  1.00  0.00    -0.390 C  
HETATM   24  C   UNL     1      -8.586  14.864  66.871  1.00  0.00    -0.269 C  
ENDBRANCH  22  23
ENDBRANCH  21  22
ENDBRANCH  20  21
ENDBRANCH  19  20
ENDBRANCH  17  19
ENDBRANCH  13  14
ENDBRANCH  12  13
BRANCH  12  25
HETATM   25  O   UNL     1     -12.042  11.294  67.734  1.00  0.00    -0.631 OA 
BRANCH  25  26
HETATM   26  C   UNL     1     -11.435  10.755  68.828  1.00  0.00    -0.295 C  
HETATM   27  O   UNL     1     -11.835  10.832  69.984  1.00  0.00    -0.284 OA 
BRANCH  26  28
HETATM   28  C   UNL     1     -10.170  10.000  68.431  1.00  0.00    -0.172 C  
BRANCH  28  29
HETATM   29  C   UNL     1     -10.374   8.477  68.470  1.00  0.00    -0.230 C  
HETATM   30  C   UNL     1      -9.248   7.785  66.253  1.00  0.00    -0.217 C  
HETATM   31  C   UNL     1     -10.907   6.297  67.355  1.00  0.00    -0.448 C  
HETATM   32  C   UNL     1     -10.515   7.757  67.109  1.00  0.00    -0.413 C  
ENDBRANCH  28  29
BRANCH  28  33
HETATM   33  N   UNL     1      -9.067  10.454  69.277  1.00  0.00    -0.255 N  
HETATM   34  C   UNL     1      -8.047  11.230  68.807  1.00  0.00    -0.130 C  
HETATM   35  O   UNL     1      -7.908  11.591  67.648  1.00  0.00    -0.114 OA 
HETATM   36  H   UNL     1      -9.060  10.180  70.260  1.00  0.00     0.000 HD 
ENDBRANCH  28  33
ENDBRANCH  26  28
ENDBRANCH  25  26
ENDBRANCH  12  25
ENDBRANCH  11  12
ENDBRANCH  10  11
ENDBRANCH   9  10
ENDBRANCH   8   9
ENDBRANCH   7   8
ENDBRANCH   6   7
ENDBRANCH   5   6
ENDBRANCH   4   5
ENDBRANCH   3   4
ENDBRANCH   2   3
TORSDOF 22
ENDMDL
MODEL      136
REMARK 921   NORMALIZED FREE ENERGY PREDICTED BY IDOCK:   -4.38 KCAL/MOL
REMARK 922        TOTAL FREE ENERGY PREDICTED BY IDOCK:  -13.63 KCAL/MOL
REMARK 923 INTER-LIGAND FREE ENERGY PREDICTED BY IDOCK:   -9.24 KCAL/MOL
REMARK 924 INTRA-LIGAND FREE ENERGY PREDICTED BY IDOCK:   -4.39 KCAL/MOL
REMARK 927      BINDING AFFINITY PREDICTED BY RF-SCORE:    0.00 PKD
ROOT
HETATM    1  C   UNL     1     -12.183  14.615  64.218  1.00  0.00    -0.432 C  
HETATM    2  C   UNL     1     -12.302  13.380  63.340  1.00  0.00    -0.343 C  
ENDROOT
BRANCH   2   3
HETATM    3  C   UNL     1     -12.186  12.108  64.175  1.00  0.00    -0.509 C  
BRANCH   3   4
HETATM    4  C   UNL     1     -11.904  12.417  65.642  1.00  0.00    -0.468 C  
BRANCH   4   5
HETATM    5  C   UNL     1     -10.534  11.877  66.056  1.00  0.00    -0.282 C  
BRANCH   5   6
HETATM    6  C   UNL     1     -10.051  10.826  65.065  1.00  0.00    -0.377 C  
BRANCH   6   7
HETATM    7  C   UNL     1      -9.871   9.452  65.713  1.00  0.00    -0.345 C  
BRANCH   7   8
HETATM    8  C   UNL     1      -8.571   8.842  65.202  1.00  0.00    -0.209 C  
BRANCH   8   9
HETATM    9  C   UNL     1      -7.395   9.814  65.181  1.00  0.00    -0.122 C  
BRANCH   9  10
HETATM   10  C   UNL     1      -6.898   9.995  66.619  1.00  0.00    -0.082 C  
BRANCH  10  11
HETATM   11  C   UNL     1      -6.902  11.438  67.099  1.00  0.00    -0.124 C  
BRANCH  11  12
HETATM   12  C   UNL     1      -7.377  11.677  68.544  1.00  0.00    -0.102 C  
BRANCH  12  13
HETATM   13  C   UNL     1      -7.614  13.155  68.926  1.00  0.00     0.040 C  
BRANCH  13  14
HETATM   14  C   UNL     1      -8.222  14.008  67.806  1.00  0.00    -0.168 C  
HETATM   15  O   UNL     1      -7.296  15.014  67.306  1.00  0.00    -0.199 OA 
HETATM   16  O   UNL     1      -7.908  17.226  67.519  1.00  0.00    -0.177 OA 
HETATM   17  C   UNL     1      -9.192  15.136  68.254  1.00  0.00    -0.188 C  
HETATM   18  C   UNL     1      -8.096  16.042  67.665  1.00  0.00    -0.149 C  
BRANCH  17  19
HETATM   19  C   UNL     1     -10.548  15.296  67.574  1.00  0.00    -0.273 C  
BRANCH  19  20
HETATM   20  C   UNL     1     -11.673  14.879  68.517  1.00  0.00    -0.338 C  
BRANCH  20  21
HETATM   21  C   UNL     1     -11.367  15.275  69.964  1.00  0.00    -0.311 C  
BRANCH  21  22
HETATM   22  C   UNL     1     -11.955  14.263  70.950  1.00  0.00    -0.389 C  
BRANCH  22  23
HETATM   23  C   UNL     1     -13.482  14.325  70.985  1.00  0.00    -0.274 C  
HETATM   24  C   UNL     1     -14.028  13.689  72.256  1.00  0.00    -0.661 C  
ENDBRANCH  22  23
ENDBRANCH  21  22
ENDBRANCH  20  21
ENDBRANCH  19  20
ENDBRANCH  17  19
ENDBRANCH  13  14
ENDBRANCH  12  13
BRANCH  12  25
HETATM   25  O   UNL     1      -8.608  10.963  68.804  1.00  0.00    -0.152 OA 
BRANCH  25  26
HETATM   26  C   UNL     1      -8.569   9.960  69.724  1.00  0.00    -0.203 C  
HETATM   27  O   UNL     1      -7.809   9.892  70.684  1.00  0.00    -0.278 OA 
BRANCH  26  28
HETATM   28  C   UNL     1      -9.631   8.906  69.425  1.00  0.00    -0.163 C  
BRANCH  28  29
HETATM   29  C   UNL     1     -10.838   9.023  70.370  1.00  0.00    -0.284 C  
HETATM   30  C   UNL     1     -12.124  10.971  69.269  1.00  0.00    -0.363 C  
HETATM   31  C   UNL     1     -12.507  10.382  71.653  1.00  0.00    -0.471 C  
HETATM   32  C   UNL     1     -11.461  10.428  70.536  1.00  0.00    -0.431 C  
ENDBRANCH  28  29
BRANCH  28  33
HETATM   33  N   UNL     1      -9.004   7.586  69.453  1.00  0.00    -0.140 N  
HETATM   34  C   UNL     1      -9.323   6.598  68.566  1.00  0.00    -0.125 C  
HETATM   35  O   UNL     1     -10.178   6.676  67.696  1.00  0.00    -0.148 OA 
HETATM   36  H   UNL     1      -8.299   7.394  70.165  1.00  0.00     0.000 HD 
ENDBRANCH  28  33
ENDBRANCH  26  28
ENDBRANCH  25  26
ENDBRANCH  12  25
ENDBRANCH  11  12
ENDBRANCH  10  11
ENDBRANCH   9  10
ENDBRANCH   8   9
ENDBRANCH   7   8
ENDBRANCH   6   7
ENDBRANCH   5   6
ENDBRANCH   4   5
ENDBRANCH   3   4
ENDBRANCH   2   3
TORSDOF 22
ENDMDL
MODEL      137
REMARK 921   NORMALIZED FREE ENERGY PREDICTED BY IDOCK:   -4.38 KCAL/MOL
REMARK 922        TOTAL FREE ENERGY PREDICTED BY IDOCK:  -13.63 KCAL/MOL
REMARK 923 INTER-LIGAND FREE ENERGY PREDICTED BY IDOCK:   -9.81 KCAL/MOL
REMARK 924 INTRA-LIGAND FREE ENERGY PREDICTED BY IDOCK:   -3.81 KCAL/MOL
REMARK 927      BINDING AFFINITY PREDICTED BY RF-SCORE:    0.00 PKD
ROOT
HETATM    1  C   UNL     1     -10.932  15.357  65.043  1.00  0.00    -0.450 C  
HETATM    2  C   UNL     1     -12.178  14.802  64.375  1.00  0.00    -0.447 C  
ENDROOT
BRANCH   2   3
HETATM    3  C   UNL     1     -12.738  13.622  65.165  1.00  0.00    -0.443 C  
BRANCH   3   4
HETATM    4  C   UNL     1     -11.802  12.418  65.122  1.00  0.00    -0.437 C  
BRANCH   4   5
HETATM    5  C   UNL     1     -11.601  11.938  63.683  1.00  0.00    -0.559 C  
BRANCH   5   6
HETATM    6  C   UNL     1     -10.363  11.056  63.583  1.00  0.00    -0.415 C  
BRANCH   6   7
HETATM    7  C   UNL     1      -9.610  10.954  64.910  1.00  0.00    -0.297 C  
BRANCH   7   8
HETATM    8  C   UNL     1      -9.468   9.481  65.275  1.00  0.00    -0.326 C  
BRANCH   8   9
HETATM    9  C   UNL     1     -10.346   9.044  66.443  1.00  0.00    -0.219 C  
BRANCH   9  10
HETATM   10  C   UNL     1      -9.540   8.074  67.313  1.00  0.00    -0.210 C  
BRANCH  10  11
HETATM   11  C   UNL     1      -8.659   8.755  68.348  1.00  0.00    -0.134 C  
BRANCH  11  12
HETATM   12  C   UNL     1      -9.123  10.140  68.837  1.00  0.00    -0.165 C  
BRANCH  12  13
HETATM   13  C   UNL     1      -9.894  10.143  70.175  1.00  0.00    -0.108 C  
BRANCH  13  14
HETATM   14  C   UNL     1     -11.258   9.444  70.121  1.00  0.00    -0.219 C  
HETATM   15  O   UNL     1     -12.298  10.197  70.807  1.00  0.00    -0.299 OA 
HETATM   16  O   UNL     1     -13.335   9.190  72.602  1.00  0.00    -0.454 OA 
HETATM   17  C   UNL     1     -11.465   8.268  71.116  1.00  0.00    -0.307 C  
HETATM   18  C   UNL     1     -12.533   9.210  71.700  1.00  0.00    -0.359 C  
BRANCH  17  19
HETATM   19  C   UNL     1     -12.027   6.938  70.623  1.00  0.00    -0.400 C  
BRANCH  19  20
HETATM   20  C   UNL     1     -10.929   5.879  70.568  1.00  0.00    -0.362 C  
BRANCH  20  21
HETATM   21  C   UNL     1      -9.950   6.028  71.736  1.00  0.00    -0.199 C  
BRANCH  21  22
HETATM   22  C   UNL     1      -9.874   4.740  72.559  1.00  0.00    -0.204 C  
BRANCH  22  23
HETATM   23  C   UNL     1     -11.235   4.355  73.139  1.00  0.00    -0.309 C  
HETATM   24  C   UNL     1     -11.269   2.883  73.527  1.00  0.00    -0.301 C  
ENDBRANCH  22  23
ENDBRANCH  21  22
ENDBRANCH  20  21
ENDBRANCH  19  20
ENDBRANCH  17  19
ENDBRANCH  13  14
ENDBRANCH  12  13
BRANCH  12  25
HETATM   25  O   UNL     1      -7.996  11.034  68.988  1.00  0.00    -0.141 OA 
BRANCH  25  26
HETATM   26  C   UNL     1      -7.659  11.805  67.917  1.00  0.00    -0.121 C  
HETATM   27  O   UNL     1      -7.016  11.440  66.939  1.00  0.00    -0.125 OA 
BRANCH  26  28
HETATM   28  C   UNL     1      -8.211  13.220  68.071  1.00  0.00    -0.162 C  
BRANCH  28  29
HETATM   29  C   UNL     1      -9.732  13.269  67.849  1.00  0.00    -0.224 C  
HETATM   30  C   UNL     1     -10.306  15.523  68.967  1.00  0.00    -0.235 C  
HETATM   31  C   UNL     1     -12.055  13.790  68.629  1.00  0.00    -0.333 C  
HETATM   32  C   UNL     1     -10.567  14.017  68.913  1.00  0.00    -0.241 C  
ENDBRANCH  28  29
BRANCH  28  33
HETATM   33  N   UNL     1      -7.471  14.112  67.181  1.00  0.00    -0.319 N  
HETATM   34  C   UNL     1      -6.798  15.213  67.631  1.00  0.00    -0.180 C  
HETATM   35  O   UNL     1      -6.771  15.601  68.788  1.00  0.00    -0.109 OA 
HETATM   36  H   UNL     1      -7.455  13.905  66.182  1.00  0.00     0.000 HD 
ENDBRANCH  28  33
ENDBRANCH  26  28
ENDBRANCH  25  26
ENDBRANCH  12  25
ENDBRANCH  11  12
ENDBRANCH  10  11
ENDBRANCH   9  10
ENDBRANCH   8   9
ENDBRANCH   7   8
ENDBRANCH   6   7
ENDBRANCH   5   6
ENDBRANCH   4   5
ENDBRANCH   3   4
ENDBRANCH   2   3
TORSDOF 22
ENDMDL
MODEL      138
REMARK 921   NORMALIZED FREE ENERGY PREDICTED BY IDOCK:   -4.38 KCAL/MOL
REMARK 922        TOTAL FREE ENERGY PREDICTED BY IDOCK:  -13.63 KCAL/MOL
REMARK 923 INTER-LIGAND FREE ENERGY PREDICTED BY IDOCK:  -10.40 KCAL/MOL
REMARK 924 INTRA-LIGAND FREE ENERGY PREDICTED BY IDOCK:   -3.22 KCAL/MOL
REMARK 927      BINDING AFFINITY PREDICTED BY RF-SCORE:    0.00 PKD
ROOT
HETATM    1  C   UNL     1      -8.226   6.096  66.217  1.00  0.00    -0.116 C  
HETATM    2  C   UNL     1      -8.337   6.868  64.912  1.00  0.00    -0.022 C  
ENDROOT
BRANCH   2   3
HETATM    3  C   UNL     1      -8.406   8.370  65.175  1.00  0.00    -0.177 C  
BRANCH   3   4
HETATM    4  C   UNL     1      -9.685   8.757  65.912  1.00  0.00    -0.211 C  
BRANCH   4   5
HETATM    5  C   UNL     1     -10.174  10.135  65.462  1.00  0.00    -0.288 C  
BRANCH   5   6
HETATM    6  C   UNL     1      -9.753  10.409  64.025  1.00  0.00    -0.373 C  
BRANCH   6   7
HETATM    7  C   UNL     1      -9.918  11.880  63.639  1.00  0.00    -0.404 C  
BRANCH   7   8
HETATM    8  C   UNL     1     -11.407  12.189  63.536  1.00  0.00    -0.535 C  
BRANCH   8   9
HETATM    9  C   UNL     1     -11.794  13.563  64.075  1.00  0.00    -0.476 C  
BRANCH   9  10
HETATM   10  C   UNL     1     -12.464  13.371  65.439  1.00  0.00    -0.543 C  
BRANCH  10  11
HETATM   11  C   UNL     1     -11.671  13.940  66.605  1.00  0.00    -0.417 C  
BRANCH  11  12
HETATM   12  C   UNL     1     -10.451  13.122  67.067  1.00  0.00    -0.248 C  
BRANCH  12  13
HETATM   13  C   UNL     1      -9.093  13.851  66.970  1.00  0.00    -0.259 C  
BRANCH  13  14
HETATM   14  C   UNL     1      -9.190  15.380  67.021  1.00  0.00    -0.225 C  
HETATM   15  O   UNL     1      -7.884  16.023  67.008  1.00  0.00    -0.182 OA 
HETATM   16  O   UNL     1      -7.317  17.321  68.826  1.00  0.00    -0.231 OA 
HETATM   17  C   UNL     1      -9.474  16.004  68.416  1.00  0.00    -0.207 C  
HETATM   18  C   UNL     1      -8.069  16.601  68.215  1.00  0.00    -0.198 C  
BRANCH  17  19
HETATM   19  C   UNL     1     -10.567  17.055  68.578  1.00  0.00    -0.370 C  
BRANCH  19  20
HETATM   20  C   UNL     1     -10.713  17.878  67.301  1.00  0.00    -0.278 C  
BRANCH  20  21
HETATM   21  C   UNL     1     -10.554  19.375  67.579  1.00  0.00    -0.591 C  
BRANCH  21  22
HETATM   22  C   UNL     1      -9.826  20.075  66.430  1.00  0.00    -0.578 C  
BRANCH  22  23
HETATM   23  C   UNL     1      -8.373  19.616  66.313  1.00  0.00    -0.372 C  
HETATM   24  C   UNL     1      -7.427  20.615  66.965  1.00  0.00    -0.350 C  
ENDBRANCH  22  23
ENDBRANCH  21  22
ENDBRANCH  20  21
ENDBRANCH  19  20
ENDBRANCH  17  19
ENDBRANCH  13  14
ENDBRANCH  12  13
BRANCH  12  25
HETATM   25  O   UNL     1     -10.611  12.691  68.438  1.00  0.00    -0.231 OA 
BRANCH  25  26
HETATM   26  C   UNL     1     -11.218  11.491  68.651  1.00  0.00    -0.248 C  
HETATM   27  O   UNL     1     -12.334  11.168  68.260  1.00  0.00    -0.532 OA 
BRANCH  26  28
HETATM   28  C   UNL     1     -10.309  10.554  69.442  1.00  0.00    -0.234 C  
BRANCH  28  29
HETATM   29  C   UNL     1      -8.904  10.461  68.824  1.00  0.00    -0.157 C  
HETATM   30  C   UNL     1      -7.694   9.028  70.597  1.00  0.00    -0.131 C  
HETATM   31  C   UNL     1      -6.407  10.458  69.022  1.00  0.00    -0.044 C  
HETATM   32  C   UNL     1      -7.717  10.338  69.806  1.00  0.00    -0.159 C  
ENDBRANCH  28  29
BRANCH  28  33
HETATM   33  N   UNL     1     -10.968   9.256  69.570  1.00  0.00    -0.377 N  
HETATM   34  C   UNL     1     -11.362   8.743  70.773  1.00  0.00    -0.272 C  
HETATM   35  O   UNL     1     -11.177   9.267  71.861  1.00  0.00    -0.370 OA 
HETATM   36  H   UNL     1     -11.141   8.710  68.726  1.00  0.00     0.000 HD 
ENDBRANCH  28  33
ENDBRANCH  26  28
ENDBRANCH  25  26
ENDBRANCH  12  25
ENDBRANCH  11  12
ENDBRANCH  10  11
ENDBRANCH   9  10
ENDBRANCH   8   9
ENDBRANCH   7   8
ENDBRANCH   6   7
ENDBRANCH   5   6
ENDBRANCH   4   5
ENDBRANCH   3   4
ENDBRANCH   2   3
TORSDOF 22
ENDMDL
MODEL      139
REMARK 921   NORMALIZED FREE ENERGY PREDICTED BY IDOCK:   -4.37 KCAL/MOL
REMARK 922        TOTAL FREE ENERGY PREDICTED BY IDOCK:  -13.62 KCAL/MOL
REMARK 923 INTER-LIGAND FREE ENERGY PREDICTED BY IDOCK:  -10.51 KCAL/MOL
REMARK 924 INTRA-LIGAND FREE ENERGY PREDICTED BY IDOCK:   -3.11 KCAL/MOL
REMARK 927      BINDING AFFINITY PREDICTED BY RF-SCORE:    0.00 PKD
ROOT
HETATM    1  C   UNL     1      -7.814   6.361  65.532  1.00  0.00    -0.103 C  
HETATM    2  C   UNL     1      -8.120   7.223  64.318  1.00  0.00    -0.049 C  
ENDROOT
BRANCH   2   3
HETATM    3  C   UNL     1      -8.079   8.705  64.681  1.00  0.00    -0.156 C  
BRANCH   3   4
HETATM    4  C   UNL     1      -8.912   9.007  65.923  1.00  0.00    -0.233 C  
BRANCH   4   5
HETATM    5  C   UNL     1      -9.680  10.320  65.755  1.00  0.00    -0.297 C  
BRANCH   5   6
HETATM    6  C   UNL     1      -9.997  10.570  64.287  1.00  0.00    -0.398 C  
BRANCH   6   7
HETATM    7  C   UNL     1     -10.148  12.059  63.968  1.00  0.00    -0.361 C  
BRANCH   7   8
HETATM    8  C   UNL     1     -11.608  12.450  64.162  1.00  0.00    -0.458 C  
BRANCH   8   9
HETATM    9  C   UNL     1     -11.819  13.930  64.463  1.00  0.00    -0.449 C  
BRANCH   9  10
HETATM   10  C   UNL     1     -12.516  14.049  65.822  1.00  0.00    -0.523 C  
BRANCH  10  11
HETATM   11  C   UNL     1     -11.598  14.488  66.952  1.00  0.00    -0.399 C  
BRANCH  11  12
HETATM   12  C   UNL     1     -10.508  13.487  67.376  1.00  0.00    -0.247 C  
BRANCH  12  13
HETATM   13  C   UNL     1      -9.099  14.090  67.573  1.00  0.00    -0.196 C  
BRANCH  13  14
HETATM   14  C   UNL     1      -9.061  15.622  67.571  1.00  0.00    -0.193 C  
HETATM   15  O   UNL     1      -7.703  16.146  67.510  1.00  0.00    -0.130 OA 
HETATM   16  O   UNL     1      -6.983  17.449  69.269  1.00  0.00    -0.244 OA 
HETATM   17  C   UNL     1      -9.256  16.315  68.949  1.00  0.00    -0.249 C  
HETATM   18  C   UNL     1      -7.810  16.778  68.699  1.00  0.00    -0.241 C  
BRANCH  17  19
HETATM   19  C   UNL     1     -10.249  17.464  69.095  1.00  0.00    -0.273 C  
BRANCH  19  20
HETATM   20  C   UNL     1     -10.636  18.015  67.726  1.00  0.00    -0.409 C  
BRANCH  20  21
HETATM   21  C   UNL     1     -10.412  19.528  67.648  1.00  0.00    -0.593 C  
BRANCH  21  22
HETATM   22  C   UNL     1      -9.765  19.923  66.319  1.00  0.00    -0.551 C  
BRANCH  22  23
HETATM   23  C   UNL     1      -8.273  19.590  66.293  1.00  0.00    -0.354 C  
HETATM   24  C   UNL     1      -7.526  20.327  67.396  1.00  0.00    -0.343 C  
ENDBRANCH  22  23
ENDBRANCH  21  22
ENDBRANCH  20  21
ENDBRANCH  19  20
ENDBRANCH  17  19
ENDBRANCH  13  14
ENDBRANCH  12  13
BRANCH  12  25
HETATM   25  O   UNL     1     -10.869  12.826  68.610  1.00  0.00    -0.242 OA 
BRANCH  25  26
HETATM   26  C   UNL     1     -11.486  11.615  68.516  1.00  0.00    -0.298 C  
HETATM   27  O   UNL     1     -12.388  11.324  67.738  1.00  0.00    -0.262 OA 
BRANCH  26  28
HETATM   28  C   UNL     1     -10.891  10.623  69.511  1.00  0.00    -0.259 C  
BRANCH  28  29
HETATM   29  C   UNL     1     -11.746  10.502  70.783  1.00  0.00    -0.454 C  
HETATM   30  C   UNL     1     -11.079   8.142  71.587  1.00  0.00    -0.310 C  
HETATM   31  C   UNL     1     -13.205   9.189  72.340  1.00  0.00    -0.512 C  
HETATM   32  C   UNL     1     -12.214   9.083  71.177  1.00  0.00    -0.331 C  
ENDBRANCH  28  29
BRANCH  28  33
HETATM   33  N   UNL     1      -9.505  11.003  69.782  1.00  0.00    -0.107 N  
HETATM   34  C   UNL     1      -8.468  10.118  69.703  1.00  0.00    -0.157 C  
HETATM   35  O   UNL     1      -8.570   8.928  69.449  1.00  0.00    -0.127 OA 
HETATM   36  H   UNL     1      -9.305  11.969  70.042  1.00  0.00     0.000 HD 
ENDBRANCH  28  33
ENDBRANCH  26  28
ENDBRANCH  25  26
ENDBRANCH  12  25
ENDBRANCH  11  12
ENDBRANCH  10  11
ENDBRANCH   9  10
ENDBRANCH   8   9
ENDBRANCH   7   8
ENDBRANCH   6   7
ENDBRANCH   5   6
ENDBRANCH   4   5
ENDBRANCH   3   4
ENDBRANCH   2   3
TORSDOF 22
ENDMDL
MODEL      140
REMARK 921   NORMALIZED FREE ENERGY PREDICTED BY IDOCK:   -4.37 KCAL/MOL
REMARK 922        TOTAL FREE ENERGY PREDICTED BY IDOCK:  -13.61 KCAL/MOL
REMARK 923 INTER-LIGAND FREE ENERGY PREDICTED BY IDOCK:  -10.25 KCAL/MOL
REMARK 924 INTRA-LIGAND FREE ENERGY PREDICTED BY IDOCK:   -3.36 KCAL/MOL
REMARK 927      BINDING AFFINITY PREDICTED BY RF-SCORE:    0.00 PKD
ROOT
HETATM    1  C   UNL     1      -9.915   4.111  71.702  1.00  0.00    -0.240 C  
HETATM    2  C   UNL     1     -10.758   5.357  71.483  1.00  0.00    -0.262 C  
ENDROOT
BRANCH   2   3
HETATM    3  C   UNL     1     -10.918   5.649  69.994  1.00  0.00    -0.311 C  
BRANCH   3   4
HETATM    4  C   UNL     1      -9.810   5.002  69.168  1.00  0.00    -0.262 C  
BRANCH   4   5
HETATM    5  C   UNL     1      -9.347   5.941  68.052  1.00  0.00    -0.111 C  
BRANCH   5   6
HETATM    6  C   UNL     1      -7.879   6.304  68.234  1.00  0.00    -0.105 C  
BRANCH   6   7
HETATM    7  C   UNL     1      -7.433   6.217  69.695  1.00  0.00    -0.081 C  
BRANCH   7   8
HETATM    8  C   UNL     1      -6.691   7.499  70.053  1.00  0.00    -0.046 C  
BRANCH   8   9
HETATM    9  C   UNL     1      -6.571   8.489  68.898  1.00  0.00    -0.053 C  
BRANCH   9  10
HETATM   10  C   UNL     1      -6.982   9.873  69.409  1.00  0.00    -0.063 C  
BRANCH  10  11
HETATM   11  C   UNL     1      -8.262   9.876  70.231  1.00  0.00    -0.102 C  
BRANCH  11  12
HETATM   12  C   UNL     1      -9.578   9.725  69.447  1.00  0.00    -0.207 C  
BRANCH  12  13
HETATM   13  C   UNL     1     -10.680   8.907  70.157  1.00  0.00    -0.245 C  
BRANCH  13  14
HETATM   14  C   UNL     1     -11.299   9.602  71.375  1.00  0.00    -0.374 C  
HETATM   15  O   UNL     1     -11.812   8.656  72.356  1.00  0.00    -0.372 OA 
HETATM   16  O   UNL     1     -14.066   8.728  72.828  1.00  0.00    -0.451 OA 
HETATM   17  C   UNL     1     -12.733  10.170  71.186  1.00  0.00    -0.494 C  
HETATM   18  C   UNL     1     -13.080   9.107  72.244  1.00  0.00    -0.438 C  
BRANCH  17  19
HETATM   19  C   UNL     1     -13.057  11.595  71.621  1.00  0.00    -0.456 C  
BRANCH  19  20
HETATM   20  C   UNL     1     -12.392  12.605  70.690  1.00  0.00    -0.375 C  
BRANCH  20  21
HETATM   21  C   UNL     1     -12.984  14.006  70.869  1.00  0.00    -0.347 C  
BRANCH  21  22
HETATM   22  C   UNL     1     -13.719  14.127  72.205  1.00  0.00    -0.623 C  
BRANCH  22  23
HETATM   23  C   UNL     1     -13.803  15.579  72.677  1.00  0.00    -0.654 C  
HETATM   24  C   UNL     1     -12.706  15.892  73.687  1.00  0.00    -0.723 C  
ENDBRANCH  22  23
ENDBRANCH  21  22
ENDBRANCH  20  21
ENDBRANCH  19  20
ENDBRANCH  17  19
ENDBRANCH  13  14
ENDBRANCH  12  13
BRANCH  12  25
HETATM   25  O   UNL     1     -10.140  11.021  69.135  1.00  0.00    -0.206 OA 
BRANCH  25  26
HETATM   26  C   UNL     1     -10.788  11.153  67.944  1.00  0.00    -0.235 C  
HETATM   27  O   UNL     1     -11.771  10.514  67.584  1.00  0.00    -0.401 OA 
BRANCH  26  28
HETATM   28  C   UNL     1     -10.142  12.240  67.091  1.00  0.00    -0.208 C  
BRANCH  28  29
HETATM   29  C   UNL     1      -8.925  11.712  66.314  1.00  0.00    -0.194 C  
HETATM   30  C   UNL     1     -10.086  10.665  64.260  1.00  0.00    -0.411 C  
HETATM   31  C   UNL     1      -7.792   9.967  64.918  1.00  0.00    -0.141 C  
HETATM   32  C   UNL     1      -9.145  10.451  65.447  1.00  0.00    -0.221 C  
ENDBRANCH  28  29
BRANCH  28  33
HETATM   33  N   UNL     1      -9.826  13.384  67.946  1.00  0.00    -0.229 N  
HETATM   34  C   UNL     1     -10.652  14.465  68.068  1.00  0.00    -0.241 C  
HETATM   35  O   UNL     1     -11.700  14.627  67.462  1.00  0.00    -0.365 OA 
HETATM   36  H   UNL     1      -8.952  13.374  68.473  1.00  0.00     0.000 HD 
ENDBRANCH  28  33
ENDBRANCH  26  28
ENDBRANCH  25  26
ENDBRANCH  12  25
ENDBRANCH  11  12
ENDBRANCH  10  11
ENDBRANCH   9  10
ENDBRANCH   8   9
ENDBRANCH   7   8
ENDBRANCH   6   7
ENDBRANCH   5   6
ENDBRANCH   4   5
ENDBRANCH   3   4
ENDBRANCH   2   3
TORSDOF 22
ENDMDL
MODEL      141
REMARK 921   NORMALIZED FREE ENERGY PREDICTED BY IDOCK:   -4.37 KCAL/MOL
REMARK 922        TOTAL FREE ENERGY PREDICTED BY IDOCK:  -13.60 KCAL/MOL
REMARK 923 INTER-LIGAND FREE ENERGY PREDICTED BY IDOCK:  -10.90 KCAL/MOL
REMARK 924 INTRA-LIGAND FREE ENERGY PREDICTED BY IDOCK:   -2.71 KCAL/MOL
REMARK 927      BINDING AFFINITY PREDICTED BY RF-SCORE:    0.00 PKD
ROOT
HETATM    1  C   UNL     1      -9.869  20.332  67.612  1.00  0.00    -0.563 C  
HETATM    2  C   UNL     1      -9.857  19.336  66.465  1.00  0.00    -0.444 C  
ENDROOT
BRANCH   2   3
HETATM    3  C   UNL     1     -10.096  17.918  66.975  1.00  0.00    -0.340 C  
BRANCH   3   4
HETATM    4  C   UNL     1      -8.946  16.984  66.612  1.00  0.00    -0.280 C  
BRANCH   4   5
HETATM    5  C   UNL     1      -9.452  15.785  65.808  1.00  0.00    -0.334 C  
BRANCH   5   6
HETATM    6  C   UNL     1     -10.747  16.134  65.087  1.00  0.00    -0.391 C  
BRANCH   6   7
HETATM    7  C   UNL     1     -11.609  14.901  64.805  1.00  0.00    -0.410 C  
BRANCH   7   8
HETATM    8  C   UNL     1     -10.695  13.685  64.705  1.00  0.00    -0.433 C  
BRANCH   8   9
HETATM    9  C   UNL     1     -11.427  12.383  64.396  1.00  0.00    -0.408 C  
BRANCH   9  10
HETATM   10  C   UNL     1     -11.074  11.364  65.484  1.00  0.00    -0.203 C  
BRANCH  10  11
HETATM   11  C   UNL     1     -10.101  11.887  66.530  1.00  0.00    -0.229 C  
BRANCH  11  12
HETATM   12  C   UNL     1     -10.562  11.800  67.996  1.00  0.00    -0.206 C  
BRANCH  12  13
HETATM   13  C   UNL     1     -11.954  12.401  68.288  1.00  0.00    -0.270 C  
BRANCH  13  14
HETATM   14  C   UNL     1     -11.957  13.920  68.494  1.00  0.00    -0.359 C  
HETATM   15  O   UNL     1     -10.676  14.529  68.164  1.00  0.00    -0.233 OA 
HETATM   16  O   UNL     1      -9.556  15.633  69.849  1.00  0.00    -0.262 OA 
HETATM   17  C   UNL     1     -11.804  14.413  69.960  1.00  0.00    -0.377 C  
HETATM   18  C   UNL     1     -10.485  14.993  69.419  1.00  0.00    -0.247 C  
BRANCH  17  19
HETATM   19  C   UNL     1     -12.754  15.469  70.516  1.00  0.00    -0.436 C  
BRANCH  19  20
HETATM   20  C   UNL     1     -13.713  14.849  71.528  1.00  0.00    -0.532 C  
BRANCH  20  21
HETATM   21  C   UNL     1     -13.015  13.787  72.382  1.00  0.00    -0.440 C  
BRANCH  21  22
HETATM   22  C   UNL     1     -13.611  12.400  72.133  1.00  0.00    -0.405 C  
BRANCH  22  23
HETATM   23  C   UNL     1     -12.582  11.438  71.538  1.00  0.00    -0.393 C  
HETATM   24  C   UNL     1     -13.223  10.106  71.175  1.00  0.00    -0.438 C  
ENDBRANCH  22  23
ENDBRANCH  21  22
ENDBRANCH  20  21
ENDBRANCH  19  20
ENDBRANCH  17  19
ENDBRANCH  13  14
ENDBRANCH  12  13
BRANCH  12  25
HETATM   25  O   UNL     1     -10.585  10.425  68.446  1.00  0.00    -0.183 OA 
BRANCH  25  26
HETATM   26  C   UNL     1      -9.517   9.983  69.166  1.00  0.00    -0.207 C  
HETATM   27  O   UNL     1      -8.504  10.625  69.421  1.00  0.00    -0.136 OA 
BRANCH  26  28
HETATM   28  C   UNL     1      -9.744   8.555  69.654  1.00  0.00    -0.179 C  
BRANCH  28  29
HETATM   29  C   UNL     1      -9.873   8.484  71.184  1.00  0.00    -0.263 C  
HETATM   30  C   UNL     1     -10.539   6.011  71.496  1.00  0.00    -0.295 C  
HETATM   31  C   UNL     1     -11.024   7.691  73.263  1.00  0.00    -0.331 C  
HETATM   32  C   UNL     1     -10.897   7.476  71.752  1.00  0.00    -0.261 C  
ENDBRANCH  28  29
BRANCH  28  33
HETATM   33  N   UNL     1      -8.678   7.703  69.127  1.00  0.00    -0.139 N  
HETATM   34  C   UNL     1      -8.666   7.248  67.839  1.00  0.00    -0.123 C  
HETATM   35  O   UNL     1      -9.538   7.450  67.008  1.00  0.00    -0.152 OA 
HETATM   36  H   UNL     1      -7.912   7.438  69.746  1.00  0.00     0.000 HD 
ENDBRANCH  28  33
ENDBRANCH  26  28
ENDBRANCH  25  26
ENDBRANCH  12  25
ENDBRANCH  11  12
ENDBRANCH  10  11
ENDBRANCH   9  10
ENDBRANCH   8   9
ENDBRANCH   7   8
ENDBRANCH   6   7
ENDBRANCH   5   6
ENDBRANCH   4   5
ENDBRANCH   3   4
ENDBRANCH   2   3
TORSDOF 22
ENDMDL
MODEL      142
REMARK 921   NORMALIZED FREE ENERGY PREDICTED BY IDOCK:   -4.37 KCAL/MOL
REMARK 922        TOTAL FREE ENERGY PREDICTED BY IDOCK:  -13.60 KCAL/MOL
REMARK 923 INTER-LIGAND FREE ENERGY PREDICTED BY IDOCK:  -10.73 KCAL/MOL
REMARK 924 INTRA-LIGAND FREE ENERGY PREDICTED BY IDOCK:   -2.87 KCAL/MOL
REMARK 927      BINDING AFFINITY PREDICTED BY RF-SCORE:    0.00 PKD
ROOT
HETATM    1  C   UNL     1      -8.228   5.405  67.408  1.00  0.00    -0.100 C  
HETATM    2  C   UNL     1      -7.258   6.320  66.679  1.00  0.00    -0.074 C  
ENDROOT
BRANCH   2   3
HETATM    3  C   UNL     1      -7.994   7.501  66.052  1.00  0.00    -0.113 C  
BRANCH   3   4
HETATM    4  C   UNL     1      -9.447   7.571  66.512  1.00  0.00    -0.237 C  
BRANCH   4   5
HETATM    5  C   UNL     1      -9.998   8.990  66.356  1.00  0.00    -0.370 C  
BRANCH   5   6
HETATM    6  C   UNL     1      -9.596   9.575  65.009  1.00  0.00    -0.218 C  
BRANCH   6   7
HETATM    7  C   UNL     1      -9.059  11.002  65.128  1.00  0.00    -0.199 C  
BRANCH   7   8
HETATM    8  C   UNL     1      -8.008  11.033  66.233  1.00  0.00    -0.148 C  
BRANCH   8   9
HETATM    9  C   UNL     1      -8.116  12.242  67.157  1.00  0.00    -0.173 C  
BRANCH   9  10
HETATM   10  C   UNL     1      -9.079  11.891  68.295  1.00  0.00    -0.183 C  
BRANCH  10  11
HETATM   11  C   UNL     1     -10.037  13.013  68.664  1.00  0.00    -0.143 C  
BRANCH  11  12
HETATM   12  C   UNL     1     -11.538  12.712  68.498  1.00  0.00    -0.323 C  
BRANCH  12  13
HETATM   13  C   UNL     1     -12.005  12.465  67.046  1.00  0.00    -0.257 C  
BRANCH  13  14
HETATM   14  C   UNL     1     -12.275  13.742  66.242  1.00  0.00    -0.447 C  
HETATM   15  O   UNL     1     -13.258  13.538  65.187  1.00  0.00    -0.720 OA 
HETATM   16  O   UNL     1     -12.579  13.896  63.014  1.00  0.00    -0.694 OA 
HETATM   17  C   UNL     1     -11.214  14.114  65.169  1.00  0.00    -0.337 C  
HETATM   18  C   UNL     1     -12.387  13.858  64.205  1.00  0.00    -0.348 C  
BRANCH  17  19
HETATM   19  C   UNL     1     -10.662  15.534  65.098  1.00  0.00    -0.460 C  
BRANCH  19  20
HETATM   20  C   UNL     1     -10.489  16.113  66.499  1.00  0.00    -0.298 C  
BRANCH  20  21
HETATM   21  C   UNL     1      -9.555  17.327  66.490  1.00  0.00    -0.286 C  
BRANCH  21  22
HETATM   22  C   UNL     1     -10.316  18.607  66.139  1.00  0.00    -0.481 C  
BRANCH  22  23
HETATM   23  C   UNL     1      -9.574  19.857  66.612  1.00  0.00    -0.527 C  
HETATM   24  C   UNL     1      -8.088  19.765  66.296  1.00  0.00    -0.356 C  
ENDBRANCH  22  23
ENDBRANCH  21  22
ENDBRANCH  20  21
ENDBRANCH  19  20
ENDBRANCH  17  19
ENDBRANCH  13  14
ENDBRANCH  12  13
BRANCH  12  25
HETATM   25  O   UNL     1     -11.918  11.553  69.275  1.00  0.00    -0.323 OA 
BRANCH  25  26
HETATM   26  C   UNL     1     -12.335  11.765  70.555  1.00  0.00    -0.299 C  
HETATM   27  O   UNL     1     -12.951  12.745  70.959  1.00  0.00    -0.214 OA 
BRANCH  26  28
HETATM   28  C   UNL     1     -11.951  10.593  71.453  1.00  0.00    -0.164 C  
BRANCH  28  29
HETATM   29  C   UNL     1     -11.323   9.439  70.654  1.00  0.00    -0.352 C  
HETATM   30  C   UNL     1     -10.203   8.096  72.551  1.00  0.00    -0.383 C  
HETATM   31  C   UNL     1      -9.447   7.842  70.196  1.00  0.00    -0.160 C  
HETATM   32  C   UNL     1     -10.021   8.826  71.220  1.00  0.00    -0.333 C  
ENDBRANCH  28  29
BRANCH  28  33
HETATM   33  N   UNL     1     -13.125  10.187  72.223  1.00  0.00    -0.515 N  
HETATM   34  C   UNL     1     -13.815   9.036  71.967  1.00  0.00    -0.444 C  
HETATM   35  O   UNL     1     -13.572   8.252  71.062  1.00  0.00    -0.052 OA 
HETATM   36  H   UNL     1     -13.443  10.788  72.984  1.00  0.00     0.000 HD 
ENDBRANCH  28  33
ENDBRANCH  26  28
ENDBRANCH  25  26
ENDBRANCH  12  25
ENDBRANCH  11  12
ENDBRANCH  10  11
ENDBRANCH   9  10
ENDBRANCH   8   9
ENDBRANCH   7   8
ENDBRANCH   6   7
ENDBRANCH   5   6
ENDBRANCH   4   5
ENDBRANCH   3   4
ENDBRANCH   2   3
TORSDOF 22
ENDMDL
MODEL      143
REMARK 921   NORMALIZED FREE ENERGY PREDICTED BY IDOCK:   -4.36 KCAL/MOL
REMARK 922        TOTAL FREE ENERGY PREDICTED BY IDOCK:  -13.59 KCAL/MOL
REMARK 923 INTER-LIGAND FREE ENERGY PREDICTED BY IDOCK:  -10.01 KCAL/MOL
REMARK 924 INTRA-LIGAND FREE ENERGY PREDICTED BY IDOCK:   -3.58 KCAL/MOL
REMARK 927      BINDING AFFINITY PREDICTED BY RF-SCORE:    0.00 PKD
ROOT
HETATM    1  C   UNL     1      -9.431   7.012  66.333  1.00  0.00    -0.176 C  
HETATM    2  C   UNL     1      -8.463   8.012  65.721  1.00  0.00    -0.159 C  
ENDROOT
BRANCH   2   3
HETATM    3  C   UNL     1      -8.573   9.367  66.415  1.00  0.00    -0.144 C  
BRANCH   3   4
HETATM    4  C   UNL     1      -9.001  10.465  65.446  1.00  0.00    -0.207 C  
BRANCH   4   5
HETATM    5  C   UNL     1      -8.929   9.972  64.000  1.00  0.00    -0.270 C  
BRANCH   5   6
HETATM    6  C   UNL     1      -9.781  10.850  63.093  1.00  0.00    -0.396 C  
BRANCH   6   7
HETATM    7  C   UNL     1     -10.140  12.186  63.744  1.00  0.00    -0.404 C  
BRANCH   7   8
HETATM    8  C   UNL     1     -11.622  12.456  63.510  1.00  0.00    -0.577 C  
BRANCH   8   9
HETATM    9  C   UNL     1     -12.134  13.728  64.179  1.00  0.00    -0.478 C  
BRANCH   9  10
HETATM   10  C   UNL     1     -11.377  13.915  65.497  1.00  0.00    -0.310 C  
BRANCH  10  11
HETATM   11  C   UNL     1     -12.275  14.186  66.695  1.00  0.00    -0.450 C  
BRANCH  11  12
HETATM   12  C   UNL     1     -11.633  14.015  68.083  1.00  0.00    -0.334 C  
BRANCH  12  13
HETATM   13  C   UNL     1     -11.728  15.247  69.011  1.00  0.00    -0.368 C  
BRANCH  13  14
HETATM   14  C   UNL     1     -10.617  16.282  68.802  1.00  0.00    -0.298 C  
HETATM   15  O   UNL     1     -10.949  17.256  67.771  1.00  0.00    -0.318 OA 
HETATM   16  O   UNL     1      -9.575  17.361  65.924  1.00  0.00    -0.509 OA 
HETATM   17  C   UNL     1      -9.396  15.819  67.959  1.00  0.00    -0.197 C  
HETATM   18  C   UNL     1      -9.901  16.905  66.993  1.00  0.00    -0.270 C  
BRANCH  17  19
HETATM   19  C   UNL     1      -7.978  16.062  68.466  1.00  0.00    -0.159 C  
BRANCH  19  20
HETATM   20  C   UNL     1      -6.953  15.599  67.435  1.00  0.00    -0.234 C  
BRANCH  20  21
HETATM   21  C   UNL     1      -6.044  14.505  68.002  1.00  0.00    -0.161 C  
BRANCH  21  22
HETATM   22  C   UNL     1      -6.342  13.150  67.358  1.00  0.00    -0.063 C  
BRANCH  22  23
HETATM   23  C   UNL     1      -6.871  12.140  68.376  1.00  0.00    -0.073 C  
HETATM   24  C   UNL     1      -8.340  12.393  68.688  1.00  0.00     0.006 C  
ENDBRANCH  22  23
ENDBRANCH  21  22
ENDBRANCH  20  21
ENDBRANCH  19  20
ENDBRANCH  17  19
ENDBRANCH  13  14
ENDBRANCH  12  13
BRANCH  12  25
HETATM   25  O   UNL     1     -12.226  12.900  68.789  1.00  0.00    -0.204 OA 
BRANCH  25  26
HETATM   26  C   UNL     1     -11.785  11.651  68.471  1.00  0.00    -0.315 C  
HETATM   27  O   UNL     1     -11.676  11.191  67.339  1.00  0.00    -0.564 OA 
BRANCH  26  28
HETATM   28  C   UNL     1     -11.409  10.871  69.727  1.00  0.00    -0.301 C  
BRANCH  28  29
HETATM   29  C   UNL     1     -10.371   9.776  69.434  1.00  0.00    -0.232 C  
HETATM   30  C   UNL     1      -9.844   8.962  71.826  1.00  0.00    -0.386 C  
HETATM   31  C   UNL     1      -8.248   8.556  69.963  1.00  0.00    -0.121 C  
HETATM   32  C   UNL     1      -9.294   9.528  70.515  1.00  0.00    -0.296 C  
ENDBRANCH  28  29
BRANCH  28  33
HETATM   33  N   UNL     1     -12.631  10.355  70.343  1.00  0.00    -0.473 N  
HETATM   34  C   UNL     1     -13.221  10.949  71.422  1.00  0.00    -0.258 C  
HETATM   35  O   UNL     1     -12.791  11.925  72.017  1.00  0.00    -0.310 OA 
HETATM   36  H   UNL     1     -13.061   9.517  69.950  1.00  0.00     0.000 HD 
ENDBRANCH  28  33
ENDBRANCH  26  28
ENDBRANCH  25  26
ENDBRANCH  12  25
ENDBRANCH  11  12
ENDBRANCH  10  11
ENDBRANCH   9  10
ENDBRANCH   8   9
ENDBRANCH   7   8
ENDBRANCH   6   7
ENDBRANCH   5   6
ENDBRANCH   4   5
ENDBRANCH   3   4
ENDBRANCH   2   3
TORSDOF 22
ENDMDL
MODEL      144
REMARK 921   NORMALIZED FREE ENERGY PREDICTED BY IDOCK:   -4.36 KCAL/MOL
REMARK 922        TOTAL FREE ENERGY PREDICTED BY IDOCK:  -13.59 KCAL/MOL
REMARK 923 INTER-LIGAND FREE ENERGY PREDICTED BY IDOCK:  -11.07 KCAL/MOL
REMARK 924 INTRA-LIGAND FREE ENERGY PREDICTED BY IDOCK:   -2.52 KCAL/MOL
REMARK 927      BINDING AFFINITY PREDICTED BY RF-SCORE:    0.00 PKD
ROOT
HETATM    1  C   UNL     1     -11.276  14.726  65.899  1.00  0.00    -0.340 C  
HETATM    2  C   UNL     1     -12.269  14.300  64.830  1.00  0.00    -0.449 C  
ENDROOT
BRANCH   2   3
HETATM    3  C   UNL     1     -12.607  12.818  64.964  1.00  0.00    -0.538 C  
BRANCH   3   4
HETATM    4  C   UNL     1     -12.158  12.023  63.742  1.00  0.00    -0.599 C  
BRANCH   4   5
HETATM    5  C   UNL     1     -10.642  12.119  63.559  1.00  0.00    -0.501 C  
BRANCH   5   6
HETATM    6  C   UNL     1     -10.013  10.732  63.576  1.00  0.00    -0.403 C  
BRANCH   6   7
HETATM    7  C   UNL     1      -8.625  10.714  62.932  1.00  0.00    -0.208 C  
BRANCH   7   8
HETATM    8  C   UNL     1      -7.687   9.911  63.825  1.00  0.00    -0.143 C  
BRANCH   8   9
HETATM    9  C   UNL     1      -8.378   8.803  64.614  1.00  0.00    -0.175 C  
BRANCH   9  10
HETATM   10  C   UNL     1      -7.781   8.774  66.024  1.00  0.00    -0.097 C  
BRANCH  10  11
HETATM   11  C   UNL     1      -8.706   8.184  67.077  1.00  0.00    -0.136 C  
BRANCH  11  12
HETATM   12  C   UNL     1      -9.323   9.176  68.079  1.00  0.00    -0.137 C  
BRANCH  12  13
HETATM   13  C   UNL     1     -10.674   9.792  67.652  1.00  0.00    -0.334 C  
BRANCH  13  14
HETATM   14  C   UNL     1     -10.643  11.313  67.458  1.00  0.00    -0.218 C  
HETATM   15  O   UNL     1      -9.343  11.790  67.008  1.00  0.00    -0.177 OA 
HETATM   16  O   UNL     1      -8.222  13.271  68.373  1.00  0.00    -0.154 OA 
HETATM   17  C   UNL     1     -10.501  12.166  68.749  1.00  0.00    -0.201 C  
HETATM   18  C   UNL     1      -9.160  12.560  68.104  1.00  0.00    -0.204 C  
BRANCH  17  19
HETATM   19  C   UNL     1     -11.433  13.349  68.993  1.00  0.00    -0.348 C  
BRANCH  19  20
HETATM   20  C   UNL     1     -12.361  13.067  70.170  1.00  0.00    -0.270 C  
BRANCH  20  21
HETATM   21  C   UNL     1     -12.822  14.363  70.842  1.00  0.00    -0.419 C  
BRANCH  21  22
HETATM   22  C   UNL     1     -13.186  14.126  72.309  1.00  0.00    -0.540 C  
BRANCH  22  23
HETATM   23  C   UNL     1     -13.124  15.417  73.125  1.00  0.00    -0.643 C  
HETATM   24  C   UNL     1     -12.140  16.406  72.514  1.00  0.00    -0.528 C  
ENDBRANCH  22  23
ENDBRANCH  21  22
ENDBRANCH  20  21
ENDBRANCH  19  20
ENDBRANCH  17  19
ENDBRANCH  13  14
ENDBRANCH  12  13
BRANCH  12  25
HETATM   25  O   UNL     1      -9.526   8.547  69.366  1.00  0.00    -0.160 OA 
BRANCH  25  26
HETATM   26  C   UNL     1      -9.169   9.255  70.473  1.00  0.00    -0.261 C  
HETATM   27  O   UNL     1      -8.161   9.942  70.596  1.00  0.00    -0.210 OA 
BRANCH  26  28
HETATM   28  C   UNL     1     -10.216   9.106  71.574  1.00  0.00    -0.333 C  
BRANCH  28  29
HETATM   29  C   UNL     1      -9.757   8.136  72.674  1.00  0.00    -0.360 C  
HETATM   30  C   UNL     1     -10.842   5.940  71.861  1.00  0.00    -0.307 C  
HETATM   31  C   UNL     1     -10.174   6.224  74.239  1.00  0.00    -0.351 C  
HETATM   32  C   UNL     1     -10.698   6.953  72.999  1.00  0.00    -0.328 C  
ENDBRANCH  28  29
BRANCH  28  33
HETATM   33  N   UNL     1     -11.488   8.724  70.964  1.00  0.00    -0.277 N  
HETATM   34  C   UNL     1     -12.655   9.390  71.211  1.00  0.00    -0.325 C  
HETATM   35  O   UNL     1     -12.785  10.327  71.983  1.00  0.00    -0.401 OA 
HETATM   36  H   UNL     1     -11.506   7.927  70.327  1.00  0.00     0.000 HD 
ENDBRANCH  28  33
ENDBRANCH  26  28
ENDBRANCH  25  26
ENDBRANCH  12  25
ENDBRANCH  11  12
ENDBRANCH  10  11
ENDBRANCH   9  10
ENDBRANCH   8   9
ENDBRANCH   7   8
ENDBRANCH   6   7
ENDBRANCH   5   6
ENDBRANCH   4   5
ENDBRANCH   3   4
ENDBRANCH   2   3
TORSDOF 22
ENDMDL
MODEL      145
REMARK 921   NORMALIZED FREE ENERGY PREDICTED BY IDOCK:   -4.36 KCAL/MOL
REMARK 922        TOTAL FREE ENERGY PREDICTED BY IDOCK:  -13.59 KCAL/MOL
REMARK 923 INTER-LIGAND FREE ENERGY PREDICTED BY IDOCK:  -10.58 KCAL/MOL
REMARK 924 INTRA-LIGAND FREE ENERGY PREDICTED BY IDOCK:   -3.00 KCAL/MOL
REMARK 927      BINDING AFFINITY PREDICTED BY RF-SCORE:    0.00 PKD
ROOT
HETATM    1  C   UNL     1      -9.031  20.338  67.134  1.00  0.00    -0.469 C  
HETATM    2  C   UNL     1     -10.409  19.726  66.951  1.00  0.00    -0.601 C  
ENDROOT
BRANCH   2   3
HETATM    3  C   UNL     1     -10.392  18.238  67.288  1.00  0.00    -0.407 C  
BRANCH   3   4
HETATM    4  C   UNL     1      -9.073  17.583  66.888  1.00  0.00    -0.265 C  
BRANCH   4   5
HETATM    5  C   UNL     1      -9.320  16.381  65.973  1.00  0.00    -0.335 C  
BRANCH   5   6
HETATM    6  C   UNL     1     -10.802  16.035  65.934  1.00  0.00    -0.210 C  
BRANCH   6   7
HETATM    7  C   UNL     1     -11.261  15.590  64.544  1.00  0.00    -0.327 C  
BRANCH   7   8
HETATM    8  C   UNL     1     -12.149  14.360  64.698  1.00  0.00    -0.485 C  
BRANCH   8   9
HETATM    9  C   UNL     1     -12.435  13.978  66.147  1.00  0.00    -0.467 C  
BRANCH   9  10
HETATM   10  C   UNL     1     -11.852  12.585  66.400  1.00  0.00    -0.445 C  
BRANCH  10  11
HETATM   11  C   UNL     1     -10.490  12.596  67.076  1.00  0.00    -0.244 C  
BRANCH  11  12
HETATM   12  C   UNL     1     -10.083  11.309  67.816  1.00  0.00    -0.179 C  
BRANCH  12  13
HETATM   13  C   UNL     1     -10.418  11.279  69.324  1.00  0.00    -0.145 C  
BRANCH  13  14
HETATM   14  C   UNL     1     -11.912  11.138  69.637  1.00  0.00    -0.359 C  
HETATM   15  O   UNL     1     -12.504  12.384  70.102  1.00  0.00    -0.153 OA 
HETATM   16  O   UNL     1     -13.415  12.405  72.219  1.00  0.00    -0.541 OA 
HETATM   17  C   UNL     1     -12.268  10.471  70.995  1.00  0.00    -0.505 C  
HETATM   18  C   UNL     1     -12.848  11.864  71.301  1.00  0.00    -0.290 C  
BRANCH  17  19
HETATM   19  C   UNL     1     -13.303   9.352  71.051  1.00  0.00    -0.186 C  
BRANCH  19  20
HETATM   20  C   UNL     1     -12.869   8.269  72.034  1.00  0.00    -0.369 C  
BRANCH  20  21
HETATM   21  C   UNL     1     -11.382   8.390  72.379  1.00  0.00    -0.448 C  
BRANCH  21  22
HETATM   22  C   UNL     1     -10.711   7.016  72.423  1.00  0.00    -0.262 C  
BRANCH  22  23
HETATM   23  C   UNL     1      -9.217   7.102  72.109  1.00  0.00    -0.144 C  
HETATM   24  C   UNL     1      -8.802   8.536  71.809  1.00  0.00    -0.278 C  
ENDBRANCH  22  23
ENDBRANCH  21  22
ENDBRANCH  20  21
ENDBRANCH  19  20
ENDBRANCH  17  19
ENDBRANCH  13  14
ENDBRANCH  12  13
BRANCH  12  25
HETATM   25  O   UNL     1     -10.709  10.152  67.214  1.00  0.00    -0.261 OA 
BRANCH  25  26
HETATM   26  C   UNL     1     -10.100   9.605  66.126  1.00  0.00    -0.258 C  
HETATM   27  O   UNL     1     -10.218   9.986  64.966  1.00  0.00    -0.280 OA 
BRANCH  26  28
HETATM   28  C   UNL     1      -9.206   8.436  66.532  1.00  0.00    -0.189 C  
BRANCH  28  29
HETATM   29  C   UNL     1      -9.703   7.754  67.817  1.00  0.00    -0.186 C  
HETATM   30  C   UNL     1     -10.503   5.487  66.878  1.00  0.00    -0.348 C  
HETATM   31  C   UNL     1     -11.347   6.329  69.060  1.00  0.00    -0.319 C  
HETATM   32  C   UNL     1     -10.866   6.746  67.667  1.00  0.00    -0.361 C  
ENDBRANCH  28  29
BRANCH  28  33
HETATM   33  N   UNL     1      -7.827   8.911  66.629  1.00  0.00    -0.099 N  
HETATM   34  C   UNL     1      -6.981   8.948  65.557  1.00  0.00    -0.080 C  
HETATM   35  O   UNL     1      -7.249   8.557  64.431  1.00  0.00    -0.086 OA 
HETATM   36  H   UNL     1      -7.481   9.229  67.535  1.00  0.00     0.000 HD 
ENDBRANCH  28  33
ENDBRANCH  26  28
ENDBRANCH  25  26
ENDBRANCH  12  25
ENDBRANCH  11  12
ENDBRANCH  10  11
ENDBRANCH   9  10
ENDBRANCH   8   9
ENDBRANCH   7   8
ENDBRANCH   6   7
ENDBRANCH   5   6
ENDBRANCH   4   5
ENDBRANCH   3   4
ENDBRANCH   2   3
TORSDOF 22
ENDMDL
MODEL      146
REMARK 921   NORMALIZED FREE ENERGY PREDICTED BY IDOCK:   -4.36 KCAL/MOL
REMARK 922        TOTAL FREE ENERGY PREDICTED BY IDOCK:  -13.58 KCAL/MOL
REMARK 923 INTER-LIGAND FREE ENERGY PREDICTED BY IDOCK:  -10.64 KCAL/MOL
REMARK 924 INTRA-LIGAND FREE ENERGY PREDICTED BY IDOCK:   -2.94 KCAL/MOL
REMARK 927      BINDING AFFINITY PREDICTED BY RF-SCORE:    0.00 PKD
ROOT
HETATM    1  C   UNL     1     -13.093  15.903  73.425  1.00  0.00    -0.694 C  
HETATM    2  C   UNL     1     -14.032  15.370  72.356  1.00  0.00    -0.657 C  
ENDROOT
BRANCH   2   3
HETATM    3  C   UNL     1     -13.300  15.193  71.029  1.00  0.00    -0.504 C  
BRANCH   3   4
HETATM    4  C   UNL     1     -11.892  14.638  71.229  1.00  0.00    -0.378 C  
BRANCH   4   5
HETATM    5  C   UNL     1     -10.927  15.224  70.197  1.00  0.00    -0.312 C  
BRANCH   5   6
HETATM    6  C   UNL     1     -11.695  15.858  69.045  1.00  0.00    -0.377 C  
BRANCH   6   7
HETATM    7  C   UNL     1     -10.770  16.381  67.944  1.00  0.00    -0.332 C  
BRANCH   7   8
HETATM    8  C   UNL     1     -10.834  15.421  66.762  1.00  0.00    -0.306 C  
BRANCH   8   9
HETATM    9  C   UNL     1     -12.052  14.503  66.773  1.00  0.00    -0.313 C  
BRANCH   9  10
HETATM   10  C   UNL     1     -11.559  13.054  66.844  1.00  0.00    -0.419 C  
BRANCH  10  11
HETATM   11  C   UNL     1     -10.053  12.919  67.003  1.00  0.00    -0.245 C  
BRANCH  11  12
HETATM   12  C   UNL     1      -9.564  11.903  68.052  1.00  0.00    -0.193 C  
BRANCH  12  13
HETATM   13  C   UNL     1     -10.436  11.794  69.322  1.00  0.00     0.020 C  
BRANCH  13  14
HETATM   14  C   UNL     1     -11.041  10.405  69.558  1.00  0.00    -0.264 C  
HETATM   15  O   UNL     1     -12.484  10.451  69.748  1.00  0.00    -0.163 OA 
HETATM   16  O   UNL     1     -13.318   9.700  71.761  1.00  0.00    -0.381 OA 
HETATM   17  C   UNL     1     -10.880   9.820  70.988  1.00  0.00    -0.378 C  
HETATM   18  C   UNL     1     -12.415   9.939  70.997  1.00  0.00    -0.346 C  
BRANCH  17  19
HETATM   19  C   UNL     1     -10.376   8.393  71.180  1.00  0.00    -0.264 C  
BRANCH  19  20
HETATM   20  C   UNL     1     -11.527   7.398  71.064  1.00  0.00    -0.307 C  
BRANCH  20  21
HETATM   21  C   UNL     1     -11.018   5.989  70.749  1.00  0.00    -0.364 C  
BRANCH  21  22
HETATM   22  C   UNL     1     -10.348   5.938  69.374  1.00  0.00    -0.313 C  
BRANCH  22  23
HETATM   23  C   UNL     1     -11.276   6.449  68.272  1.00  0.00    -0.276 C  
HETATM   24  C   UNL     1     -10.823   5.959  66.903  1.00  0.00    -0.376 C  
ENDBRANCH  22  23
ENDBRANCH  21  22
ENDBRANCH  20  21
ENDBRANCH  19  20
ENDBRANCH  17  19
ENDBRANCH  13  14
ENDBRANCH  12  13
BRANCH  12  25
HETATM   25  O   UNL     1      -9.473  10.578  67.479  1.00  0.00    -0.148 OA 
BRANCH  25  26
HETATM   26  C   UNL     1      -8.309  10.243  66.856  1.00  0.00    -0.123 C  
HETATM   27  O   UNL     1      -7.183  10.339  67.333  1.00  0.00    -0.090 OA 
BRANCH  26  28
HETATM   28  C   UNL     1      -8.578   9.697  65.457  1.00  0.00    -0.147 C  
BRANCH  28  29
HETATM   29  C   UNL     1      -9.936  10.165  64.910  1.00  0.00    -0.358 C  
HETATM   30  C   UNL     1      -9.235  11.072  62.598  1.00  0.00    -0.363 C  
HETATM   31  C   UNL     1     -11.360  11.804  63.660  1.00  0.00    -0.525 C  
HETATM   32  C   UNL     1      -9.919  11.364  63.935  1.00  0.00    -0.357 C  
ENDBRANCH  28  29
BRANCH  28  33
HETATM   33  N   UNL     1      -8.440   8.241  65.486  1.00  0.00    -0.155 N  
HETATM   34  C   UNL     1      -7.918   7.528  64.445  1.00  0.00    -0.117 C  
HETATM   35  O   UNL     1      -7.556   7.997  63.377  1.00  0.00    -0.114 OA 
HETATM   36  H   UNL     1      -8.747   7.738  66.319  1.00  0.00     0.000 HD 
ENDBRANCH  28  33
ENDBRANCH  26  28
ENDBRANCH  25  26
ENDBRANCH  12  25
ENDBRANCH  11  12
ENDBRANCH  10  11
ENDBRANCH   9  10
ENDBRANCH   8   9
ENDBRANCH   7   8
ENDBRANCH   6   7
ENDBRANCH   5   6
ENDBRANCH   4   5
ENDBRANCH   3   4
ENDBRANCH   2   3
TORSDOF 22
ENDMDL
MODEL      147
REMARK 921   NORMALIZED FREE ENERGY PREDICTED BY IDOCK:   -4.36 KCAL/MOL
REMARK 922        TOTAL FREE ENERGY PREDICTED BY IDOCK:  -13.58 KCAL/MOL
REMARK 923 INTER-LIGAND FREE ENERGY PREDICTED BY IDOCK:  -10.52 KCAL/MOL
REMARK 924 INTRA-LIGAND FREE ENERGY PREDICTED BY IDOCK:   -3.06 KCAL/MOL
REMARK 927      BINDING AFFINITY PREDICTED BY RF-SCORE:    0.00 PKD
ROOT
HETATM    1  C   UNL     1     -10.480   4.691  65.976  1.00  0.00    -0.303 C  
HETATM    2  C   UNL     1     -10.608   5.491  67.262  1.00  0.00    -0.294 C  
ENDROOT
BRANCH   2   3
HETATM    3  C   UNL     1     -10.878   6.963  66.960  1.00  0.00    -0.436 C  
BRANCH   3   4
HETATM    4  C   UNL     1      -9.584   7.747  66.763  1.00  0.00    -0.274 C  
BRANCH   4   5
HETATM    5  C   UNL     1      -9.854   9.065  66.033  1.00  0.00    -0.312 C  
BRANCH   5   6
HETATM    6  C   UNL     1      -8.726   9.377  65.059  1.00  0.00    -0.216 C  
BRANCH   6   7
HETATM    7  C   UNL     1      -8.813  10.799  64.501  1.00  0.00    -0.143 C  
BRANCH   7   8
HETATM    8  C   UNL     1      -9.906  10.836  63.439  1.00  0.00    -0.400 C  
BRANCH   8   9
HETATM    9  C   UNL     1     -10.916  11.963  63.626  1.00  0.00    -0.511 C  
BRANCH   9  10
HETATM   10  C   UNL     1     -10.476  12.806  64.826  1.00  0.00    -0.357 C  
BRANCH  10  11
HETATM   11  C   UNL     1     -11.510  12.890  65.938  1.00  0.00    -0.387 C  
BRANCH  11  12
HETATM   12  C   UNL     1     -10.967  13.097  67.363  1.00  0.00    -0.264 C  
BRANCH  12  13
HETATM   13  C   UNL     1     -10.359  11.842  68.027  1.00  0.00    -0.212 C  
BRANCH  13  14
HETATM   14  C   UNL     1     -11.387  10.905  68.672  1.00  0.00    -0.295 C  
HETATM   15  O   UNL     1     -12.475  11.630  69.313  1.00  0.00    -0.155 OA 
HETATM   16  O   UNL     1     -12.756  11.343  71.583  1.00  0.00    -0.375 OA 
HETATM   17  C   UNL     1     -10.993  10.297  70.047  1.00  0.00    -0.371 C  
HETATM   18  C   UNL     1     -12.190  11.132  70.537  1.00  0.00    -0.384 C  
BRANCH  17  19
HETATM   19  C   UNL     1     -11.149   8.801  70.296  1.00  0.00    -0.240 C  
BRANCH  19  20
HETATM   20  C   UNL     1      -9.813   8.181  70.696  1.00  0.00    -0.196 C  
BRANCH  20  21
HETATM   21  C   UNL     1      -9.845   6.655  70.574  1.00  0.00    -0.190 C  
BRANCH  21  22
HETATM   22  C   UNL     1      -9.731   5.989  71.947  1.00  0.00    -0.173 C  
BRANCH  22  23
HETATM   23  C   UNL     1     -11.063   6.002  72.697  1.00  0.00    -0.314 C  
HETATM   24  C   UNL     1     -11.455   4.599  73.141  1.00  0.00    -0.317 C  
ENDBRANCH  22  23
ENDBRANCH  21  22
ENDBRANCH  20  21
ENDBRANCH  19  20
ENDBRANCH  17  19
ENDBRANCH  13  14
ENDBRANCH  12  13
BRANCH  12  25
HETATM   25  O   UNL     1      -9.952  14.127  67.381  1.00  0.00    -0.235 OA 
BRANCH  25  26
HETATM   26  C   UNL     1      -9.637  14.677  68.586  1.00  0.00    -0.219 C  
HETATM   27  O   UNL     1      -8.540  14.638  69.132  1.00  0.00    -0.133 OA 
BRANCH  26  28
HETATM   28  C   UNL     1     -10.844  15.390  69.190  1.00  0.00    -0.249 C  
BRANCH  28  29
HETATM   29  C   UNL     1     -10.579  16.889  69.399  1.00  0.00    -0.292 C  
HETATM   30  C   UNL     1     -10.674  17.737  66.963  1.00  0.00    -0.192 C  
HETATM   31  C   UNL     1      -9.511  19.053  68.723  1.00  0.00    -0.433 C  
HETATM   32  C   UNL     1      -9.859  17.637  68.254  1.00  0.00    -0.324 C  
ENDBRANCH  28  29
BRANCH  28  33
HETATM   33  N   UNL     1     -11.232  14.697  70.418  1.00  0.00    -0.455 N  
HETATM   34  C   UNL     1     -12.406  14.950  71.069  1.00  0.00    -0.324 C  
HETATM   35  O   UNL     1     -13.228  15.792  70.743  1.00  0.00    -0.542 OA 
HETATM   36  H   UNL     1     -10.600  13.996  70.805  1.00  0.00     0.000 HD 
ENDBRANCH  28  33
ENDBRANCH  26  28
ENDBRANCH  25  26
ENDBRANCH  12  25
ENDBRANCH  11  12
ENDBRANCH  10  11
ENDBRANCH   9  10
ENDBRANCH   8   9
ENDBRANCH   7   8
ENDBRANCH   6   7
ENDBRANCH   5   6
ENDBRANCH   4   5
ENDBRANCH   3   4
ENDBRANCH   2   3
TORSDOF 22
ENDMDL
MODEL      148
REMARK 921   NORMALIZED FREE ENERGY PREDICTED BY IDOCK:   -4.36 KCAL/MOL
REMARK 922        TOTAL FREE ENERGY PREDICTED BY IDOCK:  -13.58 KCAL/MOL
REMARK 923 INTER-LIGAND FREE ENERGY PREDICTED BY IDOCK:   -9.76 KCAL/MOL
REMARK 924 INTRA-LIGAND FREE ENERGY PREDICTED BY IDOCK:   -3.82 KCAL/MOL
REMARK 927      BINDING AFFINITY PREDICTED BY RF-SCORE:    0.00 PKD
ROOT
HETATM    1  C   UNL     1      -7.277   7.130  62.699  1.00  0.00    -0.075 C  
HETATM    2  C   UNL     1      -7.934   6.280  63.775  1.00  0.00    -0.088 C  
ENDROOT
BRANCH   2   3
HETATM    3  C   UNL     1      -7.669   6.859  65.161  1.00  0.00    -0.109 C  
BRANCH   3   4
HETATM    4  C   UNL     1      -6.536   7.880  65.141  1.00  0.00    -0.044 C  
BRANCH   4   5
HETATM    5  C   UNL     1      -6.955   9.171  65.847  1.00  0.00    -0.088 C  
BRANCH   5   6
HETATM    6  C   UNL     1      -7.358  10.231  64.830  1.00  0.00    -0.099 C  
BRANCH   6   7
HETATM    7  C   UNL     1      -8.822  10.651  64.973  1.00  0.00    -0.212 C  
BRANCH   7   8
HETATM    8  C   UNL     1      -9.473  10.613  63.596  1.00  0.00    -0.337 C  
BRANCH   8   9
HETATM    9  C   UNL     1     -10.942  11.025  63.592  1.00  0.00    -0.065 C  
BRANCH   9  10
HETATM   10  C   UNL     1     -11.043  12.442  64.166  1.00  0.00    -0.425 C  
BRANCH  10  11
HETATM   11  C   UNL     1     -12.285  12.681  65.011  1.00  0.00    -0.535 C  
BRANCH  11  12
HETATM   12  C   UNL     1     -12.055  13.270  66.415  1.00  0.00    -0.394 C  
BRANCH  12  13
HETATM   13  C   UNL     1     -10.946  12.585  67.244  1.00  0.00    -0.300 C  
BRANCH  13  14
HETATM   14  C   UNL     1     -11.282  11.159  67.695  1.00  0.00    -0.297 C  
HETATM   15  O   UNL     1     -12.202  11.134  68.824  1.00  0.00    -0.555 OA 
HETATM   16  O   UNL     1     -11.463  10.161  70.778  1.00  0.00    -0.310 OA 
HETATM   17  C   UNL     1     -10.210  10.443  68.563  1.00  0.00    -0.191 C  
HETATM   18  C   UNL     1     -11.318  10.506  69.630  1.00  0.00    -0.281 C  
BRANCH  17  19
HETATM   19  C   UNL     1      -9.770   9.024  68.221  1.00  0.00    -0.169 C  
BRANCH  19  20
HETATM   20  C   UNL     1     -10.619   8.458  67.086  1.00  0.00    -0.326 C  
BRANCH  20  21
HETATM   21  C   UNL     1     -10.685   6.929  67.146  1.00  0.00    -0.436 C  
BRANCH  21  22
HETATM   22  C   UNL     1      -9.920   6.390  68.357  1.00  0.00    -0.151 C  
BRANCH  22  23
HETATM   23  C   UNL     1     -10.838   5.639  69.320  1.00  0.00    -0.309 C  
HETATM   24  C   UNL     1     -11.460   6.586  70.337  1.00  0.00    -0.465 C  
ENDBRANCH  22  23
ENDBRANCH  21  22
ENDBRANCH  20  21
ENDBRANCH  19  20
ENDBRANCH  17  19
ENDBRANCH  13  14
ENDBRANCH  12  13
BRANCH  12  25
HETATM   25  O   UNL     1     -11.725  14.676  66.333  1.00  0.00    -0.369 OA 
BRANCH  25  26
HETATM   26  C   UNL     1     -11.397  15.311  67.493  1.00  0.00    -0.297 C  
HETATM   27  O   UNL     1     -11.970  15.185  68.570  1.00  0.00    -0.304 OA 
BRANCH  26  28
HETATM   28  C   UNL     1     -10.180  16.210  67.296  1.00  0.00    -0.277 C  
BRANCH  28  29
HETATM   29  C   UNL     1      -8.930  15.645  67.989  1.00  0.00    -0.178 C  
HETATM   30  C   UNL     1      -7.068  16.909  66.725  1.00  0.00    -0.273 C  
HETATM   31  C   UNL     1      -6.575  14.791  67.930  1.00  0.00    -0.175 C  
HETATM   32  C   UNL     1      -7.643  15.553  67.139  1.00  0.00    -0.253 C  
ENDBRANCH  28  29
BRANCH  28  33
HETATM   33  N   UNL     1     -10.520  17.563  67.734  1.00  0.00    -0.369 N  
HETATM   34  C   UNL     1     -10.632  18.614  66.869  1.00  0.00    -0.385 C  
HETATM   35  O   UNL     1     -10.423  18.566  65.666  1.00  0.00    -0.615 OA 
HETATM   36  H   UNL     1     -10.680  17.729  68.728  1.00  0.00     0.000 HD 
ENDBRANCH  28  33
ENDBRANCH  26  28
ENDBRANCH  25  26
ENDBRANCH  12  25
ENDBRANCH  11  12
ENDBRANCH  10  11
ENDBRANCH   9  10
ENDBRANCH   8   9
ENDBRANCH   7   8
ENDBRANCH   6   7
ENDBRANCH   5   6
ENDBRANCH   4   5
ENDBRANCH   3   4
ENDBRANCH   2   3
TORSDOF 22
ENDMDL
MODEL      149
REMARK 921   NORMALIZED FREE ENERGY PREDICTED BY IDOCK:   -4.35 KCAL/MOL
REMARK 922        TOTAL FREE ENERGY PREDICTED BY IDOCK:  -13.57 KCAL/MOL
REMARK 923 INTER-LIGAND FREE ENERGY PREDICTED BY IDOCK:   -9.71 KCAL/MOL
REMARK 924 INTRA-LIGAND FREE ENERGY PREDICTED BY IDOCK:   -3.86 KCAL/MOL
REMARK 927      BINDING AFFINITY PREDICTED BY RF-SCORE:    0.00 PKD
ROOT
HETATM    1  C   UNL     1      -8.700   6.829  66.501  1.00  0.00    -0.139 C  
HETATM    2  C   UNL     1      -7.204   7.080  66.598  1.00  0.00    -0.083 C  
ENDROOT
BRANCH   2   3
HETATM    3  C   UNL     1      -6.863   7.844  67.874  1.00  0.00    -0.072 C  
BRANCH   3   4
HETATM    4  C   UNL     1      -6.701   9.338  67.612  1.00  0.00    -0.068 C  
BRANCH   4   5
HETATM    5  C   UNL     1      -5.845   9.582  66.368  1.00  0.00    -0.058 C  
BRANCH   5   6
HETATM    6  C   UNL     1      -6.588  10.459  65.370  1.00  0.00    -0.109 C  
BRANCH   6   7
HETATM    7  C   UNL     1      -8.101  10.446  65.596  1.00  0.00    -0.156 C  
BRANCH   7   8
HETATM    8  C   UNL     1      -8.777   9.950  64.323  1.00  0.00    -0.229 C  
BRANCH   8   9
HETATM    9  C   UNL     1      -9.958  10.804  63.874  1.00  0.00    -0.404 C  
BRANCH   9  10
HETATM   10  C   UNL     1     -10.034  12.034  64.784  1.00  0.00    -0.241 C  
BRANCH  10  11
HETATM   11  C   UNL     1     -11.403  12.260  65.408  1.00  0.00    -0.389 C  
BRANCH  11  12
HETATM   12  C   UNL     1     -11.432  12.474  66.932  1.00  0.00    -0.353 C  
BRANCH  12  13
HETATM   13  C   UNL     1     -12.076  13.798  67.401  1.00  0.00    -0.378 C  
BRANCH  13  14
HETATM   14  C   UNL     1     -11.549  14.317  68.744  1.00  0.00    -0.322 C  
HETATM   15  O   UNL     1     -12.434  13.992  69.853  1.00  0.00    -0.333 OA 
HETATM   16  O   UNL     1     -13.346  15.746  71.038  1.00  0.00    -0.580 OA 
HETATM   17  C   UNL     1     -11.764  15.830  69.026  1.00  0.00    -0.405 C  
HETATM   18  C   UNL     1     -12.659  15.290  70.156  1.00  0.00    -0.296 C  
BRANCH  17  19
HETATM   19  C   UNL     1     -10.606  16.690  69.521  1.00  0.00    -0.308 C  
BRANCH  19  20
HETATM   20  C   UNL     1     -10.141  17.646  68.427  1.00  0.00    -0.368 C  
BRANCH  20  21
HETATM   21  C   UNL     1      -8.615  17.650  68.298  1.00  0.00    -0.268 C  
BRANCH  21  22
HETATM   22  C   UNL     1      -8.034  16.262  68.577  1.00  0.00    -0.184 C  
BRANCH  22  23
HETATM   23  C   UNL     1      -7.489  15.609  67.307  1.00  0.00    -0.257 C  
HETATM   24  C   UNL     1      -7.995  14.180  67.164  1.00  0.00    -0.100 C  
ENDBRANCH  22  23
ENDBRANCH  21  22
ENDBRANCH  20  21
ENDBRANCH  19  20
ENDBRANCH  17  19
ENDBRANCH  13  14
ENDBRANCH  12  13
BRANCH  12  25
HETATM   25  O   UNL     1     -12.141  11.396  67.588  1.00  0.00    -0.630 OA 
BRANCH  25  26
HETATM   26  C   UNL     1     -11.399  10.362  68.073  1.00  0.00    -0.204 C  
HETATM   27  O   UNL     1     -10.897   9.462  67.409  1.00  0.00    -0.263 OA 
BRANCH  26  28
HETATM   28  C   UNL     1     -11.243  10.468  69.587  1.00  0.00    -0.282 C  
BRANCH  28  29
HETATM   29  C   UNL     1      -9.826  10.089  70.046  1.00  0.00    -0.247 C  
HETATM   30  C   UNL     1     -10.004   7.514  70.071  1.00  0.00    -0.186 C  
HETATM   31  C   UNL     1      -8.250   8.681  71.391  1.00  0.00    -0.205 C  
HETATM   32  C   UNL     1      -9.683   8.784  70.862  1.00  0.00    -0.277 C  
ENDBRANCH  28  29
BRANCH  28  33
HETATM   33  N   UNL     1     -12.288   9.669  70.225  1.00  0.00    -0.469 N  
HETATM   34  C   UNL     1     -13.095  10.160  71.212  1.00  0.00    -0.396 C  
HETATM   35  O   UNL     1     -13.016  11.277  71.700  1.00  0.00    -0.448 OA 
HETATM   36  H   UNL     1     -12.420   8.704  69.920  1.00  0.00     0.000 HD 
ENDBRANCH  28  33
ENDBRANCH  26  28
ENDBRANCH  25  26
ENDBRANCH  12  25
ENDBRANCH  11  12
ENDBRANCH  10  11
ENDBRANCH   9  10
ENDBRANCH   8   9
ENDBRANCH   7   8
ENDBRANCH   6   7
ENDBRANCH   5   6
ENDBRANCH   4   5
ENDBRANCH   3   4
ENDBRANCH   2   3
TORSDOF 22
ENDMDL
MODEL      150
REMARK 921   NORMALIZED FREE ENERGY PREDICTED BY IDOCK:   -4.35 KCAL/MOL
REMARK 922        TOTAL FREE ENERGY PREDICTED BY IDOCK:  -13.56 KCAL/MOL
REMARK 923 INTER-LIGAND FREE ENERGY PREDICTED BY IDOCK:  -10.26 KCAL/MOL
REMARK 924 INTRA-LIGAND FREE ENERGY PREDICTED BY IDOCK:   -3.30 KCAL/MOL
REMARK 927      BINDING AFFINITY PREDICTED BY RF-SCORE:    0.00 PKD
ROOT
HETATM    1  C   UNL     1     -10.353  16.754  66.586  1.00  0.00    -0.297 C  
HETATM    2  C   UNL     1     -11.058  15.435  66.311  1.00  0.00    -0.226 C  
ENDROOT
BRANCH   2   3
HETATM    3  C   UNL     1     -10.909  15.036  64.845  1.00  0.00    -0.430 C  
BRANCH   3   4
HETATM    4  C   UNL     1     -12.222  14.519  64.264  1.00  0.00    -0.441 C  
BRANCH   4   5
HETATM    5  C   UNL     1     -12.497  13.089  64.733  1.00  0.00    -0.485 C  
BRANCH   5   6
HETATM    6  C   UNL     1     -12.306  12.105  63.586  1.00  0.00    -0.673 C  
BRANCH   6   7
HETATM    7  C   UNL     1     -10.858  11.627  63.462  1.00  0.00    -0.497 C  
BRANCH   7   8
HETATM    8  C   UNL     1     -10.463  10.935  64.761  1.00  0.00    -0.373 C  
BRANCH   8   9
HETATM    9  C   UNL     1      -9.447   9.812  64.582  1.00  0.00    -0.295 C  
BRANCH   9  10
HETATM   10  C   UNL     1      -9.445   8.959  65.855  1.00  0.00    -0.303 C  
BRANCH  10  11
HETATM   11  C   UNL     1      -8.065   8.751  66.459  1.00  0.00    -0.103 C  
BRANCH  11  12
HETATM   12  C   UNL     1      -7.950   8.941  67.983  1.00  0.00    -0.102 C  
BRANCH  12  13
HETATM   13  C   UNL     1      -7.513  10.350  68.441  1.00  0.00    -0.091 C  
BRANCH  13  14
HETATM   14  C   UNL     1      -8.164  11.499  67.662  1.00  0.00    -0.131 C  
HETATM   15  O   UNL     1      -7.350  12.706  67.665  1.00  0.00    -0.113 OA 
HETATM   16  O   UNL     1      -8.255  14.599  68.619  1.00  0.00    -0.148 OA 
HETATM   17  C   UNL     1      -9.296  12.271  68.397  1.00  0.00    -0.162 C  
HETATM   18  C   UNL     1      -8.295  13.436  68.297  1.00  0.00    -0.160 C  
BRANCH  17  19
HETATM   19  C   UNL     1     -10.622  12.541  67.692  1.00  0.00    -0.234 C  
BRANCH  19  20
HETATM   20  C   UNL     1     -11.769  12.558  68.697  1.00  0.00    -0.368 C  
BRANCH  20  21
HETATM   21  C   UNL     1     -11.758  13.837  69.538  1.00  0.00    -0.380 C  
BRANCH  21  22
HETATM   22  C   UNL     1     -12.592  13.670  70.810  1.00  0.00    -0.397 C  
BRANCH  22  23
HETATM   23  C   UNL     1     -12.375  14.825  71.788  1.00  0.00    -0.414 C  
HETATM   24  C   UNL     1     -13.616  15.066  72.636  1.00  0.00    -0.566 C  
ENDBRANCH  22  23
ENDBRANCH  21  22
ENDBRANCH  20  21
ENDBRANCH  19  20
ENDBRANCH  17  19
ENDBRANCH  13  14
ENDBRANCH  12  13
BRANCH  12  25
HETATM   25  O   UNL     1      -9.209   8.650  68.632  1.00  0.00    -0.139 OA 
BRANCH  25  26
HETATM   26  C   UNL     1      -9.211   7.683  69.592  1.00  0.00    -0.146 C  
HETATM   27  O   UNL     1      -8.271   7.393  70.324  1.00  0.00    -0.127 OA 
BRANCH  26  28
HETATM   28  C   UNL     1     -10.570   6.994  69.668  1.00  0.00    -0.234 C  
BRANCH  28  29
HETATM   29  C   UNL     1     -10.980   6.383  68.318  1.00  0.00    -0.396 C  
HETATM   30  C   UNL     1      -9.645   4.175  68.366  1.00  0.00    -0.190 C  
HETATM   31  C   UNL     1     -10.447   5.129  66.215  1.00  0.00    -0.341 C  
HETATM   32  C   UNL     1      -9.941   5.476  67.619  1.00  0.00    -0.187 C  
ENDBRANCH  28  29
BRANCH  28  33
HETATM   33  N   UNL     1     -11.550   7.944  70.191  1.00  0.00    -0.476 N  
HETATM   34  C   UNL     1     -12.292   7.699  71.311  1.00  0.00    -0.309 C  
HETATM   35  O   UNL     1     -12.263   6.670  71.968  1.00  0.00    -0.329 OA 
HETATM   36  H   UNL     1     -11.686   8.828  69.698  1.00  0.00     0.000 HD 
ENDBRANCH  28  33
ENDBRANCH  26  28
ENDBRANCH  25  26
ENDBRANCH  12  25
ENDBRANCH  11  12
ENDBRANCH  10  11
ENDBRANCH   9  10
ENDBRANCH   8   9
ENDBRANCH   7   8
ENDBRANCH   6   7
ENDBRANCH   5   6
ENDBRANCH   4   5
ENDBRANCH   3   4
ENDBRANCH   2   3
TORSDOF 22
ENDMDL
MODEL      151
REMARK 921   NORMALIZED FREE ENERGY PREDICTED BY IDOCK:   -4.34 KCAL/MOL
REMARK 922        TOTAL FREE ENERGY PREDICTED BY IDOCK:  -13.53 KCAL/MOL
REMARK 923 INTER-LIGAND FREE ENERGY PREDICTED BY IDOCK:  -10.02 KCAL/MOL
REMARK 924 INTRA-LIGAND FREE ENERGY PREDICTED BY IDOCK:   -3.51 KCAL/MOL
REMARK 927      BINDING AFFINITY PREDICTED BY RF-SCORE:    0.00 PKD
ROOT
HETATM    1  C   UNL     1      -8.865   3.481  70.255  1.00  0.00    -0.151 C  
HETATM    2  C   UNL     1      -9.808   4.247  69.342  1.00  0.00    -0.205 C  
ENDROOT
BRANCH   2   3
HETATM    3  C   UNL     1     -10.373   5.474  70.051  1.00  0.00    -0.358 C  
BRANCH   3   4
HETATM    4  C   UNL     1     -10.406   5.288  71.565  1.00  0.00    -0.287 C  
BRANCH   4   5
HETATM    5  C   UNL     1     -11.624   5.988  72.172  1.00  0.00    -0.348 C  
BRANCH   5   6
HETATM    6  C   UNL     1     -12.169   7.039  71.214  1.00  0.00    -0.419 C  
BRANCH   6   7
HETATM    7  C   UNL     1     -12.649   8.297  71.940  1.00  0.00    -0.379 C  
BRANCH   7   8
HETATM    8  C   UNL     1     -11.709   9.445  71.591  1.00  0.00    -0.468 C  
BRANCH   8   9
HETATM    9  C   UNL     1     -10.304   9.000  71.198  1.00  0.00    -0.362 C  
BRANCH   9  10
HETATM   10  C   UNL     1      -9.865   9.818  69.979  1.00  0.00    -0.295 C  
BRANCH  10  11
HETATM   11  C   UNL     1     -10.546   9.410  68.682  1.00  0.00    -0.230 C  
BRANCH  11  12
HETATM   12  C   UNL     1     -11.130  10.550  67.828  1.00  0.00    -0.317 C  
BRANCH  12  13
HETATM   13  C   UNL     1     -11.941  11.609  68.606  1.00  0.00    -0.311 C  
BRANCH  13  14
HETATM   14  C   UNL     1     -11.206  12.937  68.822  1.00  0.00    -0.279 C  
HETATM   15  O   UNL     1     -11.413  13.478  70.158  1.00  0.00    -0.162 OA 
HETATM   16  O   UNL     1     -12.434  15.537  70.328  1.00  0.00    -0.399 OA 
HETATM   17  C   UNL     1     -11.880  14.200  68.216  1.00  0.00    -0.391 C  
HETATM   18  C   UNL     1     -12.002  14.603  69.697  1.00  0.00    -0.323 C  
BRANCH  17  19
HETATM   19  C   UNL     1     -11.061  15.179  67.381  1.00  0.00    -0.325 C  
BRANCH  19  20
HETATM   20  C   UNL     1     -10.240  14.434  66.333  1.00  0.00    -0.294 C  
BRANCH  20  21
HETATM   21  C   UNL     1     -10.870  14.552  64.942  1.00  0.00    -0.436 C  
BRANCH  21  22
HETATM   22  C   UNL     1     -12.358  14.201  64.978  1.00  0.00    -0.452 C  
BRANCH  22  23
HETATM   23  C   UNL     1     -12.589  12.692  64.914  1.00  0.00    -0.525 C  
HETATM   24  C   UNL     1     -12.603  12.199  63.473  1.00  0.00    -0.621 C  
ENDBRANCH  22  23
ENDBRANCH  21  22
ENDBRANCH  20  21
ENDBRANCH  19  20
ENDBRANCH  17  19
ENDBRANCH  13  14
ENDBRANCH  12  13
BRANCH  12  25
HETATM   25  O   UNL     1     -10.080  11.249  67.119  1.00  0.00    -0.186 OA 
BRANCH  25  26
HETATM   26  C   UNL     1      -9.545  10.636  66.027  1.00  0.00    -0.198 C  
HETATM   27  O   UNL     1     -10.167  10.229  65.052  1.00  0.00    -0.320 OA 
BRANCH  26  28
HETATM   28  C   UNL     1      -8.028  10.529  66.152  1.00  0.00    -0.147 C  
BRANCH  28  29
HETATM   29  C   UNL     1      -7.494  11.319  67.358  1.00  0.00    -0.116 C  
HETATM   30  C   UNL     1      -5.255  10.106  67.773  1.00  0.00    -0.034 C  
HETATM   31  C   UNL     1      -6.333  11.437  69.575  1.00  0.00    -0.113 C  
HETATM   32  C   UNL     1      -6.598  10.550  68.355  1.00  0.00    -0.055 C  
ENDBRANCH  28  29
BRANCH  28  33
HETATM   33  N   UNL     1      -7.422  10.934  64.885  1.00  0.00    -0.330 N  
HETATM   34  C   UNL     1      -6.637  10.099  64.141  1.00  0.00    -0.113 C  
HETATM   35  O   UNL     1      -6.315   8.964  64.456  1.00  0.00    -0.069 OA 
HETATM   36  H   UNL     1      -7.593  11.879  64.541  1.00  0.00     0.000 HD 
ENDBRANCH  28  33
ENDBRANCH  26  28
ENDBRANCH  25  26
ENDBRANCH  12  25
ENDBRANCH  11  12
ENDBRANCH  10  11
ENDBRANCH   9  10
ENDBRANCH   8   9
ENDBRANCH   7   8
ENDBRANCH   6   7
ENDBRANCH   5   6
ENDBRANCH   4   5
ENDBRANCH   3   4
ENDBRANCH   2   3
TORSDOF 22
ENDMDL
MODEL      152
REMARK 921   NORMALIZED FREE ENERGY PREDICTED BY IDOCK:   -4.32 KCAL/MOL
REMARK 922        TOTAL FREE ENERGY PREDICTED BY IDOCK:  -13.49 KCAL/MOL
REMARK 923 INTER-LIGAND FREE ENERGY PREDICTED BY IDOCK:  -10.69 KCAL/MOL
REMARK 924 INTRA-LIGAND FREE ENERGY PREDICTED BY IDOCK:   -2.80 KCAL/MOL
REMARK 927      BINDING AFFINITY PREDICTED BY RF-SCORE:    0.00 PKD
ROOT
HETATM    1  C   UNL     1     -10.402   5.516  71.351  1.00  0.00    -0.291 C  
HETATM    2  C   UNL     1     -10.837   5.764  69.916  1.00  0.00    -0.417 C  
ENDROOT
BRANCH   2   3
HETATM    3  C   UNL     1     -10.034   4.899  68.949  1.00  0.00    -0.220 C  
BRANCH   3   4
HETATM    4  C   UNL     1     -10.410   5.176  67.496  1.00  0.00    -0.190 C  
BRANCH   4   5
HETATM    5  C   UNL     1     -10.836   6.634  67.314  1.00  0.00    -0.456 C  
BRANCH   5   6
HETATM    6  C   UNL     1      -9.869   7.362  66.391  1.00  0.00    -0.137 C  
BRANCH   6   7
HETATM    7  C   UNL     1      -8.468   7.485  66.993  1.00  0.00    -0.122 C  
BRANCH   7   8
HETATM    8  C   UNL     1      -7.793   8.718  66.402  1.00  0.00    -0.099 C  
BRANCH   8   9
HETATM    9  C   UNL     1      -8.387   9.173  65.072  1.00  0.00    -0.165 C  
BRANCH   9  10
HETATM   10  C   UNL     1      -8.589  10.690  65.131  1.00  0.00    -0.173 C  
BRANCH  10  11
HETATM   11  C   UNL     1      -8.439  11.282  66.525  1.00  0.00    -0.171 C  
BRANCH  11  12
HETATM   12  C   UNL     1      -9.491  12.325  66.942  1.00  0.00    -0.217 C  
BRANCH  12  13
HETATM   13  C   UNL     1     -10.586  12.615  65.891  1.00  0.00    -0.297 C  
BRANCH  13  14
HETATM   14  C   UNL     1     -11.418  13.871  66.174  1.00  0.00    -0.345 C  
HETATM   15  O   UNL     1     -11.499  14.757  65.021  1.00  0.00    -0.361 OA 
HETATM   16  O   UNL     1     -10.640  16.884  65.248  1.00  0.00    -0.633 OA 
HETATM   17  C   UNL     1     -10.709  14.997  66.978  1.00  0.00    -0.304 C  
HETATM   18  C   UNL     1     -10.894  15.779  65.665  1.00  0.00    -0.307 C  
BRANCH  17  19
HETATM   19  C   UNL     1     -11.403  15.638  68.175  1.00  0.00    -0.340 C  
BRANCH  19  20
HETATM   20  C   UNL     1     -11.085  14.869  69.455  1.00  0.00    -0.296 C  
BRANCH  20  21
HETATM   21  C   UNL     1     -11.450  15.682  70.700  1.00  0.00    -0.400 C  
BRANCH  21  22
HETATM   22  C   UNL     1     -12.876  15.374  71.162  1.00  0.00    -0.520 C  
BRANCH  22  23
HETATM   23  C   UNL     1     -12.896  14.703  72.535  1.00  0.00    -0.475 C  
HETATM   24  C   UNL     1     -12.713  15.726  73.648  1.00  0.00    -0.729 C  
ENDBRANCH  22  23
ENDBRANCH  21  22
ENDBRANCH  20  21
ENDBRANCH  19  20
ENDBRANCH  17  19
ENDBRANCH  13  14
ENDBRANCH  12  13
BRANCH  12  25
HETATM   25  O   UNL     1     -10.159  11.921  68.159  1.00  0.00    -0.186 OA 
BRANCH  25  26
HETATM   26  C   UNL     1     -10.940  10.806  68.105  1.00  0.00    -0.257 C  
HETATM   27  O   UNL     1     -11.887  10.626  67.348  1.00  0.00    -0.274 OA 
BRANCH  26  28
HETATM   28  C   UNL     1     -10.470   9.764  69.116  1.00  0.00    -0.215 C  
BRANCH  28  29
HETATM   29  C   UNL     1     -11.630   9.232  69.973  1.00  0.00    -0.005 C  
HETATM   30  C   UNL     1     -12.354  11.388  71.192  1.00  0.00    -0.404 C  
HETATM   31  C   UNL     1     -12.931   9.152  72.112  1.00  0.00    -0.498 C  
HETATM   32  C   UNL     1     -11.880   9.939  71.324  1.00  0.00    -0.479 C  
ENDBRANCH  28  29
BRANCH  28  33
HETATM   33  N   UNL     1      -9.383  10.336  69.909  1.00  0.00    -0.408 N  
HETATM   34  C   UNL     1      -8.351   9.586  70.397  1.00  0.00    -0.192 C  
HETATM   35  O   UNL     1      -8.236   8.376  70.274  1.00  0.00    -0.113 OA 
HETATM   36  H   UNL     1      -9.396  11.337  70.107  1.00  0.00     0.000 HD 
ENDBRANCH  28  33
ENDBRANCH  26  28
ENDBRANCH  25  26
ENDBRANCH  12  25
ENDBRANCH  11  12
ENDBRANCH  10  11
ENDBRANCH   9  10
ENDBRANCH   8   9
ENDBRANCH   7   8
ENDBRANCH   6   7
ENDBRANCH   5   6
ENDBRANCH   4   5
ENDBRANCH   3   4
ENDBRANCH   2   3
TORSDOF 22
ENDMDL
MODEL      153
REMARK 921   NORMALIZED FREE ENERGY PREDICTED BY IDOCK:   -4.31 KCAL/MOL
REMARK 922        TOTAL FREE ENERGY PREDICTED BY IDOCK:  -13.48 KCAL/MOL
REMARK 923 INTER-LIGAND FREE ENERGY PREDICTED BY IDOCK:   -9.24 KCAL/MOL
REMARK 924 INTRA-LIGAND FREE ENERGY PREDICTED BY IDOCK:   -4.23 KCAL/MOL
REMARK 927      BINDING AFFINITY PREDICTED BY RF-SCORE:    0.00 PKD
ROOT
HETATM    1  C   UNL     1     -12.416  14.810  70.405  1.00  0.00    -0.405 C  
HETATM    2  C   UNL     1     -11.721  14.610  69.069  1.00  0.00    -0.339 C  
ENDROOT
BRANCH   2   3
HETATM    3  C   UNL     1     -11.859  13.166  68.596  1.00  0.00    -0.363 C  
BRANCH   3   4
HETATM    4  C   UNL     1     -11.900  13.070  67.074  1.00  0.00    -0.437 C  
BRANCH   4   5
HETATM    5  C   UNL     1     -11.467  14.392  66.435  1.00  0.00    -0.365 C  
BRANCH   5   6
HETATM    6  C   UNL     1     -11.018  14.169  64.997  1.00  0.00    -0.391 C  
BRANCH   6   7
HETATM    7  C   UNL     1     -12.181  13.798  64.074  1.00  0.00    -0.429 C  
BRANCH   7   8
HETATM    8  C   UNL     1     -11.863  12.464  63.408  1.00  0.00    -0.571 C  
BRANCH   8   9
HETATM    9  C   UNL     1     -10.395  12.060  63.496  1.00  0.00    -0.492 C  
BRANCH   9  10
HETATM   10  C   UNL     1     -10.309  10.730  64.251  1.00  0.00    -0.401 C  
BRANCH  10  11
HETATM   11  C   UNL     1      -8.891  10.311  64.608  1.00  0.00    -0.220 C  
BRANCH  11  12
HETATM   12  C   UNL     1      -8.613  10.038  66.098  1.00  0.00    -0.133 C  
BRANCH  12  13
HETATM   13  C   UNL     1      -8.972  11.193  67.059  1.00  0.00    -0.156 C  
BRANCH  13  14
HETATM   14  C   UNL     1      -7.898  12.281  67.169  1.00  0.00    -0.149 C  
HETATM   15  O   UNL     1      -6.783  11.879  68.016  1.00  0.00    -0.063 OA 
HETATM   16  O   UNL     1      -6.370  13.138  69.902  1.00  0.00    -0.114 OA 
HETATM   17  C   UNL     1      -8.205  13.452  68.144  1.00  0.00    -0.160 C  
HETATM   18  C   UNL     1      -6.991  12.880  68.899  1.00  0.00    -0.084 C  
BRANCH  17  19
HETATM   19  C   UNL     1      -8.018  14.896  67.690  1.00  0.00    -0.184 C  
BRANCH  19  20
HETATM   20  C   UNL     1      -8.512  15.863  68.761  1.00  0.00    -0.204 C  
BRANCH  20  21
HETATM   21  C   UNL     1      -8.612  17.293  68.221  1.00  0.00    -0.247 C  
BRANCH  21  22
HETATM   22  C   UNL     1     -10.072  17.724  68.068  1.00  0.00    -0.355 C  
BRANCH  22  23
HETATM   23  C   UNL     1     -10.439  17.979  66.606  1.00  0.00    -0.332 C  
HETATM   24  C   UNL     1     -10.503  19.470  66.308  1.00  0.00    -0.609 C  
ENDBRANCH  22  23
ENDBRANCH  21  22
ENDBRANCH  20  21
ENDBRANCH  19  20
ENDBRANCH  17  19
ENDBRANCH  13  14
ENDBRANCH  12  13
BRANCH  12  25
HETATM   25  O   UNL     1      -9.333   8.866  66.547  1.00  0.00    -0.165 OA 
BRANCH  25  26
HETATM   26  C   UNL     1      -8.666   7.990  67.349  1.00  0.00    -0.124 C  
HETATM   27  O   UNL     1      -7.466   7.741  67.303  1.00  0.00    -0.089 OA 
BRANCH  26  28
HETATM   28  C   UNL     1      -9.612   7.347  68.358  1.00  0.00    -0.148 C  
BRANCH  28  29
HETATM   29  C   UNL     1     -10.446   8.396  69.112  1.00  0.00    -0.218 C  
HETATM   30  C   UNL     1      -8.583   9.709  70.322  1.00  0.00    -0.234 C  
HETATM   31  C   UNL     1     -10.929   9.780  71.144  1.00  0.00    -0.386 C  
HETATM   32  C   UNL     1      -9.877   8.904  70.456  1.00  0.00    -0.242 C  
ENDBRANCH  28  29
BRANCH  28  33
HETATM   33  N   UNL     1      -8.837   6.482  69.246  1.00  0.00    -0.132 N  
HETATM   34  C   UNL     1      -9.299   5.277  69.692  1.00  0.00    -0.126 C  
HETATM   35  O   UNL     1     -10.400   4.808  69.450  1.00  0.00    -0.177 OA 
HETATM   36  H   UNL     1      -7.911   6.792  69.544  1.00  0.00     0.000 HD 
ENDBRANCH  28  33
ENDBRANCH  26  28
ENDBRANCH  25  26
ENDBRANCH  12  25
ENDBRANCH  11  12
ENDBRANCH  10  11
ENDBRANCH   9  10
ENDBRANCH   8   9
ENDBRANCH   7   8
ENDBRANCH   6   7
ENDBRANCH   5   6
ENDBRANCH   4   5
ENDBRANCH   3   4
ENDBRANCH   2   3
TORSDOF 22
ENDMDL
MODEL      154
REMARK 921   NORMALIZED FREE ENERGY PREDICTED BY IDOCK:   -4.31 KCAL/MOL
REMARK 922        TOTAL FREE ENERGY PREDICTED BY IDOCK:  -13.48 KCAL/MOL
REMARK 923 INTER-LIGAND FREE ENERGY PREDICTED BY IDOCK:  -10.38 KCAL/MOL
REMARK 924 INTRA-LIGAND FREE ENERGY PREDICTED BY IDOCK:   -3.09 KCAL/MOL
REMARK 927      BINDING AFFINITY PREDICTED BY RF-SCORE:    0.00 PKD
ROOT
HETATM    1  C   UNL     1     -10.252  19.096  66.627  1.00  0.00    -0.491 C  
HETATM    2  C   UNL     1      -9.611  17.728  66.461  1.00  0.00    -0.315 C  
ENDROOT
BRANCH   2   3
HETATM    3  C   UNL     1     -10.535  16.629  66.979  1.00  0.00    -0.283 C  
BRANCH   3   4
HETATM    4  C   UNL     1     -10.467  15.377  66.111  1.00  0.00    -0.325 C  
BRANCH   4   5
HETATM    5  C   UNL     1     -11.768  14.577  66.210  1.00  0.00    -0.364 C  
BRANCH   5   6
HETATM    6  C   UNL     1     -12.242  14.155  64.825  1.00  0.00    -0.457 C  
BRANCH   6   7
HETATM    7  C   UNL     1     -12.655  12.683  64.773  1.00  0.00    -0.530 C  
BRANCH   7   8
HETATM    8  C   UNL     1     -12.113  12.073  63.486  1.00  0.00    -0.628 C  
BRANCH   8   9
HETATM    9  C   UNL     1     -10.600  11.883  63.479  1.00  0.00    -0.507 C  
BRANCH   9  10
HETATM   10  C   UNL     1     -10.230  10.934  64.623  1.00  0.00    -0.411 C  
BRANCH  10  11
HETATM   11  C   UNL     1      -9.199  11.497  65.587  1.00  0.00    -0.184 C  
BRANCH  11  12
HETATM   12  C   UNL     1      -9.250  10.966  67.031  1.00  0.00    -0.152 C  
BRANCH  12  13
HETATM   13  C   UNL     1     -10.363  11.569  67.918  1.00  0.00    -0.203 C  
BRANCH  13  14
HETATM   14  C   UNL     1     -11.249  10.530  68.615  1.00  0.00    -0.270 C  
HETATM   15  O   UNL     1     -12.523  11.086  69.050  1.00  0.00    -0.449 OA 
HETATM   16  O   UNL     1     -12.985  11.051  71.307  1.00  0.00    -0.386 OA 
HETATM   17  C   UNL     1     -10.894  10.208  70.094  1.00  0.00    -0.368 C  
HETATM   18  C   UNL     1     -12.279  10.828  70.354  1.00  0.00    -0.349 C  
BRANCH  17  19
HETATM   19  C   UNL     1     -10.776   8.760  70.556  1.00  0.00    -0.259 C  
BRANCH  19  20
HETATM   20  C   UNL     1     -10.462   8.696  72.047  1.00  0.00    -0.422 C  
BRANCH  20  21
HETATM   21  C   UNL     1     -11.026   7.422  72.684  1.00  0.00    -0.363 C  
BRANCH  21  22
HETATM   22  C   UNL     1     -11.921   6.664  71.701  1.00  0.00    -0.395 C  
BRANCH  22  23
HETATM   23  C   UNL     1     -13.383   6.666  72.148  1.00  0.00     0.071 C  
HETATM   24  C   UNL     1     -14.219   7.600  71.285  1.00  0.00    -0.427 C  
ENDBRANCH  22  23
ENDBRANCH  21  22
ENDBRANCH  20  21
ENDBRANCH  19  20
ENDBRANCH  17  19
ENDBRANCH  13  14
ENDBRANCH  12  13
BRANCH  12  25
HETATM   25  O   UNL     1      -9.423   9.530  67.043  1.00  0.00    -0.146 OA 
BRANCH  25  26
HETATM   26  C   UNL     1      -8.319   8.768  67.278  1.00  0.00    -0.104 C  
HETATM   27  O   UNL     1      -7.236   9.174  67.685  1.00  0.00    -0.082 OA 
BRANCH  26  28
HETATM   28  C   UNL     1      -8.601   7.297  66.986  1.00  0.00    -0.122 C  
BRANCH  28  29
HETATM   29  C   UNL     1      -7.539   6.681  66.062  1.00  0.00    -0.086 C  
HETATM   30  C   UNL     1      -7.653   8.299  64.055  1.00  0.00    -0.128 C  
HETATM   31  C   UNL     1      -6.715   6.011  63.793  1.00  0.00    -0.037 C  
HETATM   32  C   UNL     1      -7.754   6.852  64.541  1.00  0.00    -0.116 C  
ENDBRANCH  28  29
BRANCH  28  33
HETATM   33  N   UNL     1      -9.961   7.174  66.463  1.00  0.00    -0.410 N  
HETATM   34  C   UNL     1     -10.964   6.551  67.150  1.00  0.00    -0.408 C  
HETATM   35  O   UNL     1     -10.842   5.997  68.231  1.00  0.00    -0.275 OA 
HETATM   36  H   UNL     1     -10.169   7.570  65.546  1.00  0.00     0.000 HD 
ENDBRANCH  28  33
ENDBRANCH  26  28
ENDBRANCH  25  26
ENDBRANCH  12  25
ENDBRANCH  11  12
ENDBRANCH  10  11
ENDBRANCH   9  10
ENDBRANCH   8   9
ENDBRANCH   7   8
ENDBRANCH   6   7
ENDBRANCH   5   6
ENDBRANCH   4   5
ENDBRANCH   3   4
ENDBRANCH   2   3
TORSDOF 22
ENDMDL
MODEL      155
REMARK 921   NORMALIZED FREE ENERGY PREDICTED BY IDOCK:   -4.31 KCAL/MOL
REMARK 922        TOTAL FREE ENERGY PREDICTED BY IDOCK:  -13.47 KCAL/MOL
REMARK 923 INTER-LIGAND FREE ENERGY PREDICTED BY IDOCK:  -10.79 KCAL/MOL
REMARK 924 INTRA-LIGAND FREE ENERGY PREDICTED BY IDOCK:   -2.67 KCAL/MOL
REMARK 927      BINDING AFFINITY PREDICTED BY RF-SCORE:    0.00 PKD
ROOT
HETATM    1  C   UNL     1      -6.270   7.811  69.397  1.00  0.00    -0.034 C  
HETATM    2  C   UNL     1      -7.736   7.417  69.468  1.00  0.00    -0.108 C  
ENDROOT
BRANCH   2   3
HETATM    3  C   UNL     1      -8.325   7.259  68.069  1.00  0.00    -0.123 C  
BRANCH   3   4
HETATM    4  C   UNL     1      -9.292   8.390  67.731  1.00  0.00    -0.150 C  
BRANCH   4   5
HETATM    5  C   UNL     1      -8.836   9.138  66.477  1.00  0.00    -0.156 C  
BRANCH   5   6
HETATM    6  C   UNL     1      -7.715  10.111  66.813  1.00  0.00    -0.105 C  
BRANCH   6   7
HETATM    7  C   UNL     1      -8.107  11.094  67.918  1.00  0.00    -0.119 C  
BRANCH   7   8
HETATM    8  C   UNL     1      -7.760  12.505  67.457  1.00  0.00    -0.165 C  
BRANCH   8   9
HETATM    9  C   UNL     1      -8.439  13.606  68.265  1.00  0.00    -0.170 C  
BRANCH   9  10
HETATM   10  C   UNL     1      -8.120  14.951  67.604  1.00  0.00    -0.180 C  
BRANCH  10  11
HETATM   11  C   UNL     1      -9.349  15.777  67.256  1.00  0.00    -0.219 C  
BRANCH  11  12
HETATM   12  C   UNL     1      -9.611  16.014  65.757  1.00  0.00    -0.276 C  
BRANCH  12  13
HETATM   13  C   UNL     1     -10.894  15.360  65.200  1.00  0.00    -0.447 C  
BRANCH  13  14
HETATM   14  C   UNL     1     -10.846  13.829  65.130  1.00  0.00    -0.345 C  
HETATM   15  O   UNL     1     -11.445  13.308  63.910  1.00  0.00    -0.394 OA 
HETATM   16  O   UNL     1     -13.272  11.920  64.129  1.00  0.00    -0.645 OA 
HETATM   17  C   UNL     1     -11.912  13.071  65.968  1.00  0.00    -0.498 C  
HETATM   18  C   UNL     1     -12.396  12.619  64.579  1.00  0.00    -0.464 C  
BRANCH  17  19
HETATM   19  C   UNL     1     -11.496  11.918  66.876  1.00  0.00    -0.390 C  
BRANCH  19  20
HETATM   20  C   UNL     1     -11.756  12.265  68.339  1.00  0.00    -0.390 C  
BRANCH  20  21
HETATM   21  C   UNL     1     -12.034  13.760  68.517  1.00  0.00    -0.402 C  
BRANCH  21  22
HETATM   22  C   UNL     1     -12.037  14.148  69.997  1.00  0.00    -0.409 C  
BRANCH  22  23
HETATM   23  C   UNL     1     -12.457  12.980  70.890  1.00  0.00    -0.396 C  
HETATM   24  C   UNL     1     -13.296  13.461  72.065  1.00  0.00    -0.569 C  
ENDBRANCH  22  23
ENDBRANCH  21  22
ENDBRANCH  20  21
ENDBRANCH  19  20
ENDBRANCH  17  19
ENDBRANCH  13  14
ENDBRANCH  12  13
BRANCH  12  25
HETATM   25  O   UNL     1      -9.689  17.429  65.468  1.00  0.00    -0.485 OA 
BRANCH  25  26
HETATM   26  C   UNL     1      -9.894  18.273  66.517  1.00  0.00    -0.361 C  
HETATM   27  O   UNL     1     -10.799  18.193  67.340  1.00  0.00    -0.374 OA 
BRANCH  26  28
HETATM   28  C   UNL     1      -8.818  19.355  66.563  1.00  0.00    -0.352 C  
BRANCH  28  29
HETATM   29  C   UNL     1      -7.519  18.902  65.878  1.00  0.00    -0.242 C  
HETATM   30  C   UNL     1      -6.117  21.063  66.032  1.00  0.00    -0.304 C  
HETATM   31  C   UNL     1      -5.575  19.312  64.351  1.00  0.00    -0.303 C  
HETATM   32  C   UNL     1      -6.713  19.985  65.125  1.00  0.00    -0.323 C  
ENDBRANCH  28  29
BRANCH  28  33
HETATM   33  N   UNL     1      -8.623  19.765  67.953  1.00  0.00    -0.314 N  
HETATM   34  C   UNL     1      -7.728  19.155  68.784  1.00  0.00    -0.355 C  
HETATM   35  O   UNL     1      -7.035  18.192  68.494  1.00  0.00    -0.228 OA 
HETATM   36  H   UNL     1      -9.179  20.540  68.316  1.00  0.00     0.000 HD 
ENDBRANCH  28  33
ENDBRANCH  26  28
ENDBRANCH  25  26
ENDBRANCH  12  25
ENDBRANCH  11  12
ENDBRANCH  10  11
ENDBRANCH   9  10
ENDBRANCH   8   9
ENDBRANCH   7   8
ENDBRANCH   6   7
ENDBRANCH   5   6
ENDBRANCH   4   5
ENDBRANCH   3   4
ENDBRANCH   2   3
TORSDOF 22
ENDMDL
MODEL      156
REMARK 921   NORMALIZED FREE ENERGY PREDICTED BY IDOCK:   -4.29 KCAL/MOL
REMARK 922        TOTAL FREE ENERGY PREDICTED BY IDOCK:  -13.43 KCAL/MOL
REMARK 923 INTER-LIGAND FREE ENERGY PREDICTED BY IDOCK:  -10.80 KCAL/MOL
REMARK 924 INTRA-LIGAND FREE ENERGY PREDICTED BY IDOCK:   -2.63 KCAL/MOL
REMARK 927      BINDING AFFINITY PREDICTED BY RF-SCORE:    0.00 PKD
ROOT
HETATM    1  C   UNL     1      -5.955  18.996  69.358  1.00  0.00    -0.275 C  
HETATM    2  C   UNL     1      -5.771  18.831  67.858  1.00  0.00    -0.190 C  
ENDROOT
BRANCH   2   3
HETATM    3  C   UNL     1      -6.190  20.099  67.118  1.00  0.00    -0.215 C  
BRANCH   3   4
HETATM    4  C   UNL     1      -7.470  19.889  66.315  1.00  0.00    -0.316 C  
BRANCH   4   5
HETATM    5  C   UNL     1      -8.692  20.347  67.113  1.00  0.00    -0.413 C  
BRANCH   5   6
HETATM    6  C   UNL     1      -9.961  20.183  66.287  1.00  0.00    -0.557 C  
BRANCH   6   7
HETATM    7  C   UNL     1     -10.387  18.719  66.156  1.00  0.00    -0.494 C  
BRANCH   7   8
HETATM    8  C   UNL     1     -10.413  18.096  67.547  1.00  0.00    -0.425 C  
BRANCH   8   9
HETATM    9  C   UNL     1      -9.860  16.675  67.601  1.00  0.00    -0.256 C  
BRANCH   9  10
HETATM   10  C   UNL     1     -10.419  15.898  66.405  1.00  0.00    -0.311 C  
BRANCH  10  11
HETATM   11  C   UNL     1      -9.643  14.633  66.070  1.00  0.00    -0.322 C  
BRANCH  11  12
HETATM   12  C   UNL     1      -9.764  13.471  67.073  1.00  0.00    -0.251 C  
BRANCH  12  13
HETATM   13  C   UNL     1      -8.548  13.274  68.004  1.00  0.00    -0.178 C  
BRANCH  13  14
HETATM   14  C   UNL     1      -8.043  11.828  68.089  1.00  0.00    -0.150 C  
HETATM   15  O   UNL     1      -6.839  11.611  67.298  1.00  0.00    -0.106 OA 
HETATM   16  O   UNL     1      -6.953  10.074  65.585  1.00  0.00    -0.101 OA 
HETATM   17  C   UNL     1      -8.795  10.787  67.213  1.00  0.00    -0.133 C  
HETATM   18  C   UNL     1      -7.432  10.692  66.504  1.00  0.00    -0.134 C  
BRANCH  17  19
HETATM   19  C   UNL     1      -9.262   9.468  67.821  1.00  0.00    -0.136 C  
BRANCH  19  20
HETATM   20  C   UNL     1     -10.104   8.684  66.820  1.00  0.00    -0.366 C  
BRANCH  20  21
HETATM   21  C   UNL     1      -9.560   7.267  66.620  1.00  0.00    -0.236 C  
BRANCH  21  22
HETATM   22  C   UNL     1      -9.709   6.433  67.894  1.00  0.00    -0.124 C  
BRANCH  22  23
HETATM   23  C   UNL     1     -10.036   4.973  67.583  1.00  0.00    -0.202 C  
HETATM   24  C   UNL     1     -10.085   4.730  66.081  1.00  0.00    -0.288 C  
ENDBRANCH  22  23
ENDBRANCH  21  22
ENDBRANCH  20  21
ENDBRANCH  19  20
ENDBRANCH  17  19
ENDBRANCH  13  14
ENDBRANCH  12  13
BRANCH  12  25
HETATM   25  O   UNL     1     -10.927  13.640  67.915  1.00  0.00    -0.249 OA 
BRANCH  25  26
HETATM   26  C   UNL     1     -11.710  12.546  68.131  1.00  0.00    -0.348 C  
HETATM   27  O   UNL     1     -12.065  11.736  67.282  1.00  0.00    -0.595 OA 
BRANCH  26  28
HETATM   28  C   UNL     1     -12.087  12.429  69.604  1.00  0.00    -0.206 C  
BRANCH  28  29
HETATM   29  C   UNL     1     -12.005  13.783  70.327  1.00  0.00    -0.397 C  
HETATM   30  C   UNL     1     -13.548  13.342  72.349  1.00  0.00    -0.708 C  
HETATM   31  C   UNL     1     -13.054  15.664  71.608  1.00  0.00    -0.554 C  
HETATM   32  C   UNL     1     -13.250  14.221  71.132  1.00  0.00    -0.387 C  
ENDBRANCH  28  29
BRANCH  28  33
HETATM   33  N   UNL     1     -11.258  11.395  70.222  1.00  0.00    -0.466 N  
HETATM   34  C   UNL     1     -11.781  10.363  70.946  1.00  0.00    -0.360 C  
HETATM   35  O   UNL     1     -12.966  10.205  71.199  1.00  0.00    -0.353 OA 
HETATM   36  H   UNL     1     -10.245  11.448  70.107  1.00  0.00     0.000 HD 
ENDBRANCH  28  33
ENDBRANCH  26  28
ENDBRANCH  25  26
ENDBRANCH  12  25
ENDBRANCH  11  12
ENDBRANCH  10  11
ENDBRANCH   9  10
ENDBRANCH   8   9
ENDBRANCH   7   8
ENDBRANCH   6   7
ENDBRANCH   5   6
ENDBRANCH   4   5
ENDBRANCH   3   4
ENDBRANCH   2   3
TORSDOF 22
ENDMDL
MODEL      157
REMARK 921   NORMALIZED FREE ENERGY PREDICTED BY IDOCK:   -4.29 KCAL/MOL
REMARK 922        TOTAL FREE ENERGY PREDICTED BY IDOCK:  -13.42 KCAL/MOL
REMARK 923 INTER-LIGAND FREE ENERGY PREDICTED BY IDOCK:   -9.49 KCAL/MOL
REMARK 924 INTRA-LIGAND FREE ENERGY PREDICTED BY IDOCK:   -3.92 KCAL/MOL
REMARK 927      BINDING AFFINITY PREDICTED BY RF-SCORE:    0.00 PKD
ROOT
HETATM    1  C   UNL     1     -12.786  15.327  73.574  1.00  0.00    -0.690 C  
HETATM    2  C   UNL     1     -13.771  15.648  72.463  1.00  0.00    -0.651 C  
ENDROOT
BRANCH   2   3
HETATM    3  C   UNL     1     -13.407  14.902  71.182  1.00  0.00    -0.480 C  
BRANCH   3   4
HETATM    4  C   UNL     1     -11.968  14.394  71.213  1.00  0.00    -0.359 C  
BRANCH   4   5
HETATM    5  C   UNL     1     -11.072  15.248  70.314  1.00  0.00    -0.316 C  
BRANCH   5   6
HETATM    6  C   UNL     1     -11.602  15.260  68.887  1.00  0.00    -0.365 C  
BRANCH   6   7
HETATM    7  C   UNL     1     -10.493  15.064  67.851  1.00  0.00    -0.247 C  
BRANCH   7   8
HETATM    8  C   UNL     1     -10.664  13.691  67.212  1.00  0.00    -0.283 C  
BRANCH   8   9
HETATM    9  C   UNL     1     -11.971  12.995  67.577  1.00  0.00    -0.360 C  
BRANCH   9  10
HETATM   10  C   UNL     1     -11.648  11.556  67.992  1.00  0.00    -0.370 C  
BRANCH  10  11
HETATM   11  C   UNL     1     -11.901  11.263  69.463  1.00  0.00    -0.427 C  
BRANCH  11  12
HETATM   12  C   UNL     1     -10.845  10.403  70.181  1.00  0.00    -0.271 C  
BRANCH  12  13
HETATM   13  C   UNL     1     -11.392   9.470  71.284  1.00  0.00    -0.446 C  
BRANCH  13  14
HETATM   14  C   UNL     1     -11.781   8.070  70.794  1.00  0.00    -0.206 C  
HETATM   15  O   UNL     1     -12.696   7.396  71.704  1.00  0.00    -0.338 OA 
HETATM   16  O   UNL     1     -11.986   5.420  72.657  1.00  0.00    -0.214 OA 
HETATM   17  C   UNL     1     -10.733   6.946  71.026  1.00  0.00    -0.258 C  
HETATM   18  C   UNL     1     -11.833   6.384  71.945  1.00  0.00    -0.329 C  
BRANCH  17  19
HETATM   19  C   UNL     1     -10.349   6.009  69.886  1.00  0.00    -0.288 C  
BRANCH  19  20
HETATM   20  C   UNL     1     -11.009   6.450  68.583  1.00  0.00    -0.404 C  
BRANCH  20  21
HETATM   21  C   UNL     1     -10.410   5.721  67.378  1.00  0.00    -0.279 C  
BRANCH  21  22
HETATM   22  C   UNL     1      -9.285   4.777  67.807  1.00  0.00    -0.145 C  
BRANCH  22  23
HETATM   23  C   UNL     1      -7.988   5.055  67.047  1.00  0.00    -0.103 C  
HETATM   24  C   UNL     1      -7.080   5.989  67.835  1.00  0.00    -0.074 C  
ENDBRANCH  22  23
ENDBRANCH  21  22
ENDBRANCH  20  21
ENDBRANCH  19  20
ENDBRANCH  17  19
ENDBRANCH  13  14
ENDBRANCH  12  13
BRANCH  12  25
HETATM   25  O   UNL     1     -10.129   9.575  69.235  1.00  0.00    -0.181 OA 
BRANCH  25  26
HETATM   26  C   UNL     1      -8.768   9.598  69.285  1.00  0.00    -0.159 C  
HETATM   27  O   UNL     1      -8.070   9.057  70.135  1.00  0.00    -0.099 OA 
BRANCH  26  28
HETATM   28  C   UNL     1      -8.193  10.385  68.111  1.00  0.00    -0.116 C  
BRANCH  28  29
HETATM   29  C   UNL     1      -7.852   9.473  66.922  1.00  0.00    -0.101 C  
HETATM   30  C   UNL     1      -9.621  10.240  65.206  1.00  0.00    -0.324 C  
HETATM   31  C   UNL     1      -8.527   8.017  64.998  1.00  0.00    -0.089 C  
HETATM   32  C   UNL     1      -9.020   9.073  65.992  1.00  0.00    -0.227 C  
ENDBRANCH  28  29
BRANCH  28  33
HETATM   33  N   UNL     1      -7.052  11.167  68.583  1.00  0.00    -0.082 N  
HETATM   34  C   UNL     1      -6.763  12.413  68.106  1.00  0.00    -0.075 C  
HETATM   35  O   UNL     1      -7.374  12.992  67.221  1.00  0.00    -0.138 OA 
HETATM   36  H   UNL     1      -6.446  10.764  69.299  1.00  0.00     0.000 HD 
ENDBRANCH  28  33
ENDBRANCH  26  28
ENDBRANCH  25  26
ENDBRANCH  12  25
ENDBRANCH  11  12
ENDBRANCH  10  11
ENDBRANCH   9  10
ENDBRANCH   8   9
ENDBRANCH   7   8
ENDBRANCH   6   7
ENDBRANCH   5   6
ENDBRANCH   4   5
ENDBRANCH   3   4
ENDBRANCH   2   3
TORSDOF 22
ENDMDL
MODEL      158
REMARK 921   NORMALIZED FREE ENERGY PREDICTED BY IDOCK:   -4.28 KCAL/MOL
REMARK 922        TOTAL FREE ENERGY PREDICTED BY IDOCK:  -13.41 KCAL/MOL
REMARK 923 INTER-LIGAND FREE ENERGY PREDICTED BY IDOCK:  -10.22 KCAL/MOL
REMARK 924 INTRA-LIGAND FREE ENERGY PREDICTED BY IDOCK:   -3.19 KCAL/MOL
REMARK 927      BINDING AFFINITY PREDICTED BY RF-SCORE:    0.00 PKD
ROOT
HETATM    1  C   UNL     1     -12.322  12.149  63.418  1.00  0.00    -0.648 C  
HETATM    2  C   UNL     1     -10.838  11.832  63.335  1.00  0.00    -0.460 C  
ENDROOT
BRANCH   2   3
HETATM    3  C   UNL     1     -10.334  11.246  64.650  1.00  0.00    -0.373 C  
BRANCH   3   4
HETATM    4  C   UNL     1      -9.499   9.989  64.426  1.00  0.00    -0.349 C  
BRANCH   4   5
HETATM    5  C   UNL     1      -9.531   9.089  65.663  1.00  0.00    -0.273 C  
BRANCH   5   6
HETATM    6  C   UNL     1      -8.198   8.374  65.838  1.00  0.00    -0.123 C  
BRANCH   6   7
HETATM    7  C   UNL     1      -7.003   9.305  65.623  1.00  0.00    -0.082 C  
BRANCH   7   8
HETATM    8  C   UNL     1      -6.637   9.941  66.959  1.00  0.00    -0.070 C  
BRANCH   8   9
HETATM    9  C   UNL     1      -6.477  11.456  66.902  1.00  0.00    -0.138 C  
BRANCH   9  10
HETATM   10  C   UNL     1      -7.869  12.089  67.002  1.00  0.00    -0.138 C  
BRANCH  10  11
HETATM   11  C   UNL     1      -8.425  12.142  68.416  1.00  0.00    -0.145 C  
BRANCH  11  12
HETATM   12  C   UNL     1      -9.948  11.961  68.559  1.00  0.00    -0.192 C  
BRANCH  12  13
HETATM   13  C   UNL     1     -10.781  12.378  67.327  1.00  0.00    -0.259 C  
BRANCH  13  14
HETATM   14  C   UNL     1     -11.095  13.877  67.253  1.00  0.00    -0.299 C  
HETATM   15  O   UNL     1     -12.058  14.193  66.207  1.00  0.00    -0.412 OA 
HETATM   16  O   UNL     1     -11.370  15.603  64.519  1.00  0.00    -0.419 OA 
HETATM   17  C   UNL     1     -10.039  14.765  66.539  1.00  0.00    -0.281 C  
HETATM   18  C   UNL     1     -11.189  14.985  65.540  1.00  0.00    -0.344 C  
BRANCH  17  19
HETATM   19  C   UNL     1      -9.547  16.050  67.197  1.00  0.00    -0.224 C  
BRANCH  19  20
HETATM   20  C   UNL     1      -8.528  16.754  66.305  1.00  0.00    -0.342 C  
BRANCH  20  21
HETATM   21  C   UNL     1      -8.744  18.270  66.298  1.00  0.00    -0.199 C  
BRANCH  21  22
HETATM   22  C   UNL     1     -10.230  18.615  66.180  1.00  0.00    -0.450 C  
BRANCH  22  23
HETATM   23  C   UNL     1     -10.598  19.836  67.023  1.00  0.00    -0.586 C  
HETATM   24  C   UNL     1     -10.226  19.627  68.484  1.00  0.00    -0.529 C  
ENDBRANCH  22  23
ENDBRANCH  21  22
ENDBRANCH  20  21
ENDBRANCH  19  20
ENDBRANCH  17  19
ENDBRANCH  13  14
ENDBRANCH  12  13
BRANCH  12  25
HETATM   25  O   UNL     1     -10.275  10.583  68.853  1.00  0.00    -0.187 OA 
BRANCH  25  26
HETATM   26  C   UNL     1     -10.966  10.333  69.999  1.00  0.00    -0.311 C  
HETATM   27  O   UNL     1     -11.840  11.044  70.483  1.00  0.00    -0.331 OA 
BRANCH  26  28
HETATM   28  C   UNL     1     -10.527   9.011  70.622  1.00  0.00    -0.230 C  
BRANCH  28  29
HETATM   29  C   UNL     1      -9.455   8.306  69.776  1.00  0.00    -0.163 C  
HETATM   30  C   UNL     1     -10.897   6.576  68.516  1.00  0.00    -0.353 C  
HETATM   31  C   UNL     1      -8.446   6.246  68.769  1.00  0.00    -0.119 C  
HETATM   32  C   UNL     1      -9.699   6.818  69.437  1.00  0.00    -0.155 C  
ENDBRANCH  28  29
BRANCH  28  33
HETATM   33  N   UNL     1     -11.711   8.185  70.854  1.00  0.00    -0.351 N  
HETATM   34  C   UNL     1     -11.990   7.618  72.065  1.00  0.00    -0.302 C  
HETATM   35  O   UNL     1     -11.285   7.690  73.059  1.00  0.00    -0.384 OA 
HETATM   36  H   UNL     1     -12.356   8.025  70.079  1.00  0.00     0.000 HD 
ENDBRANCH  28  33
ENDBRANCH  26  28
ENDBRANCH  25  26
ENDBRANCH  12  25
ENDBRANCH  11  12
ENDBRANCH  10  11
ENDBRANCH   9  10
ENDBRANCH   8   9
ENDBRANCH   7   8
ENDBRANCH   6   7
ENDBRANCH   5   6
ENDBRANCH   4   5
ENDBRANCH   3   4
ENDBRANCH   2   3
TORSDOF 22
ENDMDL
MODEL      159
REMARK 921   NORMALIZED FREE ENERGY PREDICTED BY IDOCK:   -4.28 KCAL/MOL
REMARK 922        TOTAL FREE ENERGY PREDICTED BY IDOCK:  -13.39 KCAL/MOL
REMARK 923 INTER-LIGAND FREE ENERGY PREDICTED BY IDOCK:   -9.87 KCAL/MOL
REMARK 924 INTRA-LIGAND FREE ENERGY PREDICTED BY IDOCK:   -3.52 KCAL/MOL
REMARK 927      BINDING AFFINITY PREDICTED BY RF-SCORE:    0.00 PKD
ROOT
HETATM    1  C   UNL     1     -10.401   6.780  67.503  1.00  0.00    -0.267 C  
HETATM    2  C   UNL     1     -10.163   5.962  68.762  1.00  0.00    -0.243 C  
ENDROOT
BRANCH   2   3
HETATM    3  C   UNL     1     -11.333   6.106  69.731  1.00  0.00    -0.452 C  
BRANCH   3   4
HETATM    4  C   UNL     1     -10.918   5.801  71.168  1.00  0.00    -0.295 C  
BRANCH   4   5
HETATM    5  C   UNL     1     -12.024   6.199  72.148  1.00  0.00    -0.314 C  
BRANCH   5   6
HETATM    6  C   UNL     1     -12.878   7.318  71.565  1.00  0.00    -0.430 C  
BRANCH   6   7
HETATM    7  C   UNL     1     -12.740   8.624  72.349  1.00  0.00    -0.423 C  
BRANCH   7   8
HETATM    8  C   UNL     1     -11.902   9.596  71.526  1.00  0.00    -0.483 C  
BRANCH   8   9
HETATM    9  C   UNL     1     -10.409   9.285  71.530  1.00  0.00    -0.364 C  
BRANCH   9  10
HETATM   10  C   UNL     1      -9.882   9.445  70.100  1.00  0.00    -0.272 C  
BRANCH  10  11
HETATM   11  C   UNL     1     -10.894  10.033  69.129  1.00  0.00    -0.253 C  
BRANCH  11  12
HETATM   12  C   UNL     1     -10.361  11.089  68.143  1.00  0.00    -0.182 C  
BRANCH  12  13
HETATM   13  C   UNL     1      -9.768  10.529  66.832  1.00  0.00    -0.218 C  
BRANCH  13  14
HETATM   14  C   UNL     1      -8.271  10.205  66.903  1.00  0.00    -0.122 C  
HETATM   15  O   UNL     1      -7.594  10.929  67.970  1.00  0.00    -0.088 OA 
HETATM   16  O   UNL     1      -5.902  12.375  67.371  1.00  0.00    -0.132 OA 
HETATM   17  C   UNL     1      -7.365  10.916  65.859  1.00  0.00    -0.041 C  
HETATM   18  C   UNL     1      -6.771  11.575  67.116  1.00  0.00    -0.129 C  
BRANCH  17  19
HETATM   19  C   UNL     1      -6.350  10.112  65.052  1.00  0.00    -0.123 C  
BRANCH  19  20
HETATM   20  C   UNL     1      -7.034   8.953  64.333  1.00  0.00    -0.088 C  
BRANCH  20  21
HETATM   21  C   UNL     1      -7.202   9.243  62.839  1.00  0.00    -0.101 C  
BRANCH  21  22
HETATM   22  C   UNL     1      -8.669   9.494  62.487  1.00  0.00    -0.233 C  
BRANCH  22  23
HETATM   23  C   UNL     1      -8.972  10.985  62.343  1.00  0.00    -0.345 C  
HETATM   24  C   UNL     1     -10.095  11.410  63.279  1.00  0.00    -0.424 C  
ENDBRANCH  22  23
ENDBRANCH  21  22
ENDBRANCH  20  21
ENDBRANCH  19  20
ENDBRANCH  17  19
ENDBRANCH  13  14
ENDBRANCH  12  13
BRANCH  12  25
HETATM   25  O   UNL     1     -11.405  12.022  67.778  1.00  0.00    -0.260 OA 
BRANCH  25  26
HETATM   26  C   UNL     1     -11.421  13.226  68.416  1.00  0.00    -0.314 C  
HETATM   27  O   UNL     1     -11.424  13.398  69.630  1.00  0.00    -0.261 OA 
BRANCH  26  28
HETATM   28  C   UNL     1     -11.414  14.374  67.410  1.00  0.00    -0.358 C  
BRANCH  28  29
HETATM   29  C   UNL     1     -11.311  15.742  68.102  1.00  0.00    -0.337 C  
HETATM   30  C   UNL     1     -10.303  17.167  66.201  1.00  0.00    -0.327 C  
HETATM   31  C   UNL     1     -10.105  17.887  68.572  1.00  0.00    -0.392 C  
HETATM   32  C   UNL     1     -10.165  16.672  67.642  1.00  0.00    -0.285 C  
ENDBRANCH  28  29
BRANCH  28  33
HETATM   33  N   UNL     1     -12.590  14.251  66.549  1.00  0.00    -0.500 N  
HETATM   34  C   UNL     1     -12.501  14.100  65.195  1.00  0.00    -0.439 C  
HETATM   35  O   UNL     1     -11.463  14.096  64.550  1.00  0.00    -0.379 OA 
HETATM   36  H   UNL     1     -13.515  14.280  66.978  1.00  0.00     0.000 HD 
ENDBRANCH  28  33
ENDBRANCH  26  28
ENDBRANCH  25  26
ENDBRANCH  12  25
ENDBRANCH  11  12
ENDBRANCH  10  11
ENDBRANCH   9  10
ENDBRANCH   8   9
ENDBRANCH   7   8
ENDBRANCH   6   7
ENDBRANCH   5   6
ENDBRANCH   4   5
ENDBRANCH   3   4
ENDBRANCH   2   3
TORSDOF 22
ENDMDL
MODEL      160
REMARK 921   NORMALIZED FREE ENERGY PREDICTED BY IDOCK:   -4.27 KCAL/MOL
REMARK 922        TOTAL FREE ENERGY PREDICTED BY IDOCK:  -13.39 KCAL/MOL
REMARK 923 INTER-LIGAND FREE ENERGY PREDICTED BY IDOCK:   -9.40 KCAL/MOL
REMARK 924 INTRA-LIGAND FREE ENERGY PREDICTED BY IDOCK:   -3.99 KCAL/MOL
REMARK 927      BINDING AFFINITY PREDICTED BY RF-SCORE:    0.00 PKD
ROOT
HETATM    1  C   UNL     1     -13.462  13.279  72.262  1.00  0.00    -0.679 C  
HETATM    2  C   UNL     1     -13.409  11.788  71.973  1.00  0.00    -0.417 C  
ENDROOT
BRANCH   2   3
HETATM    3  C   UNL     1     -12.423  11.488  70.847  1.00  0.00    -0.464 C  
BRANCH   3   4
HETATM    4  C   UNL     1     -11.606  10.231  71.129  1.00  0.00    -0.385 C  
BRANCH   4   5
HETATM    5  C   UNL     1     -12.441   9.202  71.894  1.00  0.00    -0.459 C  
BRANCH   5   6
HETATM    6  C   UNL     1     -11.568   8.043  72.357  1.00  0.00    -0.450 C  
BRANCH   6   7
HETATM    7  C   UNL     1     -11.899   6.737  71.632  1.00  0.00    -0.370 C  
BRANCH   7   8
HETATM    8  C   UNL     1     -10.793   6.448  70.624  1.00  0.00    -0.331 C  
BRANCH   8   9
HETATM    9  C   UNL     1     -11.293   6.222  69.201  1.00  0.00    -0.358 C  
BRANCH   9  10
HETATM   10  C   UNL     1     -10.491   7.126  68.261  1.00  0.00    -0.235 C  
BRANCH  10  11
HETATM   11  C   UNL     1     -10.534   8.601  68.632  1.00  0.00    -0.208 C  
BRANCH  11  12
HETATM   12  C   UNL     1     -10.062   9.592  67.552  1.00  0.00    -0.204 C  
BRANCH  12  13
HETATM   13  C   UNL     1      -9.978   9.018  66.120  1.00  0.00    -0.311 C  
BRANCH  13  14
HETATM   14  C   UNL     1      -8.551   8.882  65.576  1.00  0.00    -0.168 C  
HETATM   15  O   UNL     1      -8.504   8.915  64.121  1.00  0.00    -0.178 OA 
HETATM   16  O   UNL     1      -7.677   7.056  63.039  1.00  0.00    -0.103 OA 
HETATM   17  C   UNL     1      -7.959   7.445  65.554  1.00  0.00    -0.122 C  
HETATM   18  C   UNL     1      -7.982   7.672  64.032  1.00  0.00    -0.099 C  
BRANCH  17  19
HETATM   19  C   UNL     1      -6.564   7.182  66.112  1.00  0.00    -0.052 C  
BRANCH  19  20
HETATM   20  C   UNL     1      -6.262   8.129  67.269  1.00  0.00    -0.055 C  
BRANCH  20  21
HETATM   21  C   UNL     1      -6.894   7.638  68.575  1.00  0.00    -0.066 C  
BRANCH  21  22
HETATM   22  C   UNL     1      -6.350   6.263  68.968  1.00  0.00    -0.041 C  
BRANCH  22  23
HETATM   23  C   UNL     1      -7.466   5.313  69.404  1.00  0.00    -0.065 C  
HETATM   24  C   UNL     1      -7.895   4.408  68.257  1.00  0.00    -0.079 C  
ENDBRANCH  22  23
ENDBRANCH  21  22
ENDBRANCH  20  21
ENDBRANCH  19  20
ENDBRANCH  17  19
ENDBRANCH  13  14
ENDBRANCH  12  13
BRANCH  12  25
HETATM   25  O   UNL     1     -10.931  10.747  67.501  1.00  0.00    -0.273 OA 
BRANCH  25  26
HETATM   26  C   UNL     1     -10.366  11.967  67.718  1.00  0.00    -0.198 C  
HETATM   27  O   UNL     1      -9.335  12.182  68.346  1.00  0.00    -0.203 OA 
BRANCH  26  28
HETATM   28  C   UNL     1     -11.179  13.070  67.047  1.00  0.00    -0.289 C  
BRANCH  28  29
HETATM   29  C   UNL     1     -11.965  13.906  68.069  1.00  0.00    -0.390 C  
HETATM   30  C   UNL     1     -10.836  16.208  67.776  1.00  0.00    -0.318 C  
HETATM   31  C   UNL     1     -12.084  15.659  69.855  1.00  0.00    -0.360 C  
HETATM   32  C   UNL     1     -11.213  15.079  68.738  1.00  0.00    -0.288 C  
ENDBRANCH  28  29
BRANCH  28  33
HETATM   33  N   UNL     1     -12.029  12.469  66.020  1.00  0.00    -0.421 N  
HETATM   34  C   UNL     1     -11.909  12.770  64.693  1.00  0.00    -0.374 C  
HETATM   35  O   UNL     1     -11.134  13.587  64.220  1.00  0.00    -0.381 OA 
HETATM   36  H   UNL     1     -12.741  11.796  66.306  1.00  0.00     0.000 HD 
ENDBRANCH  28  33
ENDBRANCH  26  28
ENDBRANCH  25  26
ENDBRANCH  12  25
ENDBRANCH  11  12
ENDBRANCH  10  11
ENDBRANCH   9  10
ENDBRANCH   8   9
ENDBRANCH   7   8
ENDBRANCH   6   7
ENDBRANCH   5   6
ENDBRANCH   4   5
ENDBRANCH   3   4
ENDBRANCH   2   3
TORSDOF 22
ENDMDL
MODEL      161
REMARK 921   NORMALIZED FREE ENERGY PREDICTED BY IDOCK:   -4.27 KCAL/MOL
REMARK 922        TOTAL FREE ENERGY PREDICTED BY IDOCK:  -13.38 KCAL/MOL
REMARK 923 INTER-LIGAND FREE ENERGY PREDICTED BY IDOCK:   -9.59 KCAL/MOL
REMARK 924 INTRA-LIGAND FREE ENERGY PREDICTED BY IDOCK:   -3.80 KCAL/MOL
REMARK 927      BINDING AFFINITY PREDICTED BY RF-SCORE:    0.00 PKD
ROOT
HETATM    1  C   UNL     1     -10.519  19.428  65.992  1.00  0.00    -0.596 C  
HETATM    2  C   UNL     1     -10.613  18.848  67.394  1.00  0.00    -0.534 C  
ENDROOT
BRANCH   2   3
HETATM    3  C   UNL     1     -10.497  17.327  67.361  1.00  0.00    -0.338 C  
BRANCH   3   4
HETATM    4  C   UNL     1      -9.350  16.865  66.468  1.00  0.00    -0.293 C  
BRANCH   4   5
HETATM    5  C   UNL     1      -9.745  15.614  65.680  1.00  0.00    -0.348 C  
BRANCH   5   6
HETATM    6  C   UNL     1     -11.054  15.842  64.935  1.00  0.00    -0.400 C  
BRANCH   6   7
HETATM    7  C   UNL     1     -11.851  14.550  64.747  1.00  0.00    -0.446 C  
BRANCH   7   8
HETATM    8  C   UNL     1     -11.378  13.535  65.780  1.00  0.00    -0.318 C  
BRANCH   8   9
HETATM    9  C   UNL     1     -12.268  13.446  67.016  1.00  0.00    -0.321 C  
BRANCH   9  10
HETATM   10  C   UNL     1     -11.373  13.507  68.257  1.00  0.00    -0.328 C  
BRANCH  10  11
HETATM   11  C   UNL     1     -10.315  12.416  68.314  1.00  0.00    -0.232 C  
BRANCH  11  12
HETATM   12  C   UNL     1     -10.825  10.981  68.544  1.00  0.00    -0.213 C  
BRANCH  12  13
HETATM   13  C   UNL     1     -10.363   9.941  67.500  1.00  0.00    -0.289 C  
BRANCH  13  14
HETATM   14  C   UNL     1      -9.540  10.525  66.345  1.00  0.00    -0.177 C  
HETATM   15  O   UNL     1     -10.041  10.115  65.041  1.00  0.00    -0.330 OA 
HETATM   16  O   UNL     1      -8.621   8.903  63.688  1.00  0.00    -0.175 OA 
HETATM   17  C   UNL     1      -8.189   9.819  66.040  1.00  0.00    -0.117 C  
HETATM   18  C   UNL     1      -8.890   9.488  64.710  1.00  0.00    -0.207 C  
BRANCH  17  19
HETATM   19  C   UNL     1      -6.916  10.642  65.872  1.00  0.00    -0.116 C  
BRANCH  19  20
HETATM   20  C   UNL     1      -6.909  11.823  66.838  1.00  0.00    -0.104 C  
BRANCH  20  21
HETATM   21  C   UNL     1      -5.500  12.102  67.370  1.00  0.00    -0.124 C  
BRANCH  21  22
HETATM   22  C   UNL     1      -5.257  11.379  68.696  1.00  0.00    -0.043 C  
BRANCH  22  23
HETATM   23  C   UNL     1      -6.455  11.501  69.638  1.00  0.00    -0.129 C  
HETATM   24  C   UNL     1      -6.930  10.131  70.102  1.00  0.00    -0.157 C  
ENDBRANCH  22  23
ENDBRANCH  21  22
ENDBRANCH  20  21
ENDBRANCH  19  20
ENDBRANCH  17  19
ENDBRANCH  13  14
ENDBRANCH  12  13
BRANCH  12  25
HETATM   25  O   UNL     1     -10.417  10.495  69.844  1.00  0.00    -0.241 OA 
BRANCH  25  26
HETATM   26  C   UNL     1     -11.390  10.315  70.780  1.00  0.00    -0.337 C  
HETATM   27  O   UNL     1     -12.245  11.135  71.097  1.00  0.00    -0.338 OA 
BRANCH  26  28
HETATM   28  C   UNL     1     -11.304   8.921  71.394  1.00  0.00    -0.309 C  
BRANCH  28  29
HETATM   29  C   UNL     1      -9.851   8.507  71.676  1.00  0.00    -0.317 C  
HETATM   30  C   UNL     1     -10.158   7.109  73.823  1.00  0.00    -0.391 C  
HETATM   31  C   UNL     1      -7.946   8.087  73.248  1.00  0.00    -0.230 C  
HETATM   32  C   UNL     1      -9.460   8.296  73.156  1.00  0.00    -0.263 C  
ENDBRANCH  28  29
BRANCH  28  33
HETATM   33  N   UNL     1     -12.012   7.981  70.526  1.00  0.00    -0.483 N  
HETATM   34  C   UNL     1     -12.908   7.067  71.003  1.00  0.00    -0.196 C  
HETATM   35  O   UNL     1     -13.185   6.895  72.180  1.00  0.00    -0.145 OA 
HETATM   36  H   UNL     1     -11.830   8.009  69.522  1.00  0.00     0.000 HD 
ENDBRANCH  28  33
ENDBRANCH  26  28
ENDBRANCH  25  26
ENDBRANCH  12  25
ENDBRANCH  11  12
ENDBRANCH  10  11
ENDBRANCH   9  10
ENDBRANCH   8   9
ENDBRANCH   7   8
ENDBRANCH   6   7
ENDBRANCH   5   6
ENDBRANCH   4   5
ENDBRANCH   3   4
ENDBRANCH   2   3
TORSDOF 22
ENDMDL
MODEL      162
REMARK 921   NORMALIZED FREE ENERGY PREDICTED BY IDOCK:   -4.27 KCAL/MOL
REMARK 922        TOTAL FREE ENERGY PREDICTED BY IDOCK:  -13.37 KCAL/MOL
REMARK 923 INTER-LIGAND FREE ENERGY PREDICTED BY IDOCK:   -9.79 KCAL/MOL
REMARK 924 INTRA-LIGAND FREE ENERGY PREDICTED BY IDOCK:   -3.59 KCAL/MOL
REMARK 927      BINDING AFFINITY PREDICTED BY RF-SCORE:    0.00 PKD
ROOT
HETATM    1  C   UNL     1     -13.152  11.890  71.878  1.00  0.00    -0.474 C  
HETATM    2  C   UNL     1     -12.178  11.733  70.722  1.00  0.00    -0.424 C  
ENDROOT
BRANCH   2   3
HETATM    3  C   UNL     1     -12.014  10.262  70.348  1.00  0.00    -0.391 C  
BRANCH   3   4
HETATM    4  C   UNL     1     -10.643   9.726  70.748  1.00  0.00    -0.371 C  
BRANCH   4   5
HETATM    5  C   UNL     1     -10.764   8.744  71.915  1.00  0.00    -0.429 C  
BRANCH   5   6
HETATM    6  C   UNL     1     -12.181   8.192  72.004  1.00  0.00    -0.385 C  
BRANCH   6   7
HETATM    7  C   UNL     1     -12.258   6.716  71.606  1.00  0.00    -0.401 C  
BRANCH   7   8
HETATM    8  C   UNL     1     -10.887   6.085  71.818  1.00  0.00    -0.312 C  
BRANCH   8   9
HETATM    9  C   UNL     1     -10.422   5.207  70.660  1.00  0.00    -0.269 C  
BRANCH   9  10
HETATM   10  C   UNL     1     -10.792   5.907  69.349  1.00  0.00    -0.422 C  
BRANCH  10  11
HETATM   11  C   UNL     1      -9.639   6.656  68.699  1.00  0.00    -0.130 C  
BRANCH  11  12
HETATM   12  C   UNL     1      -9.793   6.982  67.202  1.00  0.00    -0.173 C  
BRANCH  12  13
HETATM   13  C   UNL     1     -10.526   8.304  66.887  1.00  0.00    -0.365 C  
BRANCH  13  14
HETATM   14  C   UNL     1      -9.598   9.501  66.648  1.00  0.00    -0.188 C  
HETATM   15  O   UNL     1      -9.096  10.073  67.889  1.00  0.00    -0.131 OA 
HETATM   16  O   UNL     1      -9.631  12.268  68.345  1.00  0.00    -0.213 OA 
HETATM   17  C   UNL     1     -10.292  10.852  66.316  1.00  0.00    -0.306 C  
HETATM   18  C   UNL     1      -9.668  11.275  67.659  1.00  0.00    -0.171 C  
BRANCH  17  19
HETATM   19  C   UNL     1      -9.818  11.687  65.131  1.00  0.00    -0.281 C  
BRANCH  19  20
HETATM   20  C   UNL     1     -10.645  11.372  63.888  1.00  0.00    -0.452 C  
BRANCH  20  21
HETATM   21  C   UNL     1     -11.412  12.604  63.400  1.00  0.00    -0.499 C  
BRANCH  21  22
HETATM   22  C   UNL     1     -12.288  13.185  64.511  1.00  0.00    -0.447 C  
BRANCH  22  23
HETATM   23  C   UNL     1     -12.200  14.711  64.565  1.00  0.00    -0.473 C  
HETATM   24  C   UNL     1     -10.892  15.163  65.198  1.00  0.00    -0.437 C  
ENDBRANCH  22  23
ENDBRANCH  21  22
ENDBRANCH  20  21
ENDBRANCH  19  20
ENDBRANCH  17  19
ENDBRANCH  13  14
ENDBRANCH  12  13
BRANCH  12  25
HETATM   25  O   UNL     1      -8.500   7.043  66.555  1.00  0.00    -0.115 OA 
BRANCH  25  26
HETATM   26  C   UNL     1      -8.399   6.508  65.306  1.00  0.00    -0.121 C  
HETATM   27  O   UNL     1      -7.996   7.090  64.305  1.00  0.00    -0.127 OA 
BRANCH  26  28
HETATM   28  C   UNL     1      -8.839   5.048  65.302  1.00  0.00    -0.153 C  
BRANCH  28  29
HETATM   29  C   UNL     1      -7.791   4.131  65.953  1.00  0.00    -0.094 C  
HETATM   30  C   UNL     1      -9.239   2.918  67.711  1.00  0.00    -0.250 C  
HETATM   31  C   UNL     1      -6.767   3.030  67.958  1.00  0.00    -0.044 C  
HETATM   32  C   UNL     1      -8.002   3.776  67.442  1.00  0.00    -0.090 C  
ENDBRANCH  28  29
BRANCH  28  33
HETATM   33  N   UNL     1      -9.171   4.661  63.932  1.00  0.00    -0.300 N  
HETATM   34  C   UNL     1     -10.342   4.038  63.604  1.00  0.00    -0.128 C  
HETATM   35  O   UNL     1     -11.207   3.696  64.395  1.00  0.00    -0.219 OA 
HETATM   36  H   UNL     1      -8.501   4.864  63.190  1.00  0.00     0.000 HD 
ENDBRANCH  28  33
ENDBRANCH  26  28
ENDBRANCH  25  26
ENDBRANCH  12  25
ENDBRANCH  11  12
ENDBRANCH  10  11
ENDBRANCH   9  10
ENDBRANCH   8   9
ENDBRANCH   7   8
ENDBRANCH   6   7
ENDBRANCH   5   6
ENDBRANCH   4   5
ENDBRANCH   3   4
ENDBRANCH   2   3
TORSDOF 22
ENDMDL
MODEL      163
REMARK 921   NORMALIZED FREE ENERGY PREDICTED BY IDOCK:   -4.25 KCAL/MOL
REMARK 922        TOTAL FREE ENERGY PREDICTED BY IDOCK:  -13.34 KCAL/MOL
REMARK 923 INTER-LIGAND FREE ENERGY PREDICTED BY IDOCK:   -9.29 KCAL/MOL
REMARK 924 INTRA-LIGAND FREE ENERGY PREDICTED BY IDOCK:   -4.05 KCAL/MOL
REMARK 927      BINDING AFFINITY PREDICTED BY RF-SCORE:    0.00 PKD
ROOT
HETATM    1  C   UNL     1     -12.501  11.902  70.966  1.00  0.00    -0.390 C  
HETATM    2  C   UNL     1     -13.486  12.110  72.105  1.00  0.00    -0.383 C  
ENDROOT
BRANCH   2   3
HETATM    3  C   UNL     1     -13.590  13.588  72.470  1.00  0.00    -0.674 C  
BRANCH   3   4
HETATM    4  C   UNL     1     -13.666  14.473  71.229  1.00  0.00    -0.407 C  
BRANCH   4   5
HETATM    5  C   UNL     1     -12.677  15.636  71.330  1.00  0.00    -0.535 C  
BRANCH   5   6
HETATM    6  C   UNL     1     -11.334  15.250  70.724  1.00  0.00    -0.365 C  
BRANCH   6   7
HETATM    7  C   UNL     1     -11.044  16.001  69.423  1.00  0.00    -0.331 C  
BRANCH   7   8
HETATM    8  C   UNL     1     -10.660  14.985  68.353  1.00  0.00    -0.239 C  
BRANCH   8   9
HETATM    9  C   UNL     1     -11.850  14.280  67.711  1.00  0.00    -0.414 C  
BRANCH   9  10
HETATM   10  C   UNL     1     -11.542  12.780  67.649  1.00  0.00    -0.412 C  
BRANCH  10  11
HETATM   11  C   UNL     1     -10.260  12.440  66.905  1.00  0.00    -0.238 C  
BRANCH  11  12
HETATM   12  C   UNL     1      -9.579  11.114  67.288  1.00  0.00    -0.165 C  
BRANCH  12  13
HETATM   13  C   UNL     1      -9.536  10.806  68.801  1.00  0.00    -0.187 C  
BRANCH  13  14
HETATM   14  C   UNL     1      -8.139  10.479  69.341  1.00  0.00    -0.128 C  
HETATM   15  O   UNL     1      -7.159  10.299  68.279  1.00  0.00    -0.076 OA 
HETATM   16  O   UNL     1      -6.131   8.242  68.114  1.00  0.00    -0.047 OA 
HETATM   17  C   UNL     1      -7.905   9.010  69.794  1.00  0.00    -0.086 C  
HETATM   18  C   UNL     1      -6.904   9.017  68.624  1.00  0.00    -0.063 C  
BRANCH  17  19
HETATM   19  C   UNL     1      -7.264   8.718  71.146  1.00  0.00    -0.097 C  
BRANCH  19  20
HETATM   20  C   UNL     1      -8.334   8.491  72.210  1.00  0.00    -0.184 C  
BRANCH  20  21
HETATM   21  C   UNL     1      -9.622   7.934  71.597  1.00  0.00    -0.206 C  
BRANCH  21  22
HETATM   22  C   UNL     1     -10.809   8.860  71.869  1.00  0.00    -0.433 C  
BRANCH  22  23
HETATM   23  C   UNL     1     -11.978   8.113  72.509  1.00  0.00    -0.410 C  
HETATM   24  C   UNL     1     -13.271   8.358  71.744  1.00  0.00    -0.376 C  
ENDBRANCH  22  23
ENDBRANCH  21  22
ENDBRANCH  20  21
ENDBRANCH  19  20
ENDBRANCH  17  19
ENDBRANCH  13  14
ENDBRANCH  12  13
BRANCH  12  25
HETATM   25  O   UNL     1     -10.231   9.997  66.641  1.00  0.00    -0.217 OA 
BRANCH  25  26
HETATM   26  C   UNL     1      -9.635   9.480  65.531  1.00  0.00    -0.279 C  
HETATM   27  O   UNL     1      -9.386  10.090  64.497  1.00  0.00    -0.248 OA 
BRANCH  26  28
HETATM   28  C   UNL     1      -9.282   8.010  65.737  1.00  0.00    -0.005 C  
BRANCH  28  29
HETATM   29  C   UNL     1      -9.633   7.529  67.154  1.00  0.00    -0.207 C  
HETATM   30  C   UNL     1     -10.321   5.088  66.674  1.00  0.00    -0.312 C  
HETATM   31  C   UNL     1     -11.071   6.237  68.747  1.00  0.00    -0.424 C  
HETATM   32  C   UNL     1     -10.723   6.439  67.270  1.00  0.00    -0.426 C  
ENDBRANCH  28  29
BRANCH  28  33
HETATM   33  N   UNL     1      -7.874   7.813  65.395  1.00  0.00    -0.106 N  
HETATM   34  C   UNL     1      -7.446   6.799  64.586  1.00  0.00    -0.097 C  
HETATM   35  O   UNL     1      -8.156   5.932  64.101  1.00  0.00    -0.122 OA 
HETATM   36  H   UNL     1      -7.182   8.459  65.776  1.00  0.00     0.000 HD 
ENDBRANCH  28  33
ENDBRANCH  26  28
ENDBRANCH  25  26
ENDBRANCH  12  25
ENDBRANCH  11  12
ENDBRANCH  10  11
ENDBRANCH   9  10
ENDBRANCH   8   9
ENDBRANCH   7   8
ENDBRANCH   6   7
ENDBRANCH   5   6
ENDBRANCH   4   5
ENDBRANCH   3   4
ENDBRANCH   2   3
TORSDOF 22
ENDMDL
MODEL      164
REMARK 921   NORMALIZED FREE ENERGY PREDICTED BY IDOCK:   -4.25 KCAL/MOL
REMARK 922        TOTAL FREE ENERGY PREDICTED BY IDOCK:  -13.33 KCAL/MOL
REMARK 923 INTER-LIGAND FREE ENERGY PREDICTED BY IDOCK:   -9.89 KCAL/MOL
REMARK 924 INTRA-LIGAND FREE ENERGY PREDICTED BY IDOCK:   -3.45 KCAL/MOL
REMARK 927      BINDING AFFINITY PREDICTED BY RF-SCORE:    0.00 PKD
ROOT
HETATM    1  C   UNL     1     -14.197  15.203  71.923  1.00  0.00    -0.676 C  
HETATM    2  C   UNL     1     -12.982  15.885  72.531  1.00  0.00    -0.534 C  
ENDROOT
BRANCH   2   3
HETATM    3  C   UNL     1     -11.852  15.990  71.511  1.00  0.00    -0.554 C  
BRANCH   3   4
HETATM    4  C   UNL     1     -12.007  14.970  70.387  1.00  0.00    -0.372 C  
BRANCH   4   5
HETATM    5  C   UNL     1     -11.827  15.636  69.021  1.00  0.00    -0.379 C  
BRANCH   5   6
HETATM    6  C   UNL     1     -10.857  16.806  69.120  1.00  0.00    -0.287 C  
BRANCH   6   7
HETATM    7  C   UNL     1     -10.654  17.510  67.777  1.00  0.00    -0.375 C  
BRANCH   7   8
HETATM    8  C   UNL     1      -9.237  17.229  67.292  1.00  0.00    -0.233 C  
BRANCH   8   9
HETATM    9  C   UNL     1      -8.218  17.062  68.415  1.00  0.00    -0.250 C  
BRANCH   9  10
HETATM   10  C   UNL     1      -7.391  15.804  68.129  1.00  0.00    -0.130 C  
BRANCH  10  11
HETATM   11  C   UNL     1      -8.105  14.504  68.464  1.00  0.00    -0.148 C  
BRANCH  11  12
HETATM   12  C   UNL     1      -7.991  13.374  67.423  1.00  0.00    -0.163 C  
BRANCH  12  13
HETATM   13  C   UNL     1      -6.861  12.353  67.678  1.00  0.00    -0.132 C  
BRANCH  13  14
HETATM   14  C   UNL     1      -6.932  11.657  69.042  1.00  0.00    -0.111 C  
HETATM   15  O   UNL     1      -5.638  11.152  69.478  1.00  0.00    -0.041 OA 
HETATM   16  O   UNL     1      -5.438   8.880  69.812  1.00  0.00    -0.029 OA 
HETATM   17  C   UNL     1      -7.490  10.206  69.044  1.00  0.00    -0.091 C  
HETATM   18  C   UNL     1      -6.061   9.869  69.507  1.00  0.00    -0.044 C  
BRANCH  17  19
HETATM   19  C   UNL     1      -8.568   9.801  70.044  1.00  0.00    -0.229 C  
BRANCH  19  20
HETATM   20  C   UNL     1      -9.045   8.378  69.771  1.00  0.00    -0.153 C  
BRANCH  20  21
HETATM   21  C   UNL     1     -10.574   8.289  69.779  1.00  0.00    -0.228 C  
BRANCH  21  22
HETATM   22  C   UNL     1     -11.151   8.829  71.088  1.00  0.00    -0.340 C  
BRANCH  22  23
HETATM   23  C   UNL     1     -11.635   7.703  72.003  1.00  0.00    -0.334 C  
HETATM   24  C   UNL     1     -10.698   7.518  73.188  1.00  0.00    -0.452 C  
ENDBRANCH  22  23
ENDBRANCH  21  22
ENDBRANCH  20  21
ENDBRANCH  19  20
ENDBRANCH  17  19
ENDBRANCH  13  14
ENDBRANCH  12  13
BRANCH  12  25
HETATM   25  O   UNL     1      -9.230  12.632  67.336  1.00  0.00    -0.178 OA 
BRANCH  25  26
HETATM   26  C   UNL     1     -10.020  12.857  66.250  1.00  0.00    -0.270 C  
HETATM   27  O   UNL     1     -10.089  13.902  65.612  1.00  0.00    -0.310 OA 
BRANCH  26  28
HETATM   28  C   UNL     1     -10.823  11.609  65.894  1.00  0.00    -0.287 C  
BRANCH  28  29
HETATM   29  C   UNL     1     -10.200  10.336  66.490  1.00  0.00    -0.289 C  
HETATM   30  C   UNL     1      -8.051  10.145  65.073  1.00  0.00    -0.149 C  
HETATM   31  C   UNL     1      -8.979   8.161  66.250  1.00  0.00    -0.215 C  
HETATM   32  C   UNL     1      -9.342   9.469  65.540  1.00  0.00    -0.317 C  
ENDBRANCH  28  29
BRANCH  28  33
HETATM   33  N   UNL     1     -10.978  11.548  64.441  1.00  0.00    -0.336 N  
HETATM   34  C   UNL     1     -12.133  11.903  63.806  1.00  0.00    -0.443 C  
HETATM   35  O   UNL     1     -13.163  12.260  64.357  1.00  0.00    -0.806 OA 
HETATM   36  H   UNL     1     -10.189  11.227  63.878  1.00  0.00     0.000 HD 
ENDBRANCH  28  33
ENDBRANCH  26  28
ENDBRANCH  25  26
ENDBRANCH  12  25
ENDBRANCH  11  12
ENDBRANCH  10  11
ENDBRANCH   9  10
ENDBRANCH   8   9
ENDBRANCH   7   8
ENDBRANCH   6   7
ENDBRANCH   5   6
ENDBRANCH   4   5
ENDBRANCH   3   4
ENDBRANCH   2   3
TORSDOF 22
ENDMDL
MODEL      165
REMARK 921   NORMALIZED FREE ENERGY PREDICTED BY IDOCK:   -4.25 KCAL/MOL
REMARK 922        TOTAL FREE ENERGY PREDICTED BY IDOCK:  -13.33 KCAL/MOL
REMARK 923 INTER-LIGAND FREE ENERGY PREDICTED BY IDOCK:   -9.91 KCAL/MOL
REMARK 924 INTRA-LIGAND FREE ENERGY PREDICTED BY IDOCK:   -3.42 KCAL/MOL
REMARK 927      BINDING AFFINITY PREDICTED BY RF-SCORE:    0.00 PKD
ROOT
HETATM    1  C   UNL     1     -13.725  13.351  72.358  1.00  0.00    -0.698 C  
HETATM    2  C   UNL     1     -12.857  12.412  71.537  1.00  0.00    -0.377 C  
ENDROOT
BRANCH   2   3
HETATM    3  C   UNL     1     -13.148  10.956  71.890  1.00  0.00    -0.537 C  
BRANCH   3   4
HETATM    4  C   UNL     1     -12.512   9.994  70.892  1.00  0.00    -0.431 C  
BRANCH   4   5
HETATM    5  C   UNL     1     -11.812   8.843  71.617  1.00  0.00    -0.415 C  
BRANCH   5   6
HETATM    6  C   UNL     1     -12.590   7.546  71.439  1.00  0.00    -0.382 C  
BRANCH   6   7
HETATM    7  C   UNL     1     -11.899   6.578  70.477  1.00  0.00    -0.393 C  
BRANCH   7   8
HETATM    8  C   UNL     1     -10.397   6.837  70.526  1.00  0.00    -0.226 C  
BRANCH   8   9
HETATM    9  C   UNL     1      -9.733   6.895  69.154  1.00  0.00    -0.155 C  
BRANCH   9  10
HETATM   10  C   UNL     1     -10.317   8.085  68.388  1.00  0.00    -0.236 C  
BRANCH  10  11
HETATM   11  C   UNL     1      -9.697   9.424  68.757  1.00  0.00    -0.161 C  
BRANCH  11  12
HETATM   12  C   UNL     1      -9.735  10.517  67.673  1.00  0.00    -0.165 C  
BRANCH  12  13
HETATM   13  C   UNL     1     -11.118  11.165  67.436  1.00  0.00    -0.370 C  
BRANCH  13  14
HETATM   14  C   UNL     1     -11.061  12.607  66.919  1.00  0.00    -0.273 C  
HETATM   15  O   UNL     1     -12.321  13.314  67.100  1.00  0.00    -0.280 OA 
HETATM   16  O   UNL     1     -13.394  14.079  65.209  1.00  0.00    -0.741 OA 
HETATM   17  C   UNL     1     -11.189  12.789  65.381  1.00  0.00    -0.327 C  
HETATM   18  C   UNL     1     -12.490  13.512  65.773  1.00  0.00    -0.462 C  
BRANCH  17  19
HETATM   19  C   UNL     1     -10.200  13.675  64.630  1.00  0.00    -0.338 C  
BRANCH  19  20
HETATM   20  C   UNL     1     -10.494  15.149  64.891  1.00  0.00    -0.350 C  
BRANCH  20  21
HETATM   21  C   UNL     1      -9.501  15.749  65.891  1.00  0.00    -0.377 C  
BRANCH  21  22
HETATM   22  C   UNL     1     -10.219  16.268  67.139  1.00  0.00    -0.276 C  
BRANCH  22  23
HETATM   23  C   UNL     1      -9.286  16.324  68.348  1.00  0.00    -0.210 C  
HETATM   24  C   UNL     1      -9.199  14.970  69.038  1.00  0.00    -0.205 C  
ENDBRANCH  22  23
ENDBRANCH  21  22
ENDBRANCH  20  21
ENDBRANCH  19  20
ENDBRANCH  17  19
ENDBRANCH  13  14
ENDBRANCH  12  13
BRANCH  12  25
HETATM   25  O   UNL     1      -8.810  11.584  67.988  1.00  0.00    -0.146 OA 
BRANCH  25  26
HETATM   26  C   UNL     1      -7.672  11.666  67.244  1.00  0.00    -0.154 C  
HETATM   27  O   UNL     1      -6.871  12.594  67.252  1.00  0.00    -0.153 OA 
BRANCH  26  28
HETATM   28  C   UNL     1      -7.491  10.417  66.387  1.00  0.00    -0.120 C  
BRANCH  28  29
HETATM   29  C   UNL     1      -6.283   9.581  66.838  1.00  0.00    -0.065 C  
HETATM   30  C   UNL     1      -7.181   7.192  66.451  1.00  0.00    -0.078 C  
HETATM   31  C   UNL     1      -5.288   7.602  68.010  1.00  0.00    -0.031 C  
HETATM   32  C   UNL     1      -6.584   8.191  67.444  1.00  0.00    -0.058 C  
ENDBRANCH  28  29
BRANCH  28  33
HETATM   33  N   UNL     1      -7.421  10.817  64.982  1.00  0.00    -0.358 N  
HETATM   34  C   UNL     1      -8.299  10.361  64.040  1.00  0.00    -0.139 C  
HETATM   35  O   UNL     1      -9.192   9.552  64.238  1.00  0.00    -0.229 OA 
HETATM   36  H   UNL     1      -6.687  11.464  64.694  1.00  0.00     0.000 HD 
ENDBRANCH  28  33
ENDBRANCH  26  28
ENDBRANCH  25  26
ENDBRANCH  12  25
ENDBRANCH  11  12
ENDBRANCH  10  11
ENDBRANCH   9  10
ENDBRANCH   8   9
ENDBRANCH   7   8
ENDBRANCH   6   7
ENDBRANCH   5   6
ENDBRANCH   4   5
ENDBRANCH   3   4
ENDBRANCH   2   3
TORSDOF 22
ENDMDL
MODEL      166
REMARK 921   NORMALIZED FREE ENERGY PREDICTED BY IDOCK:   -4.25 KCAL/MOL
REMARK 922        TOTAL FREE ENERGY PREDICTED BY IDOCK:  -13.33 KCAL/MOL
REMARK 923 INTER-LIGAND FREE ENERGY PREDICTED BY IDOCK:   -9.36 KCAL/MOL
REMARK 924 INTRA-LIGAND FREE ENERGY PREDICTED BY IDOCK:   -3.97 KCAL/MOL
REMARK 927      BINDING AFFINITY PREDICTED BY RF-SCORE:    0.00 PKD
ROOT
HETATM    1  C   UNL     1      -9.377   2.041  63.297  1.00  0.00    -0.093 C  
HETATM    2  C   UNL     1      -9.740   3.515  63.226  1.00  0.00    -0.129 C  
ENDROOT
BRANCH   2   3
HETATM    3  C   UNL     1     -10.620   3.915  64.408  1.00  0.00    -0.224 C  
BRANCH   3   4
HETATM    4  C   UNL     1      -9.804   4.099  65.684  1.00  0.00    -0.207 C  
BRANCH   4   5
HETATM    5  C   UNL     1     -10.599   4.887  66.727  1.00  0.00    -0.156 C  
BRANCH   5   6
HETATM    6  C   UNL     1     -10.331   6.380  66.587  1.00  0.00    -0.223 C  
BRANCH   6   7
HETATM    7  C   UNL     1      -8.905   6.675  66.118  1.00  0.00    -0.160 C  
BRANCH   7   8
HETATM    8  C   UNL     1      -8.558   8.110  66.499  1.00  0.00    -0.146 C  
BRANCH   8   9
HETATM    9  C   UNL     1      -9.645   8.820  67.299  1.00  0.00    -0.214 C  
BRANCH   9  10
HETATM   10  C   UNL     1      -9.058  10.122  67.854  1.00  0.00    -0.133 C  
BRANCH  10  11
HETATM   11  C   UNL     1      -9.850  10.716  69.009  1.00  0.00    -0.218 C  
BRANCH  11  12
HETATM   12  C   UNL     1     -11.346  10.360  69.067  1.00  0.00    -0.219 C  
BRANCH  12  13
HETATM   13  C   UNL     1     -11.964  10.334  70.483  1.00  0.00    -0.415 C  
BRANCH  13  14
HETATM   14  C   UNL     1     -12.347   8.934  70.980  1.00  0.00    -0.171 C  
HETATM   15  O   UNL     1     -12.366   8.846  72.433  1.00  0.00    -0.367 OA 
HETATM   16  O   UNL     1     -10.915   7.357  73.429  1.00  0.00    -0.378 OA 
HETATM   17  C   UNL     1     -11.224   7.860  70.937  1.00  0.00    -0.284 C  
HETATM   18  C   UNL     1     -11.397   7.904  72.466  1.00  0.00    -0.390 C  
BRANCH  17  19
HETATM   19  C   UNL     1     -11.499   6.489  70.330  1.00  0.00    -0.474 C  
BRANCH  19  20
HETATM   20  C   UNL     1     -10.209   5.682  70.221  1.00  0.00    -0.311 C  
BRANCH  20  21
HETATM   21  C   UNL     1      -8.989   6.595  70.069  1.00  0.00    -0.144 C  
BRANCH  21  22
HETATM   22  C   UNL     1      -7.815   5.846  69.436  1.00  0.00    -0.094 C  
BRANCH  22  23
HETATM   23  C   UNL     1      -8.101   4.351  69.300  1.00  0.00    -0.069 C  
HETATM   24  C   UNL     1      -7.192   3.710  68.260  1.00  0.00    -0.051 C  
ENDBRANCH  22  23
ENDBRANCH  21  22
ENDBRANCH  20  21
ENDBRANCH  19  20
ENDBRANCH  17  19
ENDBRANCH  13  14
ENDBRANCH  12  13
BRANCH  12  25
HETATM   25  O   UNL     1     -12.125  11.287  68.276  1.00  0.00    -0.619 OA 
BRANCH  25  26
HETATM   26  C   UNL     1     -11.923  12.617  68.489  1.00  0.00    -0.214 C  
HETATM   27  O   UNL     1     -11.990  13.192  69.570  1.00  0.00    -0.306 OA 
BRANCH  26  28
HETATM   28  C   UNL     1     -11.571  13.329  67.186  1.00  0.00    -0.357 C  
BRANCH  28  29
HETATM   29  C   UNL     1     -11.698  12.398  65.970  1.00  0.00    -0.469 C  
HETATM   30  C   UNL     1     -12.149  14.114  64.097  1.00  0.00    -0.437 C  
HETATM   31  C   UNL     1     -12.784  11.727  63.814  1.00  0.00    -0.369 C  
HETATM   32  C   UNL     1     -12.633  12.863  64.831  1.00  0.00    -0.525 C  
ENDBRANCH  28  29
BRANCH  28  33
HETATM   33  N   UNL     1     -10.241  13.923  67.320  1.00  0.00    -0.248 N  
HETATM   34  C   UNL     1     -10.045  15.260  67.514  1.00  0.00    -0.232 C  
HETATM   35  O   UNL     1     -10.926  16.106  67.553  1.00  0.00    -0.313 OA 
HETATM   36  H   UNL     1      -9.425  13.312  67.266  1.00  0.00     0.000 HD 
ENDBRANCH  28  33
ENDBRANCH  26  28
ENDBRANCH  25  26
ENDBRANCH  12  25
ENDBRANCH  11  12
ENDBRANCH  10  11
ENDBRANCH   9  10
ENDBRANCH   8   9
ENDBRANCH   7   8
ENDBRANCH   6   7
ENDBRANCH   5   6
ENDBRANCH   4   5
ENDBRANCH   3   4
ENDBRANCH   2   3
TORSDOF 22
ENDMDL
MODEL      167
REMARK 921   NORMALIZED FREE ENERGY PREDICTED BY IDOCK:   -4.24 KCAL/MOL
REMARK 922        TOTAL FREE ENERGY PREDICTED BY IDOCK:  -13.31 KCAL/MOL
REMARK 923 INTER-LIGAND FREE ENERGY PREDICTED BY IDOCK:  -10.25 KCAL/MOL
REMARK 924 INTRA-LIGAND FREE ENERGY PREDICTED BY IDOCK:   -3.06 KCAL/MOL
REMARK 927      BINDING AFFINITY PREDICTED BY RF-SCORE:    0.00 PKD
ROOT
HETATM    1  C   UNL     1     -12.906  15.947  73.475  1.00  0.00    -0.705 C  
HETATM    2  C   UNL     1     -13.759  15.331  72.377  1.00  0.00    -0.622 C  
ENDROOT
BRANCH   2   3
HETATM    3  C   UNL     1     -13.002  15.305  71.053  1.00  0.00    -0.526 C  
BRANCH   3   4
HETATM    4  C   UNL     1     -11.588  15.859  71.198  1.00  0.00    -0.481 C  
BRANCH   4   5
HETATM    5  C   UNL     1     -11.034  16.297  69.840  1.00  0.00    -0.365 C  
BRANCH   5   6
HETATM    6  C   UNL     1     -11.783  15.605  68.709  1.00  0.00    -0.382 C  
BRANCH   6   7
HETATM    7  C   UNL     1     -10.870  14.715  67.864  1.00  0.00    -0.261 C  
BRANCH   7   8
HETATM    8  C   UNL     1     -11.676  13.514  67.381  1.00  0.00    -0.419 C  
BRANCH   8   9
HETATM    9  C   UNL     1     -12.132  12.583  68.500  1.00  0.00    -0.129 C  
BRANCH   9  10
HETATM   10  C   UNL     1     -10.917  12.249  69.371  1.00  0.00    -0.092 C  
BRANCH  10  11
HETATM   11  C   UNL     1     -10.577  10.767  69.419  1.00  0.00    -0.254 C  
BRANCH  11  12
HETATM   12  C   UNL     1      -9.108  10.394  69.150  1.00  0.00    -0.187 C  
BRANCH  12  13
HETATM   13  C   UNL     1      -8.573   9.192  69.960  1.00  0.00    -0.172 C  
BRANCH  13  14
HETATM   14  C   UNL     1      -9.341   8.912  71.258  1.00  0.00    -0.266 C  
HETATM   15  O   UNL     1      -8.481   8.951  72.433  1.00  0.00    -0.396 OA 
HETATM   16  O   UNL     1      -8.298   7.023  73.683  1.00  0.00    -0.116 OA 
HETATM   17  C   UNL     1      -9.665   7.422  71.555  1.00  0.00    -0.170 C  
HETATM   18  C   UNL     1      -8.727   7.661  72.751  1.00  0.00    -0.140 C  
BRANCH  17  19
HETATM   19  C   UNL     1     -11.077   7.010  71.958  1.00  0.00    -0.276 C  
BRANCH  19  20
HETATM   20  C   UNL     1     -11.898   6.635  70.728  1.00  0.00    -0.441 C  
BRANCH  20  21
HETATM   21  C   UNL     1     -11.035   5.944  69.669  1.00  0.00    -0.447 C  
BRANCH  21  22
HETATM   22  C   UNL     1     -11.160   6.642  68.313  1.00  0.00    -0.283 C  
BRANCH  22  23
HETATM   23  C   UNL     1     -10.753   5.723  67.161  1.00  0.00    -0.358 C  
HETATM   24  C   UNL     1      -9.263   5.837  66.869  1.00  0.00    -0.124 C  
ENDBRANCH  22  23
ENDBRANCH  21  22
ENDBRANCH  20  21
ENDBRANCH  19  20
ENDBRANCH  17  19
ENDBRANCH  13  14
ENDBRANCH  12  13
BRANCH  12  25
HETATM   25  O   UNL     1      -8.904  10.093  67.750  1.00  0.00    -0.125 OA 
BRANCH  25  26
HETATM   26  C   UNL     1      -8.888  11.140  66.879  1.00  0.00    -0.157 C  
HETATM   27  O   UNL     1      -8.278  12.193  67.030  1.00  0.00    -0.173 OA 
BRANCH  26  28
HETATM   28  C   UNL     1      -9.727  10.832  65.643  1.00  0.00    -0.237 C  
BRANCH  28  29
HETATM   29  C   UNL     1      -9.321   9.502  64.989  1.00  0.00    -0.294 C  
HETATM   30  C   UNL     1      -6.865  10.001  64.373  1.00  0.00    -0.127 C  
HETATM   31  C   UNL     1      -8.123   8.192  63.221  1.00  0.00    -0.121 C  
HETATM   32  C   UNL     1      -8.247   9.569  63.879  1.00  0.00    -0.161 C  
ENDBRANCH  28  29
BRANCH  28  33
HETATM   33  N   UNL     1      -9.651  11.970  64.728  1.00  0.00    -0.443 N  
HETATM   34  C   UNL     1     -10.710  12.379  63.968  1.00  0.00    -0.404 C  
HETATM   35  O   UNL     1     -11.802  11.835  63.925  1.00  0.00    -0.396 OA 
HETATM   36  H   UNL     1      -8.770  12.480  64.654  1.00  0.00     0.000 HD 
ENDBRANCH  28  33
ENDBRANCH  26  28
ENDBRANCH  25  26
ENDBRANCH  12  25
ENDBRANCH  11  12
ENDBRANCH  10  11
ENDBRANCH   9  10
ENDBRANCH   8   9
ENDBRANCH   7   8
ENDBRANCH   6   7
ENDBRANCH   5   6
ENDBRANCH   4   5
ENDBRANCH   3   4
ENDBRANCH   2   3
TORSDOF 22
ENDMDL
MODEL      168
REMARK 921   NORMALIZED FREE ENERGY PREDICTED BY IDOCK:   -4.23 KCAL/MOL
REMARK 922        TOTAL FREE ENERGY PREDICTED BY IDOCK:  -13.29 KCAL/MOL
REMARK 923 INTER-LIGAND FREE ENERGY PREDICTED BY IDOCK:  -10.37 KCAL/MOL
REMARK 924 INTRA-LIGAND FREE ENERGY PREDICTED BY IDOCK:   -2.92 KCAL/MOL
REMARK 927      BINDING AFFINITY PREDICTED BY RF-SCORE:    0.00 PKD
ROOT
HETATM    1  C   UNL     1     -10.986   6.687  67.550  1.00  0.00    -0.416 C  
HETATM    2  C   UNL     1     -10.138   6.628  68.809  1.00  0.00    -0.168 C  
ENDROOT
BRANCH   2   3
HETATM    3  C   UNL     1     -10.806   5.761  69.873  1.00  0.00    -0.417 C  
BRANCH   3   4
HETATM    4  C   UNL     1     -10.661   6.364  71.267  1.00  0.00    -0.275 C  
BRANCH   4   5
HETATM    5  C   UNL     1     -11.993   6.322  72.018  1.00  0.00    -0.353 C  
BRANCH   5   6
HETATM    6  C   UNL     1     -12.973   7.324  71.424  1.00  0.00    -0.420 C  
BRANCH   6   7
HETATM    7  C   UNL     1     -13.087   8.598  72.263  1.00  0.00    -0.415 C  
BRANCH   7   8
HETATM    8  C   UNL     1     -12.785   9.796  71.370  1.00  0.00    -0.483 C  
BRANCH   8   9
HETATM    9  C   UNL     1     -11.309   9.953  71.020  1.00  0.00    -0.460 C  
BRANCH   9  10
HETATM   10  C   UNL     1     -11.201  10.272  69.526  1.00  0.00    -0.314 C  
BRANCH  10  11
HETATM   11  C   UNL     1     -12.216  11.293  69.035  1.00  0.00    -0.211 C  
BRANCH  11  12
HETATM   12  C   UNL     1     -11.648  12.535  68.323  1.00  0.00    -0.328 C  
BRANCH  12  13
HETATM   13  C   UNL     1     -11.659  12.474  66.780  1.00  0.00    -0.446 C  
BRANCH  13  14
HETATM   14  C   UNL     1     -10.271  12.352  66.141  1.00  0.00    -0.242 C  
HETATM   15  O   UNL     1     -10.332  11.906  64.756  1.00  0.00    -0.259 OA 
HETATM   16  O   UNL     1      -9.293   9.918  64.230  1.00  0.00    -0.266 OA 
HETATM   17  C   UNL     1      -9.457  11.079  66.506  1.00  0.00    -0.211 C  
HETATM   18  C   UNL     1      -9.623  10.783  65.004  1.00  0.00    -0.254 C  
BRANCH  17  19
HETATM   19  C   UNL     1      -8.003  11.199  66.948  1.00  0.00    -0.151 C  
BRANCH  19  20
HETATM   20  C   UNL     1      -7.880  10.978  68.453  1.00  0.00    -0.127 C  
BRANCH  20  21
HETATM   21  C   UNL     1      -7.620   9.505  68.783  1.00  0.00    -0.076 C  
BRANCH  21  22
HETATM   22  C   UNL     1      -6.360   9.344  69.635  1.00  0.00    -0.040 C  
BRANCH  22  23
HETATM   23  C   UNL     1      -6.654   8.632  70.955  1.00  0.00    -0.049 C  
HETATM   24  C   UNL     1      -8.089   8.874  71.402  1.00  0.00    -0.160 C  
ENDBRANCH  22  23
ENDBRANCH  21  22
ENDBRANCH  20  21
ENDBRANCH  19  20
ENDBRANCH  17  19
ENDBRANCH  13  14
ENDBRANCH  12  13
BRANCH  12  25
HETATM   25  O   UNL     1     -12.372  13.725  68.712  1.00  0.00    -0.284 OA 
BRANCH  25  26
HETATM   26  C   UNL     1     -12.400  14.038  70.037  1.00  0.00    -0.337 C  
HETATM   27  O   UNL     1     -12.440  13.238  70.966  1.00  0.00    -0.366 OA 
BRANCH  26  28
HETATM   28  C   UNL     1     -12.352  15.549  70.240  1.00  0.00    -0.396 C  
BRANCH  28  29
HETATM   29  C   UNL     1     -11.882  16.284  68.974  1.00  0.00    -0.072 C  
HETATM   30  C   UNL     1      -9.333  15.907  69.120  1.00  0.00    -0.252 C  
HETATM   31  C   UNL     1     -10.267  17.766  67.759  1.00  0.00    -0.362 C  
HETATM   32  C   UNL     1     -10.474  16.921  69.020  1.00  0.00    -0.341 C  
ENDBRANCH  28  29
BRANCH  28  33
HETATM   33  N   UNL     1     -11.529  15.840  71.413  1.00  0.00    -0.409 N  
HETATM   34  C   UNL     1     -12.063  16.085  72.647  1.00  0.00    -0.538 C  
HETATM   35  O   UNL     1     -13.255  16.137  72.905  1.00  0.00    -0.473 OA 
HETATM   36  H   UNL     1     -10.515  15.861  71.307  1.00  0.00     0.000 HD 
ENDBRANCH  28  33
ENDBRANCH  26  28
ENDBRANCH  25  26
ENDBRANCH  12  25
ENDBRANCH  11  12
ENDBRANCH  10  11
ENDBRANCH   9  10
ENDBRANCH   8   9
ENDBRANCH   7   8
ENDBRANCH   6   7
ENDBRANCH   5   6
ENDBRANCH   4   5
ENDBRANCH   3   4
ENDBRANCH   2   3
TORSDOF 22
ENDMDL
MODEL      169
REMARK 921   NORMALIZED FREE ENERGY PREDICTED BY IDOCK:   -4.23 KCAL/MOL
REMARK 922        TOTAL FREE ENERGY PREDICTED BY IDOCK:  -13.28 KCAL/MOL
REMARK 923 INTER-LIGAND FREE ENERGY PREDICTED BY IDOCK:   -9.83 KCAL/MOL
REMARK 924 INTRA-LIGAND FREE ENERGY PREDICTED BY IDOCK:   -3.45 KCAL/MOL
REMARK 927      BINDING AFFINITY PREDICTED BY RF-SCORE:    0.00 PKD
ROOT
HETATM    1  C   UNL     1     -13.589  12.706  72.014  1.00  0.00    -0.426 C  
HETATM    2  C   UNL     1     -14.041  14.156  71.982  1.00  0.00    -0.619 C  
ENDROOT
BRANCH   2   3
HETATM    3  C   UNL     1     -13.317  14.974  73.048  1.00  0.00    -0.568 C  
BRANCH   3   4
HETATM    4  C   UNL     1     -12.398  16.023  72.429  1.00  0.00    -0.581 C  
BRANCH   4   5
HETATM    5  C   UNL     1     -11.319  15.361  71.570  1.00  0.00    -0.461 C  
BRANCH   5   6
HETATM    6  C   UNL     1     -10.985  16.232  70.366  1.00  0.00    -0.282 C  
BRANCH   6   7
HETATM    7  C   UNL     1     -11.897  15.949  69.171  1.00  0.00    -0.340 C  
BRANCH   7   8
HETATM    8  C   UNL     1     -11.026  15.699  67.945  1.00  0.00    -0.319 C  
BRANCH   8   9
HETATM    9  C   UNL     1     -11.260  14.345  67.283  1.00  0.00    -0.334 C  
BRANCH   9  10
HETATM   10  C   UNL     1     -11.913  13.415  68.311  1.00  0.00    -0.352 C  
BRANCH  10  11
HETATM   11  C   UNL     1     -10.956  12.408  68.931  1.00  0.00    -0.268 C  
BRANCH  11  12
HETATM   12  C   UNL     1     -11.472  10.963  69.055  1.00  0.00    -0.302 C  
BRANCH  12  13
HETATM   13  C   UNL     1     -11.376  10.114  67.768  1.00  0.00    -0.060 C  
BRANCH  13  14
HETATM   14  C   UNL     1     -10.122  10.381  66.927  1.00  0.00    -0.219 C  
HETATM   15  O   UNL     1     -10.391  11.242  65.784  1.00  0.00    -0.243 OA 
HETATM   16  O   UNL     1     -10.005  10.376  63.683  1.00  0.00    -0.294 OA 
HETATM   17  C   UNL     1      -9.691   9.244  65.958  1.00  0.00    -0.359 C  
HETATM   18  C   UNL     1     -10.024  10.299  64.888  1.00  0.00    -0.323 C  
BRANCH  17  19
HETATM   19  C   UNL     1      -8.241   8.775  65.924  1.00  0.00    -0.118 C  
BRANCH  19  20
HETATM   20  C   UNL     1      -8.091   7.560  65.013  1.00  0.00    -0.127 C  
BRANCH  20  21
HETATM   21  C   UNL     1      -7.890   6.275  65.822  1.00  0.00    -0.103 C  
BRANCH  21  22
HETATM   22  C   UNL     1      -9.213   5.533  66.018  1.00  0.00    -0.168 C  
BRANCH  22  23
HETATM   23  C   UNL     1      -9.515   5.292  67.497  1.00  0.00    -0.136 C  
HETATM   24  C   UNL     1     -10.820   5.960  67.907  1.00  0.00    -0.323 C  
ENDBRANCH  22  23
ENDBRANCH  21  22
ENDBRANCH  20  21
ENDBRANCH  19  20
ENDBRANCH  17  19
ENDBRANCH  13  14
ENDBRANCH  12  13
BRANCH  12  25
HETATM   25  O   UNL     1     -10.758  10.252  70.093  1.00  0.00    -0.280 OA 
BRANCH  25  26
HETATM   26  C   UNL     1     -11.473   9.390  70.868  1.00  0.00    -0.316 C  
HETATM   27  O   UNL     1     -12.580   9.603  71.351  1.00  0.00    -0.324 OA 
BRANCH  26  28
HETATM   28  C   UNL     1     -10.722   8.075  71.055  1.00  0.00    -0.220 C  
BRANCH  28  29
HETATM   29  C   UNL     1      -9.638   7.876  69.983  1.00  0.00    -0.168 C  
HETATM   30  C   UNL     1      -8.292   5.932  71.018  1.00  0.00    -0.123 C  
HETATM   31  C   UNL     1      -7.270   7.417  69.305  1.00  0.00    -0.080 C  
HETATM   32  C   UNL     1      -8.264   7.360  70.469  1.00  0.00    -0.127 C  
ENDBRANCH  28  29
BRANCH  28  33
HETATM   33  N   UNL     1     -11.692   6.982  71.101  1.00  0.00    -0.307 N  
HETATM   34  C   UNL     1     -11.773   6.110  72.150  1.00  0.00    -0.309 C  
HETATM   35  O   UNL     1     -11.039   6.107  73.125  1.00  0.00    -0.248 OA 
HETATM   36  H   UNL     1     -12.336   6.865  70.318  1.00  0.00     0.000 HD 
ENDBRANCH  28  33
ENDBRANCH  26  28
ENDBRANCH  25  26
ENDBRANCH  12  25
ENDBRANCH  11  12
ENDBRANCH  10  11
ENDBRANCH   9  10
ENDBRANCH   8   9
ENDBRANCH   7   8
ENDBRANCH   6   7
ENDBRANCH   5   6
ENDBRANCH   4   5
ENDBRANCH   3   4
ENDBRANCH   2   3
TORSDOF 22
ENDMDL
MODEL      170
REMARK 921   NORMALIZED FREE ENERGY PREDICTED BY IDOCK:   -4.22 KCAL/MOL
REMARK 922        TOTAL FREE ENERGY PREDICTED BY IDOCK:  -13.26 KCAL/MOL
REMARK 923 INTER-LIGAND FREE ENERGY PREDICTED BY IDOCK:  -10.50 KCAL/MOL
REMARK 924 INTRA-LIGAND FREE ENERGY PREDICTED BY IDOCK:   -2.76 KCAL/MOL
REMARK 927      BINDING AFFINITY PREDICTED BY RF-SCORE:    0.00 PKD
ROOT
HETATM    1  C   UNL     1     -12.750  15.191  73.506  1.00  0.00    -0.678 C  
HETATM    2  C   UNL     1     -13.630  15.531  72.315  1.00  0.00    -0.618 C  
ENDROOT
BRANCH   2   3
HETATM    3  C   UNL     1     -12.851  15.397  71.009  1.00  0.00    -0.525 C  
BRANCH   3   4
HETATM    4  C   UNL     1     -11.345  15.357  71.250  1.00  0.00    -0.441 C  
BRANCH   4   5
HETATM    5  C   UNL     1     -10.593  16.025  70.097  1.00  0.00    -0.269 C  
BRANCH   5   6
HETATM    6  C   UNL     1     -11.451  16.043  68.839  1.00  0.00    -0.362 C  
BRANCH   6   7
HETATM    7  C   UNL     1     -10.798  15.290  67.677  1.00  0.00    -0.295 C  
BRANCH   7   8
HETATM    8  C   UNL     1     -11.755  14.201  67.208  1.00  0.00    -0.421 C  
BRANCH   8   9
HETATM    9  C   UNL     1     -12.007  13.108  68.242  1.00  0.00    -0.328 C  
BRANCH   9  10
HETATM   10  C   UNL     1     -10.695  12.348  68.465  1.00  0.00    -0.262 C  
BRANCH  10  11
HETATM   11  C   UNL     1     -10.872  10.850  68.657  1.00  0.00    -0.258 C  
BRANCH  11  12
HETATM   12  C   UNL     1      -9.829  10.147  69.546  1.00  0.00    -0.232 C  
BRANCH  12  13
HETATM   13  C   UNL     1     -10.360   9.626  70.900  1.00  0.00    -0.334 C  
BRANCH  13  14
HETATM   14  C   UNL     1     -11.599   8.730  70.792  1.00  0.00    -0.251 C  
HETATM   15  O   UNL     1     -12.841   9.489  70.833  1.00  0.00    -0.253 OA 
HETATM   16  O   UNL     1     -14.303   9.047  72.558  1.00  0.00    -0.570 OA 
HETATM   17  C   UNL     1     -12.022   7.984  72.088  1.00  0.00    -0.399 C  
HETATM   18  C   UNL     1     -13.271   8.874  71.956  1.00  0.00    -0.409 C  
BRANCH  17  19
HETATM   19  C   UNL     1     -12.327   6.491  72.048  1.00  0.00    -0.308 C  
BRANCH  19  20
HETATM   20  C   UNL     1     -11.394   5.727  72.983  1.00  0.00    -0.254 C  
BRANCH  20  21
HETATM   21  C   UNL     1     -10.549   4.705  72.217  1.00  0.00    -0.203 C  
BRANCH  21  22
HETATM   22  C   UNL     1     -10.111   5.257  70.859  1.00  0.00    -0.295 C  
BRANCH  22  23
HETATM   23  C   UNL     1      -9.371   4.207  70.031  1.00  0.00    -0.237 C  
HETATM   24  C   UNL     1      -8.618   3.232  70.926  1.00  0.00    -0.114 C  
ENDBRANCH  22  23
ENDBRANCH  21  22
ENDBRANCH  20  21
ENDBRANCH  19  20
ENDBRANCH  17  19
ENDBRANCH  13  14
ENDBRANCH  12  13
BRANCH  12  25
HETATM   25  O   UNL     1      -9.240   9.022  68.853  1.00  0.00    -0.139 OA 
BRANCH  25  26
HETATM   26  C   UNL     1      -8.462   9.290  67.769  1.00  0.00    -0.116 C  
HETATM   27  O   UNL     1      -7.605  10.164  67.695  1.00  0.00    -0.090 OA 
BRANCH  26  28
HETATM   28  C   UNL     1      -8.775   8.332  66.623  1.00  0.00    -0.136 C  
BRANCH  28  29
HETATM   29  C   UNL     1      -8.381   8.920  65.259  1.00  0.00    -0.168 C  
HETATM   30  C   UNL     1      -9.954  10.963  65.144  1.00  0.00    -0.341 C  
HETATM   31  C   UNL     1      -8.964  10.002  63.076  1.00  0.00    -0.272 C  
HETATM   32  C   UNL     1      -9.485   9.669  64.477  1.00  0.00    -0.182 C  
ENDBRANCH  28  29
BRANCH  28  33
HETATM   33  N   UNL     1     -10.185   7.952  66.701  1.00  0.00    -0.435 N  
HETATM   34  C   UNL     1     -10.603   6.652  66.667  1.00  0.00    -0.154 C  
HETATM   35  O   UNL     1      -9.878   5.679  66.525  1.00  0.00    -0.152 OA 
HETATM   36  H   UNL     1     -10.886   8.688  66.785  1.00  0.00     0.000 HD 
ENDBRANCH  28  33
ENDBRANCH  26  28
ENDBRANCH  25  26
ENDBRANCH  12  25
ENDBRANCH  11  12
ENDBRANCH  10  11
ENDBRANCH   9  10
ENDBRANCH   8   9
ENDBRANCH   7   8
ENDBRANCH   6   7
ENDBRANCH   5   6
ENDBRANCH   4   5
ENDBRANCH   3   4
ENDBRANCH   2   3
TORSDOF 22
ENDMDL
MODEL      171
REMARK 921   NORMALIZED FREE ENERGY PREDICTED BY IDOCK:   -4.22 KCAL/MOL
REMARK 922        TOTAL FREE ENERGY PREDICTED BY IDOCK:  -13.26 KCAL/MOL
REMARK 923 INTER-LIGAND FREE ENERGY PREDICTED BY IDOCK:   -8.70 KCAL/MOL
REMARK 924 INTRA-LIGAND FREE ENERGY PREDICTED BY IDOCK:   -4.56 KCAL/MOL
REMARK 927      BINDING AFFINITY PREDICTED BY RF-SCORE:    0.00 PKD
ROOT
HETATM    1  C   UNL     1      -8.504   8.076  73.155  1.00  0.00    -0.267 C  
HETATM    2  C   UNL     1      -7.641   7.220  72.243  1.00  0.00    -0.085 C  
ENDROOT
BRANCH   2   3
HETATM    3  C   UNL     1      -6.921   8.082  71.210  1.00  0.00    -0.056 C  
BRANCH   3   4
HETATM    4  C   UNL     1      -6.285   7.237  70.111  1.00  0.00    -0.027 C  
BRANCH   4   5
HETATM    5  C   UNL     1      -6.776   7.681  68.732  1.00  0.00    -0.054 C  
BRANCH   5   6
HETATM    6  C   UNL     1      -6.846   9.200  68.654  1.00  0.00    -0.062 C  
BRANCH   6   7
HETATM    7  C   UNL     1      -7.502   9.688  67.360  1.00  0.00    -0.091 C  
BRANCH   7   8
HETATM    8  C   UNL     1      -7.900   8.473  66.531  1.00  0.00    -0.096 C  
BRANCH   8   9
HETATM    9  C   UNL     1      -9.031   8.739  65.542  1.00  0.00    -0.231 C  
BRANCH   9  10
HETATM   10  C   UNL     1      -9.143  10.253  65.339  1.00  0.00    -0.221 C  
BRANCH  10  11
HETATM   11  C   UNL     1     -10.565  10.745  65.117  1.00  0.00    -0.239 C  
BRANCH  11  12
HETATM   12  C   UNL     1     -11.050  11.876  66.043  1.00  0.00    -0.322 C  
BRANCH  12  13
HETATM   13  C   UNL     1     -10.616  11.751  67.520  1.00  0.00    -0.247 C  
BRANCH  13  14
HETATM   14  C   UNL     1     -11.221  10.551  68.258  1.00  0.00    -0.291 C  
HETATM   15  O   UNL     1     -12.507  10.862  68.866  1.00  0.00    -0.431 OA 
HETATM   16  O   UNL     1     -12.677  10.671  71.157  1.00  0.00    -0.355 OA 
HETATM   17  C   UNL     1     -10.638  10.247  69.666  1.00  0.00    -0.288 C  
HETATM   18  C   UNL     1     -12.065  10.606  70.118  1.00  0.00    -0.333 C  
BRANCH  17  19
HETATM   19  C   UNL     1     -10.220   8.826  70.032  1.00  0.00    -0.208 C  
BRANCH  19  20
HETATM   20  C   UNL     1     -10.577   7.856  68.910  1.00  0.00    -0.165 C  
BRANCH  20  21
HETATM   21  C   UNL     1     -11.077   6.519  69.464  1.00  0.00    -0.425 C  
BRANCH  21  22
HETATM   22  C   UNL     1     -10.082   5.394  69.172  1.00  0.00    -0.293 C  
BRANCH  22  23
HETATM   23  C   UNL     1      -9.531   5.478  67.748  1.00  0.00    -0.125 C  
HETATM   24  C   UNL     1     -10.530   4.927  66.740  1.00  0.00    -0.237 C  
ENDBRANCH  22  23
ENDBRANCH  21  22
ENDBRANCH  20  21
ENDBRANCH  19  20
ENDBRANCH  17  19
ENDBRANCH  13  14
ENDBRANCH  12  13
BRANCH  12  25
HETATM   25  O   UNL     1     -10.589  13.162  65.567  1.00  0.00    -0.278 OA 
BRANCH  25  26
HETATM   26  C   UNL     1     -11.170  14.273  66.099  1.00  0.00    -0.331 C  
HETATM   27  O   UNL     1     -12.374  14.459  66.240  1.00  0.00    -0.409 OA 
BRANCH  26  28
HETATM   28  C   UNL     1     -10.113  15.284  66.533  1.00  0.00    -0.270 C  
BRANCH  28  29
HETATM   29  C   UNL     1     -10.288  16.637  65.825  1.00  0.00    -0.338 C  
HETATM   30  C   UNL     1      -8.797  18.145  67.295  1.00  0.00    -0.251 C  
HETATM   31  C   UNL     1     -10.582  19.125  65.868  1.00  0.00    -0.495 C  
HETATM   32  C   UNL     1     -10.187  17.904  66.704  1.00  0.00    -0.371 C  
ENDBRANCH  28  29
BRANCH  28  33
HETATM   33  N   UNL     1      -8.790  14.697  66.333  1.00  0.00    -0.477 N  
HETATM   34  C   UNL     1      -7.901  14.513  67.354  1.00  0.00    -0.199 C  
HETATM   35  O   UNL     1      -8.077  14.849  68.515  1.00  0.00    -0.133 OA 
HETATM   36  H   UNL     1      -8.518  14.411  65.392  1.00  0.00     0.000 HD 
ENDBRANCH  28  33
ENDBRANCH  26  28
ENDBRANCH  25  26
ENDBRANCH  12  25
ENDBRANCH  11  12
ENDBRANCH  10  11
ENDBRANCH   9  10
ENDBRANCH   8   9
ENDBRANCH   7   8
ENDBRANCH   6   7
ENDBRANCH   5   6
ENDBRANCH   4   5
ENDBRANCH   3   4
ENDBRANCH   2   3
TORSDOF 22
ENDMDL
MODEL      172
REMARK 921   NORMALIZED FREE ENERGY PREDICTED BY IDOCK:   -4.21 KCAL/MOL
REMARK 922        TOTAL FREE ENERGY PREDICTED BY IDOCK:  -13.24 KCAL/MOL
REMARK 923 INTER-LIGAND FREE ENERGY PREDICTED BY IDOCK:  -10.15 KCAL/MOL
REMARK 924 INTRA-LIGAND FREE ENERGY PREDICTED BY IDOCK:   -3.09 KCAL/MOL
REMARK 927      BINDING AFFINITY PREDICTED BY RF-SCORE:    0.00 PKD
ROOT
HETATM    1  C   UNL     1      -8.313   8.693  64.426  1.00  0.00    -0.148 C  
HETATM    2  C   UNL     1      -7.670  10.058  64.247  1.00  0.00    -0.141 C  
ENDROOT
BRANCH   2   3
HETATM    3  C   UNL     1      -7.849  10.560  62.817  1.00  0.00    -0.135 C  
BRANCH   3   4
HETATM    4  C   UNL     1      -9.319  10.787  62.477  1.00  0.00    -0.310 C  
BRANCH   4   5
HETATM    5  C   UNL     1      -9.928  11.856  63.387  1.00  0.00    -0.435 C  
BRANCH   5   6
HETATM    6  C   UNL     1     -11.424  11.626  63.556  1.00  0.00    -0.427 C  
BRANCH   6   7
HETATM    7  C   UNL     1     -12.205  12.936  63.684  1.00  0.00    -0.581 C  
BRANCH   7   8
HETATM    8  C   UNL     1     -11.357  13.931  64.467  1.00  0.00    -0.381 C  
BRANCH   8   9
HETATM    9  C   UNL     1     -11.906  14.259  65.852  1.00  0.00    -0.386 C  
BRANCH   9  10
HETATM   10  C   UNL     1     -12.033  12.952  66.640  1.00  0.00    -0.436 C  
BRANCH  10  11
HETATM   11  C   UNL     1     -10.845  12.653  67.541  1.00  0.00    -0.267 C  
BRANCH  11  12
HETATM   12  C   UNL     1      -9.616  12.021  66.865  1.00  0.00    -0.203 C  
BRANCH  12  13
HETATM   13  C   UNL     1      -8.270  12.723  67.151  1.00  0.00    -0.146 C  
BRANCH  13  14
HETATM   14  C   UNL     1      -8.364  14.250  67.262  1.00  0.00    -0.204 C  
HETATM   15  O   UNL     1      -7.066  14.898  67.142  1.00  0.00    -0.197 OA 
HETATM   16  O   UNL     1      -6.323  16.138  68.937  1.00  0.00    -0.119 OA 
HETATM   17  C   UNL     1      -8.509  14.825  68.699  1.00  0.00    -0.167 C  
HETATM   18  C   UNL     1      -7.132  15.435  68.380  1.00  0.00    -0.111 C  
BRANCH  17  19
HETATM   19  C   UNL     1      -9.582  15.865  69.003  1.00  0.00    -0.247 C  
BRANCH  19  20
HETATM   20  C   UNL     1     -10.547  15.346  70.065  1.00  0.00    -0.319 C  
BRANCH  20  21
HETATM   21  C   UNL     1     -12.005  15.547  69.644  1.00  0.00    -0.380 C  
BRANCH  21  22
HETATM   22  C   UNL     1     -12.960  14.833  70.602  1.00  0.00    -0.376 C  
BRANCH  22  23
HETATM   23  C   UNL     1     -13.045  15.542  71.953  1.00  0.00    -0.539 C  
HETATM   24  C   UNL     1     -12.848  14.562  73.101  1.00  0.00    -0.547 C  
ENDBRANCH  22  23
ENDBRANCH  21  22
ENDBRANCH  20  21
ENDBRANCH  19  20
ENDBRANCH  17  19
ENDBRANCH  13  14
ENDBRANCH  12  13
BRANCH  12  25
HETATM   25  O   UNL     1      -9.469  10.636  67.258  1.00  0.00    -0.157 OA 
BRANCH  25  26
HETATM   26  C   UNL     1      -9.274  10.377  68.581  1.00  0.00    -0.164 C  
HETATM   27  O   UNL     1      -8.481  10.953  69.318  1.00  0.00    -0.108 OA 
BRANCH  26  28
HETATM   28  C   UNL     1     -10.202   9.265  69.060  1.00  0.00    -0.206 C  
BRANCH  28  29
HETATM   29  C   UNL     1     -10.596   8.314  67.918  1.00  0.00    -0.212 C  
HETATM   30  C   UNL     1     -11.303   6.224  69.257  1.00  0.00    -0.411 C  
HETATM   31  C   UNL     1     -10.651   6.042  66.865  1.00  0.00    -0.384 C  
HETATM   32  C   UNL     1     -10.396   6.802  68.169  1.00  0.00    -0.219 C  
ENDBRANCH  28  29
BRANCH  28  33
HETATM   33  N   UNL     1     -11.353   9.869  69.729  1.00  0.00    -0.357 N  
HETATM   34  C   UNL     1     -11.543   9.798  71.080  1.00  0.00    -0.376 C  
HETATM   35  O   UNL     1     -10.824   9.200  71.865  1.00  0.00    -0.359 OA 
HETATM   36  H   UNL     1     -12.043  10.365  69.164  1.00  0.00     0.000 HD 
ENDBRANCH  28  33
ENDBRANCH  26  28
ENDBRANCH  25  26
ENDBRANCH  12  25
ENDBRANCH  11  12
ENDBRANCH  10  11
ENDBRANCH   9  10
ENDBRANCH   8   9
ENDBRANCH   7   8
ENDBRANCH   6   7
ENDBRANCH   5   6
ENDBRANCH   4   5
ENDBRANCH   3   4
ENDBRANCH   2   3
TORSDOF 22
ENDMDL
MODEL      173
REMARK 921   NORMALIZED FREE ENERGY PREDICTED BY IDOCK:   -4.20 KCAL/MOL
REMARK 922        TOTAL FREE ENERGY PREDICTED BY IDOCK:  -13.22 KCAL/MOL
REMARK 923 INTER-LIGAND FREE ENERGY PREDICTED BY IDOCK:   -9.70 KCAL/MOL
REMARK 924 INTRA-LIGAND FREE ENERGY PREDICTED BY IDOCK:   -3.52 KCAL/MOL
REMARK 927      BINDING AFFINITY PREDICTED BY RF-SCORE:    0.00 PKD
ROOT
HETATM    1  C   UNL     1     -12.782  14.765  70.537  1.00  0.00    -0.397 C  
HETATM    2  C   UNL     1     -11.870  14.760  69.321  1.00  0.00    -0.352 C  
ENDROOT
BRANCH   2   3
HETATM    3  C   UNL     1     -11.907  13.405  68.621  1.00  0.00    -0.397 C  
BRANCH   3   4
HETATM    4  C   UNL     1     -12.174  13.548  67.126  1.00  0.00    -0.328 C  
BRANCH   4   5
HETATM    5  C   UNL     1     -11.505  14.808  66.572  1.00  0.00    -0.328 C  
BRANCH   5   6
HETATM    6  C   UNL     1     -11.084  14.597  65.124  1.00  0.00    -0.382 C  
BRANCH   6   7
HETATM    7  C   UNL     1     -12.259  14.210  64.225  1.00  0.00    -0.449 C  
BRANCH   7   8
HETATM    8  C   UNL     1     -11.888  12.944  63.461  1.00  0.00    -0.605 C  
BRANCH   8   9
HETATM    9  C   UNL     1     -10.565  12.322  63.896  1.00  0.00    -0.462 C  
BRANCH   9  10
HETATM   10  C   UNL     1     -10.873  11.113  64.785  1.00  0.00    -0.277 C  
BRANCH  10  11
HETATM   11  C   UNL     1      -9.713  10.140  64.931  1.00  0.00    -0.392 C  
BRANCH  11  12
HETATM   12  C   UNL     1      -9.092  10.023  66.334  1.00  0.00    -0.149 C  
BRANCH  12  13
HETATM   13  C   UNL     1      -9.258  11.267  67.236  1.00  0.00    -0.170 C  
BRANCH  13  14
HETATM   14  C   UNL     1      -8.100  12.268  67.154  1.00  0.00    -0.173 C  
HETATM   15  O   UNL     1      -6.976  11.889  67.998  1.00  0.00    -0.069 OA 
HETATM   16  O   UNL     1      -6.369  13.345  69.680  1.00  0.00    -0.113 OA 
HETATM   17  C   UNL     1      -8.266  13.577  67.975  1.00  0.00    -0.163 C  
HETATM   18  C   UNL     1      -7.061  13.011  68.748  1.00  0.00    -0.097 C  
BRANCH  17  19
HETATM   19  C   UNL     1      -7.994  14.929  67.324  1.00  0.00    -0.237 C  
BRANCH  19  20
HETATM   20  C   UNL     1      -8.454  16.065  68.234  1.00  0.00    -0.177 C  
BRANCH  20  21
HETATM   21  C   UNL     1      -8.975  17.255  67.423  1.00  0.00    -0.224 C  
BRANCH  21  22
HETATM   22  C   UNL     1     -10.182  17.901  68.105  1.00  0.00    -0.386 C  
BRANCH  22  23
HETATM   23  C   UNL     1     -10.754  19.051  67.276  1.00  0.00    -0.556 C  
HETATM   24  C   UNL     1      -9.674  20.064  66.922  1.00  0.00    -0.557 C  
ENDBRANCH  22  23
ENDBRANCH  21  22
ENDBRANCH  20  21
ENDBRANCH  19  20
ENDBRANCH  17  19
ENDBRANCH  13  14
ENDBRANCH  12  13
BRANCH  12  25
HETATM   25  O   UNL     1      -9.648   8.896  67.050  1.00  0.00    -0.155 OA 
BRANCH  25  26
HETATM   26  C   UNL     1      -8.934   7.736  67.046  1.00  0.00    -0.129 C  
HETATM   27  O   UNL     1      -8.032   7.448  66.266  1.00  0.00    -0.102 OA 
BRANCH  26  28
HETATM   28  C   UNL     1      -9.387   6.815  68.174  1.00  0.00    -0.122 C  
BRANCH  28  29
HETATM   29  C   UNL     1      -8.906   5.370  67.964  1.00  0.00    -0.105 C  
HETATM   30  C   UNL     1     -10.258   4.714  65.866  1.00  0.00    -0.303 C  
HETATM   31  C   UNL     1      -9.327   2.972  67.375  1.00  0.00    -0.216 C  
HETATM   32  C   UNL     1      -9.909   4.387  67.319  1.00  0.00    -0.207 C  
ENDBRANCH  28  29
BRANCH  28  33
HETATM   33  N   UNL     1     -10.839   6.923  68.315  1.00  0.00    -0.395 N  
HETATM   34  C   UNL     1     -11.483   6.711  69.501  1.00  0.00    -0.263 C  
HETATM   35  O   UNL     1     -10.950   6.371  70.545  1.00  0.00    -0.261 OA 
HETATM   36  H   UNL     1     -11.393   7.166  67.494  1.00  0.00     0.000 HD 
ENDBRANCH  28  33
ENDBRANCH  26  28
ENDBRANCH  25  26
ENDBRANCH  12  25
ENDBRANCH  11  12
ENDBRANCH  10  11
ENDBRANCH   9  10
ENDBRANCH   8   9
ENDBRANCH   7   8
ENDBRANCH   6   7
ENDBRANCH   5   6
ENDBRANCH   4   5
ENDBRANCH   3   4
ENDBRANCH   2   3
TORSDOF 22
ENDMDL
MODEL      174
REMARK 921   NORMALIZED FREE ENERGY PREDICTED BY IDOCK:   -4.20 KCAL/MOL
REMARK 922        TOTAL FREE ENERGY PREDICTED BY IDOCK:  -13.21 KCAL/MOL
REMARK 923 INTER-LIGAND FREE ENERGY PREDICTED BY IDOCK:   -9.31 KCAL/MOL
REMARK 924 INTRA-LIGAND FREE ENERGY PREDICTED BY IDOCK:   -3.90 KCAL/MOL
REMARK 927      BINDING AFFINITY PREDICTED BY RF-SCORE:    0.00 PKD
ROOT
HETATM    1  C   UNL     1      -9.076   9.771  63.168  1.00  0.00    -0.270 C  
HETATM    2  C   UNL     1      -9.499  10.504  64.431  1.00  0.00    -0.333 C  
ENDROOT
BRANCH   2   3
HETATM    3  C   UNL     1     -10.053  11.886  64.096  1.00  0.00    -0.338 C  
BRANCH   3   4
HETATM    4  C   UNL     1     -11.569  11.864  63.931  1.00  0.00    -0.515 C  
BRANCH   4   5
HETATM    5  C   UNL     1     -12.104  13.267  63.635  1.00  0.00    -0.551 C  
BRANCH   5   6
HETATM    6  C   UNL     1     -12.171  14.094  64.913  1.00  0.00    -0.451 C  
BRANCH   6   7
HETATM    7  C   UNL     1     -11.254  15.317  64.865  1.00  0.00    -0.422 C  
BRANCH   7   8
HETATM    8  C   UNL     1     -10.548  15.447  66.210  1.00  0.00    -0.311 C  
BRANCH   8   9
HETATM    9  C   UNL     1      -9.199  14.739  66.273  1.00  0.00    -0.278 C  
BRANCH   9  10
HETATM   10  C   UNL     1      -9.056  14.102  67.658  1.00  0.00    -0.194 C  
BRANCH  10  11
HETATM   11  C   UNL     1      -8.722  12.618  67.627  1.00  0.00    -0.179 C  
BRANCH  11  12
HETATM   12  C   UNL     1      -9.768  11.668  68.238  1.00  0.00    -0.197 C  
BRANCH  12  13
HETATM   13  C   UNL     1     -11.188  11.779  67.640  1.00  0.00    -0.345 C  
BRANCH  13  14
HETATM   14  C   UNL     1     -12.248  12.300  68.618  1.00  0.00     0.104 C  
HETATM   15  O   UNL     1     -12.345  13.753  68.611  1.00  0.00    -0.271 OA 
HETATM   16  O   UNL     1     -11.890  14.861  70.580  1.00  0.00    -0.267 OA 
HETATM   17  C   UNL     1     -11.836  12.343  70.116  1.00  0.00    -0.341 C  
HETATM   18  C   UNL     1     -11.999  13.861  69.913  1.00  0.00    -0.341 C  
BRANCH  17  19
HETATM   19  C   UNL     1     -12.762  11.766  71.182  1.00  0.00    -0.405 C  
BRANCH  19  20
HETATM   20  C   UNL     1     -12.967  10.270  70.961  1.00  0.00    -0.488 C  
BRANCH  20  21
HETATM   21  C   UNL     1     -13.079   9.519  72.291  1.00  0.00    -0.492 C  
BRANCH  21  22
HETATM   22  C   UNL     1     -12.259   8.228  72.266  1.00  0.00    -0.428 C  
BRANCH  22  23
HETATM   23  C   UNL     1     -12.684   7.307  71.122  1.00  0.00    -0.349 C  
HETATM   24  C   UNL     1     -11.474   6.780  70.363  1.00  0.00    -0.419 C  
ENDBRANCH  22  23
ENDBRANCH  21  22
ENDBRANCH  20  21
ENDBRANCH  19  20
ENDBRANCH  17  19
ENDBRANCH  13  14
ENDBRANCH  12  13
BRANCH  12  25
HETATM   25  O   UNL     1      -9.351  10.290  68.101  1.00  0.00    -0.137 OA 
BRANCH  25  26
HETATM   26  C   UNL     1      -8.886   9.663  69.217  1.00  0.00    -0.164 C  
HETATM   27  O   UNL     1      -9.380   9.725  70.338  1.00  0.00    -0.242 OA 
BRANCH  26  28
HETATM   28  C   UNL     1      -7.650   8.827  68.896  1.00  0.00    -0.091 C  
BRANCH  28  29
HETATM   29  C   UNL     1      -7.001   9.249  67.568  1.00  0.00    -0.078 C  
HETATM   30  C   UNL     1      -7.956   7.456  65.976  1.00  0.00    -0.115 C  
HETATM   31  C   UNL     1      -5.889   8.706  65.390  1.00  0.00    -0.048 C  
HETATM   32  C   UNL     1      -6.705   8.126  66.548  1.00  0.00    -0.063 C  
ENDBRANCH  28  29
BRANCH  28  33
HETATM   33  N   UNL     1      -8.017   7.412  68.934  1.00  0.00    -0.124 N  
HETATM   34  C   UNL     1      -7.734   6.604  69.998  1.00  0.00    -0.102 C  
HETATM   35  O   UNL     1      -7.118   6.940  70.998  1.00  0.00    -0.068 OA 
HETATM   36  H   UNL     1      -8.504   7.012  68.131  1.00  0.00     0.000 HD 
ENDBRANCH  28  33
ENDBRANCH  26  28
ENDBRANCH  25  26
ENDBRANCH  12  25
ENDBRANCH  11  12
ENDBRANCH  10  11
ENDBRANCH   9  10
ENDBRANCH   8   9
ENDBRANCH   7   8
ENDBRANCH   6   7
ENDBRANCH   5   6
ENDBRANCH   4   5
ENDBRANCH   3   4
ENDBRANCH   2   3
TORSDOF 22
ENDMDL
MODEL      175
REMARK 921   NORMALIZED FREE ENERGY PREDICTED BY IDOCK:   -4.20 KCAL/MOL
REMARK 922        TOTAL FREE ENERGY PREDICTED BY IDOCK:  -13.21 KCAL/MOL
REMARK 923 INTER-LIGAND FREE ENERGY PREDICTED BY IDOCK:   -9.22 KCAL/MOL
REMARK 924 INTRA-LIGAND FREE ENERGY PREDICTED BY IDOCK:   -3.99 KCAL/MOL
REMARK 927      BINDING AFFINITY PREDICTED BY RF-SCORE:    0.00 PKD
ROOT
HETATM    1  C   UNL     1      -9.715  19.962  66.412  1.00  0.00    -0.558 C  
HETATM    2  C   UNL     1     -10.767  19.388  67.346  1.00  0.00    -0.594 C  
ENDROOT
BRANCH   2   3
HETATM    3  C   UNL     1     -10.740  17.863  67.322  1.00  0.00    -0.278 C  
BRANCH   3   4
HETATM    4  C   UNL     1      -9.465  17.330  66.677  1.00  0.00    -0.278 C  
BRANCH   4   5
HETATM    5  C   UNL     1      -9.745  16.038  65.906  1.00  0.00    -0.378 C  
BRANCH   5   6
HETATM    6  C   UNL     1     -10.874  16.248  64.905  1.00  0.00    -0.315 C  
BRANCH   6   7
HETATM    7  C   UNL     1     -11.556  14.936  64.512  1.00  0.00    -0.356 C  
BRANCH   7   8
HETATM    8  C   UNL     1     -11.240  13.889  65.573  1.00  0.00    -0.307 C  
BRANCH   8   9
HETATM    9  C   UNL     1     -12.421  13.540  66.473  1.00  0.00    -0.309 C  
BRANCH   9  10
HETATM   10  C   UNL     1     -11.987  13.732  67.929  1.00  0.00    -0.391 C  
BRANCH  10  11
HETATM   11  C   UNL     1     -10.880  12.789  68.376  1.00  0.00    -0.272 C  
BRANCH  11  12
HETATM   12  C   UNL     1     -11.302  11.345  68.703  1.00  0.00    -0.265 C  
BRANCH  12  13
HETATM   13  C   UNL     1     -11.248  10.357  67.517  1.00  0.00    -0.254 C  
BRANCH  13  14
HETATM   14  C   UNL     1     -10.076  10.586  66.555  1.00  0.00    -0.225 C  
HETATM   15  O   UNL     1     -10.138   9.719  65.387  1.00  0.00    -0.305 OA 
HETATM   16  O   UNL     1      -8.394   8.247  65.060  1.00  0.00    -0.156 OA 
HETATM   17  C   UNL     1      -8.723   9.935  66.957  1.00  0.00    -0.137 C  
HETATM   18  C   UNL     1      -8.962   9.117  65.675  1.00  0.00    -0.203 C  
BRANCH  17  19
HETATM   19  C   UNL     1      -7.439  10.758  66.926  1.00  0.00    -0.120 C  
BRANCH  19  20
HETATM   20  C   UNL     1      -7.758  12.250  66.926  1.00  0.00    -0.017 C  
BRANCH  20  21
HETATM   21  C   UNL     1      -7.567  12.863  68.316  1.00  0.00    -0.134 C  
BRANCH  21  22
HETATM   22  C   UNL     1      -6.425  13.882  68.318  1.00  0.00    -0.111 C  
BRANCH  22  23
HETATM   23  C   UNL     1      -6.928  15.298  68.601  1.00  0.00    -0.110 C  
HETATM   24  C   UNL     1      -8.242  15.270  69.369  1.00  0.00    -0.233 C  
ENDBRANCH  22  23
ENDBRANCH  21  22
ENDBRANCH  20  21
ENDBRANCH  19  20
ENDBRANCH  17  19
ENDBRANCH  13  14
ENDBRANCH  12  13
BRANCH  12  25
HETATM   25  O   UNL     1     -10.478  10.797  69.758  1.00  0.00    -0.198 OA 
BRANCH  25  26
HETATM   26  C   UNL     1     -11.090  10.014  70.689  1.00  0.00    -0.335 C  
HETATM   27  O   UNL     1     -12.063  10.327  71.366  1.00  0.00    -0.372 OA 
BRANCH  26  28
HETATM   28  C   UNL     1     -10.414   8.649  70.782  1.00  0.00    -0.204 C  
BRANCH  28  29
HETATM   29  C   UNL     1     -11.008   7.646  69.780  1.00  0.00    -0.178 C  
HETATM   30  C   UNL     1      -8.868   6.444  68.979  1.00  0.00    -0.129 C  
HETATM   31  C   UNL     1     -10.940   6.403  67.605  1.00  0.00    -0.441 C  
HETATM   32  C   UNL     1     -10.114   7.241  68.585  1.00  0.00    -0.182 C  
ENDBRANCH  28  29
BRANCH  28  33
HETATM   33  N   UNL     1     -10.478   8.186  72.167  1.00  0.00    -0.259 N  
HETATM   34  C   UNL     1      -9.416   8.263  73.022  1.00  0.00    -0.228 C  
HETATM   35  O   UNL     1      -8.303   8.673  72.732  1.00  0.00    -0.388 OA 
HETATM   36  H   UNL     1     -11.354   7.788  72.509  1.00  0.00     0.000 HD 
ENDBRANCH  28  33
ENDBRANCH  26  28
ENDBRANCH  25  26
ENDBRANCH  12  25
ENDBRANCH  11  12
ENDBRANCH  10  11
ENDBRANCH   9  10
ENDBRANCH   8   9
ENDBRANCH   7   8
ENDBRANCH   6   7
ENDBRANCH   5   6
ENDBRANCH   4   5
ENDBRANCH   3   4
ENDBRANCH   2   3
TORSDOF 22
ENDMDL
MODEL      176
REMARK 921   NORMALIZED FREE ENERGY PREDICTED BY IDOCK:   -4.19 KCAL/MOL
REMARK 922        TOTAL FREE ENERGY PREDICTED BY IDOCK:  -13.20 KCAL/MOL
REMARK 923 INTER-LIGAND FREE ENERGY PREDICTED BY IDOCK:  -10.37 KCAL/MOL
REMARK 924 INTRA-LIGAND FREE ENERGY PREDICTED BY IDOCK:   -2.83 KCAL/MOL
REMARK 927      BINDING AFFINITY PREDICTED BY RF-SCORE:    0.00 PKD
ROOT
HETATM    1  C   UNL     1     -12.768  15.677  73.801  1.00  0.00    -0.742 C  
HETATM    2  C   UNL     1     -13.721  15.585  72.621  1.00  0.00    -0.667 C  
ENDROOT
BRANCH   2   3
HETATM    3  C   UNL     1     -12.958  15.328  71.325  1.00  0.00    -0.511 C  
BRANCH   3   4
HETATM    4  C   UNL     1     -11.468  15.615  71.479  1.00  0.00    -0.494 C  
BRANCH   4   5
HETATM    5  C   UNL     1     -10.849  16.012  70.137  1.00  0.00    -0.349 C  
BRANCH   5   6
HETATM    6  C   UNL     1     -11.749  15.583  68.986  1.00  0.00    -0.392 C  
BRANCH   6   7
HETATM    7  C   UNL     1     -10.975  14.878  67.871  1.00  0.00    -0.288 C  
BRANCH   7   8
HETATM    8  C   UNL     1     -11.708  13.591  67.511  1.00  0.00    -0.403 C  
BRANCH   8   9
HETATM    9  C   UNL     1     -12.021  12.699  68.708  1.00  0.00    -0.279 C  
BRANCH   9  10
HETATM   10  C   UNL     1     -10.788  11.838  68.999  1.00  0.00    -0.239 C  
BRANCH  10  11
HETATM   11  C   UNL     1     -11.106  10.502  69.652  1.00  0.00    -0.338 C  
BRANCH  11  12
HETATM   12  C   UNL     1      -9.901   9.671  70.130  1.00  0.00    -0.262 C  
BRANCH  12  13
HETATM   13  C   UNL     1     -10.081   8.972  71.497  1.00  0.00    -0.409 C  
BRANCH  13  14
HETATM   14  C   UNL     1     -10.942   7.704  71.450  1.00  0.00    -0.231 C  
HETATM   15  O   UNL     1     -11.572   7.412  72.730  1.00  0.00    -0.286 OA 
HETATM   16  O   UNL     1     -11.036   5.417  73.751  1.00  0.00    -0.283 OA 
HETATM   17  C   UNL     1     -10.177   6.353  71.528  1.00  0.00    -0.221 C  
HETATM   18  C   UNL     1     -10.944   6.222  72.856  1.00  0.00    -0.254 C  
BRANCH  17  19
HETATM   19  C   UNL     1     -10.484   5.240  70.532  1.00  0.00    -0.312 C  
BRANCH  19  20
HETATM   20  C   UNL     1      -9.214   4.474  70.175  1.00  0.00    -0.197 C  
BRANCH  20  21
HETATM   21  C   UNL     1      -9.383   2.970  70.410  1.00  0.00    -0.226 C  
BRANCH  21  22
HETATM   22  C   UNL     1      -9.891   2.687  71.825  1.00  0.00    -0.223 C  
BRANCH  22  23
HETATM   23  C   UNL     1      -8.791   2.870  72.871  1.00  0.00    -0.092 C  
HETATM   24  C   UNL     1      -7.533   2.105  72.484  1.00  0.00    -0.039 C  
ENDBRANCH  22  23
ENDBRANCH  21  22
ENDBRANCH  20  21
ENDBRANCH  19  20
ENDBRANCH  17  19
ENDBRANCH  13  14
ENDBRANCH  12  13
BRANCH  12  25
HETATM   25  O   UNL     1      -9.569   8.646  69.165  1.00  0.00    -0.160 OA 
BRANCH  25  26
HETATM   26  C   UNL     1      -9.095   9.055  67.955  1.00  0.00    -0.136 C  
HETATM   27  O   UNL     1      -8.045   9.657  67.759  1.00  0.00    -0.111 OA 
BRANCH  26  28
HETATM   28  C   UNL     1     -10.044   8.646  66.832  1.00  0.00    -0.285 C  
BRANCH  28  29
HETATM   29  C   UNL     1     -10.518   7.191  66.983  1.00  0.00    -0.392 C  
HETATM   30  C   UNL     1      -8.254   5.963  67.142  1.00  0.00    -0.105 C  
HETATM   31  C   UNL     1     -10.317   4.746  66.478  1.00  0.00    -0.284 C  
HETATM   32  C   UNL     1      -9.592   6.093  66.412  1.00  0.00    -0.162 C  
ENDBRANCH  28  29
BRANCH  28  33
HETATM   33  N   UNL     1      -9.395   8.909  65.549  1.00  0.00    -0.409 N  
HETATM   34  C   UNL     1      -9.668  10.016  64.796  1.00  0.00    -0.293 C  
HETATM   35  O   UNL     1     -10.495  10.871  65.070  1.00  0.00    -0.295 OA 
HETATM   36  H   UNL     1      -8.709   8.238  65.201  1.00  0.00     0.000 HD 
ENDBRANCH  28  33
ENDBRANCH  26  28
ENDBRANCH  25  26
ENDBRANCH  12  25
ENDBRANCH  11  12
ENDBRANCH  10  11
ENDBRANCH   9  10
ENDBRANCH   8   9
ENDBRANCH   7   8
ENDBRANCH   6   7
ENDBRANCH   5   6
ENDBRANCH   4   5
ENDBRANCH   3   4
ENDBRANCH   2   3
TORSDOF 22
ENDMDL
MODEL      177
REMARK 921   NORMALIZED FREE ENERGY PREDICTED BY IDOCK:   -4.18 KCAL/MOL
REMARK 922        TOTAL FREE ENERGY PREDICTED BY IDOCK:  -13.18 KCAL/MOL
REMARK 923 INTER-LIGAND FREE ENERGY PREDICTED BY IDOCK:   -9.09 KCAL/MOL
REMARK 924 INTRA-LIGAND FREE ENERGY PREDICTED BY IDOCK:   -4.09 KCAL/MOL
REMARK 927      BINDING AFFINITY PREDICTED BY RF-SCORE:    0.00 PKD
ROOT
HETATM    1  C   UNL     1     -11.210   6.184  70.287  1.00  0.00    -0.439 C  
HETATM    2  C   UNL     1     -10.349   6.504  71.498  1.00  0.00    -0.238 C  
ENDROOT
BRANCH   2   3
HETATM    3  C   UNL     1     -10.965   7.634  72.318  1.00  0.00    -0.328 C  
BRANCH   3   4
HETATM    4  C   UNL     1     -10.456   9.001  71.871  1.00  0.00    -0.373 C  
BRANCH   4   5
HETATM    5  C   UNL     1      -9.033   8.896  71.318  1.00  0.00    -0.312 C  
BRANCH   5   6
HETATM    6  C   UNL     1      -8.858   9.811  70.113  1.00  0.00    -0.226 C  
BRANCH   6   7
HETATM    7  C   UNL     1      -7.403  10.238  69.910  1.00  0.00    -0.166 C  
BRANCH   7   8
HETATM    8  C   UNL     1      -7.069  10.129  68.427  1.00  0.00    -0.071 C  
BRANCH   8   9
HETATM    9  C   UNL     1      -5.932  11.041  67.978  1.00  0.00    -0.049 C  
BRANCH   9  10
HETATM   10  C   UNL     1      -6.095  12.391  68.684  1.00  0.00    -0.065 C  
BRANCH  10  11
HETATM   11  C   UNL     1      -6.188  13.578  67.738  1.00  0.00    -0.159 C  
BRANCH  11  12
HETATM   12  C   UNL     1      -7.596  14.155  67.501  1.00  0.00    -0.184 C  
BRANCH  12  13
HETATM   13  C   UNL     1      -8.712  13.559  68.388  1.00  0.00    -0.140 C  
BRANCH  13  14
HETATM   14  C   UNL     1      -9.618  12.551  67.671  1.00  0.00    -0.190 C  
HETATM   15  O   UNL     1     -10.164  13.078  66.428  1.00  0.00    -0.267 OA 
HETATM   16  O   UNL     1     -12.456  13.252  66.261  1.00  0.00    -0.354 OA 
HETATM   17  C   UNL     1     -11.060  12.405  68.233  1.00  0.00    -0.283 C  
HETATM   18  C   UNL     1     -11.442  12.970  66.853  1.00  0.00    -0.339 C  
BRANCH  17  19
HETATM   19  C   UNL     1     -11.639  11.021  68.509  1.00  0.00    -0.380 C  
BRANCH  19  20
HETATM   20  C   UNL     1     -12.528  11.049  69.748  1.00  0.00    -0.251 C  
BRANCH  20  21
HETATM   21  C   UNL     1     -12.341  12.345  70.542  1.00  0.00    -0.346 C  
BRANCH  21  22
HETATM   22  C   UNL     1     -13.006  12.250  71.917  1.00  0.00    -0.411 C  
BRANCH  22  23
HETATM   23  C   UNL     1     -13.295  13.632  72.504  1.00  0.00    -0.638 C  
HETATM   24  C   UNL     1     -14.402  14.336  71.731  1.00  0.00    -0.539 C  
ENDBRANCH  22  23
ENDBRANCH  21  22
ENDBRANCH  20  21
ENDBRANCH  19  20
ENDBRANCH  17  19
ENDBRANCH  13  14
ENDBRANCH  12  13
BRANCH  12  25
HETATM   25  O   UNL     1      -7.604  15.587  67.706  1.00  0.00    -0.125 OA 
BRANCH  25  26
HETATM   26  C   UNL     1      -8.528  16.314  67.017  1.00  0.00    -0.202 C  
HETATM   27  O   UNL     1      -8.822  16.170  65.835  1.00  0.00    -0.343 OA 
BRANCH  26  28
HETATM   28  C   UNL     1      -9.191  17.348  67.921  1.00  0.00    -0.256 C  
BRANCH  28  29
HETATM   29  C   UNL     1     -10.677  17.033  68.160  1.00  0.00    -0.374 C  
HETATM   30  C   UNL     1     -10.585  16.074  70.554  1.00  0.00    -0.026 C  
HETATM   31  C   UNL     1     -12.501  15.566  69.054  1.00  0.00     0.147 C  
HETATM   32  C   UNL     1     -10.996  15.846  69.098  1.00  0.00    -0.284 C  
ENDBRANCH  28  29
BRANCH  28  33
HETATM   33  N   UNL     1      -8.969  18.678  67.357  1.00  0.00    -0.271 N  
HETATM   34  C   UNL     1      -7.991  19.518  67.808  1.00  0.00    -0.294 C  
HETATM   35  O   UNL     1      -7.235  19.288  68.740  1.00  0.00    -0.316 OA 
HETATM   36  H   UNL     1      -9.569  18.992  66.594  1.00  0.00     0.000 HD 
ENDBRANCH  28  33
ENDBRANCH  26  28
ENDBRANCH  25  26
ENDBRANCH  12  25
ENDBRANCH  11  12
ENDBRANCH  10  11
ENDBRANCH   9  10
ENDBRANCH   8   9
ENDBRANCH   7   8
ENDBRANCH   6   7
ENDBRANCH   5   6
ENDBRANCH   4   5
ENDBRANCH   3   4
ENDBRANCH   2   3
TORSDOF 22
ENDMDL
MODEL      178
REMARK 921   NORMALIZED FREE ENERGY PREDICTED BY IDOCK:   -4.18 KCAL/MOL
REMARK 922        TOTAL FREE ENERGY PREDICTED BY IDOCK:  -13.18 KCAL/MOL
REMARK 923 INTER-LIGAND FREE ENERGY PREDICTED BY IDOCK:   -9.65 KCAL/MOL
REMARK 924 INTRA-LIGAND FREE ENERGY PREDICTED BY IDOCK:   -3.53 KCAL/MOL
REMARK 927      BINDING AFFINITY PREDICTED BY RF-SCORE:    0.00 PKD
ROOT
HETATM    1  C   UNL     1     -13.386  12.640  72.020  1.00  0.00    -0.555 C  
HETATM    2  C   UNL     1     -14.008  13.988  72.346  1.00  0.00    -0.622 C  
ENDROOT
BRANCH   2   3
HETATM    3  C   UNL     1     -13.030  14.863  73.124  1.00  0.00    -0.627 C  
BRANCH   3   4
HETATM    4  C   UNL     1     -12.446  15.972  72.254  1.00  0.00    -0.536 C  
BRANCH   4   5
HETATM    5  C   UNL     1     -11.181  15.493  71.540  1.00  0.00    -0.399 C  
BRANCH   5   6
HETATM    6  C   UNL     1     -11.149  16.006  70.107  1.00  0.00    -0.372 C  
BRANCH   6   7
HETATM    7  C   UNL     1     -12.230  15.366  69.234  1.00  0.00    -0.219 C  
BRANCH   7   8
HETATM    8  C   UNL     1     -11.634  15.071  67.862  1.00  0.00    -0.350 C  
BRANCH   8   9
HETATM    9  C   UNL     1     -11.739  13.609  67.441  1.00  0.00    -0.416 C  
BRANCH   9  10
HETATM   10  C   UNL     1     -12.133  12.784  68.669  1.00  0.00    -0.152 C  
BRANCH  10  11
HETATM   11  C   UNL     1     -11.027  11.879  69.189  1.00  0.00    -0.251 C  
BRANCH  11  12
HETATM   12  C   UNL     1     -11.354  10.376  69.271  1.00  0.00    -0.235 C  
BRANCH  12  13
HETATM   13  C   UNL     1     -10.999   9.553  68.013  1.00  0.00    -0.155 C  
BRANCH  13  14
HETATM   14  C   UNL     1      -9.883  10.161  67.154  1.00  0.00    -0.187 C  
HETATM   15  O   UNL     1      -9.996   9.789  65.750  1.00  0.00    -0.284 OA 
HETATM   16  O   UNL     1      -8.253   8.602  64.820  1.00  0.00    -0.145 OA 
HETATM   17  C   UNL     1      -8.502   9.453  67.222  1.00  0.00    -0.125 C  
HETATM   18  C   UNL     1      -8.798   9.162  65.740  1.00  0.00    -0.175 C  
BRANCH  17  19
HETATM   19  C   UNL     1      -7.232  10.269  67.443  1.00  0.00    -0.092 C  
BRANCH  19  20
HETATM   20  C   UNL     1      -7.497  11.423  68.406  1.00  0.00    -0.111 C  
BRANCH  20  21
HETATM   21  C   UNL     1      -7.025  12.758  67.822  1.00  0.00    -0.131 C  
BRANCH  21  22
HETATM   22  C   UNL     1      -8.210  13.675  67.514  1.00  0.00    -0.189 C  
BRANCH  22  23
HETATM   23  C   UNL     1      -8.093  15.016  68.239  1.00  0.00    -0.133 C  
HETATM   24  C   UNL     1      -7.582  14.829  69.660  1.00  0.00    -0.047 C  
ENDBRANCH  22  23
ENDBRANCH  21  22
ENDBRANCH  20  21
ENDBRANCH  19  20
ENDBRANCH  17  19
ENDBRANCH  13  14
ENDBRANCH  12  13
BRANCH  12  25
HETATM   25  O   UNL     1     -10.675   9.764  70.391  1.00  0.00    -0.264 OA 
BRANCH  25  26
HETATM   26  C   UNL     1     -11.442   9.341  71.434  1.00  0.00    -0.369 C  
HETATM   27  O   UNL     1     -12.621   9.619  71.621  1.00  0.00    -0.346 OA 
BRANCH  26  28
HETATM   28  C   UNL     1     -10.642   8.432  72.363  1.00  0.00    -0.335 C  
BRANCH  28  29
HETATM   29  C   UNL     1      -9.288   8.036  71.754  1.00  0.00    -0.218 C  
HETATM   30  C   UNL     1      -8.000   7.317  73.871  1.00  0.00    -0.142 C  
HETATM   31  C   UNL     1      -6.783   7.973  71.805  1.00  0.00    -0.058 C  
HETATM   32  C   UNL     1      -8.039   8.229  72.644  1.00  0.00    -0.211 C  
ENDBRANCH  28  29
BRANCH  28  33
HETATM   33  N   UNL     1     -11.470   7.281  72.722  1.00  0.00    -0.505 N  
HETATM   34  C   UNL     1     -11.905   6.369  71.803  1.00  0.00    -0.321 C  
HETATM   35  O   UNL     1     -11.704   6.425  70.600  1.00  0.00    -0.373 OA 
HETATM   36  H   UNL     1     -11.733   7.154  73.700  1.00  0.00     0.000 HD 
ENDBRANCH  28  33
ENDBRANCH  26  28
ENDBRANCH  25  26
ENDBRANCH  12  25
ENDBRANCH  11  12
ENDBRANCH  10  11
ENDBRANCH   9  10
ENDBRANCH   8   9
ENDBRANCH   7   8
ENDBRANCH   6   7
ENDBRANCH   5   6
ENDBRANCH   4   5
ENDBRANCH   3   4
ENDBRANCH   2   3
TORSDOF 22
ENDMDL
MODEL      179
REMARK 921   NORMALIZED FREE ENERGY PREDICTED BY IDOCK:   -4.18 KCAL/MOL
REMARK 922        TOTAL FREE ENERGY PREDICTED BY IDOCK:  -13.17 KCAL/MOL
REMARK 923 INTER-LIGAND FREE ENERGY PREDICTED BY IDOCK:   -9.64 KCAL/MOL
REMARK 924 INTRA-LIGAND FREE ENERGY PREDICTED BY IDOCK:   -3.53 KCAL/MOL
REMARK 927      BINDING AFFINITY PREDICTED BY RF-SCORE:    0.00 PKD
ROOT
HETATM    1  C   UNL     1      -9.468   2.462  63.036  1.00  0.00    -0.090 C  
HETATM    2  C   UNL     1     -10.697   3.271  63.417  1.00  0.00    -0.241 C  
ENDROOT
BRANCH   2   3
HETATM    3  C   UNL     1     -10.488   3.978  64.753  1.00  0.00    -0.194 C  
BRANCH   3   4
HETATM    4  C   UNL     1      -9.066   3.794  65.275  1.00  0.00    -0.143 C  
BRANCH   4   5
HETATM    5  C   UNL     1      -9.048   2.854  66.482  1.00  0.00    -0.153 C  
BRANCH   5   6
HETATM    6  C   UNL     1      -9.386   3.615  67.757  1.00  0.00    -0.242 C  
BRANCH   6   7
HETATM    7  C   UNL     1      -8.544   4.881  67.921  1.00  0.00    -0.103 C  
BRANCH   7   8
HETATM    8  C   UNL     1      -9.431   5.983  68.490  1.00  0.00    -0.127 C  
BRANCH   8   9
HETATM    9  C   UNL     1     -10.809   6.066  67.841  1.00  0.00    -0.378 C  
BRANCH   9  10
HETATM   10  C   UNL     1     -10.914   7.409  67.111  1.00  0.00    -0.225 C  
BRANCH  10  11
HETATM   11  C   UNL     1      -9.716   8.323  67.318  1.00  0.00    -0.234 C  
BRANCH  11  12
HETATM   12  C   UNL     1     -10.023   9.755  67.794  1.00  0.00    -0.168 C  
BRANCH  12  13
HETATM   13  C   UNL     1     -10.310   9.901  69.304  1.00  0.00    -0.235 C  
BRANCH  13  14
HETATM   14  C   UNL     1     -11.689  10.484  69.633  1.00  0.00    -0.256 C  
HETATM   15  O   UNL     1     -11.861  11.834  69.114  1.00  0.00    -0.299 OA 
HETATM   16  O   UNL     1     -12.251  13.519  70.638  1.00  0.00    -0.351 OA 
HETATM   17  C   UNL     1     -11.879  11.024  71.078  1.00  0.00    -0.212 C  
HETATM   18  C   UNL     1     -12.041  12.367  70.343  1.00  0.00    -0.297 C  
BRANCH  17  19
HETATM   19  C   UNL     1     -13.104  10.621  71.891  1.00  0.00    -0.563 C  
BRANCH  19  20
HETATM   20  C   UNL     1     -13.618   9.255  71.446  1.00  0.00    -0.358 C  
BRANCH  20  21
HETATM   21  C   UNL     1     -13.008   8.128  72.284  1.00  0.00    -0.232 C  
BRANCH  21  22
HETATM   22  C   UNL     1     -12.130   7.215  71.426  1.00  0.00    -0.381 C  
BRANCH  22  23
HETATM   23  C   UNL     1     -10.805   6.890  72.116  1.00  0.00    -0.256 C  
HETATM   24  C   UNL     1     -10.228   8.120  72.803  1.00  0.00    -0.372 C  
ENDBRANCH  22  23
ENDBRANCH  21  22
ENDBRANCH  20  21
ENDBRANCH  19  20
ENDBRANCH  17  19
ENDBRANCH  13  14
ENDBRANCH  12  13
BRANCH  12  25
HETATM   25  O   UNL     1      -8.928  10.646  67.476  1.00  0.00    -0.135 OA 
BRANCH  25  26
HETATM   26  C   UNL     1      -8.891  11.170  66.219  1.00  0.00    -0.185 C  
HETATM   27  O   UNL     1      -8.223  10.748  65.282  1.00  0.00    -0.142 OA 
BRANCH  26  28
HETATM   28  C   UNL     1      -9.825  12.371  66.103  1.00  0.00    -0.252 C  
BRANCH  28  29
HETATM   29  C   UNL     1     -10.600  12.369  64.776  1.00  0.00    -0.331 C  
HETATM   30  C   UNL     1     -12.754  13.606  65.478  1.00  0.00    -0.514 C  
HETATM   31  C   UNL     1     -12.725  12.144  63.467  1.00  0.00    -0.553 C  
HETATM   32  C   UNL     1     -12.143  12.342  64.870  1.00  0.00    -0.470 C  
ENDBRANCH  28  29
BRANCH  28  33
HETATM   33  N   UNL     1      -9.048  13.592  66.315  1.00  0.00    -0.479 N  
HETATM   34  C   UNL     1      -9.421  14.560  67.203  1.00  0.00    -0.231 C  
HETATM   35  O   UNL     1     -10.440  14.548  67.876  1.00  0.00    -0.239 OA 
HETATM   36  H   UNL     1      -8.192  13.727  65.775  1.00  0.00     0.000 HD 
ENDBRANCH  28  33
ENDBRANCH  26  28
ENDBRANCH  25  26
ENDBRANCH  12  25
ENDBRANCH  11  12
ENDBRANCH  10  11
ENDBRANCH   9  10
ENDBRANCH   8   9
ENDBRANCH   7   8
ENDBRANCH   6   7
ENDBRANCH   5   6
ENDBRANCH   4   5
ENDBRANCH   3   4
ENDBRANCH   2   3
TORSDOF 22
ENDMDL
MODEL      180
REMARK 921   NORMALIZED FREE ENERGY PREDICTED BY IDOCK:   -4.18 KCAL/MOL
REMARK 922        TOTAL FREE ENERGY PREDICTED BY IDOCK:  -13.17 KCAL/MOL
REMARK 923 INTER-LIGAND FREE ENERGY PREDICTED BY IDOCK:   -9.06 KCAL/MOL
REMARK 924 INTRA-LIGAND FREE ENERGY PREDICTED BY IDOCK:   -4.10 KCAL/MOL
REMARK 927      BINDING AFFINITY PREDICTED BY RF-SCORE:    0.00 PKD
ROOT
HETATM    1  C   UNL     1      -9.313  11.154  62.727  1.00  0.00    -0.377 C  
HETATM    2  C   UNL     1     -10.159  11.370  63.971  1.00  0.00    -0.369 C  
ENDROOT
BRANCH   2   3
HETATM    3  C   UNL     1     -10.906  12.699  63.895  1.00  0.00    -0.468 C  
BRANCH   3   4
HETATM    4  C   UNL     1     -12.320  12.586  64.457  1.00  0.00    -0.545 C  
BRANCH   4   5
HETATM    5  C   UNL     1     -12.708  13.861  65.209  1.00  0.00    -0.485 C  
BRANCH   5   6
HETATM    6  C   UNL     1     -12.187  13.816  66.640  1.00  0.00    -0.454 C  
BRANCH   6   7
HETATM    7  C   UNL     1     -11.355  15.050  66.996  1.00  0.00    -0.319 C  
BRANCH   7   8
HETATM    8  C   UNL     1     -10.076  14.590  67.684  1.00  0.00    -0.228 C  
BRANCH   8   9
HETATM    9  C   UNL     1      -9.012  14.062  66.727  1.00  0.00    -0.217 C  
BRANCH   9  10
HETATM   10  C   UNL     1      -8.178  13.012  67.468  1.00  0.00    -0.181 C  
BRANCH  10  11
HETATM   11  C   UNL     1      -8.159  11.648  66.796  1.00  0.00    -0.150 C  
BRANCH  11  12
HETATM   12  C   UNL     1      -8.948  10.529  67.500  1.00  0.00    -0.135 C  
BRANCH  12  13
HETATM   13  C   UNL     1     -10.483  10.605  67.345  1.00  0.00    -0.280 C  
BRANCH  13  14
HETATM   14  C   UNL     1     -11.268  10.112  68.567  1.00  0.00    -0.168 C  
HETATM   15  O   UNL     1     -12.386  10.984  68.900  1.00  0.00    -0.516 OA 
HETATM   16  O   UNL     1     -12.370  11.994  70.971  1.00  0.00    -0.346 OA 
HETATM   17  C   UNL     1     -10.634  10.411  69.955  1.00  0.00    -0.299 C  
HETATM   18  C   UNL     1     -11.893  11.280  70.123  1.00  0.00    -0.364 C  
BRANCH  17  19
HETATM   19  C   UNL     1     -10.512   9.302  70.996  1.00  0.00    -0.384 C  
BRANCH  19  20
HETATM   20  C   UNL     1      -9.046   8.978  71.264  1.00  0.00    -0.302 C  
BRANCH  20  21
HETATM   21  C   UNL     1      -8.894   7.643  71.999  1.00  0.00    -0.149 C  
BRANCH  21  22
HETATM   22  C   UNL     1      -9.521   7.706  73.393  1.00  0.00    -0.330 C  
BRANCH  22  23
HETATM   23  C   UNL     1      -8.779   6.816  74.391  1.00  0.00    -0.195 C  
HETATM   24  C   UNL     1      -7.318   7.227  74.513  1.00  0.00    -0.133 C  
ENDBRANCH  22  23
ENDBRANCH  21  22
ENDBRANCH  20  21
ENDBRANCH  19  20
ENDBRANCH  17  19
ENDBRANCH  13  14
ENDBRANCH  12  13
BRANCH  12  25
HETATM   25  O   UNL     1      -8.533   9.229  67.020  1.00  0.00    -0.122 OA 
BRANCH  25  26
HETATM   26  C   UNL     1      -7.721   8.492  67.828  1.00  0.00    -0.103 C  
HETATM   27  O   UNL     1      -6.925   8.936  68.649  1.00  0.00    -0.062 OA 
BRANCH  26  28
HETATM   28  C   UNL     1      -7.940   6.999  67.603  1.00  0.00    -0.114 C  
BRANCH  28  29
HETATM   29  C   UNL     1      -8.911   6.399  68.632  1.00  0.00    -0.120 C  
HETATM   30  C   UNL     1     -10.928   5.843  67.121  1.00  0.00    -0.289 C  
HETATM   31  C   UNL     1     -11.212   6.103  69.577  1.00  0.00    -0.482 C  
HETATM   32  C   UNL     1     -10.421   6.586  68.358  1.00  0.00    -0.258 C  
ENDBRANCH  28  29
BRANCH  28  33
HETATM   33  N   UNL     1      -6.639   6.331  67.582  1.00  0.00    -0.053 N  
HETATM   34  C   UNL     1      -6.042   5.912  66.427  1.00  0.00    -0.029 C  
HETATM   35  O   UNL     1      -6.527   5.997  65.309  1.00  0.00    -0.040 OA 
HETATM   36  H   UNL     1      -6.156   6.172  68.467  1.00  0.00     0.000 HD 
ENDBRANCH  28  33
ENDBRANCH  26  28
ENDBRANCH  25  26
ENDBRANCH  12  25
ENDBRANCH  11  12
ENDBRANCH  10  11
ENDBRANCH   9  10
ENDBRANCH   8   9
ENDBRANCH   7   8
ENDBRANCH   6   7
ENDBRANCH   5   6
ENDBRANCH   4   5
ENDBRANCH   3   4
ENDBRANCH   2   3
TORSDOF 22
ENDMDL
MODEL      181
REMARK 921   NORMALIZED FREE ENERGY PREDICTED BY IDOCK:   -4.18 KCAL/MOL
REMARK 922        TOTAL FREE ENERGY PREDICTED BY IDOCK:  -13.16 KCAL/MOL
REMARK 923 INTER-LIGAND FREE ENERGY PREDICTED BY IDOCK:  -10.76 KCAL/MOL
REMARK 924 INTRA-LIGAND FREE ENERGY PREDICTED BY IDOCK:   -2.40 KCAL/MOL
REMARK 927      BINDING AFFINITY PREDICTED BY RF-SCORE:    0.00 PKD
ROOT
HETATM    1  C   UNL     1      -8.125   6.406  70.649  1.00  0.00    -0.113 C  
HETATM    2  C   UNL     1      -9.322   5.470  70.693  1.00  0.00    -0.195 C  
ENDROOT
BRANCH   2   3
HETATM    3  C   UNL     1      -9.589   4.998  72.119  1.00  0.00    -0.191 C  
BRANCH   3   4
HETATM    4  C   UNL     1     -10.577   5.909  72.841  1.00  0.00    -0.265 C  
BRANCH   4   5
HETATM    5  C   UNL     1     -11.906   5.976  72.086  1.00  0.00    -0.304 C  
BRANCH   5   6
HETATM    6  C   UNL     1     -12.297   7.423  71.817  1.00  0.00    -0.365 C  
BRANCH   6   7
HETATM    7  C   UNL     1     -11.179   8.404  72.175  1.00  0.00    -0.431 C  
BRANCH   7   8
HETATM    8  C   UNL     1     -11.261   9.597  71.229  1.00  0.00    -0.446 C  
BRANCH   8   9
HETATM    9  C   UNL     1     -12.508  10.455  71.418  1.00  0.00    -0.521 C  
BRANCH   9  10
HETATM   10  C   UNL     1     -12.401  11.667  70.488  1.00  0.00    -0.410 C  
BRANCH  10  11
HETATM   11  C   UNL     1     -11.887  11.337  69.095  1.00  0.00    -0.423 C  
BRANCH  11  12
HETATM   12  C   UNL     1     -11.044  12.422  68.402  1.00  0.00    -0.250 C  
BRANCH  12  13
HETATM   13  C   UNL     1     -11.124  13.828  69.038  1.00  0.00    -0.296 C  
BRANCH  13  14
HETATM   14  C   UNL     1     -11.619  14.925  68.089  1.00  0.00    -0.334 C  
HETATM   15  O   UNL     1     -11.951  14.410  66.768  1.00  0.00    -0.411 OA 
HETATM   16  O   UNL     1     -10.763  15.235  64.973  1.00  0.00    -0.400 OA 
HETATM   17  C   UNL     1     -10.524  15.827  67.453  1.00  0.00    -0.297 C  
HETATM   18  C   UNL     1     -11.021  15.173  66.151  1.00  0.00    -0.331 C  
BRANCH  17  19
HETATM   19  C   UNL     1     -10.675  17.344  67.472  1.00  0.00    -0.278 C  
BRANCH  19  20
HETATM   20  C   UNL     1      -9.790  17.985  66.407  1.00  0.00    -0.340 C  
BRANCH  20  21
HETATM   21  C   UNL     1      -9.383  19.408  66.799  1.00  0.00    -0.395 C  
BRANCH  21  22
HETATM   22  C   UNL     1      -7.911  19.467  67.210  1.00  0.00    -0.293 C  
BRANCH  22  23
HETATM   23  C   UNL     1      -7.384  20.902  67.231  1.00  0.00    -0.378 C  
HETATM   24  C   UNL     1      -5.927  20.946  67.669  1.00  0.00    -0.355 C  
ENDBRANCH  22  23
ENDBRANCH  21  22
ENDBRANCH  20  21
ENDBRANCH  19  20
ENDBRANCH  17  19
ENDBRANCH  13  14
ENDBRANCH  12  13
BRANCH  12  25
HETATM   25  O   UNL     1      -9.648  12.045  68.369  1.00  0.00    -0.204 OA 
BRANCH  25  26
HETATM   26  C   UNL     1      -8.956  12.298  67.224  1.00  0.00    -0.187 C  
HETATM   27  O   UNL     1      -8.240  13.271  67.015  1.00  0.00    -0.148 OA 
BRANCH  26  28
HETATM   28  C   UNL     1      -9.167  11.184  66.203  1.00  0.00    -0.198 C  
BRANCH  28  29
HETATM   29  C   UNL     1     -10.484  11.354  65.430  1.00  0.00    -0.336 C  
HETATM   30  C   UNL     1      -9.685  10.918  63.016  1.00  0.00    -0.380 C  
HETATM   31  C   UNL     1     -11.788  12.169  63.452  1.00  0.00    -0.553 C  
HETATM   32  C   UNL     1     -10.380  11.880  63.981  1.00  0.00    -0.403 C  
ENDBRANCH  28  29
BRANCH  28  33
HETATM   33  N   UNL     1      -9.063   9.895  66.886  1.00  0.00    -0.141 N  
HETATM   34  C   UNL     1      -7.931   9.131  66.853  1.00  0.00    -0.105 C  
HETATM   35  O   UNL     1      -6.915   9.397  66.231  1.00  0.00    -0.084 OA 
HETATM   36  H   UNL     1      -9.869   9.553  67.410  1.00  0.00     0.000 HD 
ENDBRANCH  28  33
ENDBRANCH  26  28
ENDBRANCH  25  26
ENDBRANCH  12  25
ENDBRANCH  11  12
ENDBRANCH  10  11
ENDBRANCH   9  10
ENDBRANCH   8   9
ENDBRANCH   7   8
ENDBRANCH   6   7
ENDBRANCH   5   6
ENDBRANCH   4   5
ENDBRANCH   3   4
ENDBRANCH   2   3
TORSDOF 22
ENDMDL
MODEL      182
REMARK 921   NORMALIZED FREE ENERGY PREDICTED BY IDOCK:   -4.17 KCAL/MOL
REMARK 922        TOTAL FREE ENERGY PREDICTED BY IDOCK:  -13.16 KCAL/MOL
REMARK 923 INTER-LIGAND FREE ENERGY PREDICTED BY IDOCK:  -11.25 KCAL/MOL
REMARK 924 INTRA-LIGAND FREE ENERGY PREDICTED BY IDOCK:   -1.91 KCAL/MOL
REMARK 927      BINDING AFFINITY PREDICTED BY RF-SCORE:    0.00 PKD
ROOT
HETATM    1  C   UNL     1      -9.029   1.862  62.548  1.00  0.00    -0.073 C  
HETATM    2  C   UNL     1     -10.441   2.197  63.000  1.00  0.00    -0.146 C  
ENDROOT
BRANCH   2   3
HETATM    3  C   UNL     1     -10.452   3.466  63.849  1.00  0.00    -0.248 C  
BRANCH   3   4
HETATM    4  C   UNL     1      -9.191   4.298  63.640  1.00  0.00    -0.138 C  
BRANCH   4   5
HETATM    5  C   UNL     1      -8.700   4.882  64.966  1.00  0.00    -0.149 C  
BRANCH   5   6
HETATM    6  C   UNL     1      -9.078   3.969  66.125  1.00  0.00    -0.141 C  
BRANCH   6   7
HETATM    7  C   UNL     1      -9.715   4.735  67.286  1.00  0.00    -0.210 C  
BRANCH   7   8
HETATM    8  C   UNL     1     -10.610   5.827  66.713  1.00  0.00    -0.373 C  
BRANCH   8   9
HETATM    9  C   UNL     1     -11.118   6.822  67.752  1.00  0.00    -0.285 C  
BRANCH   9  10
HETATM   10  C   UNL     1     -10.092   7.952  67.876  1.00  0.00    -0.240 C  
BRANCH  10  11
HETATM   11  C   UNL     1     -10.656   9.335  67.589  1.00  0.00    -0.324 C  
BRANCH  11  12
HETATM   12  C   UNL     1     -10.833  10.267  68.802  1.00  0.00    -0.230 C  
BRANCH  12  13
HETATM   13  C   UNL     1     -10.279   9.725  70.138  1.00  0.00    -0.328 C  
BRANCH  13  14
HETATM   14  C   UNL     1     -11.272   9.783  71.305  1.00  0.00    -0.347 C  
HETATM   15  O   UNL     1     -11.825   8.476  71.630  1.00  0.00    -0.277 OA 
HETATM   16  O   UNL     1     -14.106   8.206  71.436  1.00  0.00    -0.361 OA 
HETATM   17  C   UNL     1     -12.700  10.294  70.965  1.00  0.00    -0.491 C  
HETATM   18  C   UNL     1     -13.092   8.858  71.358  1.00  0.00    -0.269 C  
BRANCH  17  19
HETATM   19  C   UNL     1     -13.355  11.366  71.830  1.00  0.00    -0.368 C  
BRANCH  19  20
HETATM   20  C   UNL     1     -12.801  12.745  71.486  1.00  0.00    -0.369 C  
BRANCH  20  21
HETATM   21  C   UNL     1     -13.608  13.857  72.164  1.00  0.00    -0.599 C  
BRANCH  21  22
HETATM   22  C   UNL     1     -13.021  15.234  71.850  1.00  0.00    -0.467 C  
BRANCH  22  23
HETATM   23  C   UNL     1     -11.932  15.629  72.847  1.00  0.00    -0.588 C  
HETATM   24  C   UNL     1     -12.501  15.773  74.252  1.00  0.00    -0.800 C  
ENDBRANCH  22  23
ENDBRANCH  21  22
ENDBRANCH  20  21
ENDBRANCH  19  20
ENDBRANCH  17  19
ENDBRANCH  13  14
ENDBRANCH  12  13
BRANCH  12  25
HETATM   25  O   UNL     1     -10.200  11.546  68.562  1.00  0.00    -0.201 OA 
BRANCH  25  26
HETATM   26  C   UNL     1      -9.541  11.708  67.381  1.00  0.00    -0.166 C  
HETATM   27  O   UNL     1      -8.564  11.067  67.007  1.00  0.00    -0.134 OA 
BRANCH  26  28
HETATM   28  C   UNL     1     -10.192  12.801  66.540  1.00  0.00    -0.253 C  
BRANCH  28  29
HETATM   29  C   UNL     1     -10.870  12.231  65.283  1.00  0.00    -0.332 C  
HETATM   30  C   UNL     1     -12.339  14.233  64.580  1.00  0.00    -0.433 C  
HETATM   31  C   UNL     1     -12.868  11.932  63.802  1.00  0.00    -0.396 C  
HETATM   32  C   UNL     1     -12.289  12.752  64.958  1.00  0.00    -0.559 C  
ENDBRANCH  28  29
BRANCH  28  33
HETATM   33  N   UNL     1      -9.191  13.823  66.240  1.00  0.00    -0.484 N  
HETATM   34  C   UNL     1      -9.147  15.026  66.886  1.00  0.00    -0.247 C  
HETATM   35  O   UNL     1      -9.942  15.404  67.733  1.00  0.00    -0.224 OA 
HETATM   36  H   UNL     1      -8.495  13.630  65.519  1.00  0.00     0.000 HD 
ENDBRANCH  28  33
ENDBRANCH  26  28
ENDBRANCH  25  26
ENDBRANCH  12  25
ENDBRANCH  11  12
ENDBRANCH  10  11
ENDBRANCH   9  10
ENDBRANCH   8   9
ENDBRANCH   7   8
ENDBRANCH   6   7
ENDBRANCH   5   6
ENDBRANCH   4   5
ENDBRANCH   3   4
ENDBRANCH   2   3
TORSDOF 22
ENDMDL
MODEL      183
REMARK 921   NORMALIZED FREE ENERGY PREDICTED BY IDOCK:   -4.17 KCAL/MOL
REMARK 922        TOTAL FREE ENERGY PREDICTED BY IDOCK:  -13.15 KCAL/MOL
REMARK 923 INTER-LIGAND FREE ENERGY PREDICTED BY IDOCK:  -10.33 KCAL/MOL
REMARK 924 INTRA-LIGAND FREE ENERGY PREDICTED BY IDOCK:   -2.82 KCAL/MOL
REMARK 927      BINDING AFFINITY PREDICTED BY RF-SCORE:    0.00 PKD
ROOT
HETATM    1  C   UNL     1     -10.266   2.928  63.699  1.00  0.00    -0.180 C  
HETATM    2  C   UNL     1     -10.777   4.083  64.545  1.00  0.00    -0.181 C  
ENDROOT
BRANCH   2   3
HETATM    3  C   UNL     1      -9.737   4.500  65.580  1.00  0.00    -0.207 C  
BRANCH   3   4
HETATM    4  C   UNL     1     -10.378   5.185  66.783  1.00  0.00    -0.306 C  
BRANCH   4   5
HETATM    5  C   UNL     1      -9.750   6.560  67.024  1.00  0.00    -0.188 C  
BRANCH   5   6
HETATM    6  C   UNL     1      -8.818   6.929  65.878  1.00  0.00    -0.125 C  
BRANCH   6   7
HETATM    7  C   UNL     1      -7.733   7.921  66.304  1.00  0.00    -0.092 C  
BRANCH   7   8
HETATM    8  C   UNL     1      -7.908   9.205  65.502  1.00  0.00    -0.095 C  
BRANCH   8   9
HETATM    9  C   UNL     1      -9.001   9.129  64.440  1.00  0.00    -0.104 C  
BRANCH   9  10
HETATM   10  C   UNL     1     -10.004  10.256  64.704  1.00  0.00    -0.377 C  
BRANCH  10  11
HETATM   11  C   UNL     1      -9.504  11.317  65.673  1.00  0.00    -0.254 C  
BRANCH  11  12
HETATM   12  C   UNL     1     -10.425  11.646  66.862  1.00  0.00    -0.227 C  
BRANCH  12  13
HETATM   13  C   UNL     1     -11.787  12.272  66.488  1.00  0.00    -0.378 C  
BRANCH  13  14
HETATM   14  C   UNL     1     -11.869  13.787  66.707  1.00  0.00    -0.420 C  
HETATM   15  O   UNL     1     -12.217  14.508  65.491  1.00  0.00    -0.353 OA 
HETATM   16  O   UNL     1     -10.694  16.040  64.688  1.00  0.00    -0.601 OA 
HETATM   17  C   UNL     1     -10.514  14.546  66.760  1.00  0.00    -0.270 C  
HETATM   18  C   UNL     1     -11.060  15.207  65.481  1.00  0.00    -0.345 C  
BRANCH  17  19
HETATM   19  C   UNL     1     -10.233  15.535  67.887  1.00  0.00    -0.238 C  
BRANCH  19  20
HETATM   20  C   UNL     1     -11.318  15.452  68.956  1.00  0.00    -0.324 C  
BRANCH  20  21
HETATM   21  C   UNL     1     -10.732  15.620  70.361  1.00  0.00    -0.336 C  
BRANCH  21  22
HETATM   22  C   UNL     1     -11.821  15.982  71.373  1.00  0.00    -0.531 C  
BRANCH  22  23
HETATM   23  C   UNL     1     -13.144  15.283  71.059  1.00  0.00    -0.544 C  
HETATM   24  C   UNL     1     -14.005  15.152  72.308  1.00  0.00    -0.631 C  
ENDBRANCH  22  23
ENDBRANCH  21  22
ENDBRANCH  20  21
ENDBRANCH  19  20
ENDBRANCH  17  19
ENDBRANCH  13  14
ENDBRANCH  12  13
BRANCH  12  25
HETATM   25  O   UNL     1     -10.698  10.460  67.643  1.00  0.00    -0.243 OA 
BRANCH  25  26
HETATM   26  C   UNL     1      -9.850  10.178  68.671  1.00  0.00    -0.162 C  
HETATM   27  O   UNL     1      -8.645  10.407  68.695  1.00  0.00    -0.119 OA 
BRANCH  26  28
HETATM   28  C   UNL     1     -10.601   9.541  69.837  1.00  0.00    -0.241 C  
BRANCH  28  29
HETATM   29  C   UNL     1     -11.325  10.591  70.694  1.00  0.00    -0.363 C  
HETATM   30  C   UNL     1     -12.586   9.069  72.354  1.00  0.00    -0.403 C  
HETATM   31  C   UNL     1     -13.337  11.404  71.948  1.00  0.00    -0.409 C  
HETATM   32  C   UNL     1     -12.684  10.177  71.304  1.00  0.00    -0.509 C  
ENDBRANCH  28  29
BRANCH  28  33
HETATM   33  N   UNL     1      -9.668   8.717  70.603  1.00  0.00    -0.175 N  
HETATM   34  C   UNL     1      -9.809   7.364  70.728  1.00  0.00    -0.178 C  
HETATM   35  O   UNL     1     -10.727   6.703  70.269  1.00  0.00    -0.220 OA 
HETATM   36  H   UNL     1      -8.879   9.171  71.064  1.00  0.00     0.000 HD 
ENDBRANCH  28  33
ENDBRANCH  26  28
ENDBRANCH  25  26
ENDBRANCH  12  25
ENDBRANCH  11  12
ENDBRANCH  10  11
ENDBRANCH   9  10
ENDBRANCH   8   9
ENDBRANCH   7   8
ENDBRANCH   6   7
ENDBRANCH   5   6
ENDBRANCH   4   5
ENDBRANCH   3   4
ENDBRANCH   2   3
TORSDOF 22
ENDMDL
MODEL      184
REMARK 921   NORMALIZED FREE ENERGY PREDICTED BY IDOCK:   -4.16 KCAL/MOL
REMARK 922        TOTAL FREE ENERGY PREDICTED BY IDOCK:  -13.12 KCAL/MOL
REMARK 923 INTER-LIGAND FREE ENERGY PREDICTED BY IDOCK:  -10.06 KCAL/MOL
REMARK 924 INTRA-LIGAND FREE ENERGY PREDICTED BY IDOCK:   -3.07 KCAL/MOL
REMARK 927      BINDING AFFINITY PREDICTED BY RF-SCORE:    0.00 PKD
ROOT
HETATM    1  C   UNL     1     -10.708  19.416  67.394  1.00  0.00    -0.594 C  
HETATM    2  C   UNL     1     -10.073  18.247  68.130  1.00  0.00    -0.397 C  
ENDROOT
BRANCH   2   3
HETATM    3  C   UNL     1     -10.598  16.918  67.594  1.00  0.00    -0.325 C  
BRANCH   3   4
HETATM    4  C   UNL     1     -10.293  16.748  66.108  1.00  0.00    -0.338 C  
BRANCH   4   5
HETATM    5  C   UNL     1     -10.264  15.266  65.727  1.00  0.00    -0.372 C  
BRANCH   5   6
HETATM    6  C   UNL     1     -11.496  14.900  64.910  1.00  0.00    -0.407 C  
BRANCH   6   7
HETATM    7  C   UNL     1     -12.471  14.016  65.689  1.00  0.00    -0.531 C  
BRANCH   7   8
HETATM    8  C   UNL     1     -12.758  12.767  64.864  1.00  0.00    -0.479 C  
BRANCH   8   9
HETATM    9  C   UNL     1     -11.953  12.679  63.571  1.00  0.00    -0.630 C  
BRANCH   9  10
HETATM   10  C   UNL     1     -11.066  11.432  63.643  1.00  0.00    -0.411 C  
BRANCH  10  11
HETATM   11  C   UNL     1      -9.663  11.698  64.167  1.00  0.00    -0.207 C  
BRANCH  11  12
HETATM   12  C   UNL     1      -9.267  10.969  65.464  1.00  0.00    -0.213 C  
BRANCH  12  13
HETATM   13  C   UNL     1      -9.886  11.541  66.759  1.00  0.00    -0.227 C  
BRANCH  13  14
HETATM   14  C   UNL     1     -10.866  10.596  67.464  1.00  0.00    -0.296 C  
HETATM   15  O   UNL     1     -12.134  11.240  67.776  1.00  0.00    -0.631 OA 
HETATM   16  O   UNL     1     -12.738  11.382  69.996  1.00  0.00    -0.105 OA 
HETATM   17  C   UNL     1     -10.621  10.360  68.980  1.00  0.00    -0.247 C  
HETATM   18  C   UNL     1     -11.986  11.060  69.107  1.00  0.00    -0.324 C  
BRANCH  17  19
HETATM   19  C   UNL     1     -10.606   8.943  69.543  1.00  0.00    -0.233 C  
BRANCH  19  20
HETATM   20  C   UNL     1      -9.965   8.922  70.927  1.00  0.00    -0.304 C  
BRANCH  20  21
HETATM   21  C   UNL     1     -10.998   8.623  72.017  1.00  0.00    -0.432 C  
BRANCH  21  22
HETATM   22  C   UNL     1     -11.713   7.297  71.752  1.00  0.00    -0.321 C  
BRANCH  22  23
HETATM   23  C   UNL     1     -10.838   6.097  72.113  1.00  0.00    -0.289 C  
HETATM   24  C   UNL     1     -11.637   5.041  72.865  1.00  0.00    -0.261 C  
ENDBRANCH  22  23
ENDBRANCH  21  22
ENDBRANCH  20  21
ENDBRANCH  19  20
ENDBRANCH  17  19
ENDBRANCH  13  14
ENDBRANCH  12  13
BRANCH  12  25
HETATM   25  O   UNL     1      -9.630   9.570  65.397  1.00  0.00    -0.276 OA 
BRANCH  25  26
HETATM   26  C   UNL     1      -8.785   8.735  64.731  1.00  0.00    -0.097 C  
HETATM   27  O   UNL     1      -8.502   8.797  63.539  1.00  0.00    -0.177 OA 
BRANCH  26  28
HETATM   28  C   UNL     1      -8.196   7.691  65.675  1.00  0.00    -0.136 C  
BRANCH  28  29
HETATM   29  C   UNL     1      -9.135   7.387  66.852  1.00  0.00    -0.164 C  
HETATM   30  C   UNL     1      -8.324   5.029  67.516  1.00  0.00    -0.105 C  
HETATM   31  C   UNL     1     -10.590   5.822  68.162  1.00  0.00    -0.286 C  
HETATM   32  C   UNL     1      -9.502   5.903  67.086  1.00  0.00    -0.123 C  
ENDBRANCH  28  29
BRANCH  28  33
HETATM   33  N   UNL     1      -6.869   8.137  66.098  1.00  0.00    -0.057 N  
HETATM   34  C   UNL     1      -5.725   7.467  65.767  1.00  0.00    -0.037 C  
HETATM   35  O   UNL     1      -5.673   6.422  65.138  1.00  0.00    -0.021 OA 
HETATM   36  H   UNL     1      -6.794   8.983  66.663  1.00  0.00     0.000 HD 
ENDBRANCH  28  33
ENDBRANCH  26  28
ENDBRANCH  25  26
ENDBRANCH  12  25
ENDBRANCH  11  12
ENDBRANCH  10  11
ENDBRANCH   9  10
ENDBRANCH   8   9
ENDBRANCH   7   8
ENDBRANCH   6   7
ENDBRANCH   5   6
ENDBRANCH   4   5
ENDBRANCH   3   4
ENDBRANCH   2   3
TORSDOF 22
ENDMDL
MODEL      185
REMARK 921   NORMALIZED FREE ENERGY PREDICTED BY IDOCK:   -4.15 KCAL/MOL
REMARK 922        TOTAL FREE ENERGY PREDICTED BY IDOCK:  -13.11 KCAL/MOL
REMARK 923 INTER-LIGAND FREE ENERGY PREDICTED BY IDOCK:   -9.63 KCAL/MOL
REMARK 924 INTRA-LIGAND FREE ENERGY PREDICTED BY IDOCK:   -3.48 KCAL/MOL
REMARK 927      BINDING AFFINITY PREDICTED BY RF-SCORE:    0.00 PKD
ROOT
HETATM    1  C   UNL     1     -11.177   5.995  72.573  1.00  0.00    -0.333 C  
HETATM    2  C   UNL     1     -11.976   6.912  71.660  1.00  0.00    -0.379 C  
ENDROOT
BRANCH   2   3
HETATM    3  C   UNL     1     -11.697   8.377  71.983  1.00  0.00    -0.417 C  
BRANCH   3   4
HETATM    4  C   UNL     1     -10.208   8.700  71.901  1.00  0.00    -0.404 C  
BRANCH   4   5
HETATM    5  C   UNL     1      -9.865   9.341  70.555  1.00  0.00    -0.310 C  
BRANCH   5   6
HETATM    6  C   UNL     1      -9.108   8.357  69.672  1.00  0.00    -0.153 C  
BRANCH   6   7
HETATM    7  C   UNL     1      -7.677   8.120  70.156  1.00  0.00    -0.085 C  
BRANCH   7   8
HETATM    8  C   UNL     1      -6.749   9.072  69.410  1.00  0.00    -0.048 C  
BRANCH   8   9
HETATM    9  C   UNL     1      -6.172  10.184  70.280  1.00  0.00    -0.103 C  
BRANCH   9  10
HETATM   10  C   UNL     1      -6.623  11.529  69.701  1.00  0.00    -0.112 C  
BRANCH  10  11
HETATM   11  C   UNL     1      -7.073  11.459  68.249  1.00  0.00    -0.078 C  
BRANCH  11  12
HETATM   12  C   UNL     1      -8.204  12.420  67.837  1.00  0.00    -0.163 C  
BRANCH  12  13
HETATM   13  C   UNL     1      -7.756  13.858  67.495  1.00  0.00    -0.192 C  
BRANCH  13  14
HETATM   14  C   UNL     1      -7.950  14.868  68.632  1.00  0.00    -0.144 C  
HETATM   15  O   UNL     1      -9.328  14.926  69.097  1.00  0.00    -0.195 OA 
HETATM   16  O   UNL     1     -10.436  16.937  68.900  1.00  0.00    -0.307 OA 
HETATM   17  C   UNL     1      -8.037  16.363  68.214  1.00  0.00    -0.171 C  
HETATM   18  C   UNL     1      -9.469  16.228  68.763  1.00  0.00    -0.237 C  
BRANCH  17  19
HETATM   19  C   UNL     1      -7.200  17.411  68.939  1.00  0.00    -0.250 C  
BRANCH  19  20
HETATM   20  C   UNL     1      -6.725  18.485  67.965  1.00  0.00    -0.222 C  
BRANCH  20  21
HETATM   21  C   UNL     1      -7.431  19.820  68.217  1.00  0.00    -0.346 C  
BRANCH  21  22
HETATM   22  C   UNL     1      -8.333  20.198  67.039  1.00  0.00    -0.382 C  
BRANCH  22  23
HETATM   23  C   UNL     1      -9.813  20.135  67.415  1.00  0.00    -0.573 C  
HETATM   24  C   UNL     1     -10.591  19.265  66.437  1.00  0.00    -0.542 C  
ENDBRANCH  22  23
ENDBRANCH  21  22
ENDBRANCH  20  21
ENDBRANCH  19  20
ENDBRANCH  17  19
ENDBRANCH  13  14
ENDBRANCH  12  13
BRANCH  12  25
HETATM   25  O   UNL     1      -8.918  11.907  66.689  1.00  0.00    -0.191 OA 
BRANCH  25  26
HETATM   26  C   UNL     1     -10.071  11.221  66.923  1.00  0.00    -0.212 C  
HETATM   27  O   UNL     1     -10.208  10.003  66.873  1.00  0.00    -0.216 OA 
BRANCH  26  28
HETATM   28  C   UNL     1     -11.207  12.173  67.286  1.00  0.00    -0.306 C  
BRANCH  28  29
HETATM   29  C   UNL     1     -11.974  11.702  68.533  1.00  0.00    -0.284 C  
HETATM   30  C   UNL     1     -12.364  13.952  69.735  1.00  0.00    -0.330 C  
HETATM   31  C   UNL     1     -12.464  11.807  70.988  1.00  0.00    -0.411 C  
HETATM   32  C   UNL     1     -11.791  12.537  69.821  1.00  0.00    -0.380 C  
ENDBRANCH  28  29
BRANCH  28  33
HETATM   33  N   UNL     1     -12.065  12.351  66.116  1.00  0.00    -0.334 N  
HETATM   34  C   UNL     1     -12.337  13.577  65.579  1.00  0.00    -0.481 C  
HETATM   35  O   UNL     1     -11.949  14.646  66.023  1.00  0.00    -0.337 OA 
HETATM   36  H   UNL     1     -12.477  11.524  65.682  1.00  0.00     0.000 HD 
ENDBRANCH  28  33
ENDBRANCH  26  28
ENDBRANCH  25  26
ENDBRANCH  12  25
ENDBRANCH  11  12
ENDBRANCH  10  11
ENDBRANCH   9  10
ENDBRANCH   8   9
ENDBRANCH   7   8
ENDBRANCH   6   7
ENDBRANCH   5   6
ENDBRANCH   4   5
ENDBRANCH   3   4
ENDBRANCH   2   3
TORSDOF 22
ENDMDL
MODEL      186
REMARK 921   NORMALIZED FREE ENERGY PREDICTED BY IDOCK:   -4.15 KCAL/MOL
REMARK 922        TOTAL FREE ENERGY PREDICTED BY IDOCK:  -13.10 KCAL/MOL
REMARK 923 INTER-LIGAND FREE ENERGY PREDICTED BY IDOCK:  -10.28 KCAL/MOL
REMARK 924 INTRA-LIGAND FREE ENERGY PREDICTED BY IDOCK:   -2.82 KCAL/MOL
REMARK 927      BINDING AFFINITY PREDICTED BY RF-SCORE:    0.00 PKD
ROOT
HETATM    1  C   UNL     1     -10.919   6.182  67.385  1.00  0.00    -0.409 C  
HETATM    2  C   UNL     1      -9.854   5.644  68.327  1.00  0.00    -0.177 C  
ENDROOT
BRANCH   2   3
HETATM    3  C   UNL     1     -10.471   5.218  69.657  1.00  0.00    -0.320 C  
BRANCH   3   4
HETATM    4  C   UNL     1      -9.648   5.707  70.845  1.00  0.00    -0.212 C  
BRANCH   4   5
HETATM    5  C   UNL     1     -10.552   6.018  72.040  1.00  0.00    -0.267 C  
BRANCH   5   6
HETATM    6  C   UNL     1     -11.622   7.030  71.652  1.00  0.00    -0.320 C  
BRANCH   6   7
HETATM    7  C   UNL     1     -11.328   8.428  72.199  1.00  0.00    -0.437 C  
BRANCH   7   8
HETATM    8  C   UNL     1     -11.553   9.442  71.083  1.00  0.00    -0.415 C  
BRANCH   8   9
HETATM    9  C   UNL     1     -10.322   9.695  70.218  1.00  0.00    -0.336 C  
BRANCH   9  10
HETATM   10  C   UNL     1     -10.795  10.073  68.811  1.00  0.00    -0.252 C  
BRANCH  10  11
HETATM   11  C   UNL     1     -11.923  11.093  68.788  1.00  0.00    -0.337 C  
BRANCH  11  12
HETATM   12  C   UNL     1     -11.570  12.491  68.249  1.00  0.00    -0.328 C  
BRANCH  12  13
HETATM   13  C   UNL     1     -11.705  12.662  66.719  1.00  0.00    -0.460 C  
BRANCH  13  14
HETATM   14  C   UNL     1     -10.370  12.792  65.977  1.00  0.00    -0.276 C  
HETATM   15  O   UNL     1     -10.544  13.177  64.583  1.00  0.00    -0.347 OA 
HETATM   16  O   UNL     1      -9.783  11.714  62.972  1.00  0.00    -0.396 OA 
HETATM   17  C   UNL     1      -9.708  11.463  65.519  1.00  0.00    -0.263 C  
HETATM   18  C   UNL     1      -9.971  12.044  64.118  1.00  0.00    -0.263 C  
BRANCH  17  19
HETATM   19  C   UNL     1      -8.232  11.203  65.806  1.00  0.00    -0.004 C  
BRANCH  19  20
HETATM   20  C   UNL     1      -8.028   9.781  66.318  1.00  0.00    -0.109 C  
BRANCH  20  21
HETATM   21  C   UNL     1      -9.014   8.806  65.669  1.00  0.00    -0.248 C  
BRANCH  21  22
HETATM   22  C   UNL     1      -8.280   7.659  64.971  1.00  0.00    -0.116 C  
BRANCH  22  23
HETATM   23  C   UNL     1      -7.465   8.151  63.775  1.00  0.00    -0.120 C  
HETATM   24  C   UNL     1      -8.159   7.815  62.463  1.00  0.00    -0.133 C  
ENDBRANCH  22  23
ENDBRANCH  21  22
ENDBRANCH  20  21
ENDBRANCH  19  20
ENDBRANCH  17  19
ENDBRANCH  13  14
ENDBRANCH  12  13
BRANCH  12  25
HETATM   25  O   UNL     1     -12.396  13.503  68.869  1.00  0.00    -0.248 OA 
BRANCH  25  26
HETATM   26  C   UNL     1     -12.314  13.637  70.222  1.00  0.00    -0.322 C  
HETATM   27  O   UNL     1     -12.302  12.721  71.037  1.00  0.00    -0.356 OA 
BRANCH  26  28
HETATM   28  C   UNL     1     -12.216  15.107  70.619  1.00  0.00    -0.351 C  
BRANCH  28  29
HETATM   29  C   UNL     1     -11.777  15.991  69.440  1.00  0.00    -0.287 C  
HETATM   30  C   UNL     1      -9.297  15.308  69.225  1.00  0.00    -0.239 C  
HETATM   31  C   UNL     1     -10.107  17.468  68.297  1.00  0.00    -0.346 C  
HETATM   32  C   UNL     1     -10.300  16.447  69.422  1.00  0.00    -0.290 C  
ENDBRANCH  28  29
BRANCH  28  33
HETATM   33  N   UNL     1     -11.338  15.222  71.782  1.00  0.00    -0.490 N  
HETATM   34  C   UNL     1     -11.744  15.779  72.961  1.00  0.00    -0.349 C  
HETATM   35  O   UNL     1     -12.840  16.277  73.168  1.00  0.00    -0.458 OA 
HETATM   36  H   UNL     1     -10.382  14.871  71.711  1.00  0.00     0.000 HD 
ENDBRANCH  28  33
ENDBRANCH  26  28
ENDBRANCH  25  26
ENDBRANCH  12  25
ENDBRANCH  11  12
ENDBRANCH  10  11
ENDBRANCH   9  10
ENDBRANCH   8   9
ENDBRANCH   7   8
ENDBRANCH   6   7
ENDBRANCH   5   6
ENDBRANCH   4   5
ENDBRANCH   3   4
ENDBRANCH   2   3
TORSDOF 22
ENDMDL
MODEL      187
REMARK 921   NORMALIZED FREE ENERGY PREDICTED BY IDOCK:   -4.14 KCAL/MOL
REMARK 922        TOTAL FREE ENERGY PREDICTED BY IDOCK:  -13.08 KCAL/MOL
REMARK 923 INTER-LIGAND FREE ENERGY PREDICTED BY IDOCK:   -8.95 KCAL/MOL
REMARK 924 INTRA-LIGAND FREE ENERGY PREDICTED BY IDOCK:   -4.12 KCAL/MOL
REMARK 927      BINDING AFFINITY PREDICTED BY RF-SCORE:    0.00 PKD
ROOT
HETATM    1  C   UNL     1     -11.672  13.259  69.097  1.00  0.00    -0.379 C  
HETATM    2  C   UNL     1     -12.272  14.579  69.554  1.00  0.00    -0.306 C  
ENDROOT
BRANCH   2   3
HETATM    3  C   UNL     1     -11.289  15.726  69.339  1.00  0.00    -0.348 C  
BRANCH   3   4
HETATM    4  C   UNL     1     -11.461  16.368  67.965  1.00  0.00    -0.059 C  
BRANCH   4   5
HETATM    5  C   UNL     1     -10.230  17.199  67.597  1.00  0.00    -0.329 C  
BRANCH   5   6
HETATM    6  C   UNL     1      -8.977  16.606  68.227  1.00  0.00    -0.214 C  
BRANCH   6   7
HETATM    7  C   UNL     1      -7.897  16.288  67.191  1.00  0.00    -0.225 C  
BRANCH   7   8
HETATM    8  C   UNL     1      -7.236  14.968  67.570  1.00  0.00    -0.228 C  
BRANCH   8   9
HETATM    9  C   UNL     1      -8.110  14.061  68.431  1.00  0.00    -0.148 C  
BRANCH   9  10
HETATM   10  C   UNL     1      -7.309  12.798  68.764  1.00  0.00    -0.067 C  
BRANCH  10  11
HETATM   11  C   UNL     1      -7.326  11.746  67.666  1.00  0.00    -0.119 C  
BRANCH  11  12
HETATM   12  C   UNL     1      -8.321  10.585  67.846  1.00  0.00    -0.115 C  
BRANCH  12  13
HETATM   13  C   UNL     1      -8.553  10.135  69.305  1.00  0.00    -0.180 C  
BRANCH  13  14
HETATM   14  C   UNL     1      -8.137   8.688  69.595  1.00  0.00    -0.112 C  
HETATM   15  O   UNL     1      -7.349   8.109  68.516  1.00  0.00    -0.089 OA 
HETATM   16  O   UNL     1      -8.205   6.252  67.452  1.00  0.00    -0.109 OA 
HETATM   17  C   UNL     1      -9.226   7.603  69.372  1.00  0.00    -0.149 C  
HETATM   18  C   UNL     1      -8.254   7.134  68.275  1.00  0.00    -0.124 C  
BRANCH  17  19
HETATM   19  C   UNL     1      -9.491   6.551  70.445  1.00  0.00    -0.170 C  
BRANCH  19  20
HETATM   20  C   UNL     1     -10.933   6.637  70.935  1.00  0.00    -0.315 C  
BRANCH  20  21
HETATM   21  C   UNL     1     -11.492   8.055  70.786  1.00  0.00    -0.273 C  
BRANCH  21  22
HETATM   22  C   UNL     1     -11.821   8.665  72.150  1.00  0.00    -0.447 C  
BRANCH  22  23
HETATM   23  C   UNL     1     -13.156   9.409  72.132  1.00  0.00    -0.526 C  
HETATM   24  C   UNL     1     -12.990  10.822  71.590  1.00  0.00    -0.581 C  
ENDBRANCH  22  23
ENDBRANCH  21  22
ENDBRANCH  20  21
ENDBRANCH  19  20
ENDBRANCH  17  19
ENDBRANCH  13  14
ENDBRANCH  12  13
BRANCH  12  25
HETATM   25  O   UNL     1      -9.612  10.926  67.291  1.00  0.00    -0.163 OA 
BRANCH  25  26
HETATM   26  C   UNL     1     -10.069  10.168  66.255  1.00  0.00    -0.238 C  
HETATM   27  O   UNL     1     -10.461   9.009  66.329  1.00  0.00    -0.179 OA 
BRANCH  26  28
HETATM   28  C   UNL     1     -10.058  10.963  64.953  1.00  0.00    -0.312 C  
BRANCH  28  29
HETATM   29  C   UNL     1     -11.306  11.849  64.811  1.00  0.00    -0.344 C  
HETATM   30  C   UNL     1     -10.267  14.192  65.115  1.00  0.00    -0.411 C  
HETATM   31  C   UNL     1     -12.697  13.820  65.489  1.00  0.00    -0.530 C  
HETATM   32  C   UNL     1     -11.309  13.181  65.596  1.00  0.00    -0.328 C  
ENDBRANCH  28  29
BRANCH  28  33
HETATM   33  N   UNL     1      -9.881  10.035  63.837  1.00  0.00    -0.484 N  
HETATM   34  C   UNL     1      -8.653   9.699  63.343  1.00  0.00    -0.209 C  
HETATM   35  O   UNL     1      -7.587  10.154  63.729  1.00  0.00    -0.147 OA 
HETATM   36  H   UNL     1     -10.710   9.620  63.410  1.00  0.00     0.000 HD 
ENDBRANCH  28  33
ENDBRANCH  26  28
ENDBRANCH  25  26
ENDBRANCH  12  25
ENDBRANCH  11  12
ENDBRANCH  10  11
ENDBRANCH   9  10
ENDBRANCH   8   9
ENDBRANCH   7   8
ENDBRANCH   6   7
ENDBRANCH   5   6
ENDBRANCH   4   5
ENDBRANCH   3   4
ENDBRANCH   2   3
TORSDOF 22
ENDMDL
MODEL      188
REMARK 921   NORMALIZED FREE ENERGY PREDICTED BY IDOCK:   -4.12 KCAL/MOL
REMARK 922        TOTAL FREE ENERGY PREDICTED BY IDOCK:  -13.04 KCAL/MOL
REMARK 923 INTER-LIGAND FREE ENERGY PREDICTED BY IDOCK:   -9.77 KCAL/MOL
REMARK 924 INTRA-LIGAND FREE ENERGY PREDICTED BY IDOCK:   -3.26 KCAL/MOL
REMARK 927      BINDING AFFINITY PREDICTED BY RF-SCORE:    0.00 PKD
ROOT
HETATM    1  C   UNL     1      -6.730  19.304  69.291  1.00  0.00    -0.356 C  
HETATM    2  C   UNL     1      -7.786  18.559  68.491  1.00  0.00    -0.330 C  
ENDROOT
BRANCH   2   3
HETATM    3  C   UNL     1      -7.484  18.630  66.997  1.00  0.00    -0.229 C  
BRANCH   3   4
HETATM    4  C   UNL     1      -7.864  17.337  66.281  1.00  0.00    -0.344 C  
BRANCH   4   5
HETATM    5  C   UNL     1      -9.069  16.677  66.955  1.00  0.00    -0.248 C  
BRANCH   5   6
HETATM    6  C   UNL     1      -9.318  15.294  66.368  1.00  0.00    -0.328 C  
BRANCH   6   7
HETATM    7  C   UNL     1     -10.058  15.352  65.030  1.00  0.00    -0.210 C  
BRANCH   7   8
HETATM    8  C   UNL     1     -11.447  14.755  65.219  1.00  0.00    -0.352 C  
BRANCH   8   9
HETATM    9  C   UNL     1     -11.824  13.715  64.169  1.00  0.00    -0.463 C  
BRANCH   9  10
HETATM   10  C   UNL     1     -10.614  12.802  63.943  1.00  0.00    -0.427 C  
BRANCH  10  11
HETATM   11  C   UNL     1     -10.820  11.372  64.419  1.00  0.00    -0.397 C  
BRANCH  11  12
HETATM   12  C   UNL     1     -10.252  11.024  65.806  1.00  0.00    -0.260 C  
BRANCH  12  13
HETATM   13  C   UNL     1      -8.792  11.465  66.052  1.00  0.00    -0.177 C  
BRANCH  13  14
HETATM   14  C   UNL     1      -7.824  10.313  66.347  1.00  0.00    -0.119 C  
HETATM   15  O   UNL     1      -6.469  10.593  65.892  1.00  0.00    -0.119 OA 
HETATM   16  O   UNL     1      -5.568   9.188  64.303  1.00  0.00    -0.066 OA 
HETATM   17  C   UNL     1      -7.889   9.098  65.380  1.00  0.00    -0.100 C  
HETATM   18  C   UNL     1      -6.457   9.548  65.035  1.00  0.00    -0.084 C  
BRANCH  17  19
HETATM   19  C   UNL     1      -7.967   7.680  65.935  1.00  0.00    -0.116 C  
BRANCH  19  20
HETATM   20  C   UNL     1      -9.417   7.289  66.207  1.00  0.00    -0.133 C  
BRANCH  20  21
HETATM   21  C   UNL     1      -9.535   6.411  67.455  1.00  0.00    -0.121 C  
BRANCH  21  22
HETATM   22  C   UNL     1     -11.001   6.139  67.802  1.00  0.00    -0.400 C  
BRANCH  22  23
HETATM   23  C   UNL     1     -11.249   6.202  69.309  1.00  0.00    -0.438 C  
HETATM   24  C   UNL     1     -10.043   6.777  70.040  1.00  0.00    -0.200 C  
ENDBRANCH  22  23
ENDBRANCH  21  22
ENDBRANCH  20  21
ENDBRANCH  19  20
ENDBRANCH  17  19
ENDBRANCH  13  14
ENDBRANCH  12  13
BRANCH  12  25
HETATM   25  O   UNL     1     -11.059  11.611  66.853  1.00  0.00    -0.280 OA 
BRANCH  25  26
HETATM   26  C   UNL     1     -11.288  10.859  67.965  1.00  0.00    -0.312 C  
HETATM   27  O   UNL     1     -11.130   9.647  68.060  1.00  0.00    -0.188 OA 
BRANCH  26  28
HETATM   28  C   UNL     1     -11.759  11.732  69.125  1.00  0.00    -0.325 C  
BRANCH  28  29
HETATM   29  C   UNL     1     -11.309  13.193  68.963  1.00  0.00    -0.332 C  
HETATM   30  C   UNL     1     -12.560  14.300  70.931  1.00  0.00    -0.426 C  
HETATM   31  C   UNL     1     -11.767  15.656  69.003  1.00  0.00    -0.408 C  
HETATM   32  C   UNL     1     -12.303  14.284  69.423  1.00  0.00    -0.238 C  
ENDBRANCH  28  29
BRANCH  28  33
HETATM   33  N   UNL     1     -11.314  11.128  70.379  1.00  0.00    -0.473 N  
HETATM   34  C   UNL     1     -12.131  10.362  71.162  1.00  0.00    -0.386 C  
HETATM   35  O   UNL     1     -13.310  10.134  70.942  1.00  0.00    -0.388 OA 
HETATM   36  H   UNL     1     -10.352  11.284  70.683  1.00  0.00     0.000 HD 
ENDBRANCH  28  33
ENDBRANCH  26  28
ENDBRANCH  25  26
ENDBRANCH  12  25
ENDBRANCH  11  12
ENDBRANCH  10  11
ENDBRANCH   9  10
ENDBRANCH   8   9
ENDBRANCH   7   8
ENDBRANCH   6   7
ENDBRANCH   5   6
ENDBRANCH   4   5
ENDBRANCH   3   4
ENDBRANCH   2   3
TORSDOF 22
ENDMDL
MODEL      189
REMARK 921   NORMALIZED FREE ENERGY PREDICTED BY IDOCK:   -4.11 KCAL/MOL
REMARK 922        TOTAL FREE ENERGY PREDICTED BY IDOCK:  -13.02 KCAL/MOL
REMARK 923 INTER-LIGAND FREE ENERGY PREDICTED BY IDOCK:   -9.66 KCAL/MOL
REMARK 924 INTRA-LIGAND FREE ENERGY PREDICTED BY IDOCK:   -3.36 KCAL/MOL
REMARK 927      BINDING AFFINITY PREDICTED BY RF-SCORE:    0.00 PKD
ROOT
HETATM    1  C   UNL     1     -10.729   6.292  66.896  1.00  0.00    -0.411 C  
HETATM    2  C   UNL     1     -10.436   5.619  68.227  1.00  0.00    -0.257 C  
ENDROOT
BRANCH   2   3
HETATM    3  C   UNL     1     -11.258   6.252  69.347  1.00  0.00    -0.489 C  
BRANCH   3   4
HETATM    4  C   UNL     1     -10.754   5.832  70.724  1.00  0.00    -0.342 C  
BRANCH   4   5
HETATM    5  C   UNL     1     -11.505   6.580  71.828  1.00  0.00    -0.346 C  
BRANCH   5   6
HETATM    6  C   UNL     1     -11.576   8.068  71.512  1.00  0.00    -0.313 C  
BRANCH   6   7
HETATM    7  C   UNL     1     -10.222   8.764  71.672  1.00  0.00    -0.394 C  
BRANCH   7   8
HETATM    8  C   UNL     1     -10.126   9.880  70.638  1.00  0.00    -0.146 C  
BRANCH   8   9
HETATM    9  C   UNL     1      -9.840   9.390  69.222  1.00  0.00    -0.176 C  
BRANCH   9  10
HETATM   10  C   UNL     1     -11.011   9.804  68.326  1.00  0.00    -0.215 C  
BRANCH  10  11
HETATM   11  C   UNL     1     -11.843  10.949  68.883  1.00  0.00    -0.340 C  
BRANCH  11  12
HETATM   12  C   UNL     1     -11.555  12.347  68.306  1.00  0.00    -0.333 C  
BRANCH  12  13
HETATM   13  C   UNL     1     -11.625  12.453  66.766  1.00  0.00    -0.444 C  
BRANCH  13  14
HETATM   14  C   UNL     1     -10.281  12.750  66.090  1.00  0.00    -0.275 C  
HETATM   15  O   UNL     1      -9.583  11.539  65.683  1.00  0.00    -0.223 OA 
HETATM   16  O   UNL     1      -7.518  11.132  66.621  1.00  0.00    -0.139 OA 
HETATM   17  C   UNL     1      -9.100  13.102  67.038  1.00  0.00    -0.231 C  
HETATM   18  C   UNL     1      -8.521  11.789  66.480  1.00  0.00    -0.125 C  
BRANCH  17  19
HETATM   19  C   UNL     1      -8.230  14.322  66.756  1.00  0.00     0.114 C  
BRANCH  19  20
HETATM   20  C   UNL     1      -6.950  14.271  67.587  1.00  0.00    -0.202 C  
BRANCH  20  21
HETATM   21  C   UNL     1      -6.214  15.614  67.562  1.00  0.00    -0.161 C  
BRANCH  21  22
HETATM   22  C   UNL     1      -7.033  16.680  66.832  1.00  0.00    -0.262 C  
BRANCH  22  23
HETATM   23  C   UNL     1      -6.840  18.065  67.449  1.00  0.00    -0.202 C  
HETATM   24  C   UNL     1      -6.436  17.963  68.913  1.00  0.00    -0.228 C  
ENDBRANCH  22  23
ENDBRANCH  21  22
ENDBRANCH  20  21
ENDBRANCH  19  20
ENDBRANCH  17  19
ENDBRANCH  13  14
ENDBRANCH  12  13
BRANCH  12  25
HETATM   25  O   UNL     1     -12.475  13.324  68.846  1.00  0.00    -0.038 OA 
BRANCH  25  26
HETATM   26  C   UNL     1     -12.413  13.571  70.184  1.00  0.00    -0.209 C  
HETATM   27  O   UNL     1     -12.247  12.733  71.064  1.00  0.00    -0.307 OA 
BRANCH  26  28
HETATM   28  C   UNL     1     -12.559  15.062  70.469  1.00  0.00    -0.369 C  
BRANCH  28  29
HETATM   29  C   UNL     1     -12.011  15.923  69.320  1.00  0.00    -0.254 C  
HETATM   30  C   UNL     1      -9.471  15.633  69.673  1.00  0.00    -0.243 C  
HETATM   31  C   UNL     1     -10.364  17.567  68.392  1.00  0.00    -0.378 C  
HETATM   32  C   UNL     1     -10.644  16.607  69.551  1.00  0.00    -0.308 C  
ENDBRANCH  28  29
BRANCH  28  33
HETATM   33  N   UNL     1     -11.935  15.358  71.758  1.00  0.00    -0.361 N  
HETATM   34  C   UNL     1     -12.655  15.701  72.867  1.00  0.00    -0.446 C  
HETATM   35  O   UNL     1     -13.867  15.845  72.906  1.00  0.00    -0.605 OA 
HETATM   36  H   UNL     1     -10.918  15.305  71.833  1.00  0.00     0.000 HD 
ENDBRANCH  28  33
ENDBRANCH  26  28
ENDBRANCH  25  26
ENDBRANCH  12  25
ENDBRANCH  11  12
ENDBRANCH  10  11
ENDBRANCH   9  10
ENDBRANCH   8   9
ENDBRANCH   7   8
ENDBRANCH   6   7
ENDBRANCH   5   6
ENDBRANCH   4   5
ENDBRANCH   3   4
ENDBRANCH   2   3
TORSDOF 22
ENDMDL
MODEL      190
REMARK 921   NORMALIZED FREE ENERGY PREDICTED BY IDOCK:   -4.11 KCAL/MOL
REMARK 922        TOTAL FREE ENERGY PREDICTED BY IDOCK:  -13.01 KCAL/MOL
REMARK 923 INTER-LIGAND FREE ENERGY PREDICTED BY IDOCK:   -9.31 KCAL/MOL
REMARK 924 INTRA-LIGAND FREE ENERGY PREDICTED BY IDOCK:   -3.70 KCAL/MOL
REMARK 927      BINDING AFFINITY PREDICTED BY RF-SCORE:    0.00 PKD
ROOT
HETATM    1  C   UNL     1     -10.827  15.610  64.901  1.00  0.00    -0.438 C  
HETATM    2  C   UNL     1     -12.065  14.879  64.408  1.00  0.00    -0.417 C  
ENDROOT
BRANCH   2   3
HETATM    3  C   UNL     1     -12.360  13.662  65.280  1.00  0.00    -0.498 C  
BRANCH   3   4
HETATM    4  C   UNL     1     -12.628  12.417  64.442  1.00  0.00    -0.489 C  
BRANCH   4   5
HETATM    5  C   UNL     1     -11.510  12.199  63.421  1.00  0.00    -0.501 C  
BRANCH   5   6
HETATM    6  C   UNL     1     -10.198  11.880  64.125  1.00  0.00    -0.364 C  
BRANCH   6   7
HETATM    7  C   UNL     1      -9.734  10.444  63.873  1.00  0.00    -0.367 C  
BRANCH   7   8
HETATM    8  C   UNL     1      -9.459   9.781  65.218  1.00  0.00    -0.343 C  
BRANCH   8   9
HETATM    9  C   UNL     1     -10.482  10.120  66.297  1.00  0.00    -0.192 C  
BRANCH   9  10
HETATM   10  C   UNL     1     -10.521   8.963  67.301  1.00  0.00    -0.348 C  
BRANCH  10  11
HETATM   11  C   UNL     1      -9.862   9.278  68.635  1.00  0.00    -0.173 C  
BRANCH  11  12
HETATM   12  C   UNL     1      -8.452   8.701  68.856  1.00  0.00    -0.129 C  
BRANCH  12  13
HETATM   13  C   UNL     1      -7.319   9.745  68.954  1.00  0.00    -0.073 C  
BRANCH  13  14
HETATM   14  C   UNL     1      -7.217  10.684  67.746  1.00  0.00    -0.088 C  
HETATM   15  O   UNL     1      -5.839  11.029  67.423  1.00  0.00    -0.044 OA 
HETATM   16  O   UNL     1      -5.246  13.253  67.528  1.00  0.00    -0.285 OA 
HETATM   17  C   UNL     1      -7.521  12.184  68.015  1.00  0.00    -0.116 C  
HETATM   18  C   UNL     1      -6.038  12.349  67.635  1.00  0.00    -0.129 C  
BRANCH  17  19
HETATM   19  C   UNL     1      -8.475  12.949  67.103  1.00  0.00    -0.179 C  
BRANCH  19  20
HETATM   20  C   UNL     1      -9.430  13.808  67.926  1.00  0.00    -0.214 C  
BRANCH  20  21
HETATM   21  C   UNL     1     -10.554  12.966  68.538  1.00  0.00    -0.270 C  
BRANCH  21  22
HETATM   22  C   UNL     1     -11.541  13.841  69.312  1.00  0.00    -0.362 C  
BRANCH  22  23
HETATM   23  C   UNL     1     -12.250  13.057  70.416  1.00  0.00    -0.386 C  
HETATM   24  C   UNL     1     -11.976  11.565  70.293  1.00  0.00    -0.455 C  
ENDBRANCH  22  23
ENDBRANCH  21  22
ENDBRANCH  20  21
ENDBRANCH  19  20
ENDBRANCH  17  19
ENDBRANCH  13  14
ENDBRANCH  12  13
BRANCH  12  25
HETATM   25  O   UNL     1      -8.408   7.904  70.062  1.00  0.00    -0.118 OA 
BRANCH  25  26
HETATM   26  C   UNL     1      -9.192   8.298  71.104  1.00  0.00    -0.162 C  
HETATM   27  O   UNL     1      -9.169   9.396  71.648  1.00  0.00    -0.258 OA 
BRANCH  26  28
HETATM   28  C   UNL     1     -10.151   7.184  71.514  1.00  0.00    -0.186 C  
BRANCH  28  29
HETATM   29  C   UNL     1      -9.541   5.791  71.291  1.00  0.00    -0.198 C  
HETATM   30  C   UNL     1     -10.775   4.430  73.104  1.00  0.00    -0.296 C  
HETATM   31  C   UNL     1      -8.625   3.623  72.152  1.00  0.00    -0.101 C  
HETATM   32  C   UNL     1      -9.428   4.872  72.529  1.00  0.00    -0.164 C  
ENDBRANCH  28  29
BRANCH  28  33
HETATM   33  N   UNL     1     -11.421   7.375  70.815  1.00  0.00    -0.284 N  
HETATM   34  C   UNL     1     -12.471   8.054  71.364  1.00  0.00    -0.301 C  
HETATM   35  O   UNL     1     -12.496   8.530  72.488  1.00  0.00    -0.383 OA 
HETATM   36  H   UNL     1     -11.527   6.985  69.878  1.00  0.00     0.000 HD 
ENDBRANCH  28  33
ENDBRANCH  26  28
ENDBRANCH  25  26
ENDBRANCH  12  25
ENDBRANCH  11  12
ENDBRANCH  10  11
ENDBRANCH   9  10
ENDBRANCH   8   9
ENDBRANCH   7   8
ENDBRANCH   6   7
ENDBRANCH   5   6
ENDBRANCH   4   5
ENDBRANCH   3   4
ENDBRANCH   2   3
TORSDOF 22
ENDMDL
MODEL      191
REMARK 921   NORMALIZED FREE ENERGY PREDICTED BY IDOCK:   -4.09 KCAL/MOL
REMARK 922        TOTAL FREE ENERGY PREDICTED BY IDOCK:  -12.98 KCAL/MOL
REMARK 923 INTER-LIGAND FREE ENERGY PREDICTED BY IDOCK:   -9.88 KCAL/MOL
REMARK 924 INTRA-LIGAND FREE ENERGY PREDICTED BY IDOCK:   -3.10 KCAL/MOL
REMARK 927      BINDING AFFINITY PREDICTED BY RF-SCORE:    0.00 PKD
ROOT
HETATM    1  C   UNL     1     -10.178  17.643  66.192  1.00  0.00    -0.345 C  
HETATM    2  C   UNL     1     -10.135  16.317  66.934  1.00  0.00    -0.278 C  
ENDROOT
BRANCH   2   3
HETATM    3  C   UNL     1     -10.310  15.149  65.969  1.00  0.00    -0.326 C  
BRANCH   3   4
HETATM    4  C   UNL     1     -11.728  14.587  66.011  1.00  0.00    -0.347 C  
BRANCH   4   5
HETATM    5  C   UNL     1     -12.239  14.295  64.599  1.00  0.00    -0.470 C  
BRANCH   5   6
HETATM    6  C   UNL     1     -12.759  12.866  64.503  1.00  0.00    -0.359 C  
BRANCH   6   7
HETATM    7  C   UNL     1     -12.075  12.070  63.391  1.00  0.00    -0.597 C  
BRANCH   7   8
HETATM    8  C   UNL     1     -10.567  12.144  63.598  1.00  0.00    -0.504 C  
BRANCH   8   9
HETATM    9  C   UNL     1      -9.918  10.801  63.921  1.00  0.00    -0.404 C  
BRANCH   9  10
HETATM   10  C   UNL     1      -9.914  10.624  65.442  1.00  0.00    -0.343 C  
BRANCH  10  11
HETATM   11  C   UNL     1      -9.891   9.173  65.897  1.00  0.00    -0.305 C  
BRANCH  11  12
HETATM   12  C   UNL     1      -9.308   8.905  67.297  1.00  0.00    -0.140 C  
BRANCH  12  13
HETATM   13  C   UNL     1      -7.940   8.188  67.316  1.00  0.00    -0.113 C  
BRANCH  13  14
HETATM   14  C   UNL     1      -7.904   6.917  68.173  1.00  0.00    -0.114 C  
HETATM   15  O   UNL     1      -6.667   6.166  68.004  1.00  0.00    -0.059 OA 
HETATM   16  O   UNL     1      -6.828   4.018  67.183  1.00  0.00    -0.049 OA 
HETATM   17  C   UNL     1      -8.706   5.701  67.630  1.00  0.00    -0.107 C  
HETATM   18  C   UNL     1      -7.304   5.072  67.531  1.00  0.00    -0.079 C  
BRANCH  17  19
HETATM   19  C   UNL     1      -9.655   4.938  68.549  1.00  0.00    -0.210 C  
BRANCH  19  20
HETATM   20  C   UNL     1     -10.766   5.854  69.053  1.00  0.00    -0.379 C  
BRANCH  20  21
HETATM   21  C   UNL     1     -10.945   5.734  70.569  1.00  0.00    -0.320 C  
BRANCH  21  22
HETATM   22  C   UNL     1      -9.725   6.278  71.314  1.00  0.00    -0.193 C  
BRANCH  22  23
HETATM   23  C   UNL     1      -9.858   6.103  72.826  1.00  0.00    -0.176 C  
HETATM   24  C   UNL     1     -11.048   5.220  73.174  1.00  0.00    -0.384 C  
ENDBRANCH  22  23
ENDBRANCH  21  22
ENDBRANCH  20  21
ENDBRANCH  19  20
ENDBRANCH  17  19
ENDBRANCH  13  14
ENDBRANCH  12  13
BRANCH  12  25
HETATM   25  O   UNL     1      -9.157  10.140  68.035  1.00  0.00    -0.130 OA 
BRANCH  25  26
HETATM   26  C   UNL     1      -9.365  10.096  69.380  1.00  0.00    -0.219 C  
HETATM   27  O   UNL     1      -8.545   9.756  70.226  1.00  0.00    -0.202 OA 
BRANCH  26  28
HETATM   28  C   UNL     1     -10.779  10.554  69.726  1.00  0.00    -0.264 C  
BRANCH  28  29
HETATM   29  C   UNL     1     -11.615   9.421  70.342  1.00  0.00    -0.241 C  
HETATM   30  C   UNL     1     -13.182  10.767  71.889  1.00  0.00    -0.524 C  
HETATM   31  C   UNL     1     -12.777   8.346  72.285  1.00  0.00    -0.376 C  
HETATM   32  C   UNL     1     -12.147   9.647  71.776  1.00  0.00    -0.446 C  
ENDBRANCH  28  29
BRANCH  28  33
HETATM   33  N   UNL     1     -11.390  11.137  68.532  1.00  0.00    -0.256 N  
HETATM   34  C   UNL     1     -11.747  12.452  68.453  1.00  0.00    -0.336 C  
HETATM   35  O   UNL     1     -11.648  13.269  69.356  1.00  0.00    -0.281 OA 
HETATM   36  H   UNL     1     -11.556  10.535  67.725  1.00  0.00     0.000 HD 
ENDBRANCH  28  33
ENDBRANCH  26  28
ENDBRANCH  25  26
ENDBRANCH  12  25
ENDBRANCH  11  12
ENDBRANCH  10  11
ENDBRANCH   9  10
ENDBRANCH   8   9
ENDBRANCH   7   8
ENDBRANCH   6   7
ENDBRANCH   5   6
ENDBRANCH   4   5
ENDBRANCH   3   4
ENDBRANCH   2   3
TORSDOF 22
ENDMDL
MODEL      192
REMARK 921   NORMALIZED FREE ENERGY PREDICTED BY IDOCK:   -4.09 KCAL/MOL
REMARK 922        TOTAL FREE ENERGY PREDICTED BY IDOCK:  -12.97 KCAL/MOL
REMARK 923 INTER-LIGAND FREE ENERGY PREDICTED BY IDOCK:  -10.05 KCAL/MOL
REMARK 924 INTRA-LIGAND FREE ENERGY PREDICTED BY IDOCK:   -2.92 KCAL/MOL
REMARK 927      BINDING AFFINITY PREDICTED BY RF-SCORE:    0.00 PKD
ROOT
HETATM    1  C   UNL     1     -14.403   8.711  71.973  1.00  0.00    -0.512 C  
HETATM    2  C   UNL     1     -13.312   9.766  71.899  1.00  0.00    -0.530 C  
ENDROOT
BRANCH   2   3
HETATM    3  C   UNL     1     -12.125   9.262  71.082  1.00  0.00    -0.389 C  
BRANCH   3   4
HETATM    4  C   UNL     1     -10.939   8.901  71.971  1.00  0.00    -0.412 C  
BRANCH   4   5
HETATM    5  C   UNL     1     -11.080   7.476  72.510  1.00  0.00    -0.371 C  
BRANCH   5   6
HETATM    6  C   UNL     1     -11.507   6.524  71.401  1.00  0.00    -0.360 C  
BRANCH   6   7
HETATM    7  C   UNL     1     -10.416   5.512  71.048  1.00  0.00    -0.314 C  
BRANCH   7   8
HETATM    8  C   UNL     1      -9.590   6.072  69.896  1.00  0.00    -0.188 C  
BRANCH   8   9
HETATM    9  C   UNL     1     -10.417   6.489  68.684  1.00  0.00    -0.252 C  
BRANCH   9  10
HETATM   10  C   UNL     1      -9.951   7.879  68.241  1.00  0.00    -0.204 C  
BRANCH  10  11
HETATM   11  C   UNL     1     -10.712   8.437  67.048  1.00  0.00    -0.204 C  
BRANCH  11  12
HETATM   12  C   UNL     1     -10.363   9.875  66.626  1.00  0.00    -0.205 C  
BRANCH  12  13
HETATM   13  C   UNL     1     -10.296  10.903  67.776  1.00  0.00    -0.218 C  
BRANCH  13  14
HETATM   14  C   UNL     1     -11.200  12.127  67.585  1.00  0.00    -0.286 C  
HETATM   15  O   UNL     1     -12.113  11.975  66.461  1.00  0.00    -0.617 OA 
HETATM   16  O   UNL     1     -11.935  13.488  64.732  1.00  0.00    -0.359 OA 
HETATM   17  C   UNL     1     -10.554  13.354  66.884  1.00  0.00    -0.273 C  
HETATM   18  C   UNL     1     -11.601  13.037  65.801  1.00  0.00    -0.356 C  
BRANCH  17  19
HETATM   19  C   UNL     1     -10.701  14.747  67.487  1.00  0.00    -0.269 C  
BRANCH  19  20
HETATM   20  C   UNL     1     -10.615  14.684  69.009  1.00  0.00    -0.248 C  
BRANCH  20  21
HETATM   21  C   UNL     1     -11.708  15.530  69.667  1.00  0.00    -0.371 C  
BRANCH  21  22
HETATM   22  C   UNL     1     -12.175  14.903  70.982  1.00  0.00    -0.379 C  
BRANCH  22  23
HETATM   23  C   UNL     1     -13.462  15.550  71.495  1.00  0.00    -0.582 C  
HETATM   24  C   UNL     1     -13.350  15.899  72.973  1.00  0.00    -0.663 C  
ENDBRANCH  22  23
ENDBRANCH  21  22
ENDBRANCH  20  21
ENDBRANCH  19  20
ENDBRANCH  17  19
ENDBRANCH  13  14
ENDBRANCH  12  13
BRANCH  12  25
HETATM   25  O   UNL     1      -9.089   9.913  65.941  1.00  0.00    -0.148 OA 
BRANCH  25  26
HETATM   26  C   UNL     1      -9.110   9.931  64.579  1.00  0.00    -0.250 C  
HETATM   27  O   UNL     1      -9.773  10.688  63.878  1.00  0.00    -0.270 OA 
BRANCH  26  28
HETATM   28  C   UNL     1      -8.164   8.879  64.007  1.00  0.00    -0.168 C  
BRANCH  28  29
HETATM   29  C   UNL     1      -7.348   8.183  65.107  1.00  0.00    -0.078 C  
HETATM   30  C   UNL     1      -7.471   5.729  64.315  1.00  0.00    -0.072 C  
HETATM   31  C   UNL     1      -6.954   6.276  66.685  1.00  0.00    -0.067 C  
HETATM   32  C   UNL     1      -7.735   6.725  65.446  1.00  0.00    -0.100 C  
ENDBRANCH  28  29
BRANCH  28  33
HETATM   33  N   UNL     1      -7.331   9.505  62.981  1.00  0.00    -0.106 N  
HETATM   34  C   UNL     1      -6.264  10.303  63.281  1.00  0.00    -0.136 C  
HETATM   35  O   UNL     1      -5.912  10.621  64.406  1.00  0.00    -0.093 OA 
HETATM   36  H   UNL     1      -7.556   9.338  61.999  1.00  0.00     0.000 HD 
ENDBRANCH  28  33
ENDBRANCH  26  28
ENDBRANCH  25  26
ENDBRANCH  12  25
ENDBRANCH  11  12
ENDBRANCH  10  11
ENDBRANCH   9  10
ENDBRANCH   8   9
ENDBRANCH   7   8
ENDBRANCH   6   7
ENDBRANCH   5   6
ENDBRANCH   4   5
ENDBRANCH   3   4
ENDBRANCH   2   3
TORSDOF 22
ENDMDL
MODEL      193
REMARK 921   NORMALIZED FREE ENERGY PREDICTED BY IDOCK:   -4.09 KCAL/MOL
REMARK 922        TOTAL FREE ENERGY PREDICTED BY IDOCK:  -12.97 KCAL/MOL
REMARK 923 INTER-LIGAND FREE ENERGY PREDICTED BY IDOCK:   -8.94 KCAL/MOL
REMARK 924 INTRA-LIGAND FREE ENERGY PREDICTED BY IDOCK:   -4.03 KCAL/MOL
REMARK 927      BINDING AFFINITY PREDICTED BY RF-SCORE:    0.00 PKD
ROOT
HETATM    1  C   UNL     1     -13.214  12.159  72.038  1.00  0.00    -0.496 C  
HETATM    2  C   UNL     1     -13.987  13.414  72.410  1.00  0.00    -0.605 C  
ENDROOT
BRANCH   2   3
HETATM    3  C   UNL     1     -13.040  14.592  72.623  1.00  0.00    -0.557 C  
BRANCH   3   4
HETATM    4  C   UNL     1     -12.820  15.381  71.335  1.00  0.00    -0.508 C  
BRANCH   4   5
HETATM    5  C   UNL     1     -11.338  15.710  71.147  1.00  0.00    -0.446 C  
BRANCH   5   6
HETATM    6  C   UNL     1     -10.842  15.193  69.804  1.00  0.00    -0.298 C  
BRANCH   6   7
HETATM    7  C   UNL     1     -11.964  14.581  68.963  1.00  0.00    -0.334 C  
BRANCH   7   8
HETATM    8  C   UNL     1     -11.365  14.055  67.664  1.00  0.00    -0.336 C  
BRANCH   8   9
HETATM    9  C   UNL     1     -11.684  12.591  67.382  1.00  0.00    -0.432 C  
BRANCH   9  10
HETATM   10  C   UNL     1     -11.909  11.882  68.722  1.00  0.00    -0.371 C  
BRANCH  10  11
HETATM   11  C   UNL     1     -10.678  11.173  69.263  1.00  0.00    -0.241 C  
BRANCH  11  12
HETATM   12  C   UNL     1     -10.905   9.779  69.875  1.00  0.00    -0.272 C  
BRANCH  12  13
HETATM   13  C   UNL     1     -10.687   8.591  68.912  1.00  0.00    -0.100 C  
BRANCH  13  14
HETATM   14  C   UNL     1      -9.839   8.925  67.678  1.00  0.00    -0.182 C  
HETATM   15  O   UNL     1     -10.146   8.066  66.543  1.00  0.00    -0.260 OA 
HETATM   16  O   UNL     1      -8.447   6.747  65.715  1.00  0.00    -0.141 OA 
HETATM   17  C   UNL     1      -8.381   8.385  67.682  1.00  0.00    -0.130 C  
HETATM   18  C   UNL     1      -8.893   7.561  66.487  1.00  0.00    -0.148 C  
BRANCH  17  19
HETATM   19  C   UNL     1      -7.221   9.311  67.334  1.00  0.00    -0.080 C  
BRANCH  19  20
HETATM   20  C   UNL     1      -6.149   9.259  68.419  1.00  0.00    -0.045 C  
BRANCH  20  21
HETATM   21  C   UNL     1      -5.802  10.660  68.930  1.00  0.00    -0.040 C  
BRANCH  21  22
HETATM   22  C   UNL     1      -7.067  11.462  69.244  1.00  0.00    -0.100 C  
BRANCH  22  23
HETATM   23  C   UNL     1      -6.957  12.908  68.760  1.00  0.00    -0.103 C  
HETATM   24  C   UNL     1      -7.835  13.146  67.539  1.00  0.00    -0.173 C  
ENDBRANCH  22  23
ENDBRANCH  21  22
ENDBRANCH  20  21
ENDBRANCH  19  20
ENDBRANCH  17  19
ENDBRANCH  13  14
ENDBRANCH  12  13
BRANCH  12  25
HETATM   25  O   UNL     1     -10.039   9.572  71.015  1.00  0.00    -0.286 OA 
BRANCH  25  26
HETATM   26  C   UNL     1     -10.474   8.722  71.987  1.00  0.00    -0.344 C  
HETATM   27  O   UNL     1     -11.608   8.678  72.451  1.00  0.00    -0.369 OA 
BRANCH  26  28
HETATM   28  C   UNL     1      -9.355   7.786  72.432  1.00  0.00    -0.169 C  
BRANCH  28  29
HETATM   29  C   UNL     1      -9.590   6.343  71.956  1.00  0.00    -0.157 C  
HETATM   30  C   UNL     1      -7.523   5.990  70.452  1.00  0.00    -0.090 C  
HETATM   31  C   UNL     1      -9.548   4.574  70.182  1.00  0.00    -0.264 C  
HETATM   32  C   UNL     1      -9.049   5.973  70.556  1.00  0.00    -0.157 C  
ENDBRANCH  28  29
BRANCH  28  33
HETATM   33  N   UNL     1      -9.198   7.896  73.881  1.00  0.00    -0.360 N  
HETATM   34  C   UNL     1      -7.982   8.054  74.483  1.00  0.00    -0.241 C  
HETATM   35  O   UNL     1      -6.905   8.076  73.907  1.00  0.00    -0.104 OA 
HETATM   36  H   UNL     1     -10.032   7.853  74.468  1.00  0.00     0.000 HD 
ENDBRANCH  28  33
ENDBRANCH  26  28
ENDBRANCH  25  26
ENDBRANCH  12  25
ENDBRANCH  11  12
ENDBRANCH  10  11
ENDBRANCH   9  10
ENDBRANCH   8   9
ENDBRANCH   7   8
ENDBRANCH   6   7
ENDBRANCH   5   6
ENDBRANCH   4   5
ENDBRANCH   3   4
ENDBRANCH   2   3
TORSDOF 22
ENDMDL
MODEL      194
REMARK 921   NORMALIZED FREE ENERGY PREDICTED BY IDOCK:   -4.09 KCAL/MOL
REMARK 922        TOTAL FREE ENERGY PREDICTED BY IDOCK:  -12.97 KCAL/MOL
REMARK 923 INTER-LIGAND FREE ENERGY PREDICTED BY IDOCK:   -9.30 KCAL/MOL
REMARK 924 INTRA-LIGAND FREE ENERGY PREDICTED BY IDOCK:   -3.67 KCAL/MOL
REMARK 927      BINDING AFFINITY PREDICTED BY RF-SCORE:    0.00 PKD
ROOT
HETATM    1  C   UNL     1     -13.247  10.386  71.837  1.00  0.00    -0.535 C  
HETATM    2  C   UNL     1     -13.185  11.903  71.914  1.00  0.00    -0.467 C  
ENDROOT
BRANCH   2   3
HETATM    3  C   UNL     1     -12.328  12.469  70.786  1.00  0.00    -0.376 C  
BRANCH   3   4
HETATM    4  C   UNL     1     -11.934  11.392  69.779  1.00  0.00    -0.422 C  
BRANCH   4   5
HETATM    5  C   UNL     1     -11.631  12.010  68.413  1.00  0.00    -0.368 C  
BRANCH   5   6
HETATM    6  C   UNL     1     -11.895  13.510  68.435  1.00  0.00    -0.408 C  
BRANCH   6   7
HETATM    7  C   UNL     1     -11.941  14.115  67.030  1.00  0.00    -0.471 C  
BRANCH   7   8
HETATM    8  C   UNL     1     -10.816  15.135  66.905  1.00  0.00    -0.317 C  
BRANCH   8   9
HETATM    9  C   UNL     1      -9.752  15.022  67.992  1.00  0.00    -0.213 C  
BRANCH   9  10
HETATM   10  C   UNL     1      -8.486  14.431  67.364  1.00  0.00    -0.216 C  
BRANCH  10  11
HETATM   11  C   UNL     1      -7.729  13.478  68.276  1.00  0.00    -0.137 C  
BRANCH  11  12
HETATM   12  C   UNL     1      -7.277  12.147  67.649  1.00  0.00    -0.123 C  
BRANCH  12  13
HETATM   13  C   UNL     1      -6.475  11.214  68.584  1.00  0.00    -0.049 C  
BRANCH  13  14
HETATM   14  C   UNL     1      -7.173  10.901  69.913  1.00  0.00     0.016 C  
HETATM   15  O   UNL     1      -6.234  10.510  70.956  1.00  0.00    -0.328 OA 
HETATM   16  O   UNL     1      -6.463   8.402  71.860  1.00  0.00    -0.055 OA 
HETATM   17  C   UNL     1      -7.855   9.508  70.018  1.00  0.00    -0.157 C  
HETATM   18  C   UNL     1      -6.786   9.285  71.102  1.00  0.00    -0.072 C  
BRANCH  17  19
HETATM   19  C   UNL     1      -9.285   9.393  70.536  1.00  0.00    -0.314 C  
BRANCH  19  20
HETATM   20  C   UNL     1      -9.688   7.928  70.677  1.00  0.00    -0.175 C  
BRANCH  20  21
HETATM   21  C   UNL     1     -11.208   7.774  70.787  1.00  0.00    -0.281 C  
BRANCH  21  22
HETATM   22  C   UNL     1     -11.597   7.048  72.077  1.00  0.00    -0.322 C  
BRANCH  22  23
HETATM   23  C   UNL     1     -10.993   5.645  72.143  1.00  0.00    -0.307 C  
HETATM   24  C   UNL     1     -10.834   5.184  73.586  1.00  0.00    -0.363 C  
ENDBRANCH  22  23
ENDBRANCH  21  22
ENDBRANCH  20  21
ENDBRANCH  19  20
ENDBRANCH  17  19
ENDBRANCH  13  14
ENDBRANCH  12  13
BRANCH  12  25
HETATM   25  O   UNL     1      -8.414  11.395  67.165  1.00  0.00    -0.142 OA 
BRANCH  25  26
HETATM   26  C   UNL     1      -8.266  10.720  65.992  1.00  0.00    -0.164 C  
HETATM   27  O   UNL     1      -7.208  10.509  65.409  1.00  0.00    -0.138 OA 
BRANCH  26  28
HETATM   28  C   UNL     1      -9.613  10.219  65.479  1.00  0.00    -0.242 C  
BRANCH  28  29
HETATM   29  C   UNL     1     -10.259   9.215  66.446  1.00  0.00    -0.300 C  
HETATM   30  C   UNL     1      -8.315   7.548  66.774  1.00  0.00    -0.126 C  
HETATM   31  C   UNL     1     -10.662   6.875  67.246  1.00  0.00    -0.421 C  
HETATM   32  C   UNL     1      -9.773   7.750  66.357  1.00  0.00    -0.219 C  
ENDBRANCH  28  29
BRANCH  28  33
HETATM   33  N   UNL     1      -9.434   9.685  64.129  1.00  0.00    -0.403 N  
HETATM   34  C   UNL     1      -9.591  10.447  63.007  1.00  0.00    -0.302 C  
HETATM   35  O   UNL     1      -9.935  11.618  62.988  1.00  0.00    -0.383 OA 
HETATM   36  H   UNL     1      -9.180   8.703  64.022  1.00  0.00     0.000 HD 
ENDBRANCH  28  33
ENDBRANCH  26  28
ENDBRANCH  25  26
ENDBRANCH  12  25
ENDBRANCH  11  12
ENDBRANCH  10  11
ENDBRANCH   9  10
ENDBRANCH   8   9
ENDBRANCH   7   8
ENDBRANCH   6   7
ENDBRANCH   5   6
ENDBRANCH   4   5
ENDBRANCH   3   4
ENDBRANCH   2   3
TORSDOF 22
ENDMDL
MODEL      195
REMARK 921   NORMALIZED FREE ENERGY PREDICTED BY IDOCK:   -4.09 KCAL/MOL
REMARK 922        TOTAL FREE ENERGY PREDICTED BY IDOCK:  -12.96 KCAL/MOL
REMARK 923 INTER-LIGAND FREE ENERGY PREDICTED BY IDOCK:   -9.83 KCAL/MOL
REMARK 924 INTRA-LIGAND FREE ENERGY PREDICTED BY IDOCK:   -3.14 KCAL/MOL
REMARK 927      BINDING AFFINITY PREDICTED BY RF-SCORE:    0.00 PKD
ROOT
HETATM    1  C   UNL     1     -10.665  19.336  67.142  1.00  0.00    -0.584 C  
HETATM    2  C   UNL     1      -9.999  18.633  68.313  1.00  0.00    -0.424 C  
ENDROOT
BRANCH   2   3
HETATM    3  C   UNL     1     -10.550  17.220  68.482  1.00  0.00    -0.350 C  
BRANCH   3   4
HETATM    4  C   UNL     1     -10.323  16.371  67.235  1.00  0.00    -0.287 C  
BRANCH   4   5
HETATM    5  C   UNL     1     -11.177  15.102  67.279  1.00  0.00    -0.324 C  
BRANCH   5   6
HETATM    6  C   UNL     1     -11.251  14.459  65.901  1.00  0.00    -0.324 C  
BRANCH   6   7
HETATM    7  C   UNL     1     -12.624  13.847  65.616  1.00  0.00    -0.553 C  
BRANCH   7   8
HETATM    8  C   UNL     1     -12.437  12.647  64.694  1.00  0.00    -0.538 C  
BRANCH   8   9
HETATM    9  C   UNL     1     -10.982  12.358  64.339  1.00  0.00    -0.377 C  
BRANCH   9  10
HETATM   10  C   UNL     1     -10.620  10.975  64.888  1.00  0.00    -0.328 C  
BRANCH  10  11
HETATM   11  C   UNL     1      -9.233  10.897  65.507  1.00  0.00    -0.232 C  
BRANCH  11  12
HETATM   12  C   UNL     1      -9.170  10.537  67.003  1.00  0.00    -0.150 C  
BRANCH  12  13
HETATM   13  C   UNL     1      -9.855  11.544  67.953  1.00  0.00    -0.192 C  
BRANCH  13  14
HETATM   14  C   UNL     1     -11.198  11.067  68.520  1.00  0.00    -0.268 C  
HETATM   15  O   UNL     1     -12.060  12.173  68.913  1.00  0.00    -0.267 OA 
HETATM   16  O   UNL     1     -12.678  12.305  71.130  1.00  0.00    -0.353 OA 
HETATM   17  C   UNL     1     -11.182  10.567  69.991  1.00  0.00    -0.386 C  
HETATM   18  C   UNL     1     -12.094  11.788  70.208  1.00  0.00    -0.342 C  
BRANCH  17  19
HETATM   19  C   UNL     1     -11.839   9.240  70.356  1.00  0.00    -0.097 C  
BRANCH  19  20
HETATM   20  C   UNL     1     -11.669   8.948  71.844  1.00  0.00    -0.439 C  
BRANCH  20  21
HETATM   21  C   UNL     1     -10.210   8.636  72.189  1.00  0.00    -0.394 C  
BRANCH  21  22
HETATM   22  C   UNL     1     -10.041   7.173  72.603  1.00  0.00    -0.217 C  
BRANCH  22  23
HETATM   23  C   UNL     1     -11.364   6.410  72.546  1.00  0.00    -0.299 C  
HETATM   24  C   UNL     1     -11.245   5.053  73.227  1.00  0.00    -0.411 C  
ENDBRANCH  22  23
ENDBRANCH  21  22
ENDBRANCH  20  21
ENDBRANCH  19  20
ENDBRANCH  17  19
ENDBRANCH  13  14
ENDBRANCH  12  13
BRANCH  12  25
HETATM   25  O   UNL     1      -9.770   9.243  67.244  1.00  0.00    -0.152 OA 
BRANCH  25  26
HETATM   26  C   UNL     1      -9.071   8.144  66.844  1.00  0.00    -0.154 C  
HETATM   27  O   UNL     1      -9.070   7.662  65.717  1.00  0.00    -0.112 OA 
BRANCH  26  28
HETATM   28  C   UNL     1      -8.246   7.575  67.995  1.00  0.00    -0.124 C  
BRANCH  28  29
HETATM   29  C   UNL     1      -8.571   6.096  68.258  1.00  0.00    -0.116 C  
HETATM   30  C   UNL     1     -11.125   6.220  68.607  1.00  0.00    -0.409 C  
HETATM   31  C   UNL     1      -9.814   4.298  69.482  1.00  0.00    -0.224 C  
HETATM   32  C   UNL     1      -9.773   5.800  69.184  1.00  0.00    -0.189 C  
ENDBRANCH  28  29
BRANCH  28  33
HETATM   33  N   UNL     1      -8.433   8.424  69.171  1.00  0.00    -0.122 N  
HETATM   34  C   UNL     1      -7.394   8.845  69.951  1.00  0.00    -0.054 C  
HETATM   35  O   UNL     1      -6.222   8.537  69.794  1.00  0.00    -0.035 OA 
HETATM   36  H   UNL     1      -9.380   8.713  69.420  1.00  0.00     0.000 HD 
ENDBRANCH  28  33
ENDBRANCH  26  28
ENDBRANCH  25  26
ENDBRANCH  12  25
ENDBRANCH  11  12
ENDBRANCH  10  11
ENDBRANCH   9  10
ENDBRANCH   8   9
ENDBRANCH   7   8
ENDBRANCH   6   7
ENDBRANCH   5   6
ENDBRANCH   4   5
ENDBRANCH   3   4
ENDBRANCH   2   3
TORSDOF 22
ENDMDL
MODEL      196
REMARK 921   NORMALIZED FREE ENERGY PREDICTED BY IDOCK:   -4.08 KCAL/MOL
REMARK 922        TOTAL FREE ENERGY PREDICTED BY IDOCK:  -12.95 KCAL/MOL
REMARK 923 INTER-LIGAND FREE ENERGY PREDICTED BY IDOCK:   -9.49 KCAL/MOL
REMARK 924 INTRA-LIGAND FREE ENERGY PREDICTED BY IDOCK:   -3.46 KCAL/MOL
REMARK 927      BINDING AFFINITY PREDICTED BY RF-SCORE:    0.00 PKD
ROOT
HETATM    1  C   UNL     1      -9.489   4.943  67.042  1.00  0.00    -0.158 C  
HETATM    2  C   UNL     1      -9.557   6.385  66.567  1.00  0.00    -0.185 C  
ENDROOT
BRANCH   2   3
HETATM    3  C   UNL     1     -10.804   7.077  67.111  1.00  0.00    -0.427 C  
BRANCH   3   4
HETATM    4  C   UNL     1     -10.503   7.873  68.377  1.00  0.00    -0.207 C  
BRANCH   4   5
HETATM    5  C   UNL     1      -9.019   8.240  68.447  1.00  0.00    -0.136 C  
BRANCH   5   6
HETATM    6  C   UNL     1      -8.795   9.374  69.439  1.00  0.00    -0.159 C  
BRANCH   6   7
HETATM    7  C   UNL     1      -7.398   9.985  69.321  1.00  0.00    -0.091 C  
BRANCH   7   8
HETATM    8  C   UNL     1      -7.022  10.052  67.845  1.00  0.00    -0.084 C  
BRANCH   8   9
HETATM    9  C   UNL     1      -6.924  11.471  67.293  1.00  0.00    -0.125 C  
BRANCH   9  10
HETATM   10  C   UNL     1      -7.114  12.451  68.455  1.00  0.00    -0.106 C  
BRANCH  10  11
HETATM   11  C   UNL     1      -8.275  13.415  68.269  1.00  0.00    -0.160 C  
BRANCH  11  12
HETATM   12  C   UNL     1      -8.077  14.532  67.227  1.00  0.00    -0.196 C  
BRANCH  12  13
HETATM   13  C   UNL     1      -9.367  15.024  66.534  1.00  0.00    -0.309 C  
BRANCH  13  14
HETATM   14  C   UNL     1     -10.265  13.903  65.998  1.00  0.00    -0.310 C  
HETATM   15  O   UNL     1     -11.197  14.373  64.982  1.00  0.00    -0.338 OA 
HETATM   16  O   UNL     1     -13.449  14.165  65.424  1.00  0.00    -0.648 OA 
HETATM   17  C   UNL     1     -11.465  13.497  66.899  1.00  0.00    -0.374 C  
HETATM   18  C   UNL     1     -12.284  14.037  65.712  1.00  0.00    -0.453 C  
BRANCH  17  19
HETATM   19  C   UNL     1     -11.730  12.027  67.205  1.00  0.00    -0.339 C  
BRANCH  19  20
HETATM   20  C   UNL     1     -10.497  11.183  66.895  1.00  0.00    -0.289 C  
BRANCH  20  21
HETATM   21  C   UNL     1     -10.632  10.470  65.547  1.00  0.00    -0.138 C  
BRANCH  21  22
HETATM   22  C   UNL     1      -9.262  10.075  64.991  1.00  0.00    -0.277 C  
BRANCH  22  23
HETATM   23  C   UNL     1      -9.097  10.502  63.532  1.00  0.00    -0.264 C  
HETATM   24  C   UNL     1     -10.111  11.573  63.155  1.00  0.00    -0.395 C  
ENDBRANCH  22  23
ENDBRANCH  21  22
ENDBRANCH  20  21
ENDBRANCH  19  20
ENDBRANCH  17  19
ENDBRANCH  13  14
ENDBRANCH  12  13
BRANCH  12  25
HETATM   25  O   UNL     1      -7.444  15.686  67.826  1.00  0.00    -0.124 OA 
BRANCH  25  26
HETATM   26  C   UNL     1      -8.200  16.455  68.657  1.00  0.00    -0.223 C  
HETATM   27  O   UNL     1      -8.981  16.044  69.508  1.00  0.00    -0.222 OA 
BRANCH  26  28
HETATM   28  C   UNL     1      -7.939  17.938  68.413  1.00  0.00    -0.298 C  
BRANCH  28  29
HETATM   29  C   UNL     1      -8.620  18.438  67.129  1.00  0.00    -0.262 C  
HETATM   30  C   UNL     1     -10.107  20.322  68.076  1.00  0.00    -0.451 C  
HETATM   31  C   UNL     1     -10.625  19.274  65.882  1.00  0.00    -0.521 C  
HETATM   32  C   UNL     1     -10.044  19.020  67.276  1.00  0.00    -0.436 C  
ENDBRANCH  28  29
BRANCH  28  33
HETATM   33  N   UNL     1      -6.495  18.170  68.426  1.00  0.00    -0.202 N  
HETATM   34  C   UNL     1      -5.918  19.202  69.110  1.00  0.00    -0.236 C  
HETATM   35  O   UNL     1      -6.521  20.060  69.736  1.00  0.00    -0.349 OA 
HETATM   36  H   UNL     1      -5.893  17.533  67.903  1.00  0.00     0.000 HD 
ENDBRANCH  28  33
ENDBRANCH  26  28
ENDBRANCH  25  26
ENDBRANCH  12  25
ENDBRANCH  11  12
ENDBRANCH  10  11
ENDBRANCH   9  10
ENDBRANCH   8   9
ENDBRANCH   7   8
ENDBRANCH   6   7
ENDBRANCH   5   6
ENDBRANCH   4   5
ENDBRANCH   3   4
ENDBRANCH   2   3
TORSDOF 22
ENDMDL
MODEL      197
REMARK 921   NORMALIZED FREE ENERGY PREDICTED BY IDOCK:   -4.08 KCAL/MOL
REMARK 922        TOTAL FREE ENERGY PREDICTED BY IDOCK:  -12.95 KCAL/MOL
REMARK 923 INTER-LIGAND FREE ENERGY PREDICTED BY IDOCK:   -9.81 KCAL/MOL
REMARK 924 INTRA-LIGAND FREE ENERGY PREDICTED BY IDOCK:   -3.13 KCAL/MOL
REMARK 927      BINDING AFFINITY PREDICTED BY RF-SCORE:    0.00 PKD
ROOT
HETATM    1  C   UNL     1      -8.685   4.848  64.761  1.00  0.00    -0.154 C  
HETATM    2  C   UNL     1      -8.315   3.993  65.961  1.00  0.00    -0.109 C  
ENDROOT
BRANCH   2   3
HETATM    3  C   UNL     1      -9.387   4.085  67.044  1.00  0.00    -0.204 C  
BRANCH   3   4
HETATM    4  C   UNL     1      -9.287   2.933  68.039  1.00  0.00    -0.258 C  
BRANCH   4   5
HETATM    5  C   UNL     1      -9.309   3.454  69.477  1.00  0.00    -0.240 C  
BRANCH   5   6
HETATM    6  C   UNL     1      -9.352   4.977  69.493  1.00  0.00    -0.184 C  
BRANCH   6   7
HETATM    7  C   UNL     1      -8.269   5.581  70.389  1.00  0.00    -0.104 C  
BRANCH   7   8
HETATM    8  C   UNL     1      -7.785   6.880  69.755  1.00  0.00    -0.113 C  
BRANCH   8   9
HETATM    9  C   UNL     1      -7.606   6.803  68.242  1.00  0.00    -0.107 C  
BRANCH   9  10
HETATM   10  C   UNL     1      -8.299   8.016  67.615  1.00  0.00    -0.128 C  
BRANCH  10  11
HETATM   11  C   UNL     1      -9.787   8.106  67.918  1.00  0.00    -0.206 C  
BRANCH  11  12
HETATM   12  C   UNL     1     -10.279   9.424  68.542  1.00  0.00    -0.199 C  
BRANCH  12  13
HETATM   13  C   UNL     1      -9.680   9.766  69.924  1.00  0.00    -0.273 C  
BRANCH  13  14
HETATM   14  C   UNL     1     -10.650   9.584  71.097  1.00  0.00    -0.318 C  
HETATM   15  O   UNL     1     -10.764   8.193  71.515  1.00  0.00    -0.221 OA 
HETATM   16  O   UNL     1     -12.841   7.204  71.367  1.00  0.00    -0.376 OA 
HETATM   17  C   UNL     1     -12.163   9.593  70.743  1.00  0.00    -0.309 C  
HETATM   18  C   UNL     1     -12.085   8.136  71.234  1.00  0.00    -0.288 C  
BRANCH  17  19
HETATM   19  C   UNL     1     -13.132  10.457  71.544  1.00  0.00    -0.532 C  
BRANCH  19  20
HETATM   20  C   UNL     1     -12.795  11.936  71.377  1.00  0.00    -0.411 C  
BRANCH  20  21
HETATM   21  C   UNL     1     -13.635  12.810  72.313  1.00  0.00    -0.563 C  
BRANCH  21  22
HETATM   22  C   UNL     1     -13.224  14.280  72.212  1.00  0.00    -0.508 C  
BRANCH  22  23
HETATM   23  C   UNL     1     -12.015  14.471  71.296  1.00  0.00    -0.396 C  
HETATM   24  C   UNL     1     -12.188  15.694  70.406  1.00  0.00    -0.429 C  
ENDBRANCH  22  23
ENDBRANCH  21  22
ENDBRANCH  20  21
ENDBRANCH  19  20
ENDBRANCH  17  19
ENDBRANCH  13  14
ENDBRANCH  12  13
BRANCH  12  25
HETATM   25  O   UNL     1     -10.002  10.541  67.665  1.00  0.00    -0.166 OA 
BRANCH  25  26
HETATM   26  C   UNL     1     -11.067  11.182  67.110  1.00  0.00    -0.287 C  
HETATM   27  O   UNL     1     -12.123  11.447  67.674  1.00  0.00    -0.630 OA 
BRANCH  26  28
HETATM   28  C   UNL     1     -10.778  11.563  65.661  1.00  0.00    -0.267 C  
BRANCH  28  29
HETATM   29  C   UNL     1     -10.208  10.382  64.860  1.00  0.00    -0.330 C  
HETATM   30  C   UNL     1      -7.679  10.710  65.252  1.00  0.00    -0.021 C  
HETATM   31  C   UNL     1      -8.504   9.383  63.318  1.00  0.00    -0.202 C  
HETATM   32  C   UNL     1      -8.810  10.575  64.231  1.00  0.00    -0.209 C  
ENDBRANCH  28  29
BRANCH  28  33
HETATM   33  N   UNL     1      -9.909  12.739  65.649  1.00  0.00    -0.387 N  
HETATM   34  C   UNL     1     -10.379  14.003  65.430  1.00  0.00    -0.359 C  
HETATM   35  O   UNL     1     -11.538  14.293  65.179  1.00  0.00    -0.329 OA 
HETATM   36  H   UNL     1      -8.910  12.610  65.811  1.00  0.00     0.000 HD 
ENDBRANCH  28  33
ENDBRANCH  26  28
ENDBRANCH  25  26
ENDBRANCH  12  25
ENDBRANCH  11  12
ENDBRANCH  10  11
ENDBRANCH   9  10
ENDBRANCH   8   9
ENDBRANCH   7   8
ENDBRANCH   6   7
ENDBRANCH   5   6
ENDBRANCH   4   5
ENDBRANCH   3   4
ENDBRANCH   2   3
TORSDOF 22
ENDMDL
MODEL      198
REMARK 921   NORMALIZED FREE ENERGY PREDICTED BY IDOCK:   -4.08 KCAL/MOL
REMARK 922        TOTAL FREE ENERGY PREDICTED BY IDOCK:  -12.94 KCAL/MOL
REMARK 923 INTER-LIGAND FREE ENERGY PREDICTED BY IDOCK:   -9.13 KCAL/MOL
REMARK 924 INTRA-LIGAND FREE ENERGY PREDICTED BY IDOCK:   -3.81 KCAL/MOL
REMARK 927      BINDING AFFINITY PREDICTED BY RF-SCORE:    0.00 PKD
ROOT
HETATM    1  C   UNL     1      -9.494   4.579  64.891  1.00  0.00    -0.143 C  
HETATM    2  C   UNL     1      -8.775   4.046  66.119  1.00  0.00    -0.116 C  
ENDROOT
BRANCH   2   3
HETATM    3  C   UNL     1      -9.680   4.106  67.347  1.00  0.00    -0.202 C  
BRANCH   3   4
HETATM    4  C   UNL     1      -9.372   2.983  68.332  1.00  0.00    -0.248 C  
BRANCH   4   5
HETATM    5  C   UNL     1      -9.293   3.522  69.762  1.00  0.00    -0.244 C  
BRANCH   5   6
HETATM    6  C   UNL     1      -9.339   5.044  69.763  1.00  0.00    -0.191 C  
BRANCH   6   7
HETATM    7  C   UNL     1      -8.273   5.659  70.672  1.00  0.00    -0.118 C  
BRANCH   7   8
HETATM    8  C   UNL     1      -7.578   6.783  69.912  1.00  0.00    -0.100 C  
BRANCH   8   9
HETATM    9  C   UNL     1      -7.598   6.612  68.397  1.00  0.00    -0.104 C  
BRANCH   9  10
HETATM   10  C   UNL     1      -7.975   7.957  67.768  1.00  0.00    -0.124 C  
BRANCH  10  11
HETATM   11  C   UNL     1      -9.466   8.130  67.520  1.00  0.00    -0.184 C  
BRANCH  11  12
HETATM   12  C   UNL     1     -10.165   9.250  68.311  1.00  0.00    -0.201 C  
BRANCH  12  13
HETATM   13  C   UNL     1      -9.466   9.667  69.624  1.00  0.00    -0.226 C  
BRANCH  13  14
HETATM   14  C   UNL     1     -10.355   9.579  70.870  1.00  0.00    -0.302 C  
HETATM   15  O   UNL     1      -9.716   8.855  71.960  1.00  0.00    -0.316 OA 
HETATM   16  O   UNL     1     -10.746   6.935  72.712  1.00  0.00    -0.224 OA 
HETATM   17  C   UNL     1     -11.484   8.511  70.833  1.00  0.00    -0.302 C  
HETATM   18  C   UNL     1     -10.668   7.896  71.985  1.00  0.00    -0.241 C  
BRANCH  17  19
HETATM   19  C   UNL     1     -12.908   8.888  71.226  1.00  0.00    -0.272 C  
BRANCH  19  20
HETATM   20  C   UNL     1     -12.900   9.977  72.294  1.00  0.00    -0.306 C  
BRANCH  20  21
HETATM   21  C   UNL     1     -13.636  11.233  71.819  1.00  0.00    -0.032 C  
BRANCH  21  22
HETATM   22  C   UNL     1     -12.661  12.390  71.588  1.00  0.00    -0.299 C  
BRANCH  22  23
HETATM   23  C   UNL     1     -13.374  13.742  71.590  1.00  0.00    -0.430 C  
HETATM   24  C   UNL     1     -13.204  14.450  72.927  1.00  0.00    -0.613 C  
ENDBRANCH  22  23
ENDBRANCH  21  22
ENDBRANCH  20  21
ENDBRANCH  19  20
ENDBRANCH  17  19
ENDBRANCH  13  14
ENDBRANCH  12  13
BRANCH  12  25
HETATM   25  O   UNL     1     -10.304  10.440  67.501  1.00  0.00    -0.197 OA 
BRANCH  25  26
HETATM   26  C   UNL     1     -11.404  11.217  67.710  1.00  0.00    -0.293 C  
HETATM   27  O   UNL     1     -12.405  10.893  68.339  1.00  0.00    -0.477 OA 
BRANCH  26  28
HETATM   28  C   UNL     1     -11.230  12.589  67.067  1.00  0.00    -0.302 C  
BRANCH  28  29
HETATM   29  C   UNL     1     -11.733  13.719  67.981  1.00  0.00    -0.390 C  
HETATM   30  C   UNL     1     -10.622  15.766  66.870  1.00  0.00    -0.317 C  
HETATM   31  C   UNL     1     -11.382  15.859  69.236  1.00  0.00    -0.355 C  
HETATM   32  C   UNL     1     -10.808  14.946  68.148  1.00  0.00    -0.256 C  
ENDBRANCH  28  29
BRANCH  28  33
HETATM   33  N   UNL     1     -11.876  12.579  65.756  1.00  0.00    -0.429 N  
HETATM   34  C   UNL     1     -11.206  12.278  64.605  1.00  0.00    -0.315 C  
HETATM   35  O   UNL     1     -10.012  12.033  64.524  1.00  0.00    -0.257 OA 
HETATM   36  H   UNL     1     -12.870  12.807  65.698  1.00  0.00     0.000 HD 
ENDBRANCH  28  33
ENDBRANCH  26  28
ENDBRANCH  25  26
ENDBRANCH  12  25
ENDBRANCH  11  12
ENDBRANCH  10  11
ENDBRANCH   9  10
ENDBRANCH   8   9
ENDBRANCH   7   8
ENDBRANCH   6   7
ENDBRANCH   5   6
ENDBRANCH   4   5
ENDBRANCH   3   4
ENDBRANCH   2   3
TORSDOF 22
ENDMDL
MODEL      199
REMARK 921   NORMALIZED FREE ENERGY PREDICTED BY IDOCK:   -4.08 KCAL/MOL
REMARK 922        TOTAL FREE ENERGY PREDICTED BY IDOCK:  -12.94 KCAL/MOL
REMARK 923 INTER-LIGAND FREE ENERGY PREDICTED BY IDOCK:   -7.96 KCAL/MOL
REMARK 924 INTRA-LIGAND FREE ENERGY PREDICTED BY IDOCK:   -4.97 KCAL/MOL
REMARK 927      BINDING AFFINITY PREDICTED BY RF-SCORE:    0.00 PKD
ROOT
HETATM    1  C   UNL     1      -9.466   4.548  65.022  1.00  0.00    -0.156 C  
HETATM    2  C   UNL     1      -8.213   5.408  65.036  1.00  0.00    -0.137 C  
ENDROOT
BRANCH   2   3
HETATM    3  C   UNL     1      -7.527   5.345  66.398  1.00  0.00    -0.087 C  
BRANCH   3   4
HETATM    4  C   UNL     1      -6.618   6.549  66.629  1.00  0.00    -0.048 C  
BRANCH   4   5
HETATM    5  C   UNL     1      -7.195   7.800  65.964  1.00  0.00    -0.073 C  
BRANCH   5   6
HETATM    6  C   UNL     1      -7.319   8.933  66.974  1.00  0.00    -0.083 C  
BRANCH   6   7
HETATM    7  C   UNL     1      -8.662   8.917  67.707  1.00  0.00    -0.125 C  
BRANCH   7   8
HETATM    8  C   UNL     1      -9.760   8.598  66.699  1.00  0.00    -0.315 C  
BRANCH   8   9
HETATM    9  C   UNL     1     -10.838   7.659  67.231  1.00  0.00    -0.263 C  
BRANCH   9  10
HETATM   10  C   UNL     1     -10.203   6.753  68.291  1.00  0.00    -0.194 C  
BRANCH  10  11
HETATM   11  C   UNL     1     -11.206   6.105  69.234  1.00  0.00    -0.438 C  
BRANCH  11  12
HETATM   12  C   UNL     1     -11.174   6.580  70.698  1.00  0.00    -0.329 C  
BRANCH  12  13
HETATM   13  C   UNL     1     -12.220   7.656  71.066  1.00  0.00    -0.261 C  
BRANCH  13  14
HETATM   14  C   UNL     1     -11.647   9.070  71.217  1.00  0.00    -0.317 C  
HETATM   15  O   UNL     1     -12.321   9.835  72.257  1.00  0.00    -0.248 OA 
HETATM   16  O   UNL     1     -13.402  11.770  71.625  1.00  0.00    -0.338 OA 
HETATM   17  C   UNL     1     -12.110  10.113  70.162  1.00  0.00    -0.224 C  
HETATM   18  C   UNL     1     -12.749  10.782  71.393  1.00  0.00    -0.439 C  
BRANCH  17  19
HETATM   19  C   UNL     1     -11.084  10.992  69.453  1.00  0.00    -0.320 C  
BRANCH  19  20
HETATM   20  C   UNL     1     -11.653  11.528  68.142  1.00  0.00    -0.378 C  
BRANCH  20  21
HETATM   21  C   UNL     1     -10.578  12.244  67.318  1.00  0.00    -0.249 C  
BRANCH  21  22
HETATM   22  C   UNL     1     -11.160  13.454  66.585  1.00  0.00    -0.310 C  
BRANCH  22  23
HETATM   23  C   UNL     1     -11.631  13.092  65.176  1.00  0.00    -0.347 C  
HETATM   24  C   UNL     1     -10.475  12.588  64.323  1.00  0.00    -0.404 C  
ENDBRANCH  22  23
ENDBRANCH  21  22
ENDBRANCH  20  21
ENDBRANCH  19  20
ENDBRANCH  17  19
ENDBRANCH  13  14
ENDBRANCH  12  13
BRANCH  12  25
HETATM   25  O   UNL     1     -11.365   5.468  71.602  1.00  0.00    -0.149 OA 
BRANCH  25  26
HETATM   26  C   UNL     1     -10.632   5.460  72.750  1.00  0.00    -0.229 C  
HETATM   27  O   UNL     1     -11.011   5.058  73.845  1.00  0.00    -0.302 OA 
BRANCH  26  28
HETATM   28  C   UNL     1      -9.229   6.008  72.503  1.00  0.00    -0.141 C  
BRANCH  28  29
HETATM   29  C   UNL     1      -8.254   4.908  72.053  1.00  0.00    -0.115 C  
HETATM   30  C   UNL     1      -6.891   6.177  70.267  1.00  0.00    -0.054 C  
HETATM   31  C   UNL     1      -6.974   3.692  70.276  1.00  0.00    -0.034 C  
HETATM   32  C   UNL     1      -7.767   4.965  70.587  1.00  0.00    -0.066 C  
ENDBRANCH  28  29
BRANCH  28  33
HETATM   33  N   UNL     1      -8.784   6.716  73.702  1.00  0.00    -0.122 N  
HETATM   34  C   UNL     1      -8.434   8.037  73.693  1.00  0.00    -0.256 C  
HETATM   35  O   UNL     1      -8.406   8.754  72.705  1.00  0.00    -0.412 OA 
HETATM   36  H   UNL     1      -8.732   6.203  74.583  1.00  0.00     0.000 HD 
ENDBRANCH  28  33
ENDBRANCH  26  28
ENDBRANCH  25  26
ENDBRANCH  12  25
ENDBRANCH  11  12
ENDBRANCH  10  11
ENDBRANCH   9  10
ENDBRANCH   8   9
ENDBRANCH   7   8
ENDBRANCH   6   7
ENDBRANCH   5   6
ENDBRANCH   4   5
ENDBRANCH   3   4
ENDBRANCH   2   3
TORSDOF 22
ENDMDL
MODEL      200
REMARK 921   NORMALIZED FREE ENERGY PREDICTED BY IDOCK:   -4.08 KCAL/MOL
REMARK 922        TOTAL FREE ENERGY PREDICTED BY IDOCK:  -12.94 KCAL/MOL
REMARK 923 INTER-LIGAND FREE ENERGY PREDICTED BY IDOCK:   -8.83 KCAL/MOL
REMARK 924 INTRA-LIGAND FREE ENERGY PREDICTED BY IDOCK:   -4.10 KCAL/MOL
REMARK 927      BINDING AFFINITY PREDICTED BY RF-SCORE:    0.00 PKD
ROOT
HETATM    1  C   UNL     1     -13.180  12.225  71.977  1.00  0.00    -0.508 C  
HETATM    2  C   UNL     1     -13.286  10.719  71.799  1.00  0.00    -0.523 C  
ENDROOT
BRANCH   2   3
HETATM    3  C   UNL     1     -12.167  10.199  70.901  1.00  0.00    -0.455 C  
BRANCH   3   4
HETATM    4  C   UNL     1     -11.123   9.418  71.692  1.00  0.00    -0.409 C  
BRANCH   4   5
HETATM    5  C   UNL     1     -11.789   8.364  72.579  1.00  0.00    -0.427 C  
BRANCH   5   6
HETATM    6  C   UNL     1     -10.844   7.196  72.823  1.00  0.00    -0.337 C  
BRANCH   6   7
HETATM    7  C   UNL     1     -11.240   5.949  72.029  1.00  0.00    -0.330 C  
BRANCH   7   8
HETATM    8  C   UNL     1     -10.544   5.996  70.674  1.00  0.00    -0.322 C  
BRANCH   8   9
HETATM    9  C   UNL     1     -11.474   6.316  69.509  1.00  0.00    -0.387 C  
BRANCH   9  10
HETATM   10  C   UNL     1     -10.620   6.800  68.333  1.00  0.00    -0.270 C  
BRANCH  10  11
HETATM   11  C   UNL     1     -10.354   8.297  68.335  1.00  0.00    -0.237 C  
BRANCH  11  12
HETATM   12  C   UNL     1      -9.416   8.827  67.234  1.00  0.00    -0.158 C  
BRANCH  12  13
HETATM   13  C   UNL     1      -9.150   7.850  66.067  1.00  0.00    -0.181 C  
BRANCH  13  14
HETATM   14  C   UNL     1      -7.789   7.146  66.129  1.00  0.00    -0.105 C  
HETATM   15  O   UNL     1      -7.347   6.675  64.824  1.00  0.00    -0.073 OA 
HETATM   16  O   UNL     1      -7.021   4.408  64.564  1.00  0.00    -0.045 OA 
HETATM   17  C   UNL     1      -7.797   5.681  66.646  1.00  0.00    -0.101 C  
HETATM   18  C   UNL     1      -7.326   5.381  65.212  1.00  0.00    -0.068 C  
BRANCH  17  19
HETATM   19  C   UNL     1      -6.807   5.242  67.720  1.00  0.00    -0.060 C  
BRANCH  19  20
HETATM   20  C   UNL     1      -6.257   6.452  68.469  1.00  0.00    -0.032 C  
BRANCH  20  21
HETATM   21  C   UNL     1      -6.916   6.606  69.843  1.00  0.00    -0.063 C  
BRANCH  21  22
HETATM   22  C   UNL     1      -7.134   8.081  70.189  1.00  0.00    -0.049 C  
BRANCH  22  23
HETATM   23  C   UNL     1      -7.481   8.273  71.665  1.00  0.00    -0.105 C  
HETATM   24  C   UNL     1      -7.154   7.024  72.473  1.00  0.00    -0.069 C  
ENDBRANCH  22  23
ENDBRANCH  21  22
ENDBRANCH  20  21
ENDBRANCH  19  20
ENDBRANCH  17  19
ENDBRANCH  13  14
ENDBRANCH  12  13
BRANCH  12  25
HETATM   25  O   UNL     1      -9.937  10.049  66.661  1.00  0.00    -0.195 OA 
BRANCH  25  26
HETATM   26  C   UNL     1      -9.393  11.222  67.088  1.00  0.00    -0.163 C  
HETATM   27  O   UNL     1      -8.485  11.342  67.902  1.00  0.00    -0.125 OA 
BRANCH  26  28
HETATM   28  C   UNL     1     -10.054  12.411  66.396  1.00  0.00    -0.236 C  
BRANCH  28  29
HETATM   29  C   UNL     1     -10.730  12.004  65.077  1.00  0.00    -0.341 C  
HETATM   30  C   UNL     1     -12.239  14.056  64.659  1.00  0.00    -0.460 C  
HETATM   31  C   UNL     1     -12.733  11.872  63.578  1.00  0.00    -0.530 C  
HETATM   32  C   UNL     1     -12.160  12.538  64.832  1.00  0.00    -0.499 C  
ENDBRANCH  28  29
BRANCH  28  33
HETATM   33  N   UNL     1      -9.061  13.471  66.231  1.00  0.00    -0.476 N  
HETATM   34  C   UNL     1      -9.215  14.718  66.766  1.00  0.00    -0.260 C  
HETATM   35  O   UNL     1     -10.192  15.105  67.389  1.00  0.00    -0.233 OA 
HETATM   36  H   UNL     1      -8.217  13.270  65.694  1.00  0.00     0.000 HD 
ENDBRANCH  28  33
ENDBRANCH  26  28
ENDBRANCH  25  26
ENDBRANCH  12  25
ENDBRANCH  11  12
ENDBRANCH  10  11
ENDBRANCH   9  10
ENDBRANCH   8   9
ENDBRANCH   7   8
ENDBRANCH   6   7
ENDBRANCH   5   6
ENDBRANCH   4   5
ENDBRANCH   3   4
ENDBRANCH   2   3
TORSDOF 22
ENDMDL
MODEL      201
REMARK 921   NORMALIZED FREE ENERGY PREDICTED BY IDOCK:   -4.07 KCAL/MOL
REMARK 922        TOTAL FREE ENERGY PREDICTED BY IDOCK:  -12.92 KCAL/MOL
REMARK 923 INTER-LIGAND FREE ENERGY PREDICTED BY IDOCK:   -9.24 KCAL/MOL
REMARK 924 INTRA-LIGAND FREE ENERGY PREDICTED BY IDOCK:   -3.68 KCAL/MOL
REMARK 927      BINDING AFFINITY PREDICTED BY RF-SCORE:    0.00 PKD
ROOT
HETATM    1  C   UNL     1     -11.855  14.816  68.808  1.00  0.00    -0.330 C  
HETATM    2  C   UNL     1     -10.433  14.933  68.285  1.00  0.00    -0.239 C  
ENDROOT
BRANCH   2   3
HETATM    3  C   UNL     1     -10.384  15.814  67.040  1.00  0.00    -0.292 C  
BRANCH   3   4
HETATM    4  C   UNL     1      -9.798  15.070  65.843  1.00  0.00    -0.369 C  
BRANCH   4   5
HETATM    5  C   UNL     1     -10.897  14.692  64.848  1.00  0.00    -0.436 C  
BRANCH   5   6
HETATM    6  C   UNL     1     -10.918  13.186  64.622  1.00  0.00    -0.374 C  
BRANCH   6   7
HETATM    7  C   UNL     1     -11.937  12.476  65.516  1.00  0.00    -0.500 C  
BRANCH   7   8
HETATM    8  C   UNL     1     -11.183  11.692  66.583  1.00  0.00    -0.362 C  
BRANCH   8   9
HETATM    9  C   UNL     1      -9.787  11.249  66.156  1.00  0.00    -0.262 C  
BRANCH   9  10
HETATM   10  C   UNL     1      -9.822   9.741  65.891  1.00  0.00    -0.352 C  
BRANCH  10  11
HETATM   11  C   UNL     1      -9.426   8.891  67.089  1.00  0.00    -0.202 C  
BRANCH  11  12
HETATM   12  C   UNL     1     -10.557   8.103  67.773  1.00  0.00    -0.165 C  
BRANCH  12  13
HETATM   13  C   UNL     1     -10.900   6.743  67.125  1.00  0.00    -0.462 C  
BRANCH  13  14
HETATM   14  C   UNL     1      -9.684   5.964  66.608  1.00  0.00    -0.157 C  
HETATM   15  O   UNL     1     -10.057   4.714  65.962  1.00  0.00    -0.218 OA 
HETATM   16  O   UNL     1      -9.255   2.759  66.882  1.00  0.00    -0.159 OA 
HETATM   17  C   UNL     1      -8.879   5.165  67.671  1.00  0.00    -0.105 C  
HETATM   18  C   UNL     1      -9.371   3.960  66.849  1.00  0.00    -0.188 C  
BRANCH  17  19
HETATM   19  C   UNL     1      -7.360   5.286  67.731  1.00  0.00    -0.076 C  
BRANCH  19  20
HETATM   20  C   UNL     1      -6.877   5.275  69.178  1.00  0.00    -0.054 C  
BRANCH  20  21
HETATM   21  C   UNL     1      -5.884   6.410  69.445  1.00  0.00    -0.021 C  
BRANCH  21  22
HETATM   22  C   UNL     1      -5.954   6.873  70.902  1.00  0.00    -0.031 C  
BRANCH  22  23
HETATM   23  C   UNL     1      -7.392   7.149  71.342  1.00  0.00    -0.078 C  
HETATM   24  C   UNL     1      -7.698   8.640  71.313  1.00  0.00    -0.141 C  
ENDBRANCH  22  23
ENDBRANCH  21  22
ENDBRANCH  20  21
ENDBRANCH  19  20
ENDBRANCH  17  19
ENDBRANCH  13  14
ENDBRANCH  12  13
BRANCH  12  25
HETATM   25  O   UNL     1     -10.239   7.849  69.161  1.00  0.00    -0.206 OA 
BRANCH  25  26
HETATM   26  C   UNL     1     -11.011   8.460  70.103  1.00  0.00    -0.215 C  
HETATM   27  O   UNL     1     -11.228   9.664  70.186  1.00  0.00    -0.245 OA 
BRANCH  26  28
HETATM   28  C   UNL     1     -11.611   7.437  71.062  1.00  0.00    -0.288 C  
BRANCH  28  29
HETATM   29  C   UNL     1     -11.017   6.035  70.851  1.00  0.00    -0.355 C  
HETATM   30  C   UNL     1     -11.211   5.067  73.235  1.00  0.00    -0.411 C  
HETATM   31  C   UNL     1      -9.605   4.105  71.599  1.00  0.00    -0.232 C  
HETATM   32  C   UNL     1     -10.292   5.395  72.057  1.00  0.00    -0.268 C  
ENDBRANCH  28  29
BRANCH  28  33
HETATM   33  N   UNL     1     -13.067   7.470  70.935  1.00  0.00    -0.589 N  
HETATM   34  C   UNL     1     -13.858   8.272  71.708  1.00  0.00    -0.396 C  
HETATM   35  O   UNL     1     -13.464   9.003  72.604  1.00  0.00    -0.463 OA 
HETATM   36  H   UNL     1     -13.511   6.870  70.240  1.00  0.00     0.000 HD 
ENDBRANCH  28  33
ENDBRANCH  26  28
ENDBRANCH  25  26
ENDBRANCH  12  25
ENDBRANCH  11  12
ENDBRANCH  10  11
ENDBRANCH   9  10
ENDBRANCH   8   9
ENDBRANCH   7   8
ENDBRANCH   6   7
ENDBRANCH   5   6
ENDBRANCH   4   5
ENDBRANCH   3   4
ENDBRANCH   2   3
TORSDOF 22
ENDMDL
MODEL      202
REMARK 921   NORMALIZED FREE ENERGY PREDICTED BY IDOCK:   -4.06 KCAL/MOL
REMARK 922        TOTAL FREE ENERGY PREDICTED BY IDOCK:  -12.89 KCAL/MOL
REMARK 923 INTER-LIGAND FREE ENERGY PREDICTED BY IDOCK:   -9.95 KCAL/MOL
REMARK 924 INTRA-LIGAND FREE ENERGY PREDICTED BY IDOCK:   -2.94 KCAL/MOL
REMARK 927      BINDING AFFINITY PREDICTED BY RF-SCORE:    0.00 PKD
ROOT
HETATM    1  C   UNL     1      -8.320   8.660  64.111  1.00  0.00    -0.133 C  
HETATM    2  C   UNL     1      -7.823  10.088  63.953  1.00  0.00    -0.150 C  
ENDROOT
BRANCH   2   3
HETATM    3  C   UNL     1      -8.414  10.733  62.702  1.00  0.00    -0.240 C  
BRANCH   3   4
HETATM    4  C   UNL     1      -9.932  10.854  62.791  1.00  0.00    -0.182 C  
BRANCH   4   5
HETATM    5  C   UNL     1     -10.332  12.107  63.573  1.00  0.00    -0.473 C  
BRANCH   5   6
HETATM    6  C   UNL     1     -11.841  12.307  63.528  1.00  0.00    -0.601 C  
BRANCH   6   7
HETATM    7  C   UNL     1     -12.273  13.630  64.162  1.00  0.00    -0.450 C  
BRANCH   7   8
HETATM    8  C   UNL     1     -11.375  13.909  65.362  1.00  0.00    -0.311 C  
BRANCH   8   9
HETATM    9  C   UNL     1     -12.041  13.648  66.709  1.00  0.00    -0.445 C  
BRANCH   9  10
HETATM   10  C   UNL     1     -11.590  12.272  67.208  1.00  0.00    -0.427 C  
BRANCH  10  11
HETATM   11  C   UNL     1     -10.300  12.296  68.014  1.00  0.00    -0.220 C  
BRANCH  11  12
HETATM   12  C   UNL     1      -8.990  12.231  67.209  1.00  0.00    -0.187 C  
BRANCH  12  13
HETATM   13  C   UNL     1      -7.943  13.311  67.562  1.00  0.00    -0.186 C  
BRANCH  13  14
HETATM   14  C   UNL     1      -8.467  14.750  67.481  1.00  0.00    -0.192 C  
HETATM   15  O   UNL     1      -7.398  15.722  67.301  1.00  0.00    -0.183 OA 
HETATM   16  O   UNL     1      -7.124  17.320  68.940  1.00  0.00    -0.224 OA 
HETATM   17  C   UNL     1      -8.840  15.422  68.832  1.00  0.00    -0.211 C  
HETATM   18  C   UNL     1      -7.674  16.357  68.462  1.00  0.00    -0.195 C  
BRANCH  17  19
HETATM   19  C   UNL     1     -10.175  16.141  68.987  1.00  0.00    -0.250 C  
BRANCH  19  20
HETATM   20  C   UNL     1     -10.835  15.769  70.311  1.00  0.00    -0.363 C  
BRANCH  20  21
HETATM   21  C   UNL     1     -12.170  15.052  70.089  1.00  0.00    -0.392 C  
BRANCH  21  22
HETATM   22  C   UNL     1     -13.184  15.427  71.172  1.00  0.00    -0.583 C  
BRANCH  22  23
HETATM   23  C   UNL     1     -12.504  16.009  72.411  1.00  0.00    -0.549 C  
HETATM   24  C   UNL     1     -12.598  15.051  73.590  1.00  0.00    -0.666 C  
ENDBRANCH  22  23
ENDBRANCH  21  22
ENDBRANCH  20  21
ENDBRANCH  19  20
ENDBRANCH  17  19
ENDBRANCH  13  14
ENDBRANCH  12  13
BRANCH  12  25
HETATM   25  O   UNL     1      -8.350  10.944  67.373  1.00  0.00    -0.116 OA 
BRANCH  25  26
HETATM   26  C   UNL     1      -8.286  10.432  68.633  1.00  0.00    -0.127 C  
HETATM   27  O   UNL     1      -7.581  10.849  69.545  1.00  0.00    -0.131 OA 
BRANCH  26  28
HETATM   28  C   UNL     1      -9.242   9.253  68.791  1.00  0.00    -0.136 C  
BRANCH  28  29
HETATM   29  C   UNL     1      -9.030   8.516  70.122  1.00  0.00    -0.148 C  
HETATM   30  C   UNL     1     -11.403   8.648  71.128  1.00  0.00    -0.329 C  
HETATM   31  C   UNL     1      -9.426   8.254  72.583  1.00  0.00    -0.354 C  
HETATM   32  C   UNL     1      -9.915   8.954  71.311  1.00  0.00    -0.358 C  
ENDBRANCH  28  29
BRANCH  28  33
HETATM   33  N   UNL     1      -9.111   8.382  67.623  1.00  0.00    -0.135 N  
HETATM   34  C   UNL     1     -10.080   7.495  67.250  1.00  0.00    -0.231 C  
HETATM   35  O   UNL     1     -11.123   7.293  67.852  1.00  0.00    -0.078 OA 
HETATM   36  H   UNL     1      -8.259   8.440  67.064  1.00  0.00     0.000 HD 
ENDBRANCH  28  33
ENDBRANCH  26  28
ENDBRANCH  25  26
ENDBRANCH  12  25
ENDBRANCH  11  12
ENDBRANCH  10  11
ENDBRANCH   9  10
ENDBRANCH   8   9
ENDBRANCH   7   8
ENDBRANCH   6   7
ENDBRANCH   5   6
ENDBRANCH   4   5
ENDBRANCH   3   4
ENDBRANCH   2   3
TORSDOF 22
ENDMDL
MODEL      203
REMARK 921   NORMALIZED FREE ENERGY PREDICTED BY IDOCK:   -4.06 KCAL/MOL
REMARK 922        TOTAL FREE ENERGY PREDICTED BY IDOCK:  -12.89 KCAL/MOL
REMARK 923 INTER-LIGAND FREE ENERGY PREDICTED BY IDOCK:   -9.99 KCAL/MOL
REMARK 924 INTRA-LIGAND FREE ENERGY PREDICTED BY IDOCK:   -2.90 KCAL/MOL
REMARK 927      BINDING AFFINITY PREDICTED BY RF-SCORE:    0.00 PKD
ROOT
HETATM    1  C   UNL     1     -11.687   7.922  71.219  1.00  0.00    -0.313 C  
HETATM    2  C   UNL     1     -10.503   7.026  71.546  1.00  0.00    -0.222 C  
ENDROOT
BRANCH   2   3
HETATM    3  C   UNL     1     -10.205   6.076  70.390  1.00  0.00    -0.261 C  
BRANCH   3   4
HETATM    4  C   UNL     1     -11.194   6.254  69.242  1.00  0.00    -0.458 C  
BRANCH   4   5
HETATM    5  C   UNL     1     -10.460   6.547  67.933  1.00  0.00    -0.273 C  
BRANCH   5   6
HETATM    6  C   UNL     1      -9.083   7.136  68.213  1.00  0.00    -0.134 C  
BRANCH   6   7
HETATM    7  C   UNL     1      -9.008   8.627  67.877  1.00  0.00    -0.142 C  
BRANCH   7   8
HETATM    8  C   UNL     1     -10.349   9.062  67.299  1.00  0.00    -0.342 C  
BRANCH   8   9
HETATM    9  C   UNL     1     -10.247  10.184  66.271  1.00  0.00    -0.288 C  
BRANCH   9  10
HETATM   10  C   UNL     1      -9.003  11.018  66.593  1.00  0.00    -0.176 C  
BRANCH  10  11
HETATM   11  C   UNL     1      -9.038  12.429  66.027  1.00  0.00     0.023 C  
BRANCH  11  12
HETATM   12  C   UNL     1      -9.353  13.558  67.025  1.00  0.00    -0.247 C  
BRANCH  12  13
HETATM   13  C   UNL     1      -8.819  14.954  66.633  1.00  0.00    -0.287 C  
BRANCH  13  14
HETATM   14  C   UNL     1      -7.500  15.340  67.313  1.00  0.00    -0.202 C  
HETATM   15  O   UNL     1      -6.905  14.231  68.046  1.00  0.00    -0.111 OA 
HETATM   16  O   UNL     1      -6.619  14.486  70.318  1.00  0.00    -0.174 OA 
HETATM   17  C   UNL     1      -7.621  16.140  68.640  1.00  0.00    -0.183 C  
HETATM   18  C   UNL     1      -6.976  14.874  69.232  1.00  0.00    -0.151 C  
BRANCH  17  19
HETATM   19  C   UNL     1      -6.794  17.404  68.851  1.00  0.00    -0.241 C  
BRANCH  19  20
HETATM   20  C   UNL     1      -6.964  18.359  67.673  1.00  0.00    -0.208 C  
BRANCH  20  21
HETATM   21  C   UNL     1      -7.302  19.776  68.146  1.00  0.00    -0.338 C  
BRANCH  21  22
HETATM   22  C   UNL     1      -8.489  20.349  67.369  1.00  0.00    -0.394 C  
BRANCH  22  23
HETATM   23  C   UNL     1      -9.107  19.313  66.430  1.00  0.00    -0.381 C  
HETATM   24  C   UNL     1     -10.527  19.701  66.043  1.00  0.00    -0.622 C  
ENDBRANCH  22  23
ENDBRANCH  21  22
ENDBRANCH  20  21
ENDBRANCH  19  20
ENDBRANCH  17  19
ENDBRANCH  13  14
ENDBRANCH  12  13
BRANCH  12  25
HETATM   25  O   UNL     1     -10.781  13.685  67.222  1.00  0.00    -0.275 OA 
BRANCH  25  26
HETATM   26  C   UNL     1     -11.275  13.364  68.450  1.00  0.00    -0.279 C  
HETATM   27  O   UNL     1     -11.447  12.230  68.884  1.00  0.00    -0.257 OA 
BRANCH  26  28
HETATM   28  C   UNL     1     -11.581  14.621  69.259  1.00  0.00    -0.302 C  
BRANCH  28  29
HETATM   29  C   UNL     1     -12.680  14.377  70.305  1.00  0.00    -0.318 C  
HETATM   30  C   UNL     1     -11.957  16.025  72.155  1.00  0.00    -0.629 C  
HETATM   31  C   UNL     1     -13.443  14.101  72.676  1.00  0.00    -0.634 C  
HETATM   32  C   UNL     1     -12.290  14.578  71.787  1.00  0.00    -0.408 C  
ENDBRANCH  28  29
BRANCH  28  33
HETATM   33  N   UNL     1     -11.896  15.709  68.335  1.00  0.00    -0.467 N  
HETATM   34  C   UNL     1     -11.345  16.954  68.444  1.00  0.00     0.019 C  
HETATM   35  O   UNL     1     -10.580  17.314  69.326  1.00  0.00    -0.319 OA 
HETATM   36  H   UNL     1     -12.556  15.531  67.578  1.00  0.00     0.000 HD 
ENDBRANCH  28  33
ENDBRANCH  26  28
ENDBRANCH  25  26
ENDBRANCH  12  25
ENDBRANCH  11  12
ENDBRANCH  10  11
ENDBRANCH   9  10
ENDBRANCH   8   9
ENDBRANCH   7   8
ENDBRANCH   6   7
ENDBRANCH   5   6
ENDBRANCH   4   5
ENDBRANCH   3   4
ENDBRANCH   2   3
TORSDOF 22
ENDMDL
MODEL      204
REMARK 921   NORMALIZED FREE ENERGY PREDICTED BY IDOCK:   -4.04 KCAL/MOL
REMARK 922        TOTAL FREE ENERGY PREDICTED BY IDOCK:  -12.85 KCAL/MOL
REMARK 923 INTER-LIGAND FREE ENERGY PREDICTED BY IDOCK:  -10.13 KCAL/MOL
REMARK 924 INTRA-LIGAND FREE ENERGY PREDICTED BY IDOCK:   -2.72 KCAL/MOL
REMARK 927      BINDING AFFINITY PREDICTED BY RF-SCORE:    0.00 PKD
ROOT
HETATM    1  C   UNL     1     -10.143  19.647  68.441  1.00  0.00    -0.557 C  
HETATM    2  C   UNL     1     -10.100  20.196  67.025  1.00  0.00    -0.599 C  
ENDROOT
BRANCH   2   3
HETATM    3  C   UNL     1     -10.531  19.134  66.017  1.00  0.00    -0.546 C  
BRANCH   3   4
HETATM    4  C   UNL     1     -10.528  17.737  66.632  1.00  0.00    -0.300 C  
BRANCH   4   5
HETATM    5  C   UNL     1      -9.756  16.757  65.747  1.00  0.00    -0.161 C  
BRANCH   5   6
HETATM    6  C   UNL     1     -10.715  15.816  65.029  1.00  0.00    -0.443 C  
BRANCH   6   7
HETATM    7  C   UNL     1     -10.577  14.368  65.505  1.00  0.00    -0.360 C  
BRANCH   7   8
HETATM    8  C   UNL     1     -11.732  14.057  66.450  1.00  0.00    -0.407 C  
BRANCH   8   9
HETATM    9  C   UNL     1     -11.876  12.576  66.787  1.00  0.00    -0.416 C  
BRANCH   9  10
HETATM   10  C   UNL     1     -11.899  12.431  68.311  1.00  0.00    -0.364 C  
BRANCH  10  11
HETATM   11  C   UNL     1     -10.711  11.672  68.881  1.00  0.00    -0.244 C  
BRANCH  11  12
HETATM   12  C   UNL     1     -10.657  10.163  68.581  1.00  0.00    -0.210 C  
BRANCH  12  13
HETATM   13  C   UNL     1      -9.651   9.743  67.486  1.00  0.00    -0.178 C  
BRANCH  13  14
HETATM   14  C   UNL     1      -8.202  10.162  67.763  1.00  0.00    -0.110 C  
HETATM   15  O   UNL     1      -7.568   9.335  68.780  1.00  0.00    -0.078 OA 
HETATM   16  O   UNL     1      -6.842  10.379  70.702  1.00  0.00    -0.328 OA 
HETATM   17  C   UNL     1      -8.011  11.409  68.670  1.00  0.00    -0.141 C  
HETATM   18  C   UNL     1      -7.365  10.379  69.613  1.00  0.00    -0.156 C  
BRANCH  17  19
HETATM   19  C   UNL     1      -7.064  12.527  68.245  1.00  0.00    -0.104 C  
BRANCH  19  20
HETATM   20  C   UNL     1      -7.843  13.686  67.630  1.00  0.00    -0.178 C  
BRANCH  20  21
HETATM   21  C   UNL     1      -7.221  15.036  67.996  1.00  0.00    -0.140 C  
BRANCH  21  22
HETATM   22  C   UNL     1      -8.146  15.839  68.913  1.00  0.00    -0.207 C  
BRANCH  22  23
HETATM   23  C   UNL     1      -9.456  15.101  69.186  1.00  0.00    -0.221 C  
HETATM   24  C   UNL     1     -10.437  15.985  69.945  1.00  0.00    -0.287 C  
ENDBRANCH  22  23
ENDBRANCH  21  22
ENDBRANCH  20  21
ENDBRANCH  19  20
ENDBRANCH  17  19
ENDBRANCH  13  14
ENDBRANCH  12  13
BRANCH  12  25
HETATM   25  O   UNL     1     -10.329   9.415  69.775  1.00  0.00    -0.199 OA 
BRANCH  25  26
HETATM   26  C   UNL     1     -10.978   8.234  69.972  1.00  0.00    -0.197 C  
HETATM   27  O   UNL     1     -10.891   7.236  69.264  1.00  0.00    -0.220 OA 
BRANCH  26  28
HETATM   28  C   UNL     1     -11.837   8.290  71.232  1.00  0.00    -0.288 C  
BRANCH  28  29
HETATM   29  C   UNL     1     -12.000   6.905  71.878  1.00  0.00    -0.363 C  
HETATM   30  C   UNL     1     -10.328   7.090  73.836  1.00  0.00    -0.386 C  
HETATM   31  C   UNL     1     -11.053   4.868  72.989  1.00  0.00    -0.368 C  
HETATM   32  C   UNL     1     -10.759   6.316  72.588  1.00  0.00    -0.260 C  
ENDBRANCH  28  29
BRANCH  28  33
HETATM   33  N   UNL     1     -13.113   8.924  70.902  1.00  0.00    -0.504 N  
HETATM   34  C   UNL     1     -13.392  10.225  71.209  1.00  0.00    -0.284 C  
HETATM   35  O   UNL     1     -12.653  10.983  71.819  1.00  0.00    -0.330 OA 
HETATM   36  H   UNL     1     -13.824   8.371  70.423  1.00  0.00     0.000 HD 
ENDBRANCH  28  33
ENDBRANCH  26  28
ENDBRANCH  25  26
ENDBRANCH  12  25
ENDBRANCH  11  12
ENDBRANCH  10  11
ENDBRANCH   9  10
ENDBRANCH   8   9
ENDBRANCH   7   8
ENDBRANCH   6   7
ENDBRANCH   5   6
ENDBRANCH   4   5
ENDBRANCH   3   4
ENDBRANCH   2   3
TORSDOF 22
ENDMDL
MODEL      205
REMARK 921   NORMALIZED FREE ENERGY PREDICTED BY IDOCK:   -4.04 KCAL/MOL
REMARK 922        TOTAL FREE ENERGY PREDICTED BY IDOCK:  -12.85 KCAL/MOL
REMARK 923 INTER-LIGAND FREE ENERGY PREDICTED BY IDOCK:   -9.91 KCAL/MOL
REMARK 924 INTRA-LIGAND FREE ENERGY PREDICTED BY IDOCK:   -2.94 KCAL/MOL
REMARK 927      BINDING AFFINITY PREDICTED BY RF-SCORE:    0.00 PKD
ROOT
HETATM    1  C   UNL     1     -10.298   1.878  63.564  1.00  0.00    -0.133 C  
HETATM    2  C   UNL     1     -10.467   3.370  63.331  1.00  0.00    -0.241 C  
ENDROOT
BRANCH   2   3
HETATM    3  C   UNL     1     -10.354   4.141  64.643  1.00  0.00    -0.193 C  
BRANCH   3   4
HETATM    4  C   UNL     1      -9.294   3.541  65.562  1.00  0.00    -0.158 C  
BRANCH   4   5
HETATM    5  C   UNL     1      -8.444   4.642  66.201  1.00  0.00    -0.114 C  
BRANCH   5   6
HETATM    6  C   UNL     1      -9.026   6.014  65.891  1.00  0.00    -0.144 C  
BRANCH   6   7
HETATM    7  C   UNL     1      -9.390   6.793  67.156  1.00  0.00    -0.154 C  
BRANCH   7   8
HETATM    8  C   UNL     1     -10.182   8.031  66.752  1.00  0.00    -0.367 C  
BRANCH   8   9
HETATM    9  C   UNL     1      -9.381   9.040  65.935  1.00  0.00    -0.306 C  
BRANCH   9  10
HETATM   10  C   UNL     1     -10.347  10.108  65.412  1.00  0.00    -0.177 C  
BRANCH  10  11
HETATM   11  C   UNL     1      -9.942  11.533  65.755  1.00  0.00    -0.271 C  
BRANCH  11  12
HETATM   12  C   UNL     1     -10.925  12.332  66.629  1.00  0.00    -0.278 C  
BRANCH  12  13
HETATM   13  C   UNL     1     -11.691  11.506  67.685  1.00  0.00    -0.283 C  
BRANCH  13  14
HETATM   14  C   UNL     1     -10.992  11.416  69.047  1.00  0.00    -0.236 C  
HETATM   15  O   UNL     1      -9.615  10.957  68.937  1.00  0.00    -0.192 OA 
HETATM   16  O   UNL     1      -9.057   8.993  70.007  1.00  0.00    -0.153 OA 
HETATM   17  C   UNL     1     -11.330  10.169  69.911  1.00  0.00    -0.335 C  
HETATM   18  C   UNL     1      -9.839   9.856  69.687  1.00  0.00    -0.232 C  
BRANCH  17  19
HETATM   19  C   UNL     1     -11.706  10.334  71.380  1.00  0.00    -0.312 C  
BRANCH  19  20
HETATM   20  C   UNL     1     -13.190  10.047  71.589  1.00  0.00    -0.518 C  
BRANCH  20  21
HETATM   21  C   UNL     1     -13.432   8.578  71.946  1.00  0.00    -0.411 C  
BRANCH  21  22
HETATM   22  C   UNL     1     -12.118   7.794  71.976  1.00  0.00    -0.351 C  
BRANCH  22  23
HETATM   23  C   UNL     1     -12.071   6.723  70.886  1.00  0.00    -0.421 C  
HETATM   24  C   UNL     1     -10.703   6.056  70.831  1.00  0.00    -0.329 C  
ENDBRANCH  22  23
ENDBRANCH  21  22
ENDBRANCH  20  21
ENDBRANCH  19  20
ENDBRANCH  17  19
ENDBRANCH  13  14
ENDBRANCH  12  13
BRANCH  12  25
HETATM   25  O   UNL     1     -10.241  13.396  67.329  1.00  0.00    -0.238 OA 
BRANCH  25  26
HETATM   26  C   UNL     1     -10.680  14.669  67.121  1.00  0.00    -0.292 C  
HETATM   27  O   UNL     1     -10.915  15.181  66.031  1.00  0.00    -0.331 OA 
BRANCH  26  28
HETATM   28  C   UNL     1     -10.875  15.401  68.445  1.00  0.00    -0.268 C  
BRANCH  28  29
HETATM   29  C   UNL     1     -12.057  14.833  69.247  1.00  0.00    -0.296 C  
HETATM   30  C   UNL     1     -11.464  15.653  71.621  1.00  0.00    -0.506 C  
HETATM   31  C   UNL     1     -13.009  13.734  71.287  1.00  0.00    -0.409 C  
HETATM   32  C   UNL     1     -11.784  14.458  70.721  1.00  0.00    -0.296 C  
ENDBRANCH  28  29
BRANCH  28  33
HETATM   33  N   UNL     1     -10.996  16.833  68.177  1.00  0.00    -0.349 N  
HETATM   34  C   UNL     1      -9.937  17.692  68.261  1.00  0.00    -0.339 C  
HETATM   35  O   UNL     1      -8.805  17.389  68.604  1.00  0.00    -0.271 OA 
HETATM   36  H   UNL     1     -11.909  17.206  67.916  1.00  0.00     0.000 HD 
ENDBRANCH  28  33
ENDBRANCH  26  28
ENDBRANCH  25  26
ENDBRANCH  12  25
ENDBRANCH  11  12
ENDBRANCH  10  11
ENDBRANCH   9  10
ENDBRANCH   8   9
ENDBRANCH   7   8
ENDBRANCH   6   7
ENDBRANCH   5   6
ENDBRANCH   4   5
ENDBRANCH   3   4
ENDBRANCH   2   3
TORSDOF 22
ENDMDL
MODEL      206
REMARK 921   NORMALIZED FREE ENERGY PREDICTED BY IDOCK:   -4.03 KCAL/MOL
REMARK 922        TOTAL FREE ENERGY PREDICTED BY IDOCK:  -12.83 KCAL/MOL
REMARK 923 INTER-LIGAND FREE ENERGY PREDICTED BY IDOCK:   -8.61 KCAL/MOL
REMARK 924 INTRA-LIGAND FREE ENERGY PREDICTED BY IDOCK:   -4.22 KCAL/MOL
REMARK 927      BINDING AFFINITY PREDICTED BY RF-SCORE:    0.00 PKD
ROOT
HETATM    1  C   UNL     1     -12.082  14.876  64.336  1.00  0.00    -0.417 C  
HETATM    2  C   UNL     1     -11.247  13.607  64.354  1.00  0.00    -0.382 C  
ENDROOT
BRANCH   2   3
HETATM    3  C   UNL     1     -11.978  12.486  65.087  1.00  0.00    -0.484 C  
BRANCH   3   4
HETATM    4  C   UNL     1     -12.255  12.850  66.543  1.00  0.00    -0.258 C  
BRANCH   4   5
HETATM    5  C   UNL     1     -11.623  11.826  67.488  1.00  0.00    -0.361 C  
BRANCH   5   6
HETATM    6  C   UNL     1     -10.619  10.958  66.741  1.00  0.00    -0.313 C  
BRANCH   6   7
HETATM    7  C   UNL     1     -10.594   9.519  67.258  1.00  0.00    -0.317 C  
BRANCH   7   8
HETATM    8  C   UNL     1      -9.897   8.644  66.222  1.00  0.00    -0.320 C  
BRANCH   8   9
HETATM    9  C   UNL     1      -8.738   9.331  65.508  1.00  0.00    -0.204 C  
BRANCH   9  10
HETATM   10  C   UNL     1      -7.470   9.123  66.341  1.00  0.00    -0.092 C  
BRANCH  10  11
HETATM   11  C   UNL     1      -6.926  10.395  66.972  1.00  0.00    -0.090 C  
BRANCH  11  12
HETATM   12  C   UNL     1      -7.164  10.565  68.484  1.00  0.00    -0.085 C  
BRANCH  12  13
HETATM   13  C   UNL     1      -8.090  11.736  68.879  1.00  0.00     0.029 C  
BRANCH  13  14
HETATM   14  C   UNL     1      -7.834  13.034  68.104  1.00  0.00    -0.145 C  
HETATM   15  O   UNL     1      -6.644  13.734  68.567  1.00  0.00    -0.084 OA 
HETATM   16  O   UNL     1      -6.920  15.856  69.422  1.00  0.00    -0.191 OA 
HETATM   17  C   UNL     1      -8.702  14.258  68.511  1.00  0.00    -0.175 C  
HETATM   18  C   UNL     1      -7.338  14.833  68.936  1.00  0.00    -0.130 C  
BRANCH  17  19
HETATM   19  C   UNL     1      -9.408  15.086  67.443  1.00  0.00    -0.204 C  
BRANCH  19  20
HETATM   20  C   UNL     1     -10.675  15.722  68.007  1.00  0.00    -0.296 C  
BRANCH  20  21
HETATM   21  C   UNL     1     -10.759  17.210  67.654  1.00  0.00    -0.302 C  
BRANCH  21  22
HETATM   22  C   UNL     1      -9.370  17.850  67.624  1.00  0.00    -0.258 C  
BRANCH  22  23
HETATM   23  C   UNL     1      -9.439  19.344  67.308  1.00  0.00    -0.398 C  
HETATM   24  C   UNL     1     -10.314  19.608  66.090  1.00  0.00    -0.627 C  
ENDBRANCH  22  23
ENDBRANCH  21  22
ENDBRANCH  20  21
ENDBRANCH  19  20
ENDBRANCH  17  19
ENDBRANCH  13  14
ENDBRANCH  12  13
BRANCH  12  25
HETATM   25  O   UNL     1      -7.728   9.360  69.052  1.00  0.00    -0.073 OA 
BRANCH  25  26
HETATM   26  C   UNL     1      -7.798   9.281  70.410  1.00  0.00    -0.148 C  
HETATM   27  O   UNL     1      -6.975   9.727  71.202  1.00  0.00    -0.327 OA 
BRANCH  26  28
HETATM   28  C   UNL     1      -9.074   8.568  70.848  1.00  0.00    -0.172 C  
BRANCH  28  29
HETATM   29  C   UNL     1     -10.201   9.560  71.179  1.00  0.00    -0.300 C  
HETATM   30  C   UNL     1     -12.222   7.960  71.320  1.00  0.00    -0.314 C  
HETATM   31  C   UNL     1     -12.550  10.392  70.918  1.00  0.00    -0.478 C  
HETATM   32  C   UNL     1     -11.616   9.204  70.668  1.00  0.00    -0.282 C  
ENDBRANCH  28  29
BRANCH  28  33
HETATM   33  N   UNL     1      -8.754   7.670  71.956  1.00  0.00    -0.113 N  
HETATM   34  C   UNL     1      -8.950   6.320  71.893  1.00  0.00    -0.139 C  
HETATM   35  O   UNL     1      -9.444   5.720  70.951  1.00  0.00    -0.161 OA 
HETATM   36  H   UNL     1      -8.368   8.068  72.813  1.00  0.00     0.000 HD 
ENDBRANCH  28  33
ENDBRANCH  26  28
ENDBRANCH  25  26
ENDBRANCH  12  25
ENDBRANCH  11  12
ENDBRANCH  10  11
ENDBRANCH   9  10
ENDBRANCH   8   9
ENDBRANCH   7   8
ENDBRANCH   6   7
ENDBRANCH   5   6
ENDBRANCH   4   5
ENDBRANCH   3   4
ENDBRANCH   2   3
TORSDOF 22
ENDMDL
MODEL      207
REMARK 921   NORMALIZED FREE ENERGY PREDICTED BY IDOCK:   -4.03 KCAL/MOL
REMARK 922        TOTAL FREE ENERGY PREDICTED BY IDOCK:  -12.83 KCAL/MOL
REMARK 923 INTER-LIGAND FREE ENERGY PREDICTED BY IDOCK:   -9.25 KCAL/MOL
REMARK 924 INTRA-LIGAND FREE ENERGY PREDICTED BY IDOCK:   -3.58 KCAL/MOL
REMARK 927      BINDING AFFINITY PREDICTED BY RF-SCORE:    0.00 PKD
ROOT
HETATM    1  C   UNL     1     -11.954  13.653  64.352  1.00  0.00    -0.476 C  
HETATM    2  C   UNL     1     -10.680  14.289  64.884  1.00  0.00    -0.448 C  
ENDROOT
BRANCH   2   3
HETATM    3  C   UNL     1     -10.865  15.790  65.086  1.00  0.00    -0.444 C  
BRANCH   3   4
HETATM    4  C   UNL     1     -10.767  16.180  66.558  1.00  0.00    -0.220 C  
BRANCH   4   5
HETATM    5  C   UNL     1     -10.213  17.598  66.708  1.00  0.00    -0.335 C  
BRANCH   5   6
HETATM    6  C   UNL     1      -8.848  17.571  67.382  1.00  0.00    -0.230 C  
BRANCH   6   7
HETATM    7  C   UNL     1      -7.744  17.076  66.445  1.00  0.00    -0.350 C  
BRANCH   7   8
HETATM    8  C   UNL     1      -7.051  15.886  67.099  1.00  0.00    -0.240 C  
BRANCH   8   9
HETATM    9  C   UNL     1      -7.617  15.512  68.465  1.00  0.00    -0.127 C  
BRANCH   9  10
HETATM   10  C   UNL     1      -7.595  13.986  68.591  1.00  0.00    -0.130 C  
BRANCH  10  11
HETATM   11  C   UNL     1      -8.589  13.274  67.686  1.00  0.00    -0.196 C  
BRANCH  11  12
HETATM   12  C   UNL     1      -9.127  11.923  68.191  1.00  0.00    -0.190 C  
BRANCH  12  13
HETATM   13  C   UNL     1     -10.395  11.408  67.474  1.00  0.00    -0.224 C  
BRANCH  13  14
HETATM   14  C   UNL     1     -11.711  11.807  68.152  1.00  0.00    -0.307 C  
HETATM   15  O   UNL     1     -11.793  13.238  68.411  1.00  0.00    -0.336 OA 
HETATM   16  O   UNL     1     -11.994  13.913  70.605  1.00  0.00    -0.323 OA 
HETATM   17  C   UNL     1     -11.807  11.534  69.679  1.00  0.00    -0.421 C  
HETATM   18  C   UNL     1     -11.886  13.070  69.749  1.00  0.00    -0.311 C  
BRANCH  17  19
HETATM   19  C   UNL     1     -13.032  10.831  70.256  1.00  0.00    -0.132 C  
BRANCH  19  20
HETATM   20  C   UNL     1     -12.769  10.389  71.692  1.00  0.00    -0.560 C  
BRANCH  20  21
HETATM   21  C   UNL     1     -12.416   8.901  71.764  1.00  0.00    -0.425 C  
BRANCH  21  22
HETATM   22  C   UNL     1     -10.956   8.699  72.174  1.00  0.00    -0.434 C  
BRANCH  22  23
HETATM   23  C   UNL     1     -10.783   7.478  73.077  1.00  0.00    -0.438 C  
HETATM   24  C   UNL     1      -9.366   6.927  72.990  1.00  0.00    -0.162 C  
ENDBRANCH  22  23
ENDBRANCH  21  22
ENDBRANCH  20  21
ENDBRANCH  19  20
ENDBRANCH  17  19
ENDBRANCH  13  14
ENDBRANCH  12  13
BRANCH  12  25
HETATM   25  O   UNL     1      -8.119  10.892  68.073  1.00  0.00    -0.112 OA 
BRANCH  25  26
HETATM   26  C   UNL     1      -8.131   9.894  69.000  1.00  0.00    -0.111 C  
HETATM   27  O   UNL     1      -8.045  10.038  70.215  1.00  0.00    -0.162 OA 
BRANCH  26  28
HETATM   28  C   UNL     1      -8.291   8.533  68.331  1.00  0.00    -0.124 C  
BRANCH  28  29
HETATM   29  C   UNL     1      -9.188   7.592  69.151  1.00  0.00    -0.144 C  
HETATM   30  C   UNL     1     -10.245   6.176  67.270  1.00  0.00    -0.236 C  
HETATM   31  C   UNL     1     -11.330   6.341  69.501  1.00  0.00    -0.475 C  
HETATM   32  C   UNL     1     -10.483   7.093  68.471  1.00  0.00    -0.229 C  
ENDBRANCH  28  29
BRANCH  28  33
HETATM   33  N   UNL     1      -6.963   7.979  68.069  1.00  0.00    -0.072 N  
HETATM   34  C   UNL     1      -6.546   7.620  66.819  1.00  0.00    -0.061 C  
HETATM   35  O   UNL     1      -7.225   7.671  65.804  1.00  0.00    -0.063 OA 
HETATM   36  H   UNL     1      -6.321   7.856  68.852  1.00  0.00     0.000 HD 
ENDBRANCH  28  33
ENDBRANCH  26  28
ENDBRANCH  25  26
ENDBRANCH  12  25
ENDBRANCH  11  12
ENDBRANCH  10  11
ENDBRANCH   9  10
ENDBRANCH   8   9
ENDBRANCH   7   8
ENDBRANCH   6   7
ENDBRANCH   5   6
ENDBRANCH   4   5
ENDBRANCH   3   4
ENDBRANCH   2   3
TORSDOF 22
ENDMDL
MODEL      208
REMARK 921   NORMALIZED FREE ENERGY PREDICTED BY IDOCK:   -4.03 KCAL/MOL
REMARK 922        TOTAL FREE ENERGY PREDICTED BY IDOCK:  -12.83 KCAL/MOL
REMARK 923 INTER-LIGAND FREE ENERGY PREDICTED BY IDOCK:   -8.85 KCAL/MOL
REMARK 924 INTRA-LIGAND FREE ENERGY PREDICTED BY IDOCK:   -3.98 KCAL/MOL
REMARK 927      BINDING AFFINITY PREDICTED BY RF-SCORE:    0.00 PKD
ROOT
HETATM    1  C   UNL     1     -13.535   9.510  71.332  1.00  0.00    -0.405 C  
HETATM    2  C   UNL     1     -13.253  10.936  71.774  1.00  0.00    -0.513 C  
ENDROOT
BRANCH   2   3
HETATM    3  C   UNL     1     -12.318  11.635  70.792  1.00  0.00    -0.454 C  
BRANCH   3   4
HETATM    4  C   UNL     1     -11.954  10.731  69.617  1.00  0.00    -0.385 C  
BRANCH   4   5
HETATM    5  C   UNL     1     -11.640  11.561  68.371  1.00  0.00    -0.375 C  
BRANCH   5   6
HETATM    6  C   UNL     1     -11.431  13.024  68.741  1.00  0.00    -0.340 C  
BRANCH   6   7
HETATM    7  C   UNL     1     -11.299  13.924  67.511  1.00  0.00    -0.342 C  
BRANCH   7   8
HETATM    8  C   UNL     1      -9.825  14.015  67.134  1.00  0.00    -0.240 C  
BRANCH   8   9
HETATM    9  C   UNL     1      -8.871  13.669  68.273  1.00  0.00    -0.179 C  
BRANCH   9  10
HETATM   10  C   UNL     1      -7.872  12.626  67.761  1.00  0.00    -0.154 C  
BRANCH  10  11
HETATM   11  C   UNL     1      -7.381  11.661  68.829  1.00  0.00    -0.118 C  
BRANCH  11  12
HETATM   12  C   UNL     1      -7.245  10.187  68.408  1.00  0.00    -0.076 C  
BRANCH  12  13
HETATM   13  C   UNL     1      -6.829   9.214  69.534  1.00  0.00    -0.048 C  
BRANCH  13  14
HETATM   14  C   UNL     1      -7.515   9.475  70.881  1.00  0.00    -0.013 C  
HETATM   15  O   UNL     1      -6.669   9.125  72.013  1.00  0.00    -0.284 OA 
HETATM   16  O   UNL     1      -7.429   7.486  73.445  1.00  0.00    -0.091 OA 
HETATM   17  C   UNL     1      -8.553   8.412  71.338  1.00  0.00    -0.207 C  
HETATM   18  C   UNL     1      -7.532   8.191  72.470  1.00  0.00    -0.117 C  
BRANCH  17  19
HETATM   19  C   UNL     1      -9.929   8.848  71.833  1.00  0.00    -0.384 C  
BRANCH  19  20
HETATM   20  C   UNL     1     -10.694   7.659  72.406  1.00  0.00    -0.333 C  
BRANCH  20  21
HETATM   21  C   UNL     1     -10.788   6.513  71.394  1.00  0.00    -0.289 C  
BRANCH  21  22
HETATM   22  C   UNL     1     -10.535   5.162  72.065  1.00  0.00    -0.278 C  
BRANCH  22  23
HETATM   23  C   UNL     1     -11.110   5.113  73.480  1.00  0.00    -0.361 C  
HETATM   24  C   UNL     1     -10.123   4.483  74.453  1.00  0.00    -0.253 C  
ENDBRANCH  22  23
ENDBRANCH  21  22
ENDBRANCH  20  21
ENDBRANCH  19  20
ENDBRANCH  17  19
ENDBRANCH  13  14
ENDBRANCH  12  13
BRANCH  12  25
HETATM   25  O   UNL     1      -8.487   9.695  67.853  1.00  0.00    -0.121 OA 
BRANCH  25  26
HETATM   26  C   UNL     1      -8.413   8.929  66.730  1.00  0.00    -0.115 C  
HETATM   27  O   UNL     1      -7.392   8.439  66.259  1.00  0.00    -0.083 OA 
BRANCH  26  28
HETATM   28  C   UNL     1      -9.795   8.725  66.117  1.00  0.00    -0.227 C  
BRANCH  28  29
HETATM   29  C   UNL     1     -10.369  10.033  65.549  1.00  0.00    -0.146 C  
HETATM   30  C   UNL     1      -9.214  10.102  63.242  1.00  0.00    -0.320 C  
HETATM   31  C   UNL     1     -10.124  12.175  64.271  1.00  0.00    -0.317 C  
HETATM   32  C   UNL     1      -9.471  10.821  64.568  1.00  0.00    -0.297 C  
ENDBRANCH  28  29
BRANCH  28  33
HETATM   33  N   UNL     1     -10.664   8.101  67.114  1.00  0.00    -0.463 N  
HETATM   34  C   UNL     1     -10.924   6.760  67.130  1.00  0.00    -0.388 C  
HETATM   35  O   UNL     1     -10.514   5.949  66.314  1.00  0.00    -0.133 OA 
HETATM   36  H   UNL     1     -11.094   8.691  67.827  1.00  0.00     0.000 HD 
ENDBRANCH  28  33
ENDBRANCH  26  28
ENDBRANCH  25  26
ENDBRANCH  12  25
ENDBRANCH  11  12
ENDBRANCH  10  11
ENDBRANCH   9  10
ENDBRANCH   8   9
ENDBRANCH   7   8
ENDBRANCH   6   7
ENDBRANCH   5   6
ENDBRANCH   4   5
ENDBRANCH   3   4
ENDBRANCH   2   3
TORSDOF 22
ENDMDL
MODEL      209
REMARK 921   NORMALIZED FREE ENERGY PREDICTED BY IDOCK:   -4.01 KCAL/MOL
REMARK 922        TOTAL FREE ENERGY PREDICTED BY IDOCK:  -12.80 KCAL/MOL
REMARK 923 INTER-LIGAND FREE ENERGY PREDICTED BY IDOCK:   -9.81 KCAL/MOL
REMARK 924 INTRA-LIGAND FREE ENERGY PREDICTED BY IDOCK:   -2.99 KCAL/MOL
REMARK 927      BINDING AFFINITY PREDICTED BY RF-SCORE:    0.00 PKD
ROOT
HETATM    1  C   UNL     1     -10.436   4.426  65.563  1.00  0.00    -0.228 C  
HETATM    2  C   UNL     1     -10.415   3.840  64.161  1.00  0.00    -0.267 C  
ENDROOT
BRANCH   2   3
HETATM    3  C   UNL     1      -9.252   4.407  63.353  1.00  0.00    -0.123 C  
BRANCH   3   4
HETATM    4  C   UNL     1      -8.004   4.592  64.211  1.00  0.00    -0.098 C  
BRANCH   4   5
HETATM    5  C   UNL     1      -7.306   5.912  63.877  1.00  0.00    -0.061 C  
BRANCH   5   6
HETATM    6  C   UNL     1      -8.007   6.609  62.718  1.00  0.00    -0.092 C  
BRANCH   6   7
HETATM    7  C   UNL     1      -8.095   8.124  62.914  1.00  0.00    -0.143 C  
BRANCH   7   8
HETATM    8  C   UNL     1      -8.369   8.406  64.387  1.00  0.00    -0.106 C  
BRANCH   8   9
HETATM    9  C   UNL     1      -8.296   9.883  64.760  1.00  0.00    -0.163 C  
BRANCH   9  10
HETATM   10  C   UNL     1      -9.634  10.536  64.396  1.00  0.00    -0.357 C  
BRANCH  10  11
HETATM   11  C   UNL     1     -10.148  11.519  65.436  1.00  0.00    -0.304 C  
BRANCH  11  12
HETATM   12  C   UNL     1      -9.914  11.139  66.910  1.00  0.00    -0.198 C  
BRANCH  12  13
HETATM   13  C   UNL     1      -9.809  12.329  67.889  1.00  0.00    -0.201 C  
BRANCH  13  14
HETATM   14  C   UNL     1     -11.065  13.206  67.957  1.00  0.00    -0.263 C  
HETATM   15  O   UNL     1     -10.957  14.399  67.130  1.00  0.00    -0.291 OA 
HETATM   16  O   UNL     1     -11.083  16.443  68.187  1.00  0.00    -0.352 OA 
HETATM   17  C   UNL     1     -11.209  14.103  69.218  1.00  0.00    -0.308 C  
HETATM   18  C   UNL     1     -11.083  15.236  68.183  1.00  0.00    -0.308 C  
BRANCH  17  19
HETATM   19  C   UNL     1     -12.521  14.127  69.995  1.00  0.00    -0.352 C  
BRANCH  19  20
HETATM   20  C   UNL     1     -12.553  13.005  71.029  1.00  0.00    -0.386 C  
BRANCH  20  21
HETATM   21  C   UNL     1     -13.425  13.377  72.231  1.00  0.00    -0.683 C  
BRANCH  21  22
HETATM   22  C   UNL     1     -14.049  14.763  72.053  1.00  0.00    -0.604 C  
BRANCH  22  23
HETATM   23  C   UNL     1     -13.452  15.784  73.020  1.00  0.00    -0.672 C  
HETATM   24  C   UNL     1     -12.432  15.133  73.946  1.00  0.00    -0.715 C  
ENDBRANCH  22  23
ENDBRANCH  21  22
ENDBRANCH  20  21
ENDBRANCH  19  20
ENDBRANCH  17  19
ENDBRANCH  13  14
ENDBRANCH  12  13
BRANCH  12  25
HETATM   25  O   UNL     1     -10.972  10.278  67.391  1.00  0.00    -0.293 OA 
BRANCH  25  26
HETATM   26  C   UNL     1     -10.651   8.983  67.663  1.00  0.00    -0.231 C  
HETATM   27  O   UNL     1     -10.761   8.036  66.891  1.00  0.00    -0.322 OA 
BRANCH  26  28
HETATM   28  C   UNL     1     -10.101   8.844  69.080  1.00  0.00    -0.197 C  
BRANCH  28  29
HETATM   29  C   UNL     1      -8.719   8.172  69.095  1.00  0.00    -0.140 C  
HETATM   30  C   UNL     1      -7.275  10.067  70.088  1.00  0.00    -0.167 C  
HETATM   31  C   UNL     1      -6.235   8.234  68.768  1.00  0.00    -0.045 C  
HETATM   32  C   UNL     1      -7.491   9.096  68.925  1.00  0.00    -0.075 C  
ENDBRANCH  28  29
BRANCH  28  33
HETATM   33  N   UNL     1     -11.089   8.148  69.902  1.00  0.00    -0.416 N  
HETATM   34  C   UNL     1     -11.557   8.653  71.081  1.00  0.00    -0.281 C  
HETATM   35  O   UNL     1     -11.185   9.693  71.602  1.00  0.00    -0.367 OA 
HETATM   36  H   UNL     1     -11.444   7.246  69.581  1.00  0.00     0.000 HD 
ENDBRANCH  28  33
ENDBRANCH  26  28
ENDBRANCH  25  26
ENDBRANCH  12  25
ENDBRANCH  11  12
ENDBRANCH  10  11
ENDBRANCH   9  10
ENDBRANCH   8   9
ENDBRANCH   7   8
ENDBRANCH   6   7
ENDBRANCH   5   6
ENDBRANCH   4   5
ENDBRANCH   3   4
ENDBRANCH   2   3
TORSDOF 22
ENDMDL
MODEL      210
REMARK 921   NORMALIZED FREE ENERGY PREDICTED BY IDOCK:   -4.00 KCAL/MOL
REMARK 922        TOTAL FREE ENERGY PREDICTED BY IDOCK:  -12.76 KCAL/MOL
REMARK 923 INTER-LIGAND FREE ENERGY PREDICTED BY IDOCK:   -8.76 KCAL/MOL
REMARK 924 INTRA-LIGAND FREE ENERGY PREDICTED BY IDOCK:   -4.00 KCAL/MOL
REMARK 927      BINDING AFFINITY PREDICTED BY RF-SCORE:    0.00 PKD
ROOT
HETATM    1  C   UNL     1      -9.204  15.805  66.265  1.00  0.00    -0.368 C  
HETATM    2  C   UNL     1      -9.722  14.981  67.433  1.00  0.00    -0.216 C  
ENDROOT
BRANCH   2   3
HETATM    3  C   UNL     1     -10.632  13.859  66.943  1.00  0.00    -0.280 C  
BRANCH   3   4
HETATM    4  C   UNL     1     -12.092  14.299  66.884  1.00  0.00    -0.440 C  
BRANCH   4   5
HETATM    5  C   UNL     1     -12.646  14.152  65.465  1.00  0.00    -0.501 C  
BRANCH   5   6
HETATM    6  C   UNL     1     -12.749  12.682  65.081  1.00  0.00    -0.329 C  
BRANCH   6   7
HETATM    7  C   UNL     1     -12.240  12.412  63.664  1.00  0.00    -0.653 C  
BRANCH   7   8
HETATM    8  C   UNL     1     -10.743  12.695  63.625  1.00  0.00    -0.410 C  
BRANCH   8   9
HETATM    9  C   UNL     1      -9.876  11.441  63.559  1.00  0.00    -0.404 C  
BRANCH   9  10
HETATM   10  C   UNL     1      -9.457  11.073  64.986  1.00  0.00    -0.269 C  
BRANCH  10  11
HETATM   11  C   UNL     1      -9.739   9.625  65.361  1.00  0.00    -0.365 C  
BRANCH  11  12
HETATM   12  C   UNL     1      -8.623   8.887  66.123  1.00  0.00    -0.140 C  
BRANCH  12  13
HETATM   13  C   UNL     1      -7.627   8.104  65.241  1.00  0.00    -0.095 C  
BRANCH  13  14
HETATM   14  C   UNL     1      -7.472   6.626  65.620  1.00  0.00    -0.082 C  
HETATM   15  O   UNL     1      -7.731   5.734  64.499  1.00  0.00    -0.082 OA 
HETATM   16  O   UNL     1      -9.471   4.237  64.708  1.00  0.00    -0.156 OA 
HETATM   17  C   UNL     1      -8.661   5.988  66.392  1.00  0.00    -0.129 C  
HETATM   18  C   UNL     1      -8.771   5.132  65.117  1.00  0.00    -0.151 C  
BRANCH  17  19
HETATM   19  C   UNL     1      -8.404   5.173  67.655  1.00  0.00    -0.105 C  
BRANCH  19  20
HETATM   20  C   UNL     1      -9.705   4.946  68.420  1.00  0.00    -0.212 C  
BRANCH  20  21
HETATM   21  C   UNL     1      -9.975   6.079  69.413  1.00  0.00    -0.220 C  
BRANCH  21  22
HETATM   22  C   UNL     1     -11.456   6.138  69.794  1.00  0.00    -0.362 C  
BRANCH  22  23
HETATM   23  C   UNL     1     -11.649   6.432  71.282  1.00  0.00    -0.370 C  
HETATM   24  C   UNL     1     -13.047   6.967  71.559  1.00  0.00    -0.395 C  
ENDBRANCH  22  23
ENDBRANCH  21  22
ENDBRANCH  20  21
ENDBRANCH  19  20
ENDBRANCH  17  19
ENDBRANCH  13  14
ENDBRANCH  12  13
BRANCH  12  25
HETATM   25  O   UNL     1      -7.852   9.812  66.925  1.00  0.00    -0.101 OA 
BRANCH  25  26
HETATM   26  C   UNL     1      -7.709   9.525  68.249  1.00  0.00    -0.086 C  
HETATM   27  O   UNL     1      -7.394   8.438  68.721  1.00  0.00    -0.083 OA 
BRANCH  26  28
HETATM   28  C   UNL     1      -7.974  10.760  69.105  1.00  0.00    -0.134 C  
BRANCH  28  29
HETATM   29  C   UNL     1      -9.405  11.289  68.922  1.00  0.00    -0.084 C  
HETATM   30  C   UNL     1     -10.690   9.778  70.574  1.00  0.00    -0.381 C  
HETATM   31  C   UNL     1     -11.876  10.931  68.718  1.00  0.00    -0.305 C  
HETATM   32  C   UNL     1     -10.555  10.278  69.134  1.00  0.00    -0.254 C  
ENDBRANCH  28  29
BRANCH  28  33
HETATM   33  N   UNL     1      -6.948  11.761  68.815  1.00  0.00    -0.097 N  
HETATM   34  C   UNL     1      -6.048  12.189  69.749  1.00  0.00    -0.143 C  
HETATM   35  O   UNL     1      -6.018  11.834  70.917  1.00  0.00    -0.360 OA 
HETATM   36  H   UNL     1      -6.903  12.157  67.875  1.00  0.00     0.000 HD 
ENDBRANCH  28  33
ENDBRANCH  26  28
ENDBRANCH  25  26
ENDBRANCH  12  25
ENDBRANCH  11  12
ENDBRANCH  10  11
ENDBRANCH   9  10
ENDBRANCH   8   9
ENDBRANCH   7   8
ENDBRANCH   6   7
ENDBRANCH   5   6
ENDBRANCH   4   5
ENDBRANCH   3   4
ENDBRANCH   2   3
TORSDOF 22
ENDMDL
MODEL      211
REMARK 921   NORMALIZED FREE ENERGY PREDICTED BY IDOCK:   -4.00 KCAL/MOL
REMARK 922        TOTAL FREE ENERGY PREDICTED BY IDOCK:  -12.75 KCAL/MOL
REMARK 923 INTER-LIGAND FREE ENERGY PREDICTED BY IDOCK:   -9.59 KCAL/MOL
REMARK 924 INTRA-LIGAND FREE ENERGY PREDICTED BY IDOCK:   -3.16 KCAL/MOL
REMARK 927      BINDING AFFINITY PREDICTED BY RF-SCORE:    0.00 PKD
ROOT
HETATM    1  C   UNL     1     -12.777  13.775  65.339  1.00  0.00    -0.513 C  
HETATM    2  C   UNL     1     -11.471  14.544  65.229  1.00  0.00    -0.355 C  
ENDROOT
BRANCH   2   3
HETATM    3  C   UNL     1     -10.646  14.399  66.505  1.00  0.00    -0.296 C  
BRANCH   3   4
HETATM    4  C   UNL     1     -11.512  14.523  67.755  1.00  0.00    -0.362 C  
BRANCH   4   5
HETATM    5  C   UNL     1     -11.243  15.849  68.471  1.00  0.00    -0.362 C  
BRANCH   5   6
HETATM    6  C   UNL     1     -11.764  15.798  69.901  1.00  0.00    -0.365 C  
BRANCH   6   7
HETATM    7  C   UNL     1     -12.016  14.367  70.381  1.00  0.00    -0.395 C  
BRANCH   7   8
HETATM    8  C   UNL     1     -13.077  14.402  71.474  1.00  0.00    -0.411 C  
BRANCH   8   9
HETATM    9  C   UNL     1     -13.494  13.025  71.978  1.00  0.00    -0.584 C  
BRANCH   9  10
HETATM   10  C   UNL     1     -12.654  11.972  71.248  1.00  0.00    -0.357 C  
BRANCH  10  11
HETATM   11  C   UNL     1     -12.990  10.538  71.628  1.00  0.00    -0.581 C  
BRANCH  11  12
HETATM   12  C   UNL     1     -12.007   9.455  71.146  1.00  0.00    -0.337 C  
BRANCH  12  13
HETATM   13  C   UNL     1     -10.603   9.965  70.755  1.00  0.00    -0.309 C  
BRANCH  13  14
HETATM   14  C   UNL     1     -10.366  10.069  69.243  1.00  0.00    -0.219 C  
HETATM   15  O   UNL     1     -10.206   8.765  68.614  1.00  0.00    -0.186 OA 
HETATM   16  O   UNL     1      -8.203   8.329  67.560  1.00  0.00    -0.119 OA 
HETATM   17  C   UNL     1      -8.926  10.450  68.799  1.00  0.00    -0.157 C  
HETATM   18  C   UNL     1      -8.951   9.036  68.192  1.00  0.00    -0.133 C  
BRANCH  17  19
HETATM   19  C   UNL     1      -8.709  11.554  67.769  1.00  0.00    -0.142 C  
BRANCH  19  20
HETATM   20  C   UNL     1      -7.219  11.807  67.560  1.00  0.00    -0.123 C  
BRANCH  20  21
HETATM   21  C   UNL     1      -6.854  13.267  67.844  1.00  0.00    -0.140 C  
BRANCH  21  22
HETATM   22  C   UNL     1      -7.812  13.887  68.862  1.00  0.00    -0.022 C  
BRANCH  22  23
HETATM   23  C   UNL     1      -7.763  15.415  68.830  1.00  0.00    -0.165 C  
HETATM   24  C   UNL     1      -6.616  15.946  69.679  1.00  0.00    -0.180 C  
ENDBRANCH  22  23
ENDBRANCH  21  22
ENDBRANCH  20  21
ENDBRANCH  19  20
ENDBRANCH  17  19
ENDBRANCH  13  14
ENDBRANCH  12  13
BRANCH  12  25
HETATM   25  O   UNL     1     -11.828   8.438  72.159  1.00  0.00    -0.325 OA 
BRANCH  25  26
HETATM   26  C   UNL     1     -11.485   7.189  71.739  1.00  0.00    -0.267 C  
HETATM   27  O   UNL     1     -11.901   6.628  70.731  1.00  0.00    -0.371 OA 
BRANCH  26  28
HETATM   28  C   UNL     1     -10.472   6.555  72.687  1.00  0.00    -0.211 C  
BRANCH  28  29
HETATM   29  C   UNL     1     -11.023   5.282  73.348  1.00  0.00    -0.372 C  
HETATM   30  C   UNL     1      -9.060   3.652  72.961  1.00  0.00    -0.113 C  
HETATM   31  C   UNL     1     -11.351   2.798  73.413  1.00  0.00    -0.228 C  
HETATM   32  C   UNL     1     -10.551   3.931  72.763  1.00  0.00    -0.206 C  
ENDBRANCH  28  29
BRANCH  28  33
HETATM   33  N   UNL     1     -10.037   7.563  73.653  1.00  0.00    -0.325 N  
HETATM   34  C   UNL     1      -8.727   7.908  73.822  1.00  0.00    -0.271 C  
HETATM   35  O   UNL     1      -7.781   7.400  73.240  1.00  0.00    -0.090 OA 
HETATM   36  H   UNL     1     -10.743   8.029  74.224  1.00  0.00     0.000 HD 
ENDBRANCH  28  33
ENDBRANCH  26  28
ENDBRANCH  25  26
ENDBRANCH  12  25
ENDBRANCH  11  12
ENDBRANCH  10  11
ENDBRANCH   9  10
ENDBRANCH   8   9
ENDBRANCH   7   8
ENDBRANCH   6   7
ENDBRANCH   5   6
ENDBRANCH   4   5
ENDBRANCH   3   4
ENDBRANCH   2   3
TORSDOF 22
ENDMDL
MODEL      212
REMARK 921   NORMALIZED FREE ENERGY PREDICTED BY IDOCK:   -3.99 KCAL/MOL
REMARK 922        TOTAL FREE ENERGY PREDICTED BY IDOCK:  -12.75 KCAL/MOL
REMARK 923 INTER-LIGAND FREE ENERGY PREDICTED BY IDOCK:   -8.88 KCAL/MOL
REMARK 924 INTRA-LIGAND FREE ENERGY PREDICTED BY IDOCK:   -3.87 KCAL/MOL
REMARK 927      BINDING AFFINITY PREDICTED BY RF-SCORE:    0.00 PKD
ROOT
HETATM    1  C   UNL     1     -10.862  16.231  68.367  1.00  0.00    -0.334 C  
HETATM    2  C   UNL     1     -11.193  15.248  67.256  1.00  0.00    -0.306 C  
ENDROOT
BRANCH   2   3
HETATM    3  C   UNL     1     -10.239  15.420  66.077  1.00  0.00    -0.343 C  
BRANCH   3   4
HETATM    4  C   UNL     1     -10.624  14.527  64.902  1.00  0.00    -0.450 C  
BRANCH   4   5
HETATM    5  C   UNL     1     -11.963  13.834  65.163  1.00  0.00    -0.393 C  
BRANCH   5   6
HETATM    6  C   UNL     1     -12.211  12.744  64.129  1.00  0.00    -0.506 C  
BRANCH   6   7
HETATM    7  C   UNL     1     -10.911  12.127  63.609  1.00  0.00    -0.527 C  
BRANCH   7   8
HETATM    8  C   UNL     1     -10.509  10.988  64.539  1.00  0.00    -0.411 C  
BRANCH   8   9
HETATM    9  C   UNL     1      -9.251  10.245  64.102  1.00  0.00    -0.309 C  
BRANCH   9  10
HETATM   10  C   UNL     1      -8.896   9.224  65.188  1.00  0.00    -0.238 C  
BRANCH  10  11
HETATM   11  C   UNL     1      -7.401   9.030  65.392  1.00  0.00    -0.085 C  
BRANCH  11  12
HETATM   12  C   UNL     1      -6.880   9.197  66.831  1.00  0.00    -0.080 C  
BRANCH  12  13
HETATM   13  C   UNL     1      -6.366  10.610  67.187  1.00  0.00    -0.070 C  
BRANCH  13  14
HETATM   14  C   UNL     1      -7.388  11.731  66.960  1.00  0.00    -0.133 C  
HETATM   15  O   UNL     1      -6.861  13.043  67.305  1.00  0.00    -0.146 OA 
HETATM   16  O   UNL     1      -7.928  14.213  68.979  1.00  0.00    -0.097 OA 
HETATM   17  C   UNL     1      -8.483  11.892  68.051  1.00  0.00    -0.162 C  
HETATM   18  C   UNL     1      -7.790  13.250  68.265  1.00  0.00    -0.143 C  
BRANCH  17  19
HETATM   19  C   UNL     1      -9.950  12.011  67.652  1.00  0.00    -0.196 C  
BRANCH  19  20
HETATM   20  C   UNL     1     -10.856  11.636  68.822  1.00  0.00    -0.262 C  
BRANCH  20  21
HETATM   21  C   UNL     1     -10.266  10.482  69.638  1.00  0.00    -0.207 C  
BRANCH  21  22
HETATM   22  C   UNL     1     -11.167  10.127  70.823  1.00  0.00    -0.414 C  
BRANCH  22  23
HETATM   23  C   UNL     1     -12.470  10.926  70.805  1.00  0.00    -0.489 C  
HETATM   24  C   UNL     1     -13.385  10.510  71.949  1.00  0.00    -0.461 C  
ENDBRANCH  22  23
ENDBRANCH  21  22
ENDBRANCH  20  21
ENDBRANCH  19  20
ENDBRANCH  17  19
ENDBRANCH  13  14
ENDBRANCH  12  13
BRANCH  12  25
HETATM   25  O   UNL     1      -7.908   8.859  67.791  1.00  0.00    -0.100 OA 
BRANCH  25  26
HETATM   26  C   UNL     1      -7.720   7.737  68.540  1.00  0.00    -0.118 C  
HETATM   27  O   UNL     1      -6.671   7.394  69.074  1.00  0.00    -0.049 OA 
BRANCH  26  28
HETATM   28  C   UNL     1      -9.016   6.941  68.662  1.00  0.00    -0.129 C  
BRANCH  28  29
HETATM   29  C   UNL     1      -9.146   6.262  70.034  1.00  0.00    -0.150 C  
HETATM   30  C   UNL     1     -11.685   6.486  70.443  1.00  0.00    -0.439 C  
HETATM   31  C   UNL     1     -10.119   6.121  72.339  1.00  0.00    -0.199 C  
HETATM   32  C   UNL     1     -10.274   6.771  70.961  1.00  0.00    -0.217 C  
ENDBRANCH  28  29
BRANCH  28  33
HETATM   33  N   UNL     1      -9.098   6.002  67.544  1.00  0.00    -0.111 N  
HETATM   34  C   UNL     1     -10.210   5.881  66.761  1.00  0.00    -0.219 C  
HETATM   35  O   UNL     1     -11.257   6.488  66.920  1.00  0.00    -0.387 OA 
HETATM   36  H   UNL     1      -8.290   5.413  67.341  1.00  0.00     0.000 HD 
ENDBRANCH  28  33
ENDBRANCH  26  28
ENDBRANCH  25  26
ENDBRANCH  12  25
ENDBRANCH  11  12
ENDBRANCH  10  11
ENDBRANCH   9  10
ENDBRANCH   8   9
ENDBRANCH   7   8
ENDBRANCH   6   7
ENDBRANCH   5   6
ENDBRANCH   4   5
ENDBRANCH   3   4
ENDBRANCH   2   3
TORSDOF 22
ENDMDL
MODEL      213
REMARK 921   NORMALIZED FREE ENERGY PREDICTED BY IDOCK:   -3.99 KCAL/MOL
REMARK 922        TOTAL FREE ENERGY PREDICTED BY IDOCK:  -12.75 KCAL/MOL
REMARK 923 INTER-LIGAND FREE ENERGY PREDICTED BY IDOCK:   -9.45 KCAL/MOL
REMARK 924 INTRA-LIGAND FREE ENERGY PREDICTED BY IDOCK:   -3.29 KCAL/MOL
REMARK 927      BINDING AFFINITY PREDICTED BY RF-SCORE:    0.00 PKD
ROOT
HETATM    1  C   UNL     1      -9.060  16.213  65.969  1.00  0.00    -0.354 C  
HETATM    2  C   UNL     1      -9.995  15.014  65.954  1.00  0.00    -0.353 C  
ENDROOT
BRANCH   2   3
HETATM    3  C   UNL     1     -11.055  15.140  67.044  1.00  0.00    -0.328 C  
BRANCH   3   4
HETATM    4  C   UNL     1     -11.874  13.860  67.187  1.00  0.00    -0.445 C  
BRANCH   4   5
HETATM    5  C   UNL     1     -12.034  13.480  68.660  1.00  0.00    -0.378 C  
BRANCH   5   6
HETATM    6  C   UNL     1     -11.263  12.203  68.969  1.00  0.00    -0.314 C  
BRANCH   6   7
HETATM    7  C   UNL     1     -12.181  11.057  69.398  1.00  0.00    -0.329 C  
BRANCH   7   8
HETATM    8  C   UNL     1     -12.358  11.117  70.911  1.00  0.00    -0.500 C  
BRANCH   8   9
HETATM    9  C   UNL     1     -13.554  10.325  71.428  1.00  0.00    -0.176 C  
BRANCH   9  10
HETATM   10  C   UNL     1     -13.027   9.138  72.241  1.00  0.00    -0.492 C  
BRANCH  10  11
HETATM   11  C   UNL     1     -13.368   7.780  71.647  1.00  0.00    -0.386 C  
BRANCH  11  12
HETATM   12  C   UNL     1     -12.194   6.980  71.053  1.00  0.00    -0.374 C  
BRANCH  12  13
HETATM   13  C   UNL     1     -10.963   7.819  70.643  1.00  0.00    -0.255 C  
BRANCH  13  14
HETATM   14  C   UNL     1     -10.509   7.609  69.194  1.00  0.00    -0.214 C  
HETATM   15  O   UNL     1     -10.159   6.223  68.915  1.00  0.00    -0.151 OA 
HETATM   16  O   UNL     1      -7.993   5.781  68.264  1.00  0.00    -0.102 OA 
HETATM   17  C   UNL     1      -9.050   8.034  68.864  1.00  0.00    -0.144 C  
HETATM   18  C   UNL     1      -8.878   6.526  68.609  1.00  0.00    -0.121 C  
BRANCH  17  19
HETATM   19  C   UNL     1      -8.762   8.899  67.641  1.00  0.00    -0.124 C  
BRANCH  19  20
HETATM   20  C   UNL     1     -10.038   9.133  66.837  1.00  0.00    -0.328 C  
BRANCH  20  21
HETATM   21  C   UNL     1      -9.733   9.764  65.476  1.00  0.00    -0.382 C  
BRANCH  21  22
HETATM   22  C   UNL     1     -10.455  11.103  65.314  1.00  0.00    -0.326 C  
BRANCH  22  23
HETATM   23  C   UNL     1     -10.750  11.416  63.847  1.00  0.00    -0.462 C  
HETATM   24  C   UNL     1     -12.088  12.126  63.695  1.00  0.00    -0.648 C  
ENDBRANCH  22  23
ENDBRANCH  21  22
ENDBRANCH  20  21
ENDBRANCH  19  20
ENDBRANCH  17  19
ENDBRANCH  13  14
ENDBRANCH  12  13
BRANCH  12  25
HETATM   25  O   UNL     1     -11.736   5.972  71.984  1.00  0.00    -0.307 OA 
BRANCH  25  26
HETATM   26  C   UNL     1     -10.643   6.269  72.741  1.00  0.00    -0.228 C  
HETATM   27  O   UNL     1     -10.557   7.181  73.557  1.00  0.00    -0.353 OA 
BRANCH  26  28
HETATM   28  C   UNL     1      -9.507   5.289  72.464  1.00  0.00    -0.145 C  
BRANCH  28  29
HETATM   29  C   UNL     1      -8.173   6.012  72.220  1.00  0.00    -0.110 C  
HETATM   30  C   UNL     1      -6.650   4.792  73.909  1.00  0.00    -0.063 C  
HETATM   31  C   UNL     1      -6.043   7.043  73.045  1.00  0.00    -0.056 C  
HETATM   32  C   UNL     1      -7.212   6.130  73.425  1.00  0.00    -0.088 C  
ENDBRANCH  28  29
BRANCH  28  33
HETATM   33  N   UNL     1      -9.899   4.416  71.358  1.00  0.00    -0.184 N  
HETATM   34  C   UNL     1      -9.609   3.082  71.332  1.00  0.00    -0.157 C  
HETATM   35  O   UNL     1      -8.966   2.481  72.179  1.00  0.00    -0.075 OA 
HETATM   36  H   UNL     1     -10.411   4.820  70.573  1.00  0.00     0.000 HD 
ENDBRANCH  28  33
ENDBRANCH  26  28
ENDBRANCH  25  26
ENDBRANCH  12  25
ENDBRANCH  11  12
ENDBRANCH  10  11
ENDBRANCH   9  10
ENDBRANCH   8   9
ENDBRANCH   7   8
ENDBRANCH   6   7
ENDBRANCH   5   6
ENDBRANCH   4   5
ENDBRANCH   3   4
ENDBRANCH   2   3
TORSDOF 22
ENDMDL
MODEL      214
REMARK 921   NORMALIZED FREE ENERGY PREDICTED BY IDOCK:   -3.98 KCAL/MOL
REMARK 922        TOTAL FREE ENERGY PREDICTED BY IDOCK:  -12.72 KCAL/MOL
REMARK 923 INTER-LIGAND FREE ENERGY PREDICTED BY IDOCK:  -10.04 KCAL/MOL
REMARK 924 INTRA-LIGAND FREE ENERGY PREDICTED BY IDOCK:   -2.68 KCAL/MOL
REMARK 927      BINDING AFFINITY PREDICTED BY RF-SCORE:    0.00 PKD
ROOT
HETATM    1  C   UNL     1      -5.980   4.484  69.457  1.00  0.00    -0.018 C  
HETATM    2  C   UNL     1      -6.174   4.931  68.017  1.00  0.00    -0.035 C  
ENDROOT
BRANCH   2   3
HETATM    3  C   UNL     1      -7.235   4.081  67.323  1.00  0.00    -0.068 C  
BRANCH   3   4
HETATM    4  C   UNL     1      -8.287   3.575  68.306  1.00  0.00    -0.096 C  
BRANCH   4   5
HETATM    5  C   UNL     1      -9.625   4.281  68.079  1.00  0.00    -0.204 C  
BRANCH   5   6
HETATM    6  C   UNL     1      -9.745   4.749  66.635  1.00  0.00    -0.205 C  
BRANCH   6   7
HETATM    7  C   UNL     1     -10.119   6.228  66.530  1.00  0.00    -0.168 C  
BRANCH   7   8
HETATM    8  C   UNL     1      -9.689   6.929  67.813  1.00  0.00    -0.148 C  
BRANCH   8   9
HETATM    9  C   UNL     1      -8.695   8.066  67.596  1.00  0.00    -0.126 C  
BRANCH   9  10
HETATM   10  C   UNL     1      -8.509   8.801  68.926  1.00  0.00    -0.131 C  
BRANCH  10  11
HETATM   11  C   UNL     1      -8.841  10.284  68.867  1.00  0.00    -0.157 C  
BRANCH  11  12
HETATM   12  C   UNL     1     -10.321  10.662  69.062  1.00  0.00    -0.218 C  
BRANCH  12  13
HETATM   13  C   UNL     1     -11.073  11.071  67.777  1.00  0.00    -0.356 C  
BRANCH  13  14
HETATM   14  C   UNL     1     -11.794  12.421  67.868  1.00  0.00    -0.308 C  
HETATM   15  O   UNL     1     -12.201  12.924  66.563  1.00  0.00    -0.441 OA 
HETATM   16  O   UNL     1     -11.319  14.939  65.875  1.00  0.00    -0.340 OA 
HETATM   17  C   UNL     1     -10.889  13.670  68.058  1.00  0.00    -0.261 C  
HETATM   18  C   UNL     1     -11.441  14.036  66.668  1.00  0.00    -0.364 C  
BRANCH  17  19
HETATM   19  C   UNL     1     -11.218  14.697  69.136  1.00  0.00    -0.291 C  
BRANCH  19  20
HETATM   20  C   UNL     1     -12.222  14.126  70.132  1.00  0.00    -0.415 C  
BRANCH  20  21
HETATM   21  C   UNL     1     -13.013  15.238  70.829  1.00  0.00    -0.492 C  
BRANCH  21  22
HETATM   22  C   UNL     1     -13.641  14.735  72.130  1.00  0.00    -0.518 C  
BRANCH  22  23
HETATM   23  C   UNL     1     -13.340  15.668  73.304  1.00  0.00    -0.618 C  
HETATM   24  C   UNL     1     -12.228  15.106  74.179  1.00  0.00    -0.686 C  
ENDBRANCH  22  23
ENDBRANCH  21  22
ENDBRANCH  20  21
ENDBRANCH  19  20
ENDBRANCH  17  19
ENDBRANCH  13  14
ENDBRANCH  12  13
BRANCH  12  25
HETATM   25  O   UNL     1     -11.055   9.567  69.660  1.00  0.00    -0.234 OA 
BRANCH  25  26
HETATM   26  C   UNL     1     -11.830   9.850  70.744  1.00  0.00    -0.330 C  
HETATM   27  O   UNL     1     -12.704  10.707  70.800  1.00  0.00    -0.349 OA 
BRANCH  26  28
HETATM   28  C   UNL     1     -11.486   8.931  71.912  1.00  0.00    -0.372 C  
BRANCH  28  29
HETATM   29  C   UNL     1     -10.207   8.120  71.648  1.00  0.00    -0.266 C  
HETATM   30  C   UNL     1      -9.707   7.228  74.017  1.00  0.00    -0.277 C  
HETATM   31  C   UNL     1      -7.914   7.350  72.300  1.00  0.00    -0.110 C  
HETATM   32  C   UNL     1      -9.194   8.016  72.811  1.00  0.00    -0.318 C  
ENDBRANCH  28  29
BRANCH  28  33
HETATM   33  N   UNL     1     -12.647   8.094  72.209  1.00  0.00    -0.485 N  
HETATM   34  C   UNL     1     -12.917   6.938  71.533  1.00  0.00    -0.306 C  
HETATM   35  O   UNL     1     -12.268   6.498  70.597  1.00  0.00    -0.331 OA 
HETATM   36  H   UNL     1     -13.284   8.385  72.952  1.00  0.00     0.000 HD 
ENDBRANCH  28  33
ENDBRANCH  26  28
ENDBRANCH  25  26
ENDBRANCH  12  25
ENDBRANCH  11  12
ENDBRANCH  10  11
ENDBRANCH   9  10
ENDBRANCH   8   9
ENDBRANCH   7   8
ENDBRANCH   6   7
ENDBRANCH   5   6
ENDBRANCH   4   5
ENDBRANCH   3   4
ENDBRANCH   2   3
TORSDOF 22
ENDMDL
MODEL      215
REMARK 921   NORMALIZED FREE ENERGY PREDICTED BY IDOCK:   -3.98 KCAL/MOL
REMARK 922        TOTAL FREE ENERGY PREDICTED BY IDOCK:  -12.72 KCAL/MOL
REMARK 923 INTER-LIGAND FREE ENERGY PREDICTED BY IDOCK:   -9.47 KCAL/MOL
REMARK 924 INTRA-LIGAND FREE ENERGY PREDICTED BY IDOCK:   -3.25 KCAL/MOL
REMARK 927      BINDING AFFINITY PREDICTED BY RF-SCORE:    0.00 PKD
ROOT
HETATM    1  C   UNL     1      -7.676   5.394  70.361  1.00  0.00    -0.080 C  
HETATM    2  C   UNL     1      -8.829   5.642  69.402  1.00  0.00    -0.114 C  
ENDROOT
BRANCH   2   3
HETATM    3  C   UNL     1      -9.979   6.355  70.107  1.00  0.00    -0.201 C  
BRANCH   3   4
HETATM    4  C   UNL     1     -10.608   5.482  71.188  1.00  0.00    -0.303 C  
BRANCH   4   5
HETATM    5  C   UNL     1     -11.619   6.282  72.012  1.00  0.00    -0.372 C  
BRANCH   5   6
HETATM    6  C   UNL     1     -12.130   7.476  71.217  1.00  0.00    -0.351 C  
BRANCH   6   7
HETATM    7  C   UNL     1     -12.559   8.636  72.118  1.00  0.00    -0.451 C  
BRANCH   7   8
HETATM    8  C   UNL     1     -12.179   9.945  71.436  1.00  0.00    -0.499 C  
BRANCH   8   9
HETATM    9  C   UNL     1     -11.063   9.807  70.406  1.00  0.00    -0.367 C  
BRANCH   9  10
HETATM   10  C   UNL     1     -11.148  10.997  69.444  1.00  0.00    -0.320 C  
BRANCH  10  11
HETATM   11  C   UNL     1     -11.594  10.626  68.038  1.00  0.00    -0.182 C  
BRANCH  11  12
HETATM   12  C   UNL     1     -11.614  11.767  67.004  1.00  0.00    -0.244 C  
BRANCH  12  13
HETATM   13  C   UNL     1     -11.896  13.173  67.578  1.00  0.00    -0.409 C  
BRANCH  13  14
HETATM   14  C   UNL     1     -10.670  14.093  67.630  1.00  0.00    -0.257 C  
HETATM   15  O   UNL     1     -10.389  14.571  68.976  1.00  0.00    -0.237 OA 
HETATM   16  O   UNL     1     -10.463  16.847  69.334  1.00  0.00    -0.321 OA 
HETATM   17  C   UNL     1     -10.892  15.558  67.164  1.00  0.00    -0.316 C  
HETATM   18  C   UNL     1     -10.562  15.868  68.635  1.00  0.00    -0.250 C  
BRANCH  17  19
HETATM   19  C   UNL     1      -9.928  16.202  66.172  1.00  0.00    -0.357 C  
BRANCH  19  20
HETATM   20  C   UNL     1     -10.058  17.722  66.207  1.00  0.00    -0.345 C  
BRANCH  20  21
HETATM   21  C   UNL     1      -8.685  18.400  66.214  1.00  0.00    -0.209 C  
BRANCH  21  22
HETATM   22  C   UNL     1      -8.567  19.395  67.370  1.00  0.00    -0.333 C  
BRANCH  22  23
HETATM   23  C   UNL     1      -9.861  20.181  67.578  1.00  0.00    -0.574 C  
HETATM   24  C   UNL     1     -10.253  20.216  69.049  1.00  0.00    -0.214 C  
ENDBRANCH  22  23
ENDBRANCH  21  22
ENDBRANCH  20  21
ENDBRANCH  19  20
ENDBRANCH  17  19
ENDBRANCH  13  14
ENDBRANCH  12  13
BRANCH  12  25
HETATM   25  O   UNL     1     -10.356  11.837  66.293  1.00  0.00    -0.213 OA 
BRANCH  25  26
HETATM   26  C   UNL     1     -10.242  11.108  65.148  1.00  0.00    -0.289 C  
HETATM   27  O   UNL     1     -11.025  11.120  64.205  1.00  0.00    -0.341 OA 
BRANCH  26  28
HETATM   28  C   UNL     1      -8.971  10.263  65.166  1.00  0.00    -0.191 C  
BRANCH  28  29
HETATM   29  C   UNL     1      -8.284  10.289  66.540  1.00  0.00    -0.127 C  
HETATM   30  C   UNL     1      -7.577   7.818  66.770  1.00  0.00    -0.098 C  
HETATM   31  C   UNL     1      -7.790   9.271  68.776  1.00  0.00    -0.088 C  
HETATM   32  C   UNL     1      -8.348   8.991  67.377  1.00  0.00    -0.112 C  
ENDBRANCH  28  29
BRANCH  28  33
HETATM   33  N   UNL     1      -8.099  10.703  64.078  1.00  0.00    -0.348 N  
HETATM   34  C   UNL     1      -8.070  10.086  62.860  1.00  0.00    -0.143 C  
HETATM   35  O   UNL     1      -8.713   9.094  62.553  1.00  0.00    -0.216 OA 
HETATM   36  H   UNL     1      -7.487  11.504  64.235  1.00  0.00     0.000 HD 
ENDBRANCH  28  33
ENDBRANCH  26  28
ENDBRANCH  25  26
ENDBRANCH  12  25
ENDBRANCH  11  12
ENDBRANCH  10  11
ENDBRANCH   9  10
ENDBRANCH   8   9
ENDBRANCH   7   8
ENDBRANCH   6   7
ENDBRANCH   5   6
ENDBRANCH   4   5
ENDBRANCH   3   4
ENDBRANCH   2   3
TORSDOF 22
ENDMDL
MODEL      216
REMARK 921   NORMALIZED FREE ENERGY PREDICTED BY IDOCK:   -3.98 KCAL/MOL
REMARK 922        TOTAL FREE ENERGY PREDICTED BY IDOCK:  -12.71 KCAL/MOL
REMARK 923 INTER-LIGAND FREE ENERGY PREDICTED BY IDOCK:   -9.06 KCAL/MOL
REMARK 924 INTRA-LIGAND FREE ENERGY PREDICTED BY IDOCK:   -3.64 KCAL/MOL
REMARK 927      BINDING AFFINITY PREDICTED BY RF-SCORE:    0.00 PKD
ROOT
HETATM    1  C   UNL     1     -14.076  14.222  72.121  1.00  0.00    -0.634 C  
HETATM    2  C   UNL     1     -13.444  12.848  72.272  1.00  0.00    -0.631 C  
ENDROOT
BRANCH   2   3
HETATM    3  C   UNL     1     -12.641  12.481  71.028  1.00  0.00    -0.350 C  
BRANCH   3   4
HETATM    4  C   UNL     1     -12.818  11.013  70.652  1.00  0.00    -0.305 C  
BRANCH   4   5
HETATM    5  C   UNL     1     -11.553  10.214  70.970  1.00  0.00    -0.462 C  
BRANCH   5   6
HETATM    6  C   UNL     1     -11.845   9.143  72.012  1.00  0.00    -0.407 C  
BRANCH   6   7
HETATM    7  C   UNL     1     -12.391   7.857  71.390  1.00  0.00    -0.334 C  
BRANCH   7   8
HETATM    8  C   UNL     1     -11.665   6.671  72.014  1.00  0.00    -0.354 C  
BRANCH   8   9
HETATM    9  C   UNL     1     -11.027   5.729  70.997  1.00  0.00    -0.300 C  
BRANCH   9  10
HETATM   10  C   UNL     1     -11.382   6.228  69.593  1.00  0.00    -0.492 C  
BRANCH  10  11
HETATM   11  C   UNL     1     -10.310   5.957  68.550  1.00  0.00    -0.268 C  
BRANCH  11  12
HETATM   12  C   UNL     1      -9.332   7.110  68.258  1.00  0.00    -0.130 C  
BRANCH  12  13
HETATM   13  C   UNL     1      -9.976   8.393  67.688  1.00  0.00    -0.246 C  
BRANCH  13  14
HETATM   14  C   UNL     1      -9.697   8.634  66.200  1.00  0.00    -0.222 C  
HETATM   15  O   UNL     1      -8.725   7.696  65.657  1.00  0.00    -0.151 OA 
HETATM   16  O   UNL     1      -6.767   8.564  64.806  1.00  0.00    -0.067 OA 
HETATM   17  C   UNL     1      -8.738   9.810  65.863  1.00  0.00    -0.156 C  
HETATM   18  C   UNL     1      -7.848   8.672  65.332  1.00  0.00    -0.101 C  
BRANCH  17  19
HETATM   19  C   UNL     1      -9.124  10.832  64.799  1.00  0.00    -0.222 C  
BRANCH  19  20
HETATM   20  C   UNL     1     -10.640  10.901  64.646  1.00  0.00    -0.332 C  
BRANCH  20  21
HETATM   21  C   UNL     1     -11.126  12.348  64.527  1.00  0.00    -0.360 C  
BRANCH  21  22
HETATM   22  C   UNL     1     -12.151  12.678  65.614  1.00  0.00    -0.502 C  
BRANCH  22  23
HETATM   23  C   UNL     1     -11.678  12.229  66.996  1.00  0.00    -0.399 C  
HETATM   24  C   UNL     1     -10.822  13.300  67.658  1.00  0.00    -0.273 C  
ENDBRANCH  22  23
ENDBRANCH  21  22
ENDBRANCH  20  21
ENDBRANCH  19  20
ENDBRANCH  17  19
ENDBRANCH  13  14
ENDBRANCH  12  13
BRANCH  12  25
HETATM   25  O   UNL     1      -8.611   7.486  69.454  1.00  0.00    -0.132 OA 
BRANCH  25  26
HETATM   26  C   UNL     1      -7.277   7.731  69.331  1.00  0.00    -0.080 C  
HETATM   27  O   UNL     1      -6.580   7.456  68.361  1.00  0.00    -0.043 OA 
BRANCH  26  28
HETATM   28  C   UNL     1      -6.736   8.432  70.574  1.00  0.00    -0.037 C  
BRANCH  28  29
HETATM   29  C   UNL     1      -7.809   8.573  71.666  1.00  0.00    -0.160 C  
HETATM   30  C   UNL     1      -6.370   8.296  73.791  1.00  0.00    -0.129 C  
HETATM   31  C   UNL     1      -8.824   7.902  73.856  1.00  0.00    -0.315 C  
HETATM   32  C   UNL     1      -7.570   7.799  72.982  1.00  0.00    -0.138 C  
ENDBRANCH  28  29
BRANCH  28  33
HETATM   33  N   UNL     1      -6.150   9.711  70.175  1.00  0.00    -0.047 N  
HETATM   34  C   UNL     1      -6.890  10.730  69.648  1.00  0.00    -0.133 C  
HETATM   35  O   UNL     1      -8.086  10.686  69.409  1.00  0.00    -0.151 OA 
HETATM   36  H   UNL     1      -5.145   9.847  70.295  1.00  0.00     0.000 HD 
ENDBRANCH  28  33
ENDBRANCH  26  28
ENDBRANCH  25  26
ENDBRANCH  12  25
ENDBRANCH  11  12
ENDBRANCH  10  11
ENDBRANCH   9  10
ENDBRANCH   8   9
ENDBRANCH   7   8
ENDBRANCH   6   7
ENDBRANCH   5   6
ENDBRANCH   4   5
ENDBRANCH   3   4
ENDBRANCH   2   3
TORSDOF 22
ENDMDL
MODEL      217
REMARK 921   NORMALIZED FREE ENERGY PREDICTED BY IDOCK:   -3.96 KCAL/MOL
REMARK 922        TOTAL FREE ENERGY PREDICTED BY IDOCK:  -12.67 KCAL/MOL
REMARK 923 INTER-LIGAND FREE ENERGY PREDICTED BY IDOCK:   -9.67 KCAL/MOL
REMARK 924 INTRA-LIGAND FREE ENERGY PREDICTED BY IDOCK:   -3.00 KCAL/MOL
REMARK 927      BINDING AFFINITY PREDICTED BY RF-SCORE:    0.00 PKD
ROOT
HETATM    1  C   UNL     1      -6.563  18.256  68.999  1.00  0.00    -0.263 C  
HETATM    2  C   UNL     1      -6.211  18.960  67.699  1.00  0.00    -0.206 C  
ENDROOT
BRANCH   2   3
HETATM    3  C   UNL     1      -6.961  20.284  67.579  1.00  0.00    -0.320 C  
BRANCH   3   4
HETATM    4  C   UNL     1      -8.101  20.199  66.568  1.00  0.00    -0.315 C  
BRANCH   4   5
HETATM    5  C   UNL     1      -9.423  19.875  67.267  1.00  0.00    -0.487 C  
BRANCH   5   6
HETATM    6  C   UNL     1     -10.300  19.006  66.375  1.00  0.00    -0.520 C  
BRANCH   6   7
HETATM    7  C   UNL     1      -9.947  17.521  66.479  1.00  0.00    -0.323 C  
BRANCH   7   8
HETATM    8  C   UNL     1      -9.727  17.177  67.947  1.00  0.00    -0.270 C  
BRANCH   8   9
HETATM    9  C   UNL     1      -9.277  15.739  68.187  1.00  0.00    -0.189 C  
BRANCH   9  10
HETATM   10  C   UNL     1      -9.908  14.853  67.108  1.00  0.00    -0.231 C  
BRANCH  10  11
HETATM   11  C   UNL     1      -9.203  13.521  66.910  1.00  0.00    -0.254 C  
BRANCH  11  12
HETATM   12  C   UNL     1      -9.713  12.343  67.761  1.00  0.00    -0.201 C  
BRANCH  12  13
HETATM   13  C   UNL     1      -8.615  11.446  68.373  1.00  0.00    -0.156 C  
BRANCH  13  14
HETATM   14  C   UNL     1      -8.461  10.081  67.693  1.00  0.00    -0.114 C  
HETATM   15  O   UNL     1      -9.490   9.838  66.692  1.00  0.00    -0.158 OA 
HETATM   16  O   UNL     1     -10.890   8.037  67.019  1.00  0.00    -0.283 OA 
HETATM   17  C   UNL     1      -8.967   8.852  68.499  1.00  0.00    -0.134 C  
HETATM   18  C   UNL     1      -9.975   8.756  67.340  1.00  0.00    -0.208 C  
BRANCH  17  19
HETATM   19  C   UNL     1      -8.084   7.617  68.647  1.00  0.00    -0.127 C  
BRANCH  19  20
HETATM   20  C   UNL     1      -8.217   7.027  70.048  1.00  0.00    -0.133 C  
BRANCH  20  21
HETATM   21  C   UNL     1      -8.628   5.553  69.997  1.00  0.00    -0.120 C  
BRANCH  21  22
HETATM   22  C   UNL     1     -10.013   5.387  69.368  1.00  0.00    -0.280 C  
BRANCH  22  23
HETATM   23  C   UNL     1     -11.108   6.016  70.229  1.00  0.00    -0.415 C  
HETATM   24  C   UNL     1     -11.065   5.475  71.652  1.00  0.00    -0.192 C  
ENDBRANCH  22  23
ENDBRANCH  21  22
ENDBRANCH  20  21
ENDBRANCH  19  20
ENDBRANCH  17  19
ENDBRANCH  13  14
ENDBRANCH  12  13
BRANCH  12  25
HETATM   25  O   UNL     1     -10.537  12.818  68.851  1.00  0.00    -0.212 OA 
BRANCH  25  26
HETATM   26  C   UNL     1     -11.637  12.082  69.173  1.00  0.00    -0.312 C  
HETATM   27  O   UNL     1     -12.197  11.268  68.446  1.00  0.00    -0.604 OA 
BRANCH  26  28
HETATM   28  C   UNL     1     -12.095  12.381  70.597  1.00  0.00    -0.225 C  
BRANCH  28  29
HETATM   29  C   UNL     1     -12.831  11.187  71.226  1.00  0.00    -0.515 C  
HETATM   30  C   UNL     1     -10.880   9.525  71.526  1.00  0.00    -0.321 C  
HETATM   31  C   UNL     1     -13.234   8.726  71.466  1.00  0.00    -0.356 C  
HETATM   32  C   UNL     1     -12.264   9.781  70.926  1.00  0.00    -0.390 C  
ENDBRANCH  28  29
BRANCH  28  33
HETATM   33  N   UNL     1     -12.890  13.608  70.587  1.00  0.00    -0.209 N  
HETATM   34  C   UNL     1     -12.367  14.830  70.898  1.00  0.00    -0.319 C  
HETATM   35  O   UNL     1     -11.218  15.038  71.257  1.00  0.00    -0.304 OA 
HETATM   36  H   UNL     1     -13.878  13.548  70.337  1.00  0.00     0.000 HD 
ENDBRANCH  28  33
ENDBRANCH  26  28
ENDBRANCH  25  26
ENDBRANCH  12  25
ENDBRANCH  11  12
ENDBRANCH  10  11
ENDBRANCH   9  10
ENDBRANCH   8   9
ENDBRANCH   7   8
ENDBRANCH   6   7
ENDBRANCH   5   6
ENDBRANCH   4   5
ENDBRANCH   3   4
ENDBRANCH   2   3
TORSDOF 22
ENDMDL
MODEL      218
REMARK 921   NORMALIZED FREE ENERGY PREDICTED BY IDOCK:   -3.95 KCAL/MOL
REMARK 922        TOTAL FREE ENERGY PREDICTED BY IDOCK:  -12.66 KCAL/MOL
REMARK 923 INTER-LIGAND FREE ENERGY PREDICTED BY IDOCK:  -10.21 KCAL/MOL
REMARK 924 INTRA-LIGAND FREE ENERGY PREDICTED BY IDOCK:   -2.45 KCAL/MOL
REMARK 927      BINDING AFFINITY PREDICTED BY RF-SCORE:    0.00 PKD
ROOT
HETATM    1  C   UNL     1      -9.395   3.216  73.989  1.00  0.00    -0.102 C  
HETATM    2  C   UNL     1     -10.716   3.161  73.239  1.00  0.00    -0.288 C  
ENDROOT
BRANCH   2   3
HETATM    3  C   UNL     1     -11.510   4.447  73.444  1.00  0.00    -0.297 C  
BRANCH   3   4
HETATM    4  C   UNL     1     -10.611   5.606  73.864  1.00  0.00    -0.285 C  
BRANCH   4   5
HETATM    5  C   UNL     1     -10.866   6.836  72.990  1.00  0.00    -0.314 C  
BRANCH   5   6
HETATM    6  C   UNL     1     -11.789   6.485  71.830  1.00  0.00    -0.381 C  
BRANCH   6   7
HETATM    7  C   UNL     1     -12.162   7.708  70.991  1.00  0.00    -0.261 C  
BRANCH   7   8
HETATM    8  C   UNL     1     -11.467   8.930  71.580  1.00  0.00    -0.391 C  
BRANCH   8   9
HETATM    9  C   UNL     1     -12.314  10.198  71.556  1.00  0.00    -0.505 C  
BRANCH   9  10
HETATM   10  C   UNL     1     -12.528  10.605  70.095  1.00  0.00    -0.342 C  
BRANCH  10  11
HETATM   11  C   UNL     1     -11.250  10.992  69.366  1.00  0.00    -0.332 C  
BRANCH  11  12
HETATM   12  C   UNL     1     -11.396  12.017  68.227  1.00  0.00    -0.286 C  
BRANCH  12  13
HETATM   13  C   UNL     1     -12.231  13.271  68.569  1.00  0.00    -0.104 C  
BRANCH  13  14
HETATM   14  C   UNL     1     -11.658  14.119  69.711  1.00  0.00    -0.290 C  
HETATM   15  O   UNL     1     -12.440  14.008  70.934  1.00  0.00    -0.326 OA 
HETATM   16  O   UNL     1     -13.406  15.931  71.760  1.00  0.00    -0.428 OA 
HETATM   17  C   UNL     1     -11.972  15.641  69.659  1.00  0.00    -0.367 C  
HETATM   18  C   UNL     1     -12.745  15.325  70.952  1.00  0.00    -0.435 C  
BRANCH  17  19
HETATM   19  C   UNL     1     -10.853  16.660  69.849  1.00  0.00    -0.206 C  
BRANCH  19  20
HETATM   20  C   UNL     1      -9.500  16.041  69.514  1.00  0.00    -0.173 C  
BRANCH  20  21
HETATM   21  C   UNL     1      -8.657  16.976  68.643  1.00  0.00    -0.265 C  
BRANCH  21  22
HETATM   22  C   UNL     1      -7.360  16.297  68.197  1.00  0.00    -0.144 C  
BRANCH  22  23
HETATM   23  C   UNL     1      -7.200  14.912  68.825  1.00  0.00    -0.123 C  
HETATM   24  C   UNL     1      -6.677  13.906  67.809  1.00  0.00    -0.186 C  
ENDBRANCH  22  23
ENDBRANCH  21  22
ENDBRANCH  20  21
ENDBRANCH  19  20
ENDBRANCH  17  19
ENDBRANCH  13  14
ENDBRANCH  12  13
BRANCH  12  25
HETATM   25  O   UNL     1     -10.099  12.474  67.778  1.00  0.00    -0.209 OA 
BRANCH  25  26
HETATM   26  C   UNL     1     -10.038  13.098  66.569  1.00  0.00    -0.280 C  
HETATM   27  O   UNL     1      -9.884  14.301  66.386  1.00  0.00    -0.274 OA 
BRANCH  26  28
HETATM   28  C   UNL     1     -10.165  12.091  65.430  1.00  0.00    -0.263 C  
BRANCH  28  29
HETATM   29  C   UNL     1      -8.961  11.138  65.369  1.00  0.00    -0.154 C  
HETATM   30  C   UNL     1      -9.399   9.954  63.118  1.00  0.00    -0.217 C  
HETATM   31  C   UNL     1      -7.937   8.914  64.838  1.00  0.00    -0.129 C  
HETATM   32  C   UNL     1      -9.167   9.800  64.622  1.00  0.00    -0.312 C  
ENDBRANCH  28  29
BRANCH  28  33
HETATM   33  N   UNL     1     -10.387  12.819  64.182  1.00  0.00    -0.485 N  
HETATM   34  C   UNL     1     -11.599  12.854  63.553  1.00  0.00    -0.468 C  
HETATM   35  O   UNL     1     -12.603  12.263  63.918  1.00  0.00    -0.591 OA 
HETATM   36  H   UNL     1      -9.604  13.322  63.763  1.00  0.00     0.000 HD 
ENDBRANCH  28  33
ENDBRANCH  26  28
ENDBRANCH  25  26
ENDBRANCH  12  25
ENDBRANCH  11  12
ENDBRANCH  10  11
ENDBRANCH   9  10
ENDBRANCH   8   9
ENDBRANCH   7   8
ENDBRANCH   6   7
ENDBRANCH   5   6
ENDBRANCH   4   5
ENDBRANCH   3   4
ENDBRANCH   2   3
TORSDOF 22
ENDMDL
MODEL      219
REMARK 921   NORMALIZED FREE ENERGY PREDICTED BY IDOCK:   -3.95 KCAL/MOL
REMARK 922        TOTAL FREE ENERGY PREDICTED BY IDOCK:  -12.66 KCAL/MOL
REMARK 923 INTER-LIGAND FREE ENERGY PREDICTED BY IDOCK:   -8.21 KCAL/MOL
REMARK 924 INTRA-LIGAND FREE ENERGY PREDICTED BY IDOCK:   -4.44 KCAL/MOL
REMARK 927      BINDING AFFINITY PREDICTED BY RF-SCORE:    0.00 PKD
ROOT
HETATM    1  C   UNL     1      -7.950   7.763  73.523  1.00  0.00    -0.205 C  
HETATM    2  C   UNL     1      -7.178   6.651  72.831  1.00  0.00    -0.080 C  
ENDROOT
BRANCH   2   3
HETATM    3  C   UNL     1      -6.564   7.148  71.525  1.00  0.00    -0.048 C  
BRANCH   3   4
HETATM    4  C   UNL     1      -6.417   6.023  70.506  1.00  0.00    -0.037 C  
BRANCH   4   5
HETATM    5  C   UNL     1      -7.042   6.419  69.166  1.00  0.00    -0.084 C  
BRANCH   5   6
HETATM    6  C   UNL     1      -7.662   7.807  69.255  1.00  0.00    -0.100 C  
BRANCH   6   7
HETATM    7  C   UNL     1      -7.510   8.598  67.955  1.00  0.00    -0.097 C  
BRANCH   7   8
HETATM    8  C   UNL     1      -8.441   7.994  66.910  1.00  0.00    -0.124 C  
BRANCH   8   9
HETATM    9  C   UNL     1      -9.923   8.225  67.191  1.00  0.00    -0.307 C  
BRANCH   9  10
HETATM   10  C   UNL     1     -10.270   9.660  66.785  1.00  0.00    -0.308 C  
BRANCH  10  11
HETATM   11  C   UNL     1     -11.236  10.356  67.732  1.00  0.00    -0.309 C  
BRANCH  11  12
HETATM   12  C   UNL     1     -10.604  11.216  68.842  1.00  0.00    -0.207 C  
BRANCH  12  13
HETATM   13  C   UNL     1     -10.259  10.462  70.145  1.00  0.00    -0.050 C  
BRANCH  13  14
HETATM   14  C   UNL     1     -11.239   9.339  70.505  1.00  0.00    -0.265 C  
HETATM   15  O   UNL     1     -11.840   9.525  71.819  1.00  0.00    -0.377 OA 
HETATM   16  O   UNL     1     -11.456   7.899  73.406  1.00  0.00    -0.211 OA 
HETATM   17  C   UNL     1     -10.605   8.007  70.993  1.00  0.00    -0.239 C  
HETATM   18  C   UNL     1     -11.325   8.374  72.304  1.00  0.00    -0.378 C  
BRANCH  17  19
HETATM   19  C   UNL     1     -11.060   6.679  70.397  1.00  0.00    -0.374 C  
BRANCH  19  20
HETATM   20  C   UNL     1     -10.542   5.511  71.231  1.00  0.00    -0.304 C  
BRANCH  20  21
HETATM   21  C   UNL     1     -10.013   4.381  70.343  1.00  0.00    -0.253 C  
BRANCH  21  22
HETATM   22  C   UNL     1     -10.148   4.734  68.861  1.00  0.00    -0.149 C  
BRANCH  22  23
HETATM   23  C   UNL     1      -9.385   3.753  67.971  1.00  0.00    -0.232 C  
HETATM   24  C   UNL     1      -9.473   4.158  66.506  1.00  0.00    -0.201 C  
ENDBRANCH  22  23
ENDBRANCH  21  22
ENDBRANCH  20  21
ENDBRANCH  19  20
ENDBRANCH  17  19
ENDBRANCH  13  14
ENDBRANCH  12  13
BRANCH  12  25
HETATM   25  O   UNL     1      -9.388  11.844  68.374  1.00  0.00    -0.199 OA 
BRANCH  25  26
HETATM   26  C   UNL     1      -9.390  13.201  68.253  1.00  0.00    -0.201 C  
HETATM   27  O   UNL     1      -8.432  13.898  67.934  1.00  0.00    -0.153 OA 
BRANCH  26  28
HETATM   28  C   UNL     1     -10.774  13.772  68.548  1.00  0.00    -0.262 C  
BRANCH  28  29
HETATM   29  C   UNL     1     -11.302  14.627  67.386  1.00  0.00    -0.368 C  
HETATM   30  C   UNL     1     -11.554  12.834  65.547  1.00  0.00    -0.400 C  
HETATM   31  C   UNL     1     -11.372  15.242  64.958  1.00  0.00    -0.359 C  
HETATM   32  C   UNL     1     -10.930  14.169  65.957  1.00  0.00    -0.304 C  
ENDBRANCH  28  29
BRANCH  28  33
HETATM   33  N   UNL     1     -10.722  14.495  69.818  1.00  0.00    -0.443 N  
HETATM   34  C   UNL     1     -11.825  14.696  70.598  1.00  0.00    -0.305 C  
HETATM   35  O   UNL     1     -12.962  14.349  70.320  1.00  0.00    -0.279 OA 
HETATM   36  H   UNL     1      -9.825  14.865  70.134  1.00  0.00     0.000 HD 
ENDBRANCH  28  33
ENDBRANCH  26  28
ENDBRANCH  25  26
ENDBRANCH  12  25
ENDBRANCH  11  12
ENDBRANCH  10  11
ENDBRANCH   9  10
ENDBRANCH   8   9
ENDBRANCH   7   8
ENDBRANCH   6   7
ENDBRANCH   5   6
ENDBRANCH   4   5
ENDBRANCH   3   4
ENDBRANCH   2   3
TORSDOF 22
ENDMDL
MODEL      220
REMARK 921   NORMALIZED FREE ENERGY PREDICTED BY IDOCK:   -3.94 KCAL/MOL
REMARK 922        TOTAL FREE ENERGY PREDICTED BY IDOCK:  -12.63 KCAL/MOL
REMARK 923 INTER-LIGAND FREE ENERGY PREDICTED BY IDOCK:   -9.19 KCAL/MOL
REMARK 924 INTRA-LIGAND FREE ENERGY PREDICTED BY IDOCK:   -3.44 KCAL/MOL
REMARK 927      BINDING AFFINITY PREDICTED BY RF-SCORE:    0.00 PKD
ROOT
HETATM    1  C   UNL     1     -11.265  15.961  64.652  1.00  0.00    -0.361 C  
HETATM    2  C   UNL     1     -11.028  14.565  65.203  1.00  0.00    -0.387 C  
ENDROOT
BRANCH   2   3
HETATM    3  C   UNL     1     -12.350  13.831  65.411  1.00  0.00    -0.504 C  
BRANCH   3   4
HETATM    4  C   UNL     1     -12.474  12.618  64.495  1.00  0.00    -0.525 C  
BRANCH   4   5
HETATM    5  C   UNL     1     -11.294  12.547  63.524  1.00  0.00    -0.556 C  
BRANCH   5   6
HETATM    6  C   UNL     1     -10.653  11.166  63.561  1.00  0.00    -0.393 C  
BRANCH   6   7
HETATM    7  C   UNL     1     -10.474  10.645  64.988  1.00  0.00    -0.278 C  
BRANCH   7   8
HETATM    8  C   UNL     1      -9.156  11.178  65.537  1.00  0.00    -0.211 C  
BRANCH   8   9
HETATM    9  C   UNL     1      -9.294  11.946  66.848  1.00  0.00    -0.198 C  
BRANCH   9  10
HETATM   10  C   UNL     1      -8.139  11.538  67.767  1.00  0.00    -0.133 C  
BRANCH  10  11
HETATM   11  C   UNL     1      -8.570  10.745  68.990  1.00  0.00    -0.143 C  
BRANCH  11  12
HETATM   12  C   UNL     1      -8.134   9.269  69.037  1.00  0.00    -0.106 C  
BRANCH  12  13
HETATM   13  C   UNL     1      -8.925   8.377  70.019  1.00  0.00    -0.138 C  
BRANCH  13  14
HETATM   14  C   UNL     1      -9.894   9.143  70.929  1.00  0.00    -0.291 C  
HETATM   15  O   UNL     1      -9.798   8.726  72.321  1.00  0.00    -0.307 OA 
HETATM   16  O   UNL     1     -11.682   7.825  73.295  1.00  0.00    -0.188 OA 
HETATM   17  C   UNL     1     -11.376   8.676  70.900  1.00  0.00    -0.314 C  
HETATM   18  C   UNL     1     -11.082   8.306  72.365  1.00  0.00    -0.377 C  
BRANCH  17  19
HETATM   19  C   UNL     1     -12.498   9.696  70.739  1.00  0.00    -0.246 C  
BRANCH  19  20
HETATM   20  C   UNL     1     -11.937  11.115  70.743  1.00  0.00    -0.415 C  
BRANCH  20  21
HETATM   21  C   UNL     1     -12.143  11.802  69.390  1.00  0.00    -0.301 C  
BRANCH  21  22
HETATM   22  C   UNL     1     -11.286  13.064  69.275  1.00  0.00    -0.310 C  
BRANCH  22  23
HETATM   23  C   UNL     1     -12.136  14.304  68.999  1.00  0.00    -0.320 C  
HETATM   24  C   UNL     1     -11.575  15.525  69.715  1.00  0.00    -0.345 C  
ENDBRANCH  22  23
ENDBRANCH  21  22
ENDBRANCH  20  21
ENDBRANCH  19  20
ENDBRANCH  17  19
ENDBRANCH  13  14
ENDBRANCH  12  13
BRANCH  12  25
HETATM   25  O   UNL     1      -8.236   8.662  67.728  1.00  0.00    -0.116 OA 
BRANCH  25  26
HETATM   26  C   UNL     1      -9.386   7.992  67.436  1.00  0.00    -0.145 C  
HETATM   27  O   UNL     1     -10.521   8.454  67.480  1.00  0.00    -0.249 OA 
BRANCH  26  28
HETATM   28  C   UNL     1      -9.086   6.557  67.014  1.00  0.00    -0.128 C  
BRANCH  28  29
HETATM   29  C   UNL     1      -7.710   6.433  66.340  1.00  0.00    -0.099 C  
HETATM   30  C   UNL     1      -8.068   7.896  64.244  1.00  0.00    -0.093 C  
HETATM   31  C   UNL     1      -6.268   6.182  64.306  1.00  0.00    -0.030 C  
HETATM   32  C   UNL     1      -7.678   6.524  64.797  1.00  0.00    -0.106 C  
ENDBRANCH  28  29
BRANCH  28  33
HETATM   33  N   UNL     1     -10.183   6.075  66.176  1.00  0.00    -0.416 N  
HETATM   34  C   UNL     1     -10.471   4.748  66.027  1.00  0.00    -0.292 C  
HETATM   35  O   UNL     1      -9.839   3.827  66.522  1.00  0.00    -0.173 OA 
HETATM   36  H   UNL     1     -10.758   6.758  65.682  1.00  0.00     0.000 HD 
ENDBRANCH  28  33
ENDBRANCH  26  28
ENDBRANCH  25  26
ENDBRANCH  12  25
ENDBRANCH  11  12
ENDBRANCH  10  11
ENDBRANCH   9  10
ENDBRANCH   8   9
ENDBRANCH   7   8
ENDBRANCH   6   7
ENDBRANCH   5   6
ENDBRANCH   4   5
ENDBRANCH   3   4
ENDBRANCH   2   3
TORSDOF 22
ENDMDL
MODEL      221
REMARK 921   NORMALIZED FREE ENERGY PREDICTED BY IDOCK:   -3.94 KCAL/MOL
REMARK 922        TOTAL FREE ENERGY PREDICTED BY IDOCK:  -12.63 KCAL/MOL
REMARK 923 INTER-LIGAND FREE ENERGY PREDICTED BY IDOCK:   -9.60 KCAL/MOL
REMARK 924 INTRA-LIGAND FREE ENERGY PREDICTED BY IDOCK:   -3.03 KCAL/MOL
REMARK 927      BINDING AFFINITY PREDICTED BY RF-SCORE:    0.00 PKD
ROOT
HETATM    1  C   UNL     1     -10.540   3.563  74.075  1.00  0.00    -0.276 C  
HETATM    2  C   UNL     1     -11.004   4.881  73.477  1.00  0.00    -0.397 C  
ENDROOT
BRANCH   2   3
HETATM    3  C   UNL     1     -10.488   5.042  72.050  1.00  0.00    -0.269 C  
BRANCH   3   4
HETATM    4  C   UNL     1      -9.423   4.002  71.713  1.00  0.00    -0.210 C  
BRANCH   4   5
HETATM    5  C   UNL     1      -9.636   3.445  70.304  1.00  0.00    -0.215 C  
BRANCH   5   6
HETATM    6  C   UNL     1      -8.302   3.070  69.671  1.00  0.00    -0.086 C  
BRANCH   6   7
HETATM    7  C   UNL     1      -7.236   4.147  69.877  1.00  0.00    -0.046 C  
BRANCH   7   8
HETATM    8  C   UNL     1      -7.374   5.185  68.768  1.00  0.00    -0.062 C  
BRANCH   8   9
HETATM    9  C   UNL     1      -6.961   6.593  69.181  1.00  0.00    -0.078 C  
BRANCH   9  10
HETATM   10  C   UNL     1      -8.077   7.186  70.048  1.00  0.00    -0.127 C  
BRANCH  10  11
HETATM   11  C   UNL     1      -9.461   7.093  69.424  1.00  0.00    -0.153 C  
BRANCH  11  12
HETATM   12  C   UNL     1     -10.008   8.380  68.779  1.00  0.00    -0.187 C  
BRANCH  12  13
HETATM   13  C   UNL     1     -10.355   8.270  67.278  1.00  0.00    -0.372 C  
BRANCH  13  14
HETATM   14  C   UNL     1      -9.216   8.671  66.333  1.00  0.00    -0.193 C  
HETATM   15  O   UNL     1      -8.136   9.361  67.025  1.00  0.00    -0.105 OA 
HETATM   16  O   UNL     1      -7.663  11.521  66.373  1.00  0.00    -0.108 OA 
HETATM   17  C   UNL     1      -9.459   9.937  65.465  1.00  0.00    -0.313 C  
HETATM   18  C   UNL     1      -8.290  10.492  66.300  1.00  0.00    -0.152 C  
BRANCH  17  19
HETATM   19  C   UNL     1      -9.178   9.904  63.966  1.00  0.00    -0.302 C  
BRANCH  19  20
HETATM   20  C   UNL     1      -9.964  10.997  63.249  1.00  0.00    -0.414 C  
BRANCH  20  21
HETATM   21  C   UNL     1     -11.142  11.486  64.096  1.00  0.00    -0.417 C  
BRANCH  21  22
HETATM   22  C   UNL     1     -11.737  12.774  63.523  1.00  0.00    -0.597 C  
BRANCH  22  23
HETATM   23  C   UNL     1     -11.629  13.937  64.509  1.00  0.00    -0.409 C  
HETATM   24  C   UNL     1     -12.908  14.087  65.322  1.00  0.00    -0.418 C  
ENDBRANCH  22  23
ENDBRANCH  21  22
ENDBRANCH  20  21
ENDBRANCH  19  20
ENDBRANCH  17  19
ENDBRANCH  13  14
ENDBRANCH  12  13
BRANCH  12  25
HETATM   25  O   UNL     1     -11.199   8.831  69.464  1.00  0.00    -0.057 OA 
BRANCH  25  26
HETATM   26  C   UNL     1     -11.042   9.745  70.460  1.00  0.00    -0.321 C  
HETATM   27  O   UNL     1     -10.543   9.534  71.560  1.00  0.00    -0.323 OA 
BRANCH  26  28
HETATM   28  C   UNL     1     -11.555  11.115  70.028  1.00  0.00    -0.338 C  
BRANCH  28  29
HETATM   29  C   UNL     1     -12.658  11.636  70.963  1.00  0.00    -0.431 C  
HETATM   30  C   UNL     1     -12.712  14.130  70.299  1.00  0.00    -0.287 C  
HETATM   31  C   UNL     1     -13.607  13.378  72.494  1.00  0.00    -0.659 C  
HETATM   32  C   UNL     1     -12.544  13.107  71.425  1.00  0.00    -0.352 C  
ENDBRANCH  28  29
BRANCH  28  33
HETATM   33  N   UNL     1     -11.975  11.040  68.629  1.00  0.00    -0.397 N  
HETATM   34  C   UNL     1     -11.457  11.848  67.658  1.00  0.00    -0.317 C  
HETATM   35  O   UNL     1     -10.640  12.738  67.839  1.00  0.00    -0.212 OA 
HETATM   36  H   UNL     1     -12.684  10.354  68.368  1.00  0.00     0.000 HD 
ENDBRANCH  28  33
ENDBRANCH  26  28
ENDBRANCH  25  26
ENDBRANCH  12  25
ENDBRANCH  11  12
ENDBRANCH  10  11
ENDBRANCH   9  10
ENDBRANCH   8   9
ENDBRANCH   7   8
ENDBRANCH   6   7
ENDBRANCH   5   6
ENDBRANCH   4   5
ENDBRANCH   3   4
ENDBRANCH   2   3
TORSDOF 22
ENDMDL
MODEL      222
REMARK 921   NORMALIZED FREE ENERGY PREDICTED BY IDOCK:   -3.93 KCAL/MOL
REMARK 922        TOTAL FREE ENERGY PREDICTED BY IDOCK:  -12.59 KCAL/MOL
REMARK 923 INTER-LIGAND FREE ENERGY PREDICTED BY IDOCK:   -9.52 KCAL/MOL
REMARK 924 INTRA-LIGAND FREE ENERGY PREDICTED BY IDOCK:   -3.07 KCAL/MOL
REMARK 927      BINDING AFFINITY PREDICTED BY RF-SCORE:    0.00 PKD
ROOT
HETATM    1  C   UNL     1      -9.955   7.811  72.803  1.00  0.00    -0.321 C  
HETATM    2  C   UNL     1     -11.345   8.361  72.533  1.00  0.00    -0.416 C  
ENDROOT
BRANCH   2   3
HETATM    3  C   UNL     1     -12.086   7.491  71.521  1.00  0.00    -0.345 C  
BRANCH   3   4
HETATM    4  C   UNL     1     -11.315   6.214  71.201  1.00  0.00    -0.340 C  
BRANCH   4   5
HETATM    5  C   UNL     1     -11.159   6.039  69.689  1.00  0.00    -0.474 C  
BRANCH   5   6
HETATM    6  C   UNL     1      -9.916   5.219  69.372  1.00  0.00    -0.288 C  
BRANCH   6   7
HETATM    7  C   UNL     1      -8.648   6.073  69.335  1.00  0.00    -0.122 C  
BRANCH   7   8
HETATM    8  C   UNL     1      -8.915   7.300  68.471  1.00  0.00    -0.130 C  
BRANCH   8   9
HETATM    9  C   UNL     1      -8.407   8.606  69.074  1.00  0.00    -0.119 C  
BRANCH   9  10
HETATM   10  C   UNL     1      -9.619   9.452  69.475  1.00  0.00    -0.188 C  
BRANCH  10  11
HETATM   11  C   UNL     1     -10.646   9.629  68.367  1.00  0.00    -0.264 C  
BRANCH  11  12
HETATM   12  C   UNL     1     -10.791  11.049  67.790  1.00  0.00    -0.249 C  
BRANCH  12  13
HETATM   13  C   UNL     1     -10.897  11.129  66.251  1.00  0.00    -0.266 C  
BRANCH  13  14
HETATM   14  C   UNL     1      -9.564  10.952  65.515  1.00  0.00    -0.221 C  
HETATM   15  O   UNL     1      -9.551   9.772  64.661  1.00  0.00    -0.286 OA 
HETATM   16  O   UNL     1      -7.995   8.137  65.126  1.00  0.00    -0.110 OA 
HETATM   17  C   UNL     1      -8.395  10.352  66.346  1.00  0.00    -0.139 C  
HETATM   18  C   UNL     1      -8.532   9.198  65.337  1.00  0.00    -0.149 C  
BRANCH  17  19
HETATM   19  C   UNL     1      -7.024  11.019  66.331  1.00  0.00    -0.122 C  
BRANCH  19  20
HETATM   20  C   UNL     1      -6.765  11.745  67.648  1.00  0.00    -0.091 C  
BRANCH  20  21
HETATM   21  C   UNL     1      -7.431  13.123  67.666  1.00  0.00    -0.164 C  
BRANCH  21  22
HETATM   22  C   UNL     1      -6.535  14.160  68.346  1.00  0.00    -0.103 C  
BRANCH  22  23
HETATM   23  C   UNL     1      -6.536  15.492  67.595  1.00  0.00    -0.195 C  
HETATM   24  C   UNL     1      -5.383  16.378  68.047  1.00  0.00    -0.117 C  
ENDBRANCH  22  23
ENDBRANCH  21  22
ENDBRANCH  20  21
ENDBRANCH  19  20
ENDBRANCH  17  19
ENDBRANCH  13  14
ENDBRANCH  12  13
BRANCH  12  25
HETATM   25  O   UNL     1     -11.957  11.708  68.336  1.00  0.00    -0.483 OA 
BRANCH  25  26
HETATM   26  C   UNL     1     -11.869  12.187  69.608  1.00  0.00    -0.322 C  
HETATM   27  O   UNL     1     -11.771  11.512  70.627  1.00  0.00    -0.272 OA 
BRANCH  26  28
HETATM   28  C   UNL     1     -11.885  13.713  69.618  1.00  0.00    -0.335 C  
BRANCH  28  29
HETATM   29  C   UNL     1     -12.886  14.270  70.642  1.00  0.00    -0.378 C  
HETATM   30  C   UNL     1     -11.418  16.016  71.847  1.00  0.00    -0.409 C  
HETATM   31  C   UNL     1     -13.459  15.103  72.934  1.00  0.00    -0.589 C  
HETATM   32  C   UNL     1     -12.305  14.777  71.981  1.00  0.00    -0.416 C  
ENDBRANCH  28  29
BRANCH  28  33
HETATM   33  N   UNL     1     -12.128  14.188  68.257  1.00  0.00    -0.535 N  
HETATM   34  C   UNL     1     -11.228  14.951  67.569  1.00  0.00    -0.328 C  
HETATM   35  O   UNL     1     -10.163  15.357  68.008  1.00  0.00    -0.231 OA 
HETATM   36  H   UNL     1     -13.007  13.940  67.802  1.00  0.00     0.000 HD 
ENDBRANCH  28  33
ENDBRANCH  26  28
ENDBRANCH  25  26
ENDBRANCH  12  25
ENDBRANCH  11  12
ENDBRANCH  10  11
ENDBRANCH   9  10
ENDBRANCH   8   9
ENDBRANCH   7   8
ENDBRANCH   6   7
ENDBRANCH   5   6
ENDBRANCH   4   5
ENDBRANCH   3   4
ENDBRANCH   2   3
TORSDOF 22
ENDMDL
MODEL      223
REMARK 921   NORMALIZED FREE ENERGY PREDICTED BY IDOCK:   -3.92 KCAL/MOL
REMARK 922        TOTAL FREE ENERGY PREDICTED BY IDOCK:  -12.58 KCAL/MOL
REMARK 923 INTER-LIGAND FREE ENERGY PREDICTED BY IDOCK:  -10.10 KCAL/MOL
REMARK 924 INTRA-LIGAND FREE ENERGY PREDICTED BY IDOCK:   -2.48 KCAL/MOL
REMARK 927      BINDING AFFINITY PREDICTED BY RF-SCORE:    0.00 PKD
ROOT
HETATM    1  C   UNL     1     -10.592   4.537  65.760  1.00  0.00    -0.226 C  
HETATM    2  C   UNL     1     -10.020   3.900  64.504  1.00  0.00    -0.205 C  
ENDROOT
BRANCH   2   3
HETATM    3  C   UNL     1      -8.494   3.949  64.518  1.00  0.00    -0.102 C  
BRANCH   3   4
HETATM    4  C   UNL     1      -7.963   4.674  65.751  1.00  0.00    -0.099 C  
BRANCH   4   5
HETATM    5  C   UNL     1      -6.877   5.679  65.363  1.00  0.00    -0.056 C  
BRANCH   5   6
HETATM    6  C   UNL     1      -6.990   6.046  63.889  1.00  0.00    -0.050 C  
BRANCH   6   7
HETATM    7  C   UNL     1      -6.881   7.554  63.653  1.00  0.00    -0.054 C  
BRANCH   7   8
HETATM    8  C   UNL     1      -7.473   8.277  64.857  1.00  0.00    -0.092 C  
BRANCH   8   9
HETATM    9  C   UNL     1      -7.826   9.737  64.593  1.00  0.00    -0.136 C  
BRANCH   9  10
HETATM   10  C   UNL     1      -9.270   9.796  64.085  1.00  0.00    -0.277 C  
BRANCH  10  11
HETATM   11  C   UNL     1     -10.199  10.632  64.952  1.00  0.00    -0.395 C  
BRANCH  11  12
HETATM   12  C   UNL     1      -9.844  10.720  66.447  1.00  0.00    -0.209 C  
BRANCH  12  13
HETATM   13  C   UNL     1      -9.714  12.151  67.013  1.00  0.00    -0.208 C  
BRANCH  13  14
HETATM   14  C   UNL     1     -11.050  12.813  67.372  1.00  0.00    -0.275 C  
HETATM   15  O   UNL     1     -12.117  12.450  66.450  1.00  0.00    -0.607 OA 
HETATM   16  O   UNL     1     -13.112  14.147  65.249  1.00  0.00    -0.763 OA 
HETATM   17  C   UNL     1     -11.210  14.303  66.957  1.00  0.00    -0.332 C  
HETATM   18  C   UNL     1     -12.313  13.726  66.050  1.00  0.00    -0.457 C  
BRANCH  17  19
HETATM   19  C   UNL     1     -11.721  15.328  67.964  1.00  0.00    -0.268 C  
BRANCH  19  20
HETATM   20  C   UNL     1     -11.309  14.938  69.381  1.00  0.00    -0.312 C  
BRANCH  20  21
HETATM   21  C   UNL     1     -12.522  14.531  70.223  1.00  0.00    -0.405 C  
BRANCH  21  22
HETATM   22  C   UNL     1     -12.794  15.553  71.329  1.00  0.00    -0.540 C  
BRANCH  22  23
HETATM   23  C   UNL     1     -13.314  14.886  72.602  1.00  0.00    -0.553 C  
HETATM   24  C   UNL     1     -13.773  13.461  72.328  1.00  0.00    -0.705 C  
ENDBRANCH  22  23
ENDBRANCH  21  22
ENDBRANCH  20  21
ENDBRANCH  19  20
ENDBRANCH  17  19
ENDBRANCH  13  14
ENDBRANCH  12  13
BRANCH  12  25
HETATM   25  O   UNL     1     -10.829  10.029  67.250  1.00  0.00    -0.270 OA 
BRANCH  25  26
HETATM   26  C   UNL     1     -10.645   8.696  67.460  1.00  0.00    -0.222 C  
HETATM   27  O   UNL     1     -10.656   7.822  66.599  1.00  0.00    -0.276 OA 
BRANCH  26  28
HETATM   28  C   UNL     1     -10.393   8.408  68.937  1.00  0.00    -0.215 C  
BRANCH  28  29
HETATM   29  C   UNL     1     -10.421   6.901  69.240  1.00  0.00    -0.233 C  
HETATM   30  C   UNL     1      -8.096   6.584  70.313  1.00  0.00    -0.121 C  
HETATM   31  C   UNL     1      -9.321   4.652  69.338  1.00  0.00    -0.208 C  
HETATM   32  C   UNL     1      -9.067   6.157  69.210  1.00  0.00    -0.129 C  
ENDBRANCH  28  29
BRANCH  28  33
HETATM   33  N   UNL     1     -11.348   9.174  69.735  1.00  0.00    -0.435 N  
HETATM   34  C   UNL     1     -11.087   9.577  71.013  1.00  0.00    -0.363 C  
HETATM   35  O   UNL     1     -10.075   9.316  71.645  1.00  0.00    -0.311 OA 
HETATM   36  H   UNL     1     -12.248   9.418  69.319  1.00  0.00     0.000 HD 
ENDBRANCH  28  33
ENDBRANCH  26  28
ENDBRANCH  25  26
ENDBRANCH  12  25
ENDBRANCH  11  12
ENDBRANCH  10  11
ENDBRANCH   9  10
ENDBRANCH   8   9
ENDBRANCH   7   8
ENDBRANCH   6   7
ENDBRANCH   5   6
ENDBRANCH   4   5
ENDBRANCH   3   4
ENDBRANCH   2   3
TORSDOF 22
ENDMDL
MODEL      224
REMARK 921   NORMALIZED FREE ENERGY PREDICTED BY IDOCK:   -3.92 KCAL/MOL
REMARK 922        TOTAL FREE ENERGY PREDICTED BY IDOCK:  -12.58 KCAL/MOL
REMARK 923 INTER-LIGAND FREE ENERGY PREDICTED BY IDOCK:   -9.48 KCAL/MOL
REMARK 924 INTRA-LIGAND FREE ENERGY PREDICTED BY IDOCK:   -3.10 KCAL/MOL
REMARK 927      BINDING AFFINITY PREDICTED BY RF-SCORE:    0.00 PKD
ROOT
HETATM    1  C   UNL     1     -12.450  15.822  73.434  1.00  0.00    -0.642 C  
HETATM    2  C   UNL     1     -13.649  15.125  72.812  1.00  0.00    -0.588 C  
ENDROOT
BRANCH   2   3
HETATM    3  C   UNL     1     -13.222  14.274  71.619  1.00  0.00    -0.429 C  
BRANCH   3   4
HETATM    4  C   UNL     1     -11.891  14.741  71.038  1.00  0.00    -0.383 C  
BRANCH   4   5
HETATM    5  C   UNL     1     -12.107  15.501  69.727  1.00  0.00    -0.372 C  
BRANCH   5   6
HETATM    6  C   UNL     1     -11.970  14.561  68.537  1.00  0.00    -0.321 C  
BRANCH   6   7
HETATM    7  C   UNL     1     -10.663  13.767  68.567  1.00  0.00    -0.274 C  
BRANCH   7   8
HETATM    8  C   UNL     1     -10.882  12.446  67.838  1.00  0.00    -0.253 C  
BRANCH   8   9
HETATM    9  C   UNL     1     -11.886  11.521  68.518  1.00  0.00    -0.365 C  
BRANCH   9  10
HETATM   10  C   UNL     1     -11.232  10.147  68.692  1.00  0.00    -0.223 C  
BRANCH  10  11
HETATM   11  C   UNL     1     -10.229  10.079  69.834  1.00  0.00    -0.304 C  
BRANCH  11  12
HETATM   12  C   UNL     1      -8.820   9.571  69.476  1.00  0.00    -0.179 C  
BRANCH  12  13
HETATM   13  C   UNL     1      -8.179   8.620  70.511  1.00  0.00    -0.127 C  
BRANCH  13  14
HETATM   14  C   UNL     1      -9.183   7.755  71.283  1.00  0.00    -0.141 C  
HETATM   15  O   UNL     1      -8.603   7.164  72.481  1.00  0.00    -0.115 OA 
HETATM   16  O   UNL     1      -8.537   4.864  72.609  1.00  0.00    -0.117 OA 
HETATM   17  C   UNL     1      -9.441   6.332  70.715  1.00  0.00    -0.185 C  
HETATM   18  C   UNL     1      -8.805   5.899  72.049  1.00  0.00    -0.137 C  
BRANCH  17  19
HETATM   19  C   UNL     1     -10.868   5.829  70.527  1.00  0.00    -0.348 C  
BRANCH  19  20
HETATM   20  C   UNL     1     -11.804   6.476  71.544  1.00  0.00    -0.386 C  
BRANCH  20  21
HETATM   21  C   UNL     1     -12.846   7.364  70.859  1.00  0.00    -0.132 C  
BRANCH  21  22
HETATM   22  C   UNL     1     -14.125   7.459  71.694  1.00  0.00    -0.552 C  
BRANCH  22  23
HETATM   23  C   UNL     1     -14.211   8.784  72.452  1.00  0.00    -0.464 C  
HETATM   24  C   UNL     1     -13.314   9.839  71.818  1.00  0.00    -0.506 C  
ENDBRANCH  22  23
ENDBRANCH  21  22
ENDBRANCH  20  21
ENDBRANCH  19  20
ENDBRANCH  17  19
ENDBRANCH  13  14
ENDBRANCH  12  13
BRANCH  12  25
HETATM   25  O   UNL     1      -8.831   8.879  68.206  1.00  0.00    -0.133 OA 
BRANCH  25  26
HETATM   26  C   UNL     1      -8.081   9.405  67.199  1.00  0.00    -0.102 C  
HETATM   27  O   UNL     1      -7.443  10.451  67.246  1.00  0.00    -0.093 OA 
BRANCH  26  28
HETATM   28  C   UNL     1      -8.111   8.502  65.969  1.00  0.00    -0.110 C  
BRANCH  28  29
HETATM   29  C   UNL     1      -7.946   9.301  64.666  1.00  0.00    -0.125 C  
HETATM   30  C   UNL     1     -10.083  10.747  64.715  1.00  0.00    -0.396 C  
HETATM   31  C   UNL     1      -8.877  10.331  62.581  1.00  0.00    -0.249 C  
HETATM   32  C   UNL     1      -9.242   9.730  63.941  1.00  0.00    -0.248 C  
ENDBRANCH  28  29
BRANCH  28  33
HETATM   33  N   UNL     1      -9.335   7.703  66.003  1.00  0.00    -0.384 N  
HETATM   34  C   UNL     1      -9.331   6.341  65.900  1.00  0.00     0.027 C  
HETATM   35  O   UNL     1      -8.341   5.648  65.726  1.00  0.00    -0.120 OA 
HETATM   36  H   UNL     1     -10.230   8.183  66.107  1.00  0.00     0.000 HD 
ENDBRANCH  28  33
ENDBRANCH  26  28
ENDBRANCH  25  26
ENDBRANCH  12  25
ENDBRANCH  11  12
ENDBRANCH  10  11
ENDBRANCH   9  10
ENDBRANCH   8   9
ENDBRANCH   7   8
ENDBRANCH   6   7
ENDBRANCH   5   6
ENDBRANCH   4   5
ENDBRANCH   3   4
ENDBRANCH   2   3
TORSDOF 22
ENDMDL
MODEL      225
REMARK 921   NORMALIZED FREE ENERGY PREDICTED BY IDOCK:   -3.91 KCAL/MOL
REMARK 922        TOTAL FREE ENERGY PREDICTED BY IDOCK:  -12.56 KCAL/MOL
REMARK 923 INTER-LIGAND FREE ENERGY PREDICTED BY IDOCK:   -9.26 KCAL/MOL
REMARK 924 INTRA-LIGAND FREE ENERGY PREDICTED BY IDOCK:   -3.30 KCAL/MOL
REMARK 927      BINDING AFFINITY PREDICTED BY RF-SCORE:    0.00 PKD
ROOT
HETATM    1  C   UNL     1      -6.583   2.949  70.397  1.00  0.00    -0.032 C  
HETATM    2  C   UNL     1      -6.088   3.492  69.066  1.00  0.00    -0.028 C  
ENDROOT
BRANCH   2   3
HETATM    3  C   UNL     1      -7.114   4.438  68.450  1.00  0.00    -0.056 C  
BRANCH   3   4
HETATM    4  C   UNL     1      -8.449   4.385  69.188  1.00  0.00    -0.094 C  
BRANCH   4   5
HETATM    5  C   UNL     1      -9.528   3.745  68.313  1.00  0.00    -0.215 C  
BRANCH   5   6
HETATM    6  C   UNL     1      -9.554   4.395  66.936  1.00  0.00    -0.219 C  
BRANCH   6   7
HETATM    7  C   UNL     1     -10.775   5.294  66.738  1.00  0.00    -0.241 C  
BRANCH   7   8
HETATM    8  C   UNL     1     -10.356   6.741  66.973  1.00  0.00    -0.338 C  
BRANCH   8   9
HETATM    9  C   UNL     1      -9.146   7.177  66.153  1.00  0.00    -0.155 C  
BRANCH   9  10
HETATM   10  C   UNL     1      -8.139   7.840  67.099  1.00  0.00    -0.118 C  
BRANCH  10  11
HETATM   11  C   UNL     1      -7.748   9.253  66.697  1.00  0.00    -0.093 C  
BRANCH  11  12
HETATM   12  C   UNL     1      -8.758  10.365  67.036  1.00  0.00    -0.130 C  
BRANCH  12  13
HETATM   13  C   UNL     1      -9.507  10.968  65.828  1.00  0.00    -0.242 C  
BRANCH  13  14
HETATM   14  C   UNL     1     -10.500  12.080  66.189  1.00  0.00    -0.236 C  
HETATM   15  O   UNL     1     -11.885  11.636  66.112  1.00  0.00    -0.409 OA 
HETATM   16  O   UNL     1     -13.265  12.710  64.611  1.00  0.00    -0.828 OA 
HETATM   17  C   UNL     1     -10.784  13.132  65.081  1.00  0.00    -0.329 C  
HETATM   18  C   UNL     1     -12.200  12.533  65.152  1.00  0.00    -0.448 C  
BRANCH  17  19
HETATM   19  C   UNL     1     -10.733  14.621  65.408  1.00  0.00    -0.382 C  
BRANCH  19  20
HETATM   20  C   UNL     1     -11.244  14.878  66.822  1.00  0.00    -0.338 C  
BRANCH  20  21
HETATM   21  C   UNL     1     -10.249  15.714  67.633  1.00  0.00    -0.261 C  
BRANCH  21  22
HETATM   22  C   UNL     1     -10.792  17.121  67.889  1.00  0.00    -0.294 C  
BRANCH  22  23
HETATM   23  C   UNL     1     -10.351  18.106  66.806  1.00  0.00    -0.376 C  
HETATM   24  C   UNL     1     -10.647  19.542  67.216  1.00  0.00    -0.610 C  
ENDBRANCH  22  23
ENDBRANCH  21  22
ENDBRANCH  20  21
ENDBRANCH  19  20
ENDBRANCH  17  19
ENDBRANCH  13  14
ENDBRANCH  12  13
BRANCH  12  25
HETATM   25  O   UNL     1      -9.757   9.884  67.965  1.00  0.00    -0.138 OA 
BRANCH  25  26
HETATM   26  C   UNL     1      -9.572  10.161  69.285  1.00  0.00    -0.225 C  
HETATM   27  O   UNL     1      -8.506  10.449  69.818  1.00  0.00    -0.122 OA 
BRANCH  26  28
HETATM   28  C   UNL     1     -10.892  10.089  70.047  1.00  0.00    -0.302 C  
BRANCH  28  29
HETATM   29  C   UNL     1     -11.276   8.642  70.395  1.00  0.00    -0.236 C  
HETATM   30  C   UNL     1      -9.863   8.269  72.522  1.00  0.00    -0.368 C  
HETATM   31  C   UNL     1     -10.693   6.339  71.191  1.00  0.00    -0.301 C  
HETATM   32  C   UNL     1     -10.204   7.788  71.110  1.00  0.00    -0.214 C  
ENDBRANCH  28  29
BRANCH  28  33
HETATM   33  N   UNL     1     -11.918  10.788  69.275  1.00  0.00    -0.480 N  
HETATM   34  C   UNL     1     -12.274  12.083  69.520  1.00  0.00    -0.117 C  
HETATM   35  O   UNL     1     -11.827  12.782  70.417  1.00  0.00    -0.288 OA 
HETATM   36  H   UNL     1     -12.389  10.286  68.520  1.00  0.00     0.000 HD 
ENDBRANCH  28  33
ENDBRANCH  26  28
ENDBRANCH  25  26
ENDBRANCH  12  25
ENDBRANCH  11  12
ENDBRANCH  10  11
ENDBRANCH   9  10
ENDBRANCH   8   9
ENDBRANCH   7   8
ENDBRANCH   6   7
ENDBRANCH   5   6
ENDBRANCH   4   5
ENDBRANCH   3   4
ENDBRANCH   2   3
TORSDOF 22
ENDMDL
MODEL      226
REMARK 921   NORMALIZED FREE ENERGY PREDICTED BY IDOCK:   -3.89 KCAL/MOL
REMARK 922        TOTAL FREE ENERGY PREDICTED BY IDOCK:  -12.51 KCAL/MOL
REMARK 923 INTER-LIGAND FREE ENERGY PREDICTED BY IDOCK:  -10.33 KCAL/MOL
REMARK 924 INTRA-LIGAND FREE ENERGY PREDICTED BY IDOCK:   -2.18 KCAL/MOL
REMARK 927      BINDING AFFINITY PREDICTED BY RF-SCORE:    0.00 PKD
ROOT
HETATM    1  C   UNL     1      -9.798   4.057  74.459  1.00  0.00    -0.179 C  
HETATM    2  C   UNL     1     -10.511   3.955  73.120  1.00  0.00    -0.254 C  
ENDROOT
BRANCH   2   3
HETATM    3  C   UNL     1     -11.358   5.197  72.861  1.00  0.00    -0.354 C  
BRANCH   3   4
HETATM    4  C   UNL     1     -11.074   5.800  71.489  1.00  0.00    -0.281 C  
BRANCH   4   5
HETATM    5  C   UNL     1     -12.060   6.928  71.177  1.00  0.00    -0.428 C  
BRANCH   5   6
HETATM    6  C   UNL     1     -11.997   8.005  72.252  1.00  0.00    -0.412 C  
BRANCH   6   7
HETATM    7  C   UNL     1     -11.288   9.272  71.768  1.00  0.00    -0.437 C  
BRANCH   7   8
HETATM    8  C   UNL     1     -11.874   9.670  70.419  1.00  0.00    -0.219 C  
BRANCH   8   9
HETATM    9  C   UNL     1     -11.670  11.139  70.062  1.00  0.00    -0.438 C  
BRANCH   9  10
HETATM   10  C   UNL     1     -12.085  11.340  68.601  1.00  0.00    -0.211 C  
BRANCH  10  11
HETATM   11  C   UNL     1     -10.935  11.699  67.673  1.00  0.00    -0.294 C  
BRANCH  11  12
HETATM   12  C   UNL     1     -10.998  11.116  66.250  1.00  0.00    -0.163 C  
BRANCH  12  13
HETATM   13  C   UNL     1     -11.225  12.147  65.123  1.00  0.00    -0.378 C  
BRANCH  13  14
HETATM   14  C   UNL     1     -11.666  13.532  65.613  1.00  0.00    -0.339 C  
HETATM   15  O   UNL     1     -12.721  14.104  64.789  1.00  0.00    -0.650 OA 
HETATM   16  O   UNL     1     -12.272  16.089  63.708  1.00  0.00    -0.895 OA 
HETATM   17  C   UNL     1     -10.738  14.720  65.234  1.00  0.00    -0.406 C  
HETATM   18  C   UNL     1     -11.970  15.167  64.426  1.00  0.00    -0.310 C  
BRANCH  17  19
HETATM   19  C   UNL     1     -10.307  15.725  66.298  1.00  0.00    -0.320 C  
BRANCH  19  20
HETATM   20  C   UNL     1      -9.583  15.019  67.440  1.00  0.00    -0.205 C  
BRANCH  20  21
HETATM   21  C   UNL     1      -9.106  16.016  68.501  1.00  0.00    -0.203 C  
BRANCH  21  22
HETATM   22  C   UNL     1     -10.038  17.226  68.579  1.00  0.00    -0.341 C  
BRANCH  22  23
HETATM   23  C   UNL     1      -9.314  18.525  68.222  1.00  0.00    -0.350 C  
HETATM   24  C   UNL     1     -10.023  19.731  68.823  1.00  0.00    -0.510 C  
ENDBRANCH  22  23
ENDBRANCH  21  22
ENDBRANCH  20  21
ENDBRANCH  19  20
ENDBRANCH  17  19
ENDBRANCH  13  14
ENDBRANCH  12  13
BRANCH  12  25
HETATM   25  O   UNL     1      -9.781  10.398  65.936  1.00  0.00    -0.192 OA 
BRANCH  25  26
HETATM   26  C   UNL     1      -8.684  10.660  66.699  1.00  0.00    -0.140 C  
HETATM   27  O   UNL     1      -8.152  11.755  66.845  1.00  0.00    -0.163 OA 
BRANCH  26  28
HETATM   28  C   UNL     1      -8.190   9.394  67.394  1.00  0.00    -0.121 C  
BRANCH  28  29
HETATM   29  C   UNL     1      -8.508   8.131  66.578  1.00  0.00    -0.132 C  
HETATM   30  C   UNL     1     -10.877   7.584  67.443  1.00  0.00    -0.272 C  
HETATM   31  C   UNL     1      -9.480   5.831  66.368  1.00  0.00    -0.172 C  
HETATM   32  C   UNL     1      -9.444   7.092  67.237  1.00  0.00    -0.165 C  
ENDBRANCH  28  29
BRANCH  28  33
HETATM   33  N   UNL     1      -8.738   9.357  68.749  1.00  0.00    -0.130 N  
HETATM   34  C   UNL     1      -8.049   9.812  69.837  1.00  0.00    -0.182 C  
HETATM   35  O   UNL     1      -6.908  10.248  69.820  1.00  0.00    -0.086 OA 
HETATM   36  H   UNL     1      -9.674   8.976  68.888  1.00  0.00     0.000 HD 
ENDBRANCH  28  33
ENDBRANCH  26  28
ENDBRANCH  25  26
ENDBRANCH  12  25
ENDBRANCH  11  12
ENDBRANCH  10  11
ENDBRANCH   9  10
ENDBRANCH   8   9
ENDBRANCH   7   8
ENDBRANCH   6   7
ENDBRANCH   5   6
ENDBRANCH   4   5
ENDBRANCH   3   4
ENDBRANCH   2   3
TORSDOF 22
ENDMDL
MODEL      227
REMARK 921   NORMALIZED FREE ENERGY PREDICTED BY IDOCK:   -3.88 KCAL/MOL
REMARK 922        TOTAL FREE ENERGY PREDICTED BY IDOCK:  -12.50 KCAL/MOL
REMARK 923 INTER-LIGAND FREE ENERGY PREDICTED BY IDOCK:  -10.95 KCAL/MOL
REMARK 924 INTRA-LIGAND FREE ENERGY PREDICTED BY IDOCK:   -1.55 KCAL/MOL
REMARK 927      BINDING AFFINITY PREDICTED BY RF-SCORE:    0.00 PKD
ROOT
HETATM    1  C   UNL     1      -9.560  10.161  65.363  1.00  0.00    -0.325 C  
HETATM    2  C   UNL     1      -9.736  10.569  63.909  1.00  0.00    -0.384 C  
ENDROOT
BRANCH   2   3
HETATM    3  C   UNL     1     -10.936  11.498  63.748  1.00  0.00    -0.485 C  
BRANCH   3   4
HETATM    4  C   UNL     1     -11.842  11.471  64.976  1.00  0.00     0.161 C  
BRANCH   4   5
HETATM    5  C   UNL     1     -12.647  12.767  65.085  1.00  0.00    -0.513 C  
BRANCH   5   6
HETATM    6  C   UNL     1     -12.352  13.681  63.903  1.00  0.00    -0.375 C  
BRANCH   6   7
HETATM    7  C   UNL     1     -12.510  15.161  64.256  1.00  0.00    -0.073 C  
BRANCH   7   8
HETATM    8  C   UNL     1     -11.328  15.580  65.123  1.00  0.00    -0.241 C  
BRANCH   8   9
HETATM    9  C   UNL     1     -10.130  14.640  65.037  1.00  0.00    -0.318 C  
BRANCH   9  10
HETATM   10  C   UNL     1      -9.666  14.323  66.462  1.00  0.00    -0.304 C  
BRANCH  10  11
HETATM   11  C   UNL     1      -8.886  15.448  67.124  1.00  0.00    -0.234 C  
BRANCH  11  12
HETATM   12  C   UNL     1      -9.582  16.165  68.296  1.00  0.00    -0.216 C  
BRANCH  12  13
HETATM   13  C   UNL     1      -9.859  15.287  69.536  1.00  0.00    -0.230 C  
BRANCH  13  14
HETATM   14  C   UNL     1     -11.279  15.416  70.099  1.00  0.00    -0.302 C  
HETATM   15  O   UNL     1     -11.484  16.668  70.813  1.00  0.00    -0.190 OA 
HETATM   16  O   UNL     1     -12.035  16.542  73.048  1.00  0.00    -0.530 OA 
HETATM   17  C   UNL     1     -11.573  14.631  71.407  1.00  0.00    -0.226 C  
HETATM   18  C   UNL     1     -11.756  16.047  71.982  1.00  0.00    -0.493 C  
BRANCH  17  19
HETATM   19  C   UNL     1     -12.821  13.761  71.516  1.00  0.00    -0.445 C  
BRANCH  19  20
HETATM   20  C   UNL     1     -12.548  12.362  70.971  1.00  0.00    -0.349 C  
BRANCH  20  21
HETATM   21  C   UNL     1     -13.137  11.282  71.882  1.00  0.00    -0.510 C  
BRANCH  21  22
HETATM   22  C   UNL     1     -12.816   9.881  71.358  1.00  0.00    -0.505 C  
BRANCH  22  23
HETATM   23  C   UNL     1     -11.403   9.802  70.778  1.00  0.00    -0.416 C  
HETATM   24  C   UNL     1     -10.476   9.016  71.695  1.00  0.00    -0.426 C  
ENDBRANCH  22  23
ENDBRANCH  21  22
ENDBRANCH  20  21
ENDBRANCH  19  20
ENDBRANCH  17  19
ENDBRANCH  13  14
ENDBRANCH  12  13
BRANCH  12  25
HETATM   25  O   UNL     1      -8.803  17.301  68.738  1.00  0.00    -0.276 OA 
BRANCH  25  26
HETATM   26  C   UNL     1      -7.464  17.115  68.905  1.00  0.00    -0.241 C  
HETATM   27  O   UNL     1      -6.902  16.040  69.085  1.00  0.00    -0.155 OA 
BRANCH  26  28
HETATM   28  C   UNL     1      -6.716  18.443  68.818  1.00  0.00    -0.256 C  
BRANCH  28  29
HETATM   29  C   UNL     1      -6.212  18.726  67.394  1.00  0.00    -0.185 C  
HETATM   30  C   UNL     1      -6.861  21.210  67.140  1.00  0.00    -0.388 C  
HETATM   31  C   UNL     1      -6.463  19.789  65.139  1.00  0.00    -0.318 C  
HETATM   32  C   UNL     1      -6.981  19.792  66.581  1.00  0.00    -0.222 C  
ENDBRANCH  28  29
BRANCH  28  33
HETATM   33  N   UNL     1      -5.649  18.447  69.818  1.00  0.00    -0.216 N  
HETATM   34  C   UNL     1      -5.414  19.510  70.643  1.00  0.00    -0.242 C  
HETATM   35  O   UNL     1      -6.016  20.572  70.617  1.00  0.00    -0.518 OA 
HETATM   36  H   UNL     1      -5.055  17.621  69.903  1.00  0.00     0.000 HD 
ENDBRANCH  28  33
ENDBRANCH  26  28
ENDBRANCH  25  26
ENDBRANCH  12  25
ENDBRANCH  11  12
ENDBRANCH  10  11
ENDBRANCH   9  10
ENDBRANCH   8   9
ENDBRANCH   7   8
ENDBRANCH   6   7
ENDBRANCH   5   6
ENDBRANCH   4   5
ENDBRANCH   3   4
ENDBRANCH   2   3
TORSDOF 22
ENDMDL
MODEL      228
REMARK 921   NORMALIZED FREE ENERGY PREDICTED BY IDOCK:   -3.88 KCAL/MOL
REMARK 922        TOTAL FREE ENERGY PREDICTED BY IDOCK:  -12.49 KCAL/MOL
REMARK 923 INTER-LIGAND FREE ENERGY PREDICTED BY IDOCK:   -8.97 KCAL/MOL
REMARK 924 INTRA-LIGAND FREE ENERGY PREDICTED BY IDOCK:   -3.51 KCAL/MOL
REMARK 927      BINDING AFFINITY PREDICTED BY RF-SCORE:    0.00 PKD
ROOT
HETATM    1  C   UNL     1     -13.454  12.470  72.034  1.00  0.00    -0.486 C  
HETATM    2  C   UNL     1     -13.268  10.964  71.941  1.00  0.00    -0.508 C  
ENDROOT
BRANCH   2   3
HETATM    3  C   UNL     1     -12.651  10.575  70.600  1.00  0.00    -0.457 C  
BRANCH   3   4
HETATM    4  C   UNL     1     -11.153  10.314  70.722  1.00  0.00    -0.303 C  
BRANCH   4   5
HETATM    5  C   UNL     1     -10.881   9.141  71.666  1.00  0.00    -0.442 C  
BRANCH   5   6
HETATM    6  C   UNL     1      -9.477   8.593  71.448  1.00  0.00    -0.306 C  
BRANCH   6   7
HETATM    7  C   UNL     1      -9.487   7.177  70.868  1.00  0.00    -0.160 C  
BRANCH   7   8
HETATM    8  C   UNL     1      -9.451   7.276  69.347  1.00  0.00    -0.154 C  
BRANCH   8   9
HETATM    9  C   UNL     1     -10.783   6.959  68.674  1.00  0.00    -0.256 C  
BRANCH   9  10
HETATM   10  C   UNL     1     -10.768   7.573  67.270  1.00  0.00    -0.365 C  
BRANCH  10  11
HETATM   11  C   UNL     1     -10.504   9.070  67.251  1.00  0.00    -0.343 C  
BRANCH  11  12
HETATM   12  C   UNL     1      -9.390   9.557  66.307  1.00  0.00    -0.188 C  
BRANCH  12  13
HETATM   13  C   UNL     1      -8.954   8.545  65.224  1.00  0.00    -0.102 C  
BRANCH  13  14
HETATM   14  C   UNL     1      -7.963   7.482  65.714  1.00  0.00    -0.117 C  
HETATM   15  O   UNL     1      -6.726   7.477  64.945  1.00  0.00    -0.046 OA 
HETATM   16  O   UNL     1      -6.191   5.548  63.803  1.00  0.00    -0.021 OA 
HETATM   17  C   UNL     1      -8.242   6.023  65.259  1.00  0.00    -0.138 C  
HETATM   18  C   UNL     1      -6.906   6.207  64.518  1.00  0.00    -0.046 C  
BRANCH  17  19
HETATM   19  C   UNL     1      -8.226   4.887  66.276  1.00  0.00    -0.108 C  
BRANCH  19  20
HETATM   20  C   UNL     1      -7.090   5.079  67.277  1.00  0.00    -0.066 C  
BRANCH  20  21
HETATM   21  C   UNL     1      -7.363   4.329  68.584  1.00  0.00    -0.056 C  
BRANCH  21  22
HETATM   22  C   UNL     1      -8.716   3.617  68.539  1.00  0.00    -0.137 C  
BRANCH  22  23
HETATM   23  C   UNL     1      -9.326   3.469  69.933  1.00  0.00    -0.247 C  
HETATM   24  C   UNL     1      -9.077   2.076  70.496  1.00  0.00    -0.162 C  
ENDBRANCH  22  23
ENDBRANCH  21  22
ENDBRANCH  20  21
ENDBRANCH  19  20
ENDBRANCH  17  19
ENDBRANCH  13  14
ENDBRANCH  12  13
BRANCH  12  25
HETATM   25  O   UNL     1      -9.788  10.770  65.626  1.00  0.00    -0.219 OA 
BRANCH  25  26
HETATM   26  C   UNL     1      -9.519  11.953  66.245  1.00  0.00    -0.227 C  
HETATM   27  O   UNL     1      -8.623  12.154  67.058  1.00  0.00    -0.180 OA 
BRANCH  26  28
HETATM   28  C   UNL     1     -10.481  13.042  65.777  1.00  0.00    -0.280 C  
BRANCH  28  29
HETATM   29  C   UNL     1     -10.396  14.299  66.657  1.00  0.00    -0.279 C  
HETATM   30  C   UNL     1     -11.462  13.430  68.841  1.00  0.00    -0.347 C  
HETATM   31  C   UNL     1     -11.359  15.866  68.358  1.00  0.00    -0.361 C  
HETATM   32  C   UNL     1     -11.497  14.478  67.727  1.00  0.00    -0.362 C  
ENDBRANCH  28  29
BRANCH  28  33
HETATM   33  N   UNL     1     -11.828  12.479  65.706  1.00  0.00    -0.429 N  
HETATM   34  C   UNL     1     -12.718  12.815  64.725  1.00  0.00    -0.393 C  
HETATM   35  O   UNL     1     -12.521  13.635  63.841  1.00  0.00    -0.680 OA 
HETATM   36  H   UNL     1     -12.117  11.808  66.418  1.00  0.00     0.000 HD 
ENDBRANCH  28  33
ENDBRANCH  26  28
ENDBRANCH  25  26
ENDBRANCH  12  25
ENDBRANCH  11  12
ENDBRANCH  10  11
ENDBRANCH   9  10
ENDBRANCH   8   9
ENDBRANCH   7   8
ENDBRANCH   6   7
ENDBRANCH   5   6
ENDBRANCH   4   5
ENDBRANCH   3   4
ENDBRANCH   2   3
TORSDOF 22
ENDMDL
MODEL      229
REMARK 921   NORMALIZED FREE ENERGY PREDICTED BY IDOCK:   -3.88 KCAL/MOL
REMARK 922        TOTAL FREE ENERGY PREDICTED BY IDOCK:  -12.48 KCAL/MOL
REMARK 923 INTER-LIGAND FREE ENERGY PREDICTED BY IDOCK:   -9.99 KCAL/MOL
REMARK 924 INTRA-LIGAND FREE ENERGY PREDICTED BY IDOCK:   -2.49 KCAL/MOL
REMARK 927      BINDING AFFINITY PREDICTED BY RF-SCORE:    0.00 PKD
ROOT
HETATM    1  C   UNL     1      -9.144   5.615  68.202  1.00  0.00    -0.111 C  
HETATM    2  C   UNL     1      -9.691   6.794  67.413  1.00  0.00    -0.164 C  
ENDROOT
BRANCH   2   3
HETATM    3  C   UNL     1      -8.928   6.970  66.102  1.00  0.00    -0.162 C  
BRANCH   3   4
HETATM    4  C   UNL     1      -7.566   7.620  66.324  1.00  0.00    -0.088 C  
BRANCH   4   5
HETATM    5  C   UNL     1      -7.040   8.232  65.024  1.00  0.00    -0.075 C  
BRANCH   5   6
HETATM    6  C   UNL     1      -8.029   8.008  63.888  1.00  0.00    -0.128 C  
BRANCH   6   7
HETATM    7  C   UNL     1      -8.412   9.309  63.182  1.00  0.00    -0.212 C  
BRANCH   7   8
HETATM    8  C   UNL     1      -9.033  10.252  64.206  1.00  0.00    -0.261 C  
BRANCH   8   9
HETATM    9  C   UNL     1     -10.423  10.752  63.827  1.00  0.00    -0.218 C  
BRANCH   9  10
HETATM   10  C   UNL     1     -10.341  12.264  63.594  1.00  0.00    -0.463 C  
BRANCH  10  11
HETATM   11  C   UNL     1     -11.675  12.983  63.720  1.00  0.00    -0.547 C  
BRANCH  11  12
HETATM   12  C   UNL     1     -11.933  13.719  65.048  1.00  0.00    -0.383 C  
BRANCH  12  13
HETATM   13  C   UNL     1     -12.503  12.845  66.187  1.00  0.00    -0.089 C  
BRANCH  13  14
HETATM   14  C   UNL     1     -11.578  12.707  67.402  1.00  0.00    -0.360 C  
HETATM   15  O   UNL     1     -10.614  11.626  67.248  1.00  0.00    -0.212 OA 
HETATM   16  O   UNL     1     -10.694   9.902  68.775  1.00  0.00    -0.210 OA 
HETATM   17  C   UNL     1     -12.177  11.985  68.641  1.00  0.00     0.062 C  
HETATM   18  C   UNL     1     -11.083  10.950  68.320  1.00  0.00    -0.266 C  
BRANCH  17  19
HETATM   19  C   UNL     1     -12.044  12.605  70.028  1.00  0.00    -0.339 C  
BRANCH  19  20
HETATM   20  C   UNL     1     -11.976  14.127  69.931  1.00  0.00    -0.398 C  
BRANCH  20  21
HETATM   21  C   UNL     1     -11.301  14.737  71.162  1.00  0.00    -0.185 C  
BRANCH  21  22
HETATM   22  C   UNL     1     -11.900  16.104  71.500  1.00  0.00    -0.528 C  
BRANCH  22  23
HETATM   23  C   UNL     1     -12.488  16.134  72.910  1.00  0.00    -0.570 C  
HETATM   24  C   UNL     1     -12.174  14.848  73.663  1.00  0.00    -0.522 C  
ENDBRANCH  22  23
ENDBRANCH  21  22
ENDBRANCH  20  21
ENDBRANCH  19  20
ENDBRANCH  17  19
ENDBRANCH  13  14
ENDBRANCH  12  13
BRANCH  12  25
HETATM   25  O   UNL     1     -10.717  14.328  65.541  1.00  0.00    -0.302 OA 
BRANCH  25  26
HETATM   26  C   UNL     1     -10.650  15.688  65.537  1.00  0.00    -0.404 C  
HETATM   27  O   UNL     1     -10.937  16.421  64.597  1.00  0.00    -0.707 OA 
BRANCH  26  28
HETATM   28  C   UNL     1     -10.180  16.214  66.890  1.00  0.00    -0.283 C  
BRANCH  28  29
HETATM   29  C   UNL     1     -10.613  17.670  67.122  1.00  0.00    -0.277 C  
HETATM   30  C   UNL     1      -8.578  18.934  66.163  1.00  0.00    -0.185 C  
HETATM   31  C   UNL     1     -10.118  20.038  67.773  1.00  0.00    -0.563 C  
HETATM   32  C   UNL     1      -9.489  18.701  67.370  1.00  0.00    -0.315 C  
ENDBRANCH  28  29
BRANCH  28  33
HETATM   33  N   UNL     1      -8.735  16.019  66.994  1.00  0.00    -0.195 N  
HETATM   34  C   UNL     1      -8.172  15.080  67.810  1.00  0.00    -0.153 C  
HETATM   35  O   UNL     1      -8.785  14.340  68.564  1.00  0.00    -0.176 OA 
HETATM   36  H   UNL     1      -8.120  16.611  66.433  1.00  0.00     0.000 HD 
ENDBRANCH  28  33
ENDBRANCH  26  28
ENDBRANCH  25  26
ENDBRANCH  12  25
ENDBRANCH  11  12
ENDBRANCH  10  11
ENDBRANCH   9  10
ENDBRANCH   8   9
ENDBRANCH   7   8
ENDBRANCH   6   7
ENDBRANCH   5   6
ENDBRANCH   4   5
ENDBRANCH   3   4
ENDBRANCH   2   3
TORSDOF 22
ENDMDL
MODEL      230
REMARK 921   NORMALIZED FREE ENERGY PREDICTED BY IDOCK:   -3.87 KCAL/MOL
REMARK 922        TOTAL FREE ENERGY PREDICTED BY IDOCK:  -12.47 KCAL/MOL
REMARK 923 INTER-LIGAND FREE ENERGY PREDICTED BY IDOCK:   -9.89 KCAL/MOL
REMARK 924 INTRA-LIGAND FREE ENERGY PREDICTED BY IDOCK:   -2.58 KCAL/MOL
REMARK 927      BINDING AFFINITY PREDICTED BY RF-SCORE:    0.00 PKD
ROOT
HETATM    1  C   UNL     1     -10.165  20.174  66.799  1.00  0.00    -0.562 C  
HETATM    2  C   UNL     1     -10.775  18.871  67.290  1.00  0.00    -0.523 C  
ENDROOT
BRANCH   2   3
HETATM    3  C   UNL     1      -9.869  17.689  66.957  1.00  0.00    -0.307 C  
BRANCH   3   4
HETATM    4  C   UNL     1     -10.452  16.825  65.843  1.00  0.00    -0.311 C  
BRANCH   4   5
HETATM    5  C   UNL     1      -9.810  15.436  65.841  1.00  0.00    -0.387 C  
BRANCH   5   6
HETATM    6  C   UNL     1     -10.462  14.547  64.790  1.00  0.00    -0.365 C  
BRANCH   6   7
HETATM    7  C   UNL     1     -11.986  14.683  64.776  1.00  0.00    -0.439 C  
BRANCH   7   8
HETATM    8  C   UNL     1     -12.567  13.735  65.819  1.00  0.00    -0.525 C  
BRANCH   8   9
HETATM    9  C   UNL     1     -11.992  12.323  65.762  1.00  0.00    -0.362 C  
BRANCH   9  10
HETATM   10  C   UNL     1     -11.413  11.986  67.140  1.00  0.00    -0.401 C  
BRANCH  10  11
HETATM   11  C   UNL     1      -9.900  11.832  67.155  1.00  0.00    -0.207 C  
BRANCH  11  12
HETATM   12  C   UNL     1      -9.358  10.432  67.496  1.00  0.00    -0.149 C  
BRANCH  12  13
HETATM   13  C   UNL     1     -10.430   9.333  67.666  1.00  0.00    -0.325 C  
BRANCH  13  14
HETATM   14  C   UNL     1     -10.676   8.909  69.119  1.00  0.00    -0.143 C  
HETATM   15  O   UNL     1     -10.196   9.896  70.076  1.00  0.00    -0.244 OA 
HETATM   16  O   UNL     1      -8.555   9.236  71.554  1.00  0.00    -0.320 OA 
HETATM   17  C   UNL     1      -9.683   7.868  69.707  1.00  0.00    -0.176 C  
HETATM   18  C   UNL     1      -9.316   9.038  70.638  1.00  0.00    -0.234 C  
BRANCH  17  19
HETATM   19  C   UNL     1     -10.208   6.640  70.445  1.00  0.00    -0.215 C  
BRANCH  19  20
HETATM   20  C   UNL     1     -11.725   6.542  70.312  1.00  0.00    -0.430 C  
BRANCH  20  21
HETATM   21  C   UNL     1     -12.425   6.854  71.637  1.00  0.00    -0.418 C  
BRANCH  21  22
HETATM   22  C   UNL     1     -13.469   7.959  71.463  1.00  0.00    -0.352 C  
BRANCH  22  23
HETATM   23  C   UNL     1     -13.287   9.079  72.488  1.00  0.00    -0.480 C  
HETATM   24  C   UNL     1     -13.058  10.419  71.802  1.00  0.00    -0.567 C  
ENDBRANCH  22  23
ENDBRANCH  21  22
ENDBRANCH  20  21
ENDBRANCH  19  20
ENDBRANCH  17  19
ENDBRANCH  13  14
ENDBRANCH  12  13
BRANCH  12  25
HETATM   25  O   UNL     1      -8.435   9.978  66.479  1.00  0.00    -0.124 OA 
BRANCH  25  26
HETATM   26  C   UNL     1      -8.965   9.427  65.352  1.00  0.00    -0.206 C  
HETATM   27  O   UNL     1      -9.849   9.916  64.657  1.00  0.00    -0.285 OA 
BRANCH  26  28
HETATM   28  C   UNL     1      -8.294   8.094  65.032  1.00  0.00    -0.136 C  
BRANCH  28  29
HETATM   29  C   UNL     1      -7.307   7.670  66.130  1.00  0.00    -0.078 C  
HETATM   30  C   UNL     1      -7.914   5.174  66.382  1.00  0.00    -0.104 C  
HETATM   31  C   UNL     1      -6.741   6.388  68.208  1.00  0.00    -0.068 C  
HETATM   32  C   UNL     1      -7.759   6.530  67.072  1.00  0.00    -0.100 C  
ENDBRANCH  28  29
BRANCH  28  33
HETATM   33  N   UNL     1      -7.679   8.184  63.708  1.00  0.00    -0.135 N  
HETATM   34  C   UNL     1      -7.611   7.123  62.852  1.00  0.00    -0.107 C  
HETATM   35  O   UNL     1      -8.001   5.991  63.095  1.00  0.00    -0.102 OA 
HETATM   36  H   UNL     1      -7.284   9.078  63.412  1.00  0.00     0.000 HD 
ENDBRANCH  28  33
ENDBRANCH  26  28
ENDBRANCH  25  26
ENDBRANCH  12  25
ENDBRANCH  11  12
ENDBRANCH  10  11
ENDBRANCH   9  10
ENDBRANCH   8   9
ENDBRANCH   7   8
ENDBRANCH   6   7
ENDBRANCH   5   6
ENDBRANCH   4   5
ENDBRANCH   3   4
ENDBRANCH   2   3
TORSDOF 22
ENDMDL
MODEL      231
REMARK 921   NORMALIZED FREE ENERGY PREDICTED BY IDOCK:   -3.87 KCAL/MOL
REMARK 922        TOTAL FREE ENERGY PREDICTED BY IDOCK:  -12.47 KCAL/MOL
REMARK 923 INTER-LIGAND FREE ENERGY PREDICTED BY IDOCK:  -10.17 KCAL/MOL
REMARK 924 INTRA-LIGAND FREE ENERGY PREDICTED BY IDOCK:   -2.30 KCAL/MOL
REMARK 927      BINDING AFFINITY PREDICTED BY RF-SCORE:    0.00 PKD
ROOT
HETATM    1  C   UNL     1      -7.678   5.328  71.343  1.00  0.00    -0.106 C  
HETATM    2  C   UNL     1      -8.966   4.527  71.427  1.00  0.00    -0.165 C  
ENDROOT
BRANCH   2   3
HETATM    3  C   UNL     1      -9.336   4.244  72.880  1.00  0.00    -0.136 C  
BRANCH   3   4
HETATM    4  C   UNL     1     -10.231   5.336  73.459  1.00  0.00    -0.229 C  
BRANCH   4   5
HETATM    5  C   UNL     1     -11.524   5.464  72.652  1.00  0.00    -0.305 C  
BRANCH   5   6
HETATM    6  C   UNL     1     -11.762   6.913  72.251  1.00  0.00    -0.296 C  
BRANCH   6   7
HETATM    7  C   UNL     1     -10.628   7.837  72.699  1.00  0.00    -0.377 C  
BRANCH   7   8
HETATM    8  C   UNL     1     -10.611   9.060  71.789  1.00  0.00    -0.426 C  
BRANCH   8   9
HETATM    9  C   UNL     1     -11.965   9.748  71.650  1.00  0.00    -0.454 C  
BRANCH   9  10
HETATM   10  C   UNL     1     -12.011  10.444  70.286  1.00  0.00    -0.387 C  
BRANCH  10  11
HETATM   11  C   UNL     1     -11.189   9.752  69.209  1.00  0.00    -0.128 C  
BRANCH  11  12
HETATM   12  C   UNL     1     -10.520  10.667  68.166  1.00  0.00    -0.185 C  
BRANCH  12  13
HETATM   13  C   UNL     1     -10.324  12.135  68.604  1.00  0.00    -0.211 C  
BRANCH  13  14
HETATM   14  C   UNL     1     -11.428  13.089  68.131  1.00  0.00    -0.319 C  
HETATM   15  O   UNL     1     -11.727  12.936  66.714  1.00  0.00    -0.346 OA 
HETATM   16  O   UNL     1     -11.394  14.764  65.351  1.00  0.00    -0.340 OA 
HETATM   17  C   UNL     1     -10.998  14.560  67.873  1.00  0.00    -0.277 C  
HETATM   18  C   UNL     1     -11.375  14.207  66.422  1.00  0.00    -0.338 C  
BRANCH  17  19
HETATM   19  C   UNL     1     -11.814  15.710  68.454  1.00  0.00    -0.211 C  
BRANCH  19  20
HETATM   20  C   UNL     1     -11.246  16.143  69.802  1.00  0.00    -0.343 C  
BRANCH  20  21
HETATM   21  C   UNL     1     -11.747  15.243  70.935  1.00  0.00    -0.386 C  
BRANCH  21  22
HETATM   22  C   UNL     1     -11.890  16.028  72.241  1.00  0.00    -0.628 C  
BRANCH  22  23
HETATM   23  C   UNL     1     -13.274  15.845  72.865  1.00  0.00    -0.619 C  
HETATM   24  C   UNL     1     -14.316  15.518  71.804  1.00  0.00    -0.556 C  
ENDBRANCH  22  23
ENDBRANCH  21  22
ENDBRANCH  20  21
ENDBRANCH  19  20
ENDBRANCH  17  19
ENDBRANCH  13  14
ENDBRANCH  12  13
BRANCH  12  25
HETATM   25  O   UNL     1      -9.221  10.153  67.792  1.00  0.00    -0.137 OA 
BRANCH  25  26
HETATM   26  C   UNL     1      -8.636  10.677  66.679  1.00  0.00    -0.139 C  
HETATM   27  O   UNL     1      -7.869  11.633  66.650  1.00  0.00    -0.149 OA 
BRANCH  26  28
HETATM   28  C   UNL     1      -9.043   9.896  65.433  1.00  0.00    -0.196 C  
BRANCH  28  29
HETATM   29  C   UNL     1     -10.347  10.431  64.821  1.00  0.00    -0.221 C  
HETATM   30  C   UNL     1      -9.572  10.949  62.415  1.00  0.00    -0.150 C  
HETATM   31  C   UNL     1     -11.600  12.035  63.359  1.00  0.00    -0.495 C  
HETATM   32  C   UNL     1     -10.211  11.484  63.698  1.00  0.00    -0.450 C  
ENDBRANCH  28  29
BRANCH  28  33
HETATM   33  N   UNL     1      -9.104   8.474  65.768  1.00  0.00    -0.297 N  
HETATM   34  C   UNL     1      -7.988   7.706  65.938  1.00  0.00    -0.116 C  
HETATM   35  O   UNL     1      -6.837   8.088  65.790  1.00  0.00    -0.055 OA 
HETATM   36  H   UNL     1     -10.020   8.038  65.880  1.00  0.00     0.000 HD 
ENDBRANCH  28  33
ENDBRANCH  26  28
ENDBRANCH  25  26
ENDBRANCH  12  25
ENDBRANCH  11  12
ENDBRANCH  10  11
ENDBRANCH   9  10
ENDBRANCH   8   9
ENDBRANCH   7   8
ENDBRANCH   6   7
ENDBRANCH   5   6
ENDBRANCH   4   5
ENDBRANCH   3   4
ENDBRANCH   2   3
TORSDOF 22
ENDMDL
MODEL      232
REMARK 921   NORMALIZED FREE ENERGY PREDICTED BY IDOCK:   -3.87 KCAL/MOL
REMARK 922        TOTAL FREE ENERGY PREDICTED BY IDOCK:  -12.46 KCAL/MOL
REMARK 923 INTER-LIGAND FREE ENERGY PREDICTED BY IDOCK:   -8.77 KCAL/MOL
REMARK 924 INTRA-LIGAND FREE ENERGY PREDICTED BY IDOCK:   -3.69 KCAL/MOL
REMARK 927      BINDING AFFINITY PREDICTED BY RF-SCORE:    0.00 PKD
ROOT
HETATM    1  C   UNL     1     -10.224   3.229  74.175  1.00  0.00    -0.214 C  
HETATM    2  C   UNL     1     -10.615   3.548  72.742  1.00  0.00    -0.176 C  
ENDROOT
BRANCH   2   3
HETATM    3  C   UNL     1      -9.376   3.760  71.876  1.00  0.00    -0.194 C  
BRANCH   3   4
HETATM    4  C   UNL     1      -9.299   5.186  71.339  1.00  0.00    -0.189 C  
BRANCH   4   5
HETATM    5  C   UNL     1      -9.786   5.247  69.890  1.00  0.00    -0.260 C  
BRANCH   5   6
HETATM    6  C   UNL     1      -8.623   5.050  68.926  1.00  0.00    -0.091 C  
BRANCH   6   7
HETATM    7  C   UNL     1      -7.551   6.131  69.077  1.00  0.00    -0.091 C  
BRANCH   7   8
HETATM    8  C   UNL     1      -7.140   6.603  67.686  1.00  0.00    -0.085 C  
BRANCH   8   9
HETATM    9  C   UNL     1      -7.696   5.748  66.552  1.00  0.00    -0.100 C  
BRANCH   9  10
HETATM   10  C   UNL     1      -8.392   6.675  65.551  1.00  0.00    -0.144 C  
BRANCH  10  11
HETATM   11  C   UNL     1      -8.328   8.148  65.921  1.00  0.00    -0.134 C  
BRANCH  11  12
HETATM   12  C   UNL     1      -9.672   8.841  66.207  1.00  0.00    -0.272 C  
BRANCH  12  13
HETATM   13  C   UNL     1     -10.337   8.465  67.549  1.00  0.00    -0.333 C  
BRANCH  13  14
HETATM   14  C   UNL     1     -10.086   9.466  68.683  1.00  0.00    -0.190 C  
HETATM   15  O   UNL     1      -8.681   9.539  69.060  1.00  0.00    -0.132 OA 
HETATM   16  O   UNL     1      -8.128   8.970  71.224  1.00  0.00    -0.217 OA 
HETATM   17  C   UNL     1     -10.437   8.981  70.117  1.00  0.00    -0.240 C  
HETATM   18  C   UNL     1      -8.919   9.128  70.325  1.00  0.00    -0.217 C  
BRANCH  17  19
HETATM   19  C   UNL     1     -11.269   9.864  71.042  1.00  0.00    -0.435 C  
BRANCH  19  20
HETATM   20  C   UNL     1     -12.588  10.245  70.375  1.00  0.00    -0.277 C  
BRANCH  20  21
HETATM   21  C   UNL     1     -13.783   9.933  71.280  1.00  0.00    -0.174 C  
BRANCH  21  22
HETATM   22  C   UNL     1     -13.431   8.855  72.308  1.00  0.00    -0.503 C  
BRANCH  22  23
HETATM   23  C   UNL     1     -13.803   7.457  71.814  1.00  0.00    -0.438 C  
HETATM   24  C   UNL     1     -12.666   6.472  72.047  1.00  0.00    -0.154 C  
ENDBRANCH  22  23
ENDBRANCH  21  22
ENDBRANCH  20  21
ENDBRANCH  19  20
ENDBRANCH  17  19
ENDBRANCH  13  14
ENDBRANCH  12  13
BRANCH  12  25
HETATM   25  O   UNL     1      -9.521  10.280  66.191  1.00  0.00    -0.166 OA 
BRANCH  25  26
HETATM   26  C   UNL     1      -9.666  10.912  64.993  1.00  0.00    -0.267 C  
HETATM   27  O   UNL     1      -8.971  10.738  63.998  1.00  0.00    -0.187 OA 
BRANCH  26  28
HETATM   28  C   UNL     1     -10.845  11.881  65.028  1.00  0.00    -0.300 C  
BRANCH  28  29
HETATM   29  C   UNL     1     -11.304  12.174  66.465  1.00  0.00    -0.405 C  
HETATM   30  C   UNL     1     -11.455  14.749  66.404  1.00  0.00    -0.319 C  
HETATM   31  C   UNL     1     -11.234  13.539  68.565  1.00  0.00    -0.310 C  
HETATM   32  C   UNL     1     -10.853  13.517  67.082  1.00  0.00    -0.291 C  
ENDBRANCH  28  29
BRANCH  28  33
HETATM   33  N   UNL     1     -11.911  11.353  64.178  1.00  0.00    -0.135 N  
HETATM   34  C   UNL     1     -12.753  12.158  63.464  1.00  0.00    -0.431 C  
HETATM   35  O   UNL     1     -12.749  13.379  63.481  1.00  0.00    -0.703 OA 
HETATM   36  H   UNL     1     -12.032  10.342  64.117  1.00  0.00     0.000 HD 
ENDBRANCH  28  33
ENDBRANCH  26  28
ENDBRANCH  25  26
ENDBRANCH  12  25
ENDBRANCH  11  12
ENDBRANCH  10  11
ENDBRANCH   9  10
ENDBRANCH   8   9
ENDBRANCH   7   8
ENDBRANCH   6   7
ENDBRANCH   5   6
ENDBRANCH   4   5
ENDBRANCH   3   4
ENDBRANCH   2   3
TORSDOF 22
ENDMDL
MODEL      233
REMARK 921   NORMALIZED FREE ENERGY PREDICTED BY IDOCK:   -3.86 KCAL/MOL
REMARK 922        TOTAL FREE ENERGY PREDICTED BY IDOCK:  -12.45 KCAL/MOL
REMARK 923 INTER-LIGAND FREE ENERGY PREDICTED BY IDOCK:   -8.90 KCAL/MOL
REMARK 924 INTRA-LIGAND FREE ENERGY PREDICTED BY IDOCK:   -3.55 KCAL/MOL
REMARK 927      BINDING AFFINITY PREDICTED BY RF-SCORE:    0.00 PKD
ROOT
HETATM    1  C   UNL     1     -11.040  15.821  68.145  1.00  0.00    -0.341 C  
HETATM    2  C   UNL     1     -11.865  14.551  68.013  1.00  0.00    -0.350 C  
ENDROOT
BRANCH   2   3
HETATM    3  C   UNL     1     -12.072  14.189  66.545  1.00  0.00    -0.481 C  
BRANCH   3   4
HETATM    4  C   UNL     1     -10.746  13.961  65.826  1.00  0.00    -0.289 C  
BRANCH   4   5
HETATM    5  C   UNL     1     -10.028  12.732  66.388  1.00  0.00    -0.268 C  
BRANCH   5   6
HETATM    6  C   UNL     1     -10.934  11.509  66.325  1.00  0.00    -0.328 C  
BRANCH   6   7
HETATM    7  C   UNL     1     -11.320  10.996  67.713  1.00  0.00    -0.365 C  
BRANCH   7   8
HETATM    8  C   UNL     1     -10.307   9.940  68.139  1.00  0.00    -0.232 C  
BRANCH   8   9
HETATM    9  C   UNL     1      -9.215  10.464  69.066  1.00  0.00    -0.194 C  
BRANCH   9  10
HETATM   10  C   UNL     1      -8.443   9.265  69.623  1.00  0.00    -0.140 C  
BRANCH  10  11
HETATM   11  C   UNL     1      -9.060   7.917  69.283  1.00  0.00    -0.148 C  
BRANCH  11  12
HETATM   12  C   UNL     1      -8.165   6.682  69.494  1.00  0.00    -0.130 C  
BRANCH  12  13
HETATM   13  C   UNL     1      -8.628   5.713  70.604  1.00  0.00    -0.130 C  
BRANCH  13  14
HETATM   14  C   UNL     1      -9.594   6.332  71.622  1.00  0.00    -0.154 C  
HETATM   15  O   UNL     1      -9.559   5.650  72.908  1.00  0.00    -0.154 OA 
HETATM   16  O   UNL     1     -11.508   4.665  73.645  1.00  0.00    -0.273 OA 
HETATM   17  C   UNL     1     -11.092   5.947  71.468  1.00  0.00    -0.314 C  
HETATM   18  C   UNL     1     -10.859   5.289  72.840  1.00  0.00    -0.270 C  
BRANCH  17  19
HETATM   19  C   UNL     1     -12.166   7.030  71.483  1.00  0.00    -0.407 C  
BRANCH  19  20
HETATM   20  C   UNL     1     -11.709   8.228  72.310  1.00  0.00    -0.453 C  
BRANCH  20  21
HETATM   21  C   UNL     1     -11.677   9.508  71.471  1.00  0.00    -0.472 C  
BRANCH  21  22
HETATM   22  C   UNL     1     -12.987  10.288  71.604  1.00  0.00    -0.570 C  
BRANCH  22  23
HETATM   23  C   UNL     1     -12.830  11.742  71.161  1.00  0.00    -0.365 C  
HETATM   24  C   UNL     1     -13.464  12.694  72.167  1.00  0.00    -0.561 C  
ENDBRANCH  22  23
ENDBRANCH  21  22
ENDBRANCH  20  21
ENDBRANCH  19  20
ENDBRANCH  17  19
ENDBRANCH  13  14
ENDBRANCH  12  13
BRANCH  12  25
HETATM   25  O   UNL     1      -8.053   5.915  68.273  1.00  0.00    -0.107 OA 
BRANCH  25  26
HETATM   26  C   UNL     1      -9.108   5.949  67.412  1.00  0.00    -0.110 C  
HETATM   27  O   UNL     1     -10.289   5.815  67.715  1.00  0.00    -0.175 OA 
BRANCH  26  28
HETATM   28  C   UNL     1      -8.637   6.202  65.983  1.00  0.00    -0.145 C  
BRANCH  28  29
HETATM   29  C   UNL     1      -8.621   7.701  65.642  1.00  0.00    -0.142 C  
HETATM   30  C   UNL     1      -6.106   8.062  65.187  1.00  0.00    -0.045 C  
HETATM   31  C   UNL     1      -7.582   9.977  65.767  1.00  0.00    -0.120 C  
HETATM   32  C   UNL     1      -7.335   8.483  65.995  1.00  0.00    -0.081 C  
ENDBRANCH  28  29
BRANCH  28  33
HETATM   33  N   UNL     1      -9.461   5.412  65.070  1.00  0.00    -0.351 N  
HETATM   34  C   UNL     1      -8.974   4.346  64.369  1.00  0.00    -0.151 C  
HETATM   35  O   UNL     1      -7.815   3.961  64.382  1.00  0.00    -0.083 OA 
HETATM   36  H   UNL     1     -10.442   5.668  64.951  1.00  0.00     0.000 HD 
ENDBRANCH  28  33
ENDBRANCH  26  28
ENDBRANCH  25  26
ENDBRANCH  12  25
ENDBRANCH  11  12
ENDBRANCH  10  11
ENDBRANCH   9  10
ENDBRANCH   8   9
ENDBRANCH   7   8
ENDBRANCH   6   7
ENDBRANCH   5   6
ENDBRANCH   4   5
ENDBRANCH   3   4
ENDBRANCH   2   3
TORSDOF 22
ENDMDL
MODEL      234
REMARK 921   NORMALIZED FREE ENERGY PREDICTED BY IDOCK:   -3.86 KCAL/MOL
REMARK 922        TOTAL FREE ENERGY PREDICTED BY IDOCK:  -12.45 KCAL/MOL
REMARK 923 INTER-LIGAND FREE ENERGY PREDICTED BY IDOCK:   -9.82 KCAL/MOL
REMARK 924 INTRA-LIGAND FREE ENERGY PREDICTED BY IDOCK:   -2.62 KCAL/MOL
REMARK 927      BINDING AFFINITY PREDICTED BY RF-SCORE:    0.00 PKD
ROOT
HETATM    1  C   UNL     1     -13.341  13.196  72.012  1.00  0.00    -0.587 C  
HETATM    2  C   UNL     1     -13.282  11.678  72.011  1.00  0.00    -0.443 C  
ENDROOT
BRANCH   2   3
HETATM    3  C   UNL     1     -12.409  11.170  70.867  1.00  0.00    -0.500 C  
BRANCH   3   4
HETATM    4  C   UNL     1     -12.285   9.649  70.881  1.00  0.00    -0.368 C  
BRANCH   4   5
HETATM    5  C   UNL     1     -11.059   9.212  71.685  1.00  0.00    -0.445 C  
BRANCH   5   6
HETATM    6  C   UNL     1     -11.376   7.973  72.512  1.00  0.00    -0.469 C  
BRANCH   6   7
HETATM    7  C   UNL     1     -11.791   6.783  71.644  1.00  0.00    -0.370 C  
BRANCH   7   8
HETATM    8  C   UNL     1     -10.557   5.930  71.371  1.00  0.00    -0.309 C  
BRANCH   8   9
HETATM    9  C   UNL     1     -10.450   5.437  69.931  1.00  0.00    -0.378 C  
BRANCH   9  10
HETATM   10  C   UNL     1     -11.304   6.351  69.047  1.00  0.00    -0.332 C  
BRANCH  10  11
HETATM   11  C   UNL     1     -10.936   6.308  67.572  1.00  0.00    -0.444 C  
BRANCH  11  12
HETATM   12  C   UNL     1     -10.105   7.490  67.040  1.00  0.00    -0.261 C  
BRANCH  12  13
HETATM   13  C   UNL     1     -10.296   8.824  67.795  1.00  0.00    -0.297 C  
BRANCH  13  14
HETATM   14  C   UNL     1     -10.078  10.074  66.935  1.00  0.00    -0.229 C  
HETATM   15  O   UNL     1      -8.795  10.712  67.193  1.00  0.00    -0.136 OA 
HETATM   16  O   UNL     1      -8.820  12.876  67.984  1.00  0.00    -0.180 OA 
HETATM   17  C   UNL     1     -10.804  11.365  67.406  1.00  0.00    -0.301 C  
HETATM   18  C   UNL     1      -9.363  11.865  67.608  1.00  0.00    -0.183 C  
BRANCH  17  19
HETATM   19  C   UNL     1     -11.607  12.199  66.412  1.00  0.00    -0.429 C  
BRANCH  19  20
HETATM   20  C   UNL     1     -10.981  12.126  65.022  1.00  0.00    -0.355 C  
BRANCH  20  21
HETATM   21  C   UNL     1     -11.097  13.464  64.286  1.00  0.00    -0.396 C  
BRANCH  21  22
HETATM   22  C   UNL     1     -11.499  14.588  65.243  1.00  0.00    -0.355 C  
BRANCH  22  23
HETATM   23  C   UNL     1     -10.694  15.863  64.992  1.00  0.00    -0.426 C  
HETATM   24  C   UNL     1      -9.515  15.965  65.950  1.00  0.00    -0.372 C  
ENDBRANCH  22  23
ENDBRANCH  21  22
ENDBRANCH  20  21
ENDBRANCH  19  20
ENDBRANCH  17  19
ENDBRANCH  13  14
ENDBRANCH  12  13
BRANCH  12  25
HETATM   25  O   UNL     1      -8.693   7.178  67.068  1.00  0.00    -0.119 OA 
BRANCH  25  26
HETATM   26  C   UNL     1      -8.271   6.115  66.328  1.00  0.00    -0.116 C  
HETATM   27  O   UNL     1      -8.381   4.933  66.636  1.00  0.00    -0.107 OA 
BRANCH  26  28
HETATM   28  C   UNL     1      -7.643   6.580  65.017  1.00  0.00    -0.092 C  
BRANCH  28  29
HETATM   29  C   UNL     1      -7.007   7.974  65.148  1.00  0.00    -0.062 C  
HETATM   30  C   UNL     1      -8.576   9.360  63.639  1.00  0.00    -0.220 C  
HETATM   31  C   UNL     1      -6.285  10.166  64.172  1.00  0.00    -0.132 C  
HETATM   32  C   UNL     1      -7.141   8.918  63.932  1.00  0.00    -0.091 C  
ENDBRANCH  28  29
BRANCH  28  33
HETATM   33  N   UNL     1      -8.650   6.504  63.960  1.00  0.00    -0.302 N  
HETATM   34  C   UNL     1      -8.549   5.644  62.904  1.00  0.00     0.040 C  
HETATM   35  O   UNL     1      -7.612   4.890  62.692  1.00  0.00    -0.056 OA 
HETATM   36  H   UNL     1      -9.463   7.119  64.014  1.00  0.00     0.000 HD 
ENDBRANCH  28  33
ENDBRANCH  26  28
ENDBRANCH  25  26
ENDBRANCH  12  25
ENDBRANCH  11  12
ENDBRANCH  10  11
ENDBRANCH   9  10
ENDBRANCH   8   9
ENDBRANCH   7   8
ENDBRANCH   6   7
ENDBRANCH   5   6
ENDBRANCH   4   5
ENDBRANCH   3   4
ENDBRANCH   2   3
TORSDOF 22
ENDMDL
MODEL      235
REMARK 921   NORMALIZED FREE ENERGY PREDICTED BY IDOCK:   -3.85 KCAL/MOL
REMARK 922        TOTAL FREE ENERGY PREDICTED BY IDOCK:  -12.42 KCAL/MOL
REMARK 923 INTER-LIGAND FREE ENERGY PREDICTED BY IDOCK:   -9.36 KCAL/MOL
REMARK 924 INTRA-LIGAND FREE ENERGY PREDICTED BY IDOCK:   -3.06 KCAL/MOL
REMARK 927      BINDING AFFINITY PREDICTED BY RF-SCORE:    0.00 PKD
ROOT
HETATM    1  C   UNL     1      -6.184  15.062  69.267  1.00  0.00    -0.111 C  
HETATM    2  C   UNL     1      -6.960  16.369  69.319  1.00  0.00    -0.223 C  
ENDROOT
BRANCH   2   3
HETATM    3  C   UNL     1      -8.254  16.264  68.517  1.00  0.00    -0.195 C  
BRANCH   3   4
HETATM    4  C   UNL     1      -8.025  15.612  67.156  1.00  0.00    -0.254 C  
BRANCH   4   5
HETATM    5  C   UNL     1      -8.630  16.464  66.038  1.00  0.00    -0.246 C  
BRANCH   5   6
HETATM    6  C   UNL     1     -10.151  16.440  66.112  1.00  0.00    -0.364 C  
BRANCH   6   7
HETATM    7  C   UNL     1     -10.779  15.679  64.943  1.00  0.00    -0.406 C  
BRANCH   7   8
HETATM    8  C   UNL     1     -10.960  14.222  65.354  1.00  0.00    -0.335 C  
BRANCH   8   9
HETATM    9  C   UNL     1     -12.304  13.924  66.010  1.00  0.00    -0.511 C  
BRANCH   9  10
HETATM   10  C   UNL     1     -12.039  13.316  67.391  1.00  0.00    -0.327 C  
BRANCH  10  11
HETATM   11  C   UNL     1     -10.571  13.032  67.672  1.00  0.00    -0.232 C  
BRANCH  11  12
HETATM   12  C   UNL     1     -10.185  11.554  67.861  1.00  0.00    -0.184 C  
BRANCH  12  13
HETATM   13  C   UNL     1     -10.204  11.048  69.320  1.00  0.00    -0.153 C  
BRANCH  13  14
HETATM   14  C   UNL     1     -11.555  10.484  69.777  1.00  0.00    -0.294 C  
HETATM   15  O   UNL     1     -12.533  11.529  70.044  1.00  0.00    -0.213 OA 
HETATM   16  O   UNL     1     -13.369  11.684  72.186  1.00  0.00    -0.491 OA 
HETATM   17  C   UNL     1     -11.643  10.034  71.262  1.00  0.00    -0.430 C  
HETATM   18  C   UNL     1     -12.662  11.185  71.344  1.00  0.00    -0.418 C  
BRANCH  17  19
HETATM   19  C   UNL     1     -12.230   8.671  71.616  1.00  0.00    -0.388 C  
BRANCH  19  20
HETATM   20  C   UNL     1     -11.274   7.893  72.516  1.00  0.00    -0.436 C  
BRANCH  20  21
HETATM   21  C   UNL     1      -9.814   8.238  72.212  1.00  0.00    -0.364 C  
BRANCH  21  22
HETATM   22  C   UNL     1      -9.217   7.264  71.193  1.00  0.00    -0.156 C  
BRANCH  22  23
HETATM   23  C   UNL     1      -8.408   7.991  70.119  1.00  0.00    -0.126 C  
HETATM   24  C   UNL     1      -8.082   7.064  68.956  1.00  0.00    -0.121 C  
ENDBRANCH  22  23
ENDBRANCH  21  22
ENDBRANCH  20  21
ENDBRANCH  19  20
ENDBRANCH  17  19
ENDBRANCH  13  14
ENDBRANCH  12  13
BRANCH  12  25
HETATM   25  O   UNL     1     -11.061  10.693  67.097  1.00  0.00    -0.282 OA 
BRANCH  25  26
HETATM   26  C   UNL     1     -10.504   9.600  66.503  1.00  0.00    -0.143 C  
HETATM   27  O   UNL     1     -10.614   8.440  66.883  1.00  0.00    -0.305 OA 
BRANCH  26  28
HETATM   28  C   UNL     1      -9.720   9.999  65.256  1.00  0.00    -0.306 C  
BRANCH  28  29
HETATM   29  C   UNL     1      -8.318  10.524  65.603  1.00  0.00    -0.167 C  
HETATM   30  C   UNL     1      -6.958   8.331  65.553  1.00  0.00    -0.066 C  
HETATM   31  C   UNL     1      -6.120  10.319  66.789  1.00  0.00    -0.062 C  
HETATM   32  C   UNL     1      -7.380   9.558  66.363  1.00  0.00    -0.093 C  
ENDBRANCH  28  29
BRANCH  28  33
HETATM   33  N   UNL     1     -10.517  10.952  64.485  1.00  0.00    -0.349 N  
HETATM   34  C   UNL     1     -10.225  11.282  63.192  1.00  0.00    -0.319 C  
HETATM   35  O   UNL     1      -9.267  10.871  62.555  1.00  0.00    -0.290 OA 
HETATM   36  H   UNL     1     -11.324  11.388  64.931  1.00  0.00     0.000 HD 
ENDBRANCH  28  33
ENDBRANCH  26  28
ENDBRANCH  25  26
ENDBRANCH  12  25
ENDBRANCH  11  12
ENDBRANCH  10  11
ENDBRANCH   9  10
ENDBRANCH   8   9
ENDBRANCH   7   8
ENDBRANCH   6   7
ENDBRANCH   5   6
ENDBRANCH   4   5
ENDBRANCH   3   4
ENDBRANCH   2   3
TORSDOF 22
ENDMDL
MODEL      236
REMARK 921   NORMALIZED FREE ENERGY PREDICTED BY IDOCK:   -3.85 KCAL/MOL
REMARK 922        TOTAL FREE ENERGY PREDICTED BY IDOCK:  -12.42 KCAL/MOL
REMARK 923 INTER-LIGAND FREE ENERGY PREDICTED BY IDOCK:   -9.02 KCAL/MOL
REMARK 924 INTRA-LIGAND FREE ENERGY PREDICTED BY IDOCK:   -3.40 KCAL/MOL
REMARK 927      BINDING AFFINITY PREDICTED BY RF-SCORE:    0.00 PKD
ROOT
HETATM    1  C   UNL     1      -9.963  19.485  68.634  1.00  0.00    -0.538 C  
HETATM    2  C   UNL     1      -9.770  19.918  67.190  1.00  0.00    -0.523 C  
ENDROOT
BRANCH   2   3
HETATM    3  C   UNL     1     -10.404  18.912  66.232  1.00  0.00    -0.512 C  
BRANCH   3   4
HETATM    4  C   UNL     1     -10.449  17.510  66.833  1.00  0.00    -0.285 C  
BRANCH   4   5
HETATM    5  C   UNL     1      -9.652  16.527  65.974  1.00  0.00    -0.323 C  
BRANCH   5   6
HETATM    6  C   UNL     1     -10.556  15.858  64.947  1.00  0.00    -0.281 C  
BRANCH   6   7
HETATM    7  C   UNL     1     -10.546  14.333  65.066  1.00  0.00    -0.444 C  
BRANCH   7   8
HETATM    8  C   UNL     1     -11.925  13.875  65.526  1.00  0.00    -0.397 C  
BRANCH   8   9
HETATM    9  C   UNL     1     -11.900  12.656  66.443  1.00  0.00    -0.466 C  
BRANCH   9  10
HETATM   10  C   UNL     1     -11.775  13.146  67.889  1.00  0.00    -0.398 C  
BRANCH  10  11
HETATM   11  C   UNL     1     -10.440  12.823  68.540  1.00  0.00    -0.252 C  
BRANCH  11  12
HETATM   12  C   UNL     1      -9.561  11.783  67.821  1.00  0.00    -0.184 C  
BRANCH  12  13
HETATM   13  C   UNL     1      -8.153  12.273  67.419  1.00  0.00    -0.175 C  
BRANCH  13  14
HETATM   14  C   UNL     1      -7.611  13.419  68.282  1.00  0.00    -0.135 C  
HETATM   15  O   UNL     1      -7.649  14.701  67.594  1.00  0.00    -0.147 OA 
HETATM   16  O   UNL     1      -5.643  15.782  67.244  1.00  0.00    -0.323 OA 
HETATM   17  C   UNL     1      -6.064  13.528  68.384  1.00  0.00    -0.094 C  
HETATM   18  C   UNL     1      -6.308  14.862  67.655  1.00  0.00    -0.123 C  
BRANCH  17  19
HETATM   19  C   UNL     1      -5.395  13.689  69.746  1.00  0.00    -0.090 C  
BRANCH  19  20
HETATM   20  C   UNL     1      -5.831  12.575  70.693  1.00  0.00    -0.078 C  
BRANCH  20  21
HETATM   21  C   UNL     1      -5.267  11.219  70.259  1.00  0.00    -0.086 C  
BRANCH  21  22
HETATM   22  C   UNL     1      -6.390  10.239  69.914  1.00  0.00    -0.082 C  
BRANCH  22  23
HETATM   23  C   UNL     1      -5.879   9.059  69.087  1.00  0.00    -0.039 C  
HETATM   24  C   UNL     1      -5.231   9.533  67.794  1.00  0.00    -0.037 C  
ENDBRANCH  22  23
ENDBRANCH  21  22
ENDBRANCH  20  21
ENDBRANCH  19  20
ENDBRANCH  17  19
ENDBRANCH  13  14
ENDBRANCH  12  13
BRANCH  12  25
HETATM   25  O   UNL     1      -9.388  10.604  68.640  1.00  0.00    -0.161 OA 
BRANCH  25  26
HETATM   26  C   UNL     1     -10.197   9.538  68.384  1.00  0.00    -0.194 C  
HETATM   27  O   UNL     1     -10.450   9.075  67.278  1.00  0.00    -0.261 OA 
BRANCH  26  28
HETATM   28  C   UNL     1     -10.755   8.955  69.680  1.00  0.00    -0.217 C  
BRANCH  28  29
HETATM   29  C   UNL     1     -11.056  10.048  70.718  1.00  0.00    -0.407 C  
HETATM   30  C   UNL     1     -13.542   9.565  71.214  1.00  0.00    -0.298 C  
HETATM   31  C   UNL     1     -12.557  11.795  71.704  1.00  0.00    -0.249 C  
HETATM   32  C   UNL     1     -12.503  10.591  70.759  1.00  0.00    -0.472 C  
ENDBRANCH  28  29
BRANCH  28  33
HETATM   33  N   UNL     1      -9.831   7.934  70.171  1.00  0.00    -0.184 N  
HETATM   34  C   UNL     1     -10.125   6.600  70.148  1.00  0.00    -0.178 C  
HETATM   35  O   UNL     1     -11.180   6.114  69.770  1.00  0.00    -0.384 OA 
HETATM   36  H   UNL     1      -8.929   8.229  70.546  1.00  0.00     0.000 HD 
ENDBRANCH  28  33
ENDBRANCH  26  28
ENDBRANCH  25  26
ENDBRANCH  12  25
ENDBRANCH  11  12
ENDBRANCH  10  11
ENDBRANCH   9  10
ENDBRANCH   8   9
ENDBRANCH   7   8
ENDBRANCH   6   7
ENDBRANCH   5   6
ENDBRANCH   4   5
ENDBRANCH   3   4
ENDBRANCH   2   3
TORSDOF 22
ENDMDL
MODEL      237
REMARK 921   NORMALIZED FREE ENERGY PREDICTED BY IDOCK:   -3.84 KCAL/MOL
REMARK 922        TOTAL FREE ENERGY PREDICTED BY IDOCK:  -12.40 KCAL/MOL
REMARK 923 INTER-LIGAND FREE ENERGY PREDICTED BY IDOCK:   -9.16 KCAL/MOL
REMARK 924 INTRA-LIGAND FREE ENERGY PREDICTED BY IDOCK:   -3.24 KCAL/MOL
REMARK 927      BINDING AFFINITY PREDICTED BY RF-SCORE:    0.00 PKD
ROOT
HETATM    1  C   UNL     1     -14.292   8.636  72.276  1.00  0.00    -0.486 C  
HETATM    2  C   UNL     1     -13.091   9.552  72.098  1.00  0.00    -0.522 C  
ENDROOT
BRANCH   2   3
HETATM    3  C   UNL     1     -12.000   8.864  71.283  1.00  0.00    -0.365 C  
BRANCH   3   4
HETATM    4  C   UNL     1     -10.892   8.311  72.173  1.00  0.00    -0.390 C  
BRANCH   4   5
HETATM    5  C   UNL     1     -11.003   6.789  72.296  1.00  0.00    -0.276 C  
BRANCH   5   6
HETATM    6  C   UNL     1     -11.245   6.160  70.931  1.00  0.00    -0.365 C  
BRANCH   6   7
HETATM    7  C   UNL     1     -10.019   5.409  70.408  1.00  0.00    -0.291 C  
BRANCH   7   8
HETATM    8  C   UNL     1      -9.258   6.326  69.458  1.00  0.00    -0.142 C  
BRANCH   8   9
HETATM    9  C   UNL     1     -10.095   6.847  68.294  1.00  0.00    -0.182 C  
BRANCH   9  10
HETATM   10  C   UNL     1     -10.017   8.376  68.294  1.00  0.00    -0.214 C  
BRANCH  10  11
HETATM   11  C   UNL     1     -10.743   9.034  67.130  1.00  0.00    -0.206 C  
BRANCH  11  12
HETATM   12  C   UNL     1     -10.385  10.503  66.843  1.00  0.00    -0.239 C  
BRANCH  12  13
HETATM   13  C   UNL     1     -10.485  11.456  68.055  1.00  0.00    -0.215 C  
BRANCH  13  14
HETATM   14  C   UNL     1     -11.569  12.533  67.925  1.00  0.00    -0.347 C  
HETATM   15  O   UNL     1     -12.224  12.511  66.625  1.00  0.00    -0.552 OA 
HETATM   16  O   UNL     1     -12.055  14.400  65.315  1.00  0.00    -0.378 OA 
HETATM   17  C   UNL     1     -11.070  13.977  67.640  1.00  0.00    -0.298 C  
HETATM   18  C   UNL     1     -11.828  13.766  66.317  1.00  0.00    -0.398 C  
BRANCH  17  19
HETATM   19  C   UNL     1     -11.596  15.147  68.466  1.00  0.00    -0.354 C  
BRANCH  19  20
HETATM   20  C   UNL     1     -10.894  16.442  68.070  1.00  0.00    -0.342 C  
BRANCH  20  21
HETATM   21  C   UNL     1      -9.371  16.293  68.133  1.00  0.00    -0.210 C  
BRANCH  21  22
HETATM   22  C   UNL     1      -8.677  17.647  67.966  1.00  0.00    -0.253 C  
BRANCH  22  23
HETATM   23  C   UNL     1      -8.532  18.032  66.493  1.00  0.00    -0.285 C  
HETATM   24  C   UNL     1      -8.249  19.521  66.341  1.00  0.00    -0.347 C  
ENDBRANCH  22  23
ENDBRANCH  21  22
ENDBRANCH  20  21
ENDBRANCH  19  20
ENDBRANCH  17  19
ENDBRANCH  13  14
ENDBRANCH  12  13
BRANCH  12  25
HETATM   25  O   UNL     1      -9.040  10.611  66.322  1.00  0.00    -0.159 OA 
BRANCH  25  26
HETATM   26  C   UNL     1      -8.876  10.477  64.977  1.00  0.00    -0.191 C  
HETATM   27  O   UNL     1      -9.631  10.908  64.112  1.00  0.00    -0.233 OA 
BRANCH  26  28
HETATM   28  C   UNL     1      -7.590   9.720  64.658  1.00  0.00    -0.134 C  
BRANCH  28  29
HETATM   29  C   UNL     1      -6.813   9.349  65.931  1.00  0.00    -0.089 C  
HETATM   30  C   UNL     1      -6.181   6.901  65.412  1.00  0.00    -0.036 C  
HETATM   31  C   UNL     1      -6.209   7.738  67.753  1.00  0.00    -0.050 C  
HETATM   32  C   UNL     1      -6.868   7.870  66.377  1.00  0.00    -0.062 C  
ENDBRANCH  28  29
BRANCH  28  33
HETATM   33  N   UNL     1      -6.803  10.508  63.712  1.00  0.00    -0.348 N  
HETATM   34  C   UNL     1      -6.109   9.945  62.679  1.00  0.00    -0.111 C  
HETATM   35  O   UNL     1      -6.024   8.748  62.453  1.00  0.00    -0.090 OA 
HETATM   36  H   UNL     1      -6.770  11.522  63.828  1.00  0.00     0.000 HD 
ENDBRANCH  28  33
ENDBRANCH  26  28
ENDBRANCH  25  26
ENDBRANCH  12  25
ENDBRANCH  11  12
ENDBRANCH  10  11
ENDBRANCH   9  10
ENDBRANCH   8   9
ENDBRANCH   7   8
ENDBRANCH   6   7
ENDBRANCH   5   6
ENDBRANCH   4   5
ENDBRANCH   3   4
ENDBRANCH   2   3
TORSDOF 22
ENDMDL
MODEL      238
REMARK 921   NORMALIZED FREE ENERGY PREDICTED BY IDOCK:   -3.84 KCAL/MOL
REMARK 922        TOTAL FREE ENERGY PREDICTED BY IDOCK:  -12.40 KCAL/MOL
REMARK 923 INTER-LIGAND FREE ENERGY PREDICTED BY IDOCK:   -8.89 KCAL/MOL
REMARK 924 INTRA-LIGAND FREE ENERGY PREDICTED BY IDOCK:   -3.50 KCAL/MOL
REMARK 927      BINDING AFFINITY PREDICTED BY RF-SCORE:    0.00 PKD
ROOT
HETATM    1  C   UNL     1     -13.104   9.810  71.946  1.00  0.00    -0.544 C  
HETATM    2  C   UNL     1     -13.683   8.408  71.844  1.00  0.00    -0.433 C  
ENDROOT
BRANCH   2   3
HETATM    3  C   UNL     1     -12.673   7.448  71.221  1.00  0.00    -0.371 C  
BRANCH   3   4
HETATM    4  C   UNL     1     -12.203   6.395  72.221  1.00  0.00    -0.207 C  
BRANCH   4   5
HETATM    5  C   UNL     1     -10.675   6.369  72.302  1.00  0.00    -0.253 C  
BRANCH   5   6
HETATM    6  C   UNL     1     -10.065   6.360  70.907  1.00  0.00    -0.218 C  
BRANCH   6   7
HETATM    7  C   UNL     1      -8.850   7.283  70.795  1.00  0.00    -0.150 C  
BRANCH   7   8
HETATM    8  C   UNL     1      -9.214   8.637  71.393  1.00  0.00    -0.303 C  
BRANCH   8   9
HETATM    9  C   UNL     1      -9.737   9.644  70.373  1.00  0.00    -0.304 C  
BRANCH   9  10
HETATM   10  C   UNL     1      -8.704   9.767  69.248  1.00  0.00    -0.165 C  
BRANCH  10  11
HETATM   11  C   UNL     1      -8.305  11.199  68.927  1.00  0.00    -0.101 C  
BRANCH  11  12
HETATM   12  C   UNL     1      -9.230  11.968  67.966  1.00  0.00    -0.192 C  
BRANCH  12  13
HETATM   13  C   UNL     1      -9.856  11.124  66.834  1.00  0.00    -0.223 C  
BRANCH  13  14
HETATM   14  C   UNL     1      -8.916  10.855  65.652  1.00  0.00    -0.194 C  
HETATM   15  O   UNL     1      -9.303  11.589  64.456  1.00  0.00    -0.143 OA 
HETATM   16  O   UNL     1      -9.856  10.362  62.585  1.00  0.00    -0.249 OA 
HETATM   17  C   UNL     1      -9.136   9.517  64.892  1.00  0.00    -0.276 C  
HETATM   18  C   UNL     1      -9.506  10.463  63.736  1.00  0.00    -0.305 C  
BRANCH  17  19
HETATM   19  C   UNL     1      -7.951   8.608  64.584  1.00  0.00    -0.141 C  
BRANCH  19  20
HETATM   20  C   UNL     1      -8.254   7.171  64.999  1.00  0.00    -0.095 C  
BRANCH  20  21
HETATM   21  C   UNL     1      -9.145   7.126  66.244  1.00  0.00    -0.182 C  
BRANCH  21  22
HETATM   22  C   UNL     1      -8.534   6.234  67.327  1.00  0.00    -0.108 C  
BRANCH  22  23
HETATM   23  C   UNL     1      -7.051   5.964  67.071  1.00  0.00    -0.070 C  
HETATM   24  C   UNL     1      -6.738   4.478  67.169  1.00  0.00    -0.051 C  
ENDBRANCH  22  23
ENDBRANCH  21  22
ENDBRANCH  20  21
ENDBRANCH  19  20
ENDBRANCH  17  19
ENDBRANCH  13  14
ENDBRANCH  12  13
BRANCH  12  25
HETATM   25  O   UNL     1     -10.318  12.589  68.690  1.00  0.00    -0.225 OA 
BRANCH  25  26
HETATM   26  C   UNL     1     -10.367  13.950  68.702  1.00  0.00    -0.237 C  
HETATM   27  O   UNL     1      -9.408  14.705  68.820  1.00  0.00    -0.199 OA 
BRANCH  26  28
HETATM   28  C   UNL     1     -11.799  14.444  68.524  1.00  0.00    -0.334 C  
BRANCH  28  29
HETATM   29  C   UNL     1     -12.667  14.146  69.758  1.00  0.00     0.005 C  
HETATM   30  C   UNL     1     -11.854  15.987  71.373  1.00  0.00    -0.531 C  
HETATM   31  C   UNL     1     -12.977  13.943  72.236  1.00  0.00    -0.450 C  
HETATM   32  C   UNL     1     -12.060  14.489  71.137  1.00  0.00    -0.408 C  
ENDBRANCH  28  29
BRANCH  28  33
HETATM   33  N   UNL     1     -12.341  13.880  67.289  1.00  0.00    -0.495 N  
HETATM   34  C   UNL     1     -11.922  14.275  66.051  1.00  0.00    -0.400 C  
HETATM   35  O   UNL     1     -11.103  15.152  65.827  1.00  0.00    -0.342 OA 
HETATM   36  H   UNL     1     -13.063  13.161  67.355  1.00  0.00     0.000 HD 
ENDBRANCH  28  33
ENDBRANCH  26  28
ENDBRANCH  25  26
ENDBRANCH  12  25
ENDBRANCH  11  12
ENDBRANCH  10  11
ENDBRANCH   9  10
ENDBRANCH   8   9
ENDBRANCH   7   8
ENDBRANCH   6   7
ENDBRANCH   5   6
ENDBRANCH   4   5
ENDBRANCH   3   4
ENDBRANCH   2   3
TORSDOF 22
ENDMDL
MODEL      239
REMARK 921   NORMALIZED FREE ENERGY PREDICTED BY IDOCK:   -3.84 KCAL/MOL
REMARK 922        TOTAL FREE ENERGY PREDICTED BY IDOCK:  -12.40 KCAL/MOL
REMARK 923 INTER-LIGAND FREE ENERGY PREDICTED BY IDOCK:   -9.69 KCAL/MOL
REMARK 924 INTRA-LIGAND FREE ENERGY PREDICTED BY IDOCK:   -2.71 KCAL/MOL
REMARK 927      BINDING AFFINITY PREDICTED BY RF-SCORE:    0.00 PKD
ROOT
HETATM    1  C   UNL     1     -10.561  19.612  66.337  1.00  0.00    -0.592 C  
HETATM    2  C   UNL     1      -9.863  20.040  67.618  1.00  0.00    -0.548 C  
ENDROOT
BRANCH   2   3
HETATM    3  C   UNL     1     -10.004  18.970  68.696  1.00  0.00    -0.482 C  
BRANCH   3   4
HETATM    4  C   UNL     1     -10.396  17.619  68.106  1.00  0.00    -0.386 C  
BRANCH   4   5
HETATM    5  C   UNL     1     -10.288  16.514  69.159  1.00  0.00    -0.316 C  
BRANCH   5   6
HETATM    6  C   UNL     1     -11.651  15.886  69.416  1.00  0.00    -0.352 C  
BRANCH   6   7
HETATM    7  C   UNL     1     -11.652  14.977  70.647  1.00  0.00    -0.358 C  
BRANCH   7   8
HETATM    8  C   UNL     1     -12.525  13.762  70.351  1.00  0.00    -0.384 C  
BRANCH   8   9
HETATM    9  C   UNL     1     -12.323  12.602  71.321  1.00  0.00    -0.157 C  
BRANCH   9  10
HETATM   10  C   UNL     1     -12.973  11.354  70.717  1.00  0.00    -0.135 C  
BRANCH  10  11
HETATM   11  C   UNL     1     -12.012  10.193  70.509  1.00  0.00    -0.400 C  
BRANCH  11  12
HETATM   12  C   UNL     1     -10.793  10.468  69.610  1.00  0.00    -0.274 C  
BRANCH  12  13
HETATM   13  C   UNL     1      -9.488   9.756  70.032  1.00  0.00    -0.278 C  
BRANCH  13  14
HETATM   14  C   UNL     1      -9.659   8.744  71.170  1.00  0.00    -0.242 C  
HETATM   15  O   UNL     1      -8.824   9.054  72.322  1.00  0.00    -0.363 OA 
HETATM   16  O   UNL     1      -7.247   7.493  72.946  1.00  0.00    -0.068 OA 
HETATM   17  C   UNL     1      -8.912   7.391  71.004  1.00  0.00    -0.151 C  
HETATM   18  C   UNL     1      -8.139   7.892  72.237  1.00  0.00    -0.127 C  
BRANCH  17  19
HETATM   19  C   UNL     1      -9.649   6.076  71.236  1.00  0.00    -0.189 C  
BRANCH  19  20
HETATM   20  C   UNL     1     -10.766   5.898  70.212  1.00  0.00    -0.383 C  
BRANCH  20  21
HETATM   21  C   UNL     1     -10.210   5.816  68.787  1.00  0.00    -0.255 C  
BRANCH  21  22
HETATM   22  C   UNL     1      -9.613   4.436  68.506  1.00  0.00    -0.208 C  
BRANCH  22  23
HETATM   23  C   UNL     1      -8.373   4.524  67.616  1.00  0.00    -0.099 C  
HETATM   24  C   UNL     1      -7.340   5.474  68.207  1.00  0.00    -0.073 C  
ENDBRANCH  22  23
ENDBRANCH  21  22
ENDBRANCH  20  21
ENDBRANCH  19  20
ENDBRANCH  17  19
ENDBRANCH  13  14
ENDBRANCH  12  13
BRANCH  12  25
HETATM   25  O   UNL     1     -11.068  10.086  68.242  1.00  0.00    -0.247 OA 
BRANCH  25  26
HETATM   26  C   UNL     1     -11.332  11.084  67.354  1.00  0.00    -0.230 C  
HETATM   27  O   UNL     1     -12.134  11.997  67.513  1.00  0.00    -0.555 OA 
BRANCH  26  28
HETATM   28  C   UNL     1     -10.469  10.942  66.103  1.00  0.00    -0.229 C  
BRANCH  28  29
HETATM   29  C   UNL     1      -9.051  10.453  66.437  1.00  0.00    -0.177 C  
HETATM   30  C   UNL     1      -8.557   8.973  64.381  1.00  0.00    -0.174 C  
HETATM   31  C   UNL     1      -7.295   8.666  66.501  1.00  0.00    -0.081 C  
HETATM   32  C   UNL     1      -8.651   9.057  65.906  1.00  0.00    -0.172 C  
ENDBRANCH  28  29
BRANCH  28  33
HETATM   33  N   UNL     1     -10.484  12.210  65.375  1.00  0.00    -0.261 N  
HETATM   34  C   UNL     1     -10.648  12.282  64.021  1.00  0.00    -0.400 C  
HETATM   35  O   UNL     1     -10.754  11.326  63.269  1.00  0.00    -0.344 OA 
HETATM   36  H   UNL     1     -10.366  13.077  65.900  1.00  0.00     0.000 HD 
ENDBRANCH  28  33
ENDBRANCH  26  28
ENDBRANCH  25  26
ENDBRANCH  12  25
ENDBRANCH  11  12
ENDBRANCH  10  11
ENDBRANCH   9  10
ENDBRANCH   8   9
ENDBRANCH   7   8
ENDBRANCH   6   7
ENDBRANCH   5   6
ENDBRANCH   4   5
ENDBRANCH   3   4
ENDBRANCH   2   3
TORSDOF 22
ENDMDL
MODEL      240
REMARK 921   NORMALIZED FREE ENERGY PREDICTED BY IDOCK:   -3.84 KCAL/MOL
REMARK 922        TOTAL FREE ENERGY PREDICTED BY IDOCK:  -12.39 KCAL/MOL
REMARK 923 INTER-LIGAND FREE ENERGY PREDICTED BY IDOCK:   -9.75 KCAL/MOL
REMARK 924 INTRA-LIGAND FREE ENERGY PREDICTED BY IDOCK:   -2.64 KCAL/MOL
REMARK 927      BINDING AFFINITY PREDICTED BY RF-SCORE:    0.00 PKD
ROOT
HETATM    1  C   UNL     1     -10.286   5.363  71.939  1.00  0.00    -0.270 C  
HETATM    2  C   UNL     1     -11.056   6.662  72.112  1.00  0.00    -0.288 C  
ENDROOT
BRANCH   2   3
HETATM    3  C   UNL     1     -12.153   6.787  71.059  1.00  0.00    -0.426 C  
BRANCH   3   4
HETATM    4  C   UNL     1     -13.544   6.775  71.686  1.00  0.00    -0.178 C  
BRANCH   4   5
HETATM    5  C   UNL     1     -14.294   8.071  71.369  1.00  0.00    -0.490 C  
BRANCH   5   6
HETATM    6  C   UNL     1     -14.120   9.078  72.497  1.00  0.00    -0.428 C  
BRANCH   6   7
HETATM    7  C   UNL     1     -13.142  10.198  72.134  1.00  0.00    -0.463 C  
BRANCH   7   8
HETATM    8  C   UNL     1     -12.976  10.223  70.619  1.00  0.00    -0.338 C  
BRANCH   8   9
HETATM    9  C   UNL     1     -11.766  11.020  70.141  1.00  0.00    -0.442 C  
BRANCH   9  10
HETATM   10  C   UNL     1     -12.247  12.053  69.118  1.00  0.00    -0.106 C  
BRANCH  10  11
HETATM   11  C   UNL     1     -11.431  13.336  69.102  1.00  0.00    -0.357 C  
BRANCH  11  12
HETATM   12  C   UNL     1     -10.256  13.387  68.107  1.00  0.00    -0.246 C  
BRANCH  12  13
HETATM   13  C   UNL     1     -10.447  12.559  66.817  1.00  0.00    -0.243 C  
BRANCH  13  14
HETATM   14  C   UNL     1      -9.669  11.238  66.792  1.00  0.00    -0.193 C  
HETATM   15  O   UNL     1      -8.764  11.147  65.655  1.00  0.00    -0.185 OA 
HETATM   16  O   UNL     1      -9.116   9.438  64.149  1.00  0.00    -0.206 OA 
HETATM   17  C   UNL     1     -10.442   9.997  66.267  1.00  0.00    -0.172 C  
HETATM   18  C   UNL     1      -9.387  10.060  65.147  1.00  0.00    -0.245 C  
BRANCH  17  19
HETATM   19  C   UNL     1     -10.420   8.691  67.054  1.00  0.00    -0.354 C  
BRANCH  19  20
HETATM   20  C   UNL     1      -9.524   8.820  68.283  1.00  0.00    -0.150 C  
BRANCH  20  21
HETATM   21  C   UNL     1      -9.140   7.448  68.842  1.00  0.00    -0.136 C  
BRANCH  21  22
HETATM   22  C   UNL     1      -8.120   7.579  69.975  1.00  0.00    -0.127 C  
BRANCH  22  23
HETATM   23  C   UNL     1      -8.307   8.877  70.760  1.00  0.00    -0.205 C  
HETATM   24  C   UNL     1      -7.205   9.878  70.438  1.00  0.00    -0.143 C  
ENDBRANCH  22  23
ENDBRANCH  21  22
ENDBRANCH  20  21
ENDBRANCH  19  20
ENDBRANCH  17  19
ENDBRANCH  13  14
ENDBRANCH  12  13
BRANCH  12  25
HETATM   25  O   UNL     1      -9.983  14.750  67.707  1.00  0.00    -0.221 OA 
BRANCH  25  26
HETATM   26  C   UNL     1      -8.850  14.975  66.984  1.00  0.00    -0.234 C  
HETATM   27  O   UNL     1      -7.791  14.367  67.095  1.00  0.00    -0.186 OA 
BRANCH  26  28
HETATM   28  C   UNL     1      -9.066  16.096  65.971  1.00  0.00    -0.318 C  
BRANCH  28  29
HETATM   29  C   UNL     1      -8.385  17.403  66.407  1.00  0.00    -0.302 C  
HETATM   30  C   UNL     1     -10.016  18.206  68.239  1.00  0.00    -0.380 C  
HETATM   31  C   UNL     1      -8.477  19.804  67.117  1.00  0.00    -0.364 C  
HETATM   32  C   UNL     1      -9.307  18.531  66.923  1.00  0.00    -0.294 C  
ENDBRANCH  28  29
BRANCH  28  33
HETATM   33  N   UNL     1     -10.501  16.246  65.734  1.00  0.00    -0.363 N  
HETATM   34  C   UNL     1     -11.214  15.385  64.949  1.00  0.00    -0.403 C  
HETATM   35  O   UNL     1     -10.748  14.440  64.331  1.00  0.00    -0.296 OA 
HETATM   36  H   UNL     1     -10.990  17.026  66.173  1.00  0.00     0.000 HD 
ENDBRANCH  28  33
ENDBRANCH  26  28
ENDBRANCH  25  26
ENDBRANCH  12  25
ENDBRANCH  11  12
ENDBRANCH  10  11
ENDBRANCH   9  10
ENDBRANCH   8   9
ENDBRANCH   7   8
ENDBRANCH   6   7
ENDBRANCH   5   6
ENDBRANCH   4   5
ENDBRANCH   3   4
ENDBRANCH   2   3
TORSDOF 22
ENDMDL
MODEL      241
REMARK 921   NORMALIZED FREE ENERGY PREDICTED BY IDOCK:   -3.83 KCAL/MOL
REMARK 922        TOTAL FREE ENERGY PREDICTED BY IDOCK:  -12.37 KCAL/MOL
REMARK 923 INTER-LIGAND FREE ENERGY PREDICTED BY IDOCK:   -8.27 KCAL/MOL
REMARK 924 INTRA-LIGAND FREE ENERGY PREDICTED BY IDOCK:   -4.11 KCAL/MOL
REMARK 927      BINDING AFFINITY PREDICTED BY RF-SCORE:    0.00 PKD
ROOT
HETATM    1  C   UNL     1     -10.873  14.493  66.486  1.00  0.00    -0.314 C  
HETATM    2  C   UNL     1     -12.286  13.980  66.259  1.00  0.00    -0.493 C  
ENDROOT
BRANCH   2   3
HETATM    3  C   UNL     1     -12.308  12.915  65.167  1.00  0.00    -0.547 C  
BRANCH   3   4
HETATM    4  C   UNL     1     -10.975  12.833  64.429  1.00  0.00    -0.393 C  
BRANCH   4   5
HETATM    5  C   UNL     1     -10.939  11.612  63.508  1.00  0.00    -0.485 C  
BRANCH   5   6
HETATM    6  C   UNL     1      -9.525  11.053  63.417  1.00  0.00    -0.331 C  
BRANCH   6   7
HETATM    7  C   UNL     1      -8.946  10.705  64.790  1.00  0.00    -0.218 C  
BRANCH   7   8
HETATM    8  C   UNL     1      -9.744   9.543  65.371  1.00  0.00    -0.314 C  
BRANCH   8   9
HETATM    9  C   UNL     1     -10.288   9.804  66.772  1.00  0.00    -0.289 C  
BRANCH   9  10
HETATM   10  C   UNL     1     -10.656   8.457  67.402  1.00  0.00    -0.313 C  
BRANCH  10  11
HETATM   11  C   UNL     1      -9.523   7.443  67.404  1.00  0.00    -0.170 C  
BRANCH  11  12
HETATM   12  C   UNL     1      -9.847   6.056  67.987  1.00  0.00    -0.124 C  
BRANCH  12  13
HETATM   13  C   UNL     1     -10.789   6.058  69.211  1.00  0.00    -0.428 C  
BRANCH  13  14
HETATM   14  C   UNL     1     -10.104   6.410  70.537  1.00  0.00    -0.186 C  
HETATM   15  O   UNL     1     -10.881   5.992  71.694  1.00  0.00    -0.242 OA 
HETATM   16  O   UNL     1     -11.591   7.631  73.150  1.00  0.00    -0.251 OA 
HETATM   17  C   UNL     1     -10.226   7.889  71.000  1.00  0.00    -0.217 C  
HETATM   18  C   UNL     1     -11.019   7.254  72.156  1.00  0.00    -0.239 C  
BRANCH  17  19
HETATM   19  C   UNL     1      -8.987   8.654  71.455  1.00  0.00    -0.302 C  
BRANCH  19  20
HETATM   20  C   UNL     1      -8.534   9.632  70.375  1.00  0.00    -0.187 C  
BRANCH  20  21
HETATM   21  C   UNL     1      -7.275   9.132  69.661  1.00  0.00    -0.061 C  
BRANCH  21  22
HETATM   22  C   UNL     1      -6.935  10.015  68.458  1.00  0.00    -0.066 C  
BRANCH  22  23
HETATM   23  C   UNL     1      -7.560  11.405  68.579  1.00  0.00    -0.129 C  
HETATM   24  C   UNL     1      -6.966  12.364  67.557  1.00  0.00    -0.142 C  
ENDBRANCH  22  23
ENDBRANCH  21  22
ENDBRANCH  20  21
ENDBRANCH  19  20
ENDBRANCH  17  19
ENDBRANCH  13  14
ENDBRANCH  12  13
BRANCH  12  25
HETATM   25  O   UNL     1     -10.449   5.205  66.983  1.00  0.00    -0.231 OA 
BRANCH  25  26
HETATM   26  C   UNL     1      -9.778   4.071  66.638  1.00  0.00    -0.192 C  
HETATM   27  O   UNL     1      -9.447   3.170  67.401  1.00  0.00    -0.203 OA 
BRANCH  26  28
HETATM   28  C   UNL     1      -9.496   4.040  65.139  1.00  0.00    -0.172 C  
BRANCH  28  29
HETATM   29  C   UNL     1      -8.660   5.249  64.688  1.00  0.00    -0.125 C  
HETATM   30  C   UNL     1      -6.271   4.352  65.072  1.00  0.00    -0.034 C  
HETATM   31  C   UNL     1      -6.706   6.796  64.946  1.00  0.00    -0.049 C  
HETATM   32  C   UNL     1      -7.292   5.449  65.379  1.00  0.00    -0.069 C  
ENDBRANCH  28  29
BRANCH  28  33
HETATM   33  N   UNL     1     -10.765   3.919  64.424  1.00  0.00    -0.527 N  
HETATM   34  C   UNL     1     -10.926   3.108  63.338  1.00  0.00    -0.131 C  
HETATM   35  O   UNL     1     -10.047   2.440  62.816  1.00  0.00    -0.095 OA 
HETATM   36  H   UNL     1     -11.565   4.463  64.751  1.00  0.00     0.000 HD 
ENDBRANCH  28  33
ENDBRANCH  26  28
ENDBRANCH  25  26
ENDBRANCH  12  25
ENDBRANCH  11  12
ENDBRANCH  10  11
ENDBRANCH   9  10
ENDBRANCH   8   9
ENDBRANCH   7   8
ENDBRANCH   6   7
ENDBRANCH   5   6
ENDBRANCH   4   5
ENDBRANCH   3   4
ENDBRANCH   2   3
TORSDOF 22
ENDMDL
MODEL      242
REMARK 921   NORMALIZED FREE ENERGY PREDICTED BY IDOCK:   -3.83 KCAL/MOL
REMARK 922        TOTAL FREE ENERGY PREDICTED BY IDOCK:  -12.37 KCAL/MOL
REMARK 923 INTER-LIGAND FREE ENERGY PREDICTED BY IDOCK:   -8.77 KCAL/MOL
REMARK 924 INTRA-LIGAND FREE ENERGY PREDICTED BY IDOCK:   -3.60 KCAL/MOL
REMARK 927      BINDING AFFINITY PREDICTED BY RF-SCORE:    0.00 PKD
ROOT
HETATM    1  C   UNL     1     -11.428  14.681  65.218  1.00  0.00    -0.361 C  
HETATM    2  C   UNL     1     -12.588  13.728  65.457  1.00  0.00    -0.551 C  
ENDROOT
BRANCH   2   3
HETATM    3  C   UNL     1     -12.563  12.579  64.453  1.00  0.00    -0.497 C  
BRANCH   3   4
HETATM    4  C   UNL     1     -11.248  12.532  63.680  1.00  0.00    -0.545 C  
BRANCH   4   5
HETATM    5  C   UNL     1     -10.667  11.117  63.683  1.00  0.00    -0.381 C  
BRANCH   5   6
HETATM    6  C   UNL     1      -9.351  11.082  64.450  1.00  0.00    -0.223 C  
BRANCH   6   7
HETATM    7  C   UNL     1      -9.537  11.374  65.941  1.00  0.00    -0.254 C  
BRANCH   7   8
HETATM    8  C   UNL     1     -10.480  10.328  66.525  1.00  0.00    -0.241 C  
BRANCH   8   9
HETATM    9  C   UNL     1     -11.191  10.777  67.798  1.00  0.00    -0.385 C  
BRANCH   9  10
HETATM   10  C   UNL     1     -10.934   9.729  68.885  1.00  0.00    -0.183 C  
BRANCH  10  11
HETATM   11  C   UNL     1     -10.180   8.501  68.398  1.00  0.00    -0.236 C  
BRANCH  11  12
HETATM   12  C   UNL     1     -10.061   7.332  69.392  1.00  0.00    -0.183 C  
BRANCH  12  13
HETATM   13  C   UNL     1     -11.363   6.540  69.639  1.00  0.00    -0.443 C  
BRANCH  13  14
HETATM   14  C   UNL     1     -11.884   6.611  71.080  1.00  0.00    -0.372 C  
HETATM   15  O   UNL     1     -13.156   7.313  71.178  1.00  0.00    -0.341 OA 
HETATM   16  O   UNL     1     -13.220   9.225  72.464  1.00  0.00    -0.437 OA 
HETATM   17  C   UNL     1     -11.230   7.685  71.993  1.00  0.00    -0.317 C  
HETATM   18  C   UNL     1     -12.651   8.276  71.981  1.00  0.00    -0.349 C  
BRANCH  17  19
HETATM   19  C   UNL     1     -10.735   7.308  73.386  1.00  0.00    -0.415 C  
BRANCH  19  20
HETATM   20  C   UNL     1     -10.026   5.958  73.356  1.00  0.00    -0.182 C  
BRANCH  20  21
HETATM   21  C   UNL     1     -10.984   4.815  73.704  1.00  0.00    -0.391 C  
BRANCH  21  22
HETATM   22  C   UNL     1     -10.588   3.525  72.983  1.00  0.00    -0.251 C  
BRANCH  22  23
HETATM   23  C   UNL     1      -9.318   3.704  72.153  1.00  0.00    -0.184 C  
HETATM   24  C   UNL     1      -9.553   3.318  70.699  1.00  0.00    -0.223 C  
ENDBRANCH  22  23
ENDBRANCH  21  22
ENDBRANCH  20  21
ENDBRANCH  19  20
ENDBRANCH  17  19
ENDBRANCH  13  14
ENDBRANCH  12  13
BRANCH  12  25
HETATM   25  O   UNL     1      -9.059   6.385  68.953  1.00  0.00    -0.130 OA 
BRANCH  25  26
HETATM   26  C   UNL     1      -7.817   6.487  69.502  1.00  0.00    -0.105 C  
HETATM   27  O   UNL     1      -7.560   6.533  70.701  1.00  0.00    -0.097 OA 
BRANCH  26  28
HETATM   28  C   UNL     1      -6.743   6.516  68.418  1.00  0.00    -0.068 C  
BRANCH  28  29
HETATM   29  C   UNL     1      -7.351   6.471  67.007  1.00  0.00    -0.079 C  
HETATM   30  C   UNL     1      -5.945   8.282  65.822  1.00  0.00    -0.041 C  
HETATM   31  C   UNL     1      -8.159   7.599  64.921  1.00  0.00    -0.128 C  
HETATM   32  C   UNL     1      -7.343   7.791  66.202  1.00  0.00    -0.078 C  
ENDBRANCH  28  29
BRANCH  28  33
HETATM   33  N   UNL     1      -5.792   5.434  68.670  1.00  0.00    -0.015 N  
HETATM   34  C   UNL     1      -6.097   4.119  68.461  1.00  0.00    -0.031 C  
HETATM   35  O   UNL     1      -7.182   3.693  68.094  1.00  0.00    -0.051 OA 
HETATM   36  H   UNL     1      -4.862   5.671  69.016  1.00  0.00     0.000 HD 
ENDBRANCH  28  33
ENDBRANCH  26  28
ENDBRANCH  25  26
ENDBRANCH  12  25
ENDBRANCH  11  12
ENDBRANCH  10  11
ENDBRANCH   9  10
ENDBRANCH   8   9
ENDBRANCH   7   8
ENDBRANCH   6   7
ENDBRANCH   5   6
ENDBRANCH   4   5
ENDBRANCH   3   4
ENDBRANCH   2   3
TORSDOF 22
ENDMDL
MODEL      243
REMARK 921   NORMALIZED FREE ENERGY PREDICTED BY IDOCK:   -3.83 KCAL/MOL
REMARK 922        TOTAL FREE ENERGY PREDICTED BY IDOCK:  -12.37 KCAL/MOL
REMARK 923 INTER-LIGAND FREE ENERGY PREDICTED BY IDOCK:   -9.99 KCAL/MOL
REMARK 924 INTRA-LIGAND FREE ENERGY PREDICTED BY IDOCK:   -2.38 KCAL/MOL
REMARK 927      BINDING AFFINITY PREDICTED BY RF-SCORE:    0.00 PKD
ROOT
HETATM    1  C   UNL     1      -9.087   5.496  68.177  1.00  0.00    -0.111 C  
HETATM    2  C   UNL     1      -9.538   6.947  68.220  1.00  0.00    -0.128 C  
ENDROOT
BRANCH   2   3
HETATM    3  C   UNL     1      -8.958   7.731  67.046  1.00  0.00    -0.145 C  
BRANCH   3   4
HETATM    4  C   UNL     1      -7.692   8.485  67.440  1.00  0.00    -0.098 C  
BRANCH   4   5
HETATM    5  C   UNL     1      -6.995   9.059  66.204  1.00  0.00    -0.085 C  
BRANCH   5   6
HETATM    6  C   UNL     1      -7.727   8.641  64.936  1.00  0.00    -0.106 C  
BRANCH   6   7
HETATM    7  C   UNL     1      -7.993   9.821  64.000  1.00  0.00    -0.147 C  
BRANCH   7   8
HETATM    8  C   UNL     1      -9.159  10.629  64.559  1.00  0.00    -0.243 C  
BRANCH   8   9
HETATM    9  C   UNL     1     -10.231  10.966  63.528  1.00  0.00    -0.379 C  
BRANCH   9  10
HETATM   10  C   UNL     1     -10.343  12.491  63.433  1.00  0.00    -0.194 C  
BRANCH  10  11
HETATM   11  C   UNL     1     -11.756  13.021  63.614  1.00  0.00    -0.550 C  
BRANCH  11  12
HETATM   12  C   UNL     1     -12.036  13.791  64.918  1.00  0.00    -0.403 C  
BRANCH  12  13
HETATM   13  C   UNL     1     -12.347  12.911  66.150  1.00  0.00    -0.266 C  
BRANCH  13  14
HETATM   14  C   UNL     1     -11.433  13.165  67.355  1.00  0.00    -0.332 C  
HETATM   15  O   UNL     1     -10.177  12.433  67.266  1.00  0.00    -0.214 OA 
HETATM   16  O   UNL     1      -9.720  10.896  68.921  1.00  0.00    -0.191 OA 
HETATM   17  C   UNL     1     -11.783  12.390  68.656  1.00  0.00    -0.372 C  
HETATM   18  C   UNL     1     -10.417  11.730  68.394  1.00  0.00    -0.215 C  
BRANCH  17  19
HETATM   19  C   UNL     1     -11.861  13.126  69.989  1.00  0.00    -0.360 C  
BRANCH  19  20
HETATM   20  C   UNL     1     -13.087  12.678  70.779  1.00  0.00     0.162 C  
BRANCH  20  21
HETATM   21  C   UNL     1     -12.773  11.468  71.662  1.00  0.00    -0.396 C  
BRANCH  21  22
HETATM   22  C   UNL     1     -13.323  10.179  71.048  1.00  0.00    -0.333 C  
BRANCH  22  23
HETATM   23  C   UNL     1     -13.159   8.986  71.990  1.00  0.00    -0.474 C  
HETATM   24  C   UNL     1     -13.214   7.671  71.224  1.00  0.00    -0.276 C  
ENDBRANCH  22  23
ENDBRANCH  21  22
ENDBRANCH  20  21
ENDBRANCH  19  20
ENDBRANCH  17  19
ENDBRANCH  13  14
ENDBRANCH  12  13
BRANCH  12  25
HETATM   25  O   UNL     1     -10.915  14.636  65.266  1.00  0.00    -0.325 OA 
BRANCH  25  26
HETATM   26  C   UNL     1     -10.945  15.927  64.832  1.00  0.00    -0.411 C  
HETATM   27  O   UNL     1     -11.665  16.372  63.946  1.00  0.00    -1.085 OA 
BRANCH  26  28
HETATM   28  C   UNL     1      -9.959  16.787  65.617  1.00  0.00    -0.134 C  
BRANCH  28  29
HETATM   29  C   UNL     1      -9.373  16.034  66.822  1.00  0.00    -0.260 C  
HETATM   30  C   UNL     1     -11.212  16.444  68.585  1.00  0.00    -0.332 C  
HETATM   31  C   UNL     1      -8.904  15.827  69.274  1.00  0.00    -0.262 C  
HETATM   32  C   UNL     1      -9.731  16.575  68.225  1.00  0.00    -0.231 C  
ENDBRANCH  28  29
BRANCH  28  33
HETATM   33  N   UNL     1     -10.619  18.039  65.986  1.00  0.00    -0.339 N  
HETATM   34  C   UNL     1      -9.933  19.202  66.193  1.00  0.00    -0.381 C  
HETATM   35  O   UNL     1      -8.719  19.326  66.142  1.00  0.00    -0.370 OA 
HETATM   36  H   UNL     1     -11.634  18.044  66.094  1.00  0.00     0.000 HD 
ENDBRANCH  28  33
ENDBRANCH  26  28
ENDBRANCH  25  26
ENDBRANCH  12  25
ENDBRANCH  11  12
ENDBRANCH  10  11
ENDBRANCH   9  10
ENDBRANCH   8   9
ENDBRANCH   7   8
ENDBRANCH   6   7
ENDBRANCH   5   6
ENDBRANCH   4   5
ENDBRANCH   3   4
ENDBRANCH   2   3
TORSDOF 22
ENDMDL
MODEL      244
REMARK 921   NORMALIZED FREE ENERGY PREDICTED BY IDOCK:   -3.83 KCAL/MOL
REMARK 922        TOTAL FREE ENERGY PREDICTED BY IDOCK:  -12.37 KCAL/MOL
REMARK 923 INTER-LIGAND FREE ENERGY PREDICTED BY IDOCK:   -9.35 KCAL/MOL
REMARK 924 INTRA-LIGAND FREE ENERGY PREDICTED BY IDOCK:   -3.01 KCAL/MOL
REMARK 927      BINDING AFFINITY PREDICTED BY RF-SCORE:    0.00 PKD
ROOT
HETATM    1  C   UNL     1      -8.817   3.319  69.201  1.00  0.00    -0.160 C  
HETATM    2  C   UNL     1      -9.410   2.979  67.844  1.00  0.00    -0.255 C  
ENDROOT
BRANCH   2   3
HETATM    3  C   UNL     1      -8.375   2.296  66.955  1.00  0.00    -0.091 C  
BRANCH   3   4
HETATM    4  C   UNL     1      -8.526   2.705  65.493  1.00  0.00    -0.102 C  
BRANCH   4   5
HETATM    5  C   UNL     1      -9.363   3.980  65.370  1.00  0.00    -0.162 C  
BRANCH   5   6
HETATM    6  C   UNL     1      -8.487   5.156  64.960  1.00  0.00    -0.148 C  
BRANCH   6   7
HETATM    7  C   UNL     1      -7.991   5.961  66.164  1.00  0.00    -0.106 C  
BRANCH   7   8
HETATM    8  C   UNL     1      -7.186   7.150  65.652  1.00  0.00    -0.070 C  
BRANCH   8   9
HETATM    9  C   UNL     1      -7.919   7.996  64.617  1.00  0.00    -0.151 C  
BRANCH   9  10
HETATM   10  C   UNL     1      -7.716   9.472  64.974  1.00  0.00    -0.114 C  
BRANCH  10  11
HETATM   11  C   UNL     1      -8.252   9.858  66.344  1.00  0.00    -0.117 C  
BRANCH  11  12
HETATM   12  C   UNL     1      -9.411  10.871  66.364  1.00  0.00    -0.176 C  
BRANCH  12  13
HETATM   13  C   UNL     1     -10.100  11.113  65.003  1.00  0.00    -0.338 C  
BRANCH  13  14
HETATM   14  C   UNL     1     -11.487  11.761  65.102  1.00  0.00    -0.183 C  
HETATM   15  O   UNL     1     -12.062  12.049  63.795  1.00  0.00    -0.465 OA 
HETATM   16  O   UNL     1     -12.526  14.250  63.297  1.00  0.00    -0.705 OA 
HETATM   17  C   UNL     1     -11.512  13.278  65.438  1.00  0.00    -0.328 C  
HETATM   18  C   UNL     1     -12.118  13.379  64.026  1.00  0.00    -0.449 C  
BRANCH  17  19
HETATM   19  C   UNL     1     -12.430  13.805  66.536  1.00  0.00    -0.356 C  
BRANCH  19  20
HETATM   20  C   UNL     1     -11.928  13.369  67.909  1.00  0.00    -0.360 C  
BRANCH  20  21
HETATM   21  C   UNL     1     -10.734  14.214  68.363  1.00  0.00    -0.264 C  
BRANCH  21  22
HETATM   22  C   UNL     1     -10.968  14.794  69.760  1.00  0.00    -0.261 C  
BRANCH  22  23
HETATM   23  C   UNL     1     -12.339  15.460  69.876  1.00  0.00    -0.324 C  
HETATM   24  C   UNL     1     -12.888  15.342  71.292  1.00  0.00    -0.519 C  
ENDBRANCH  22  23
ENDBRANCH  21  22
ENDBRANCH  20  21
ENDBRANCH  19  20
ENDBRANCH  17  19
ENDBRANCH  13  14
ENDBRANCH  12  13
BRANCH  12  25
HETATM   25  O   UNL     1     -10.436  10.459  67.297  1.00  0.00    -0.221 OA 
BRANCH  25  26
HETATM   26  C   UNL     1     -10.505   9.134  67.607  1.00  0.00    -0.261 C  
HETATM   27  O   UNL     1     -10.555   8.208  66.805  1.00  0.00    -0.313 OA 
BRANCH  26  28
HETATM   28  C   UNL     1     -10.492   8.928  69.119  1.00  0.00    -0.223 C  
BRANCH  28  29
HETATM   29  C   UNL     1     -10.910  10.199  69.875  1.00  0.00    -0.347 C  
HETATM   30  C   UNL     1     -12.253   9.178  71.827  1.00  0.00    -0.442 C  
HETATM   31  C   UNL     1     -12.586  11.549  71.158  1.00  0.00    -0.463 C  
HETATM   32  C   UNL     1     -12.250  10.146  70.643  1.00  0.00    -0.394 C  
ENDBRANCH  28  29
BRANCH  28  33
HETATM   33  N   UNL     1      -9.176   8.429  69.514  1.00  0.00    -0.153 N  
HETATM   34  C   UNL     1      -9.006   7.273  70.221  1.00  0.00    -0.151 C  
HETATM   35  O   UNL     1      -9.905   6.559  70.638  1.00  0.00    -0.182 OA 
HETATM   36  H   UNL     1      -8.350   8.967  69.251  1.00  0.00     0.000 HD 
ENDBRANCH  28  33
ENDBRANCH  26  28
ENDBRANCH  25  26
ENDBRANCH  12  25
ENDBRANCH  11  12
ENDBRANCH  10  11
ENDBRANCH   9  10
ENDBRANCH   8   9
ENDBRANCH   7   8
ENDBRANCH   6   7
ENDBRANCH   5   6
ENDBRANCH   4   5
ENDBRANCH   3   4
ENDBRANCH   2   3
TORSDOF 22
ENDMDL
MODEL      245
REMARK 921   NORMALIZED FREE ENERGY PREDICTED BY IDOCK:   -3.82 KCAL/MOL
REMARK 922        TOTAL FREE ENERGY PREDICTED BY IDOCK:  -12.35 KCAL/MOL
REMARK 923 INTER-LIGAND FREE ENERGY PREDICTED BY IDOCK:   -9.52 KCAL/MOL
REMARK 924 INTRA-LIGAND FREE ENERGY PREDICTED BY IDOCK:   -2.82 KCAL/MOL
REMARK 927      BINDING AFFINITY PREDICTED BY RF-SCORE:    0.00 PKD
ROOT
HETATM    1  C   UNL     1      -8.970   5.600  66.501  1.00  0.00    -0.126 C  
HETATM    2  C   UNL     1      -8.796   7.091  66.743  1.00  0.00    -0.130 C  
ENDROOT
BRANCH   2   3
HETATM    3  C   UNL     1     -10.147   7.767  66.959  1.00  0.00    -0.343 C  
BRANCH   3   4
HETATM    4  C   UNL     1     -10.352   8.170  68.416  1.00  0.00    -0.236 C  
BRANCH   4   5
HETATM    5  C   UNL     1      -9.009   8.288  69.141  1.00  0.00    -0.147 C  
BRANCH   5   6
HETATM    6  C   UNL     1      -8.967   9.554  69.986  1.00  0.00    -0.249 C  
BRANCH   6   7
HETATM    7  C   UNL     1      -7.697  10.372  69.747  1.00  0.00    -0.126 C  
BRANCH   7   8
HETATM    8  C   UNL     1      -7.377  10.346  68.257  1.00  0.00    -0.088 C  
BRANCH   8   9
HETATM    9  C   UNL     1      -7.402  11.719  67.592  1.00  0.00    -0.119 C  
BRANCH   9  10
HETATM   10  C   UNL     1      -7.135  12.777  68.667  1.00  0.00    -0.100 C  
BRANCH  10  11
HETATM   11  C   UNL     1      -7.822  14.109  68.410  1.00  0.00    -0.143 C  
BRANCH  11  12
HETATM   12  C   UNL     1      -7.666  14.697  66.995  1.00  0.00     0.041 C  
BRANCH  12  13
HETATM   13  C   UNL     1      -8.976  15.176  66.332  1.00  0.00    -0.314 C  
BRANCH  13  14
HETATM   14  C   UNL     1      -9.922  14.046  65.909  1.00  0.00    -0.307 C  
HETATM   15  O   UNL     1     -10.389  14.193  64.538  1.00  0.00    -0.390 OA 
HETATM   16  O   UNL     1     -12.658  14.427  64.205  1.00  0.00    -0.692 OA 
HETATM   17  C   UNL     1     -11.388  14.154  66.412  1.00  0.00    -0.342 C  
HETATM   18  C   UNL     1     -11.686  14.288  64.907  1.00  0.00    -0.397 C  
BRANCH  17  19
HETATM   19  C   UNL     1     -12.066  12.954  67.065  1.00  0.00    -0.296 C  
BRANCH  19  20
HETATM   20  C   UNL     1     -11.102  12.242  68.009  1.00  0.00    -0.285 C  
BRANCH  20  21
HETATM   21  C   UNL     1     -11.595  12.297  69.458  1.00  0.00    -0.366 C  
BRANCH  21  22
HETATM   22  C   UNL     1     -12.221  10.966  69.879  1.00  0.00    -0.408 C  
BRANCH  22  23
HETATM   23  C   UNL     1     -12.774  11.023  71.303  1.00  0.00    -0.537 C  
HETATM   24  C   UNL     1     -12.955   9.625  71.878  1.00  0.00    -0.527 C  
ENDBRANCH  22  23
ENDBRANCH  21  22
ENDBRANCH  20  21
ENDBRANCH  19  20
ENDBRANCH  17  19
ENDBRANCH  13  14
ENDBRANCH  12  13
BRANCH  12  25
HETATM   25  O   UNL     1      -6.753  15.819  67.004  1.00  0.00    -0.265 OA 
BRANCH  25  26
HETATM   26  C   UNL     1      -7.125  16.924  67.709  1.00  0.00    -0.141 C  
HETATM   27  O   UNL     1      -6.759  17.211  68.844  1.00  0.00    -0.186 OA 
BRANCH  26  28
HETATM   28  C   UNL     1      -8.063  17.803  66.887  1.00  0.00    -0.228 C  
BRANCH  28  29
HETATM   29  C   UNL     1      -7.331  18.496  65.727  1.00  0.00    -0.179 C  
HETATM   30  C   UNL     1      -5.860  20.175  67.022  1.00  0.00    -0.192 C  
HETATM   31  C   UNL     1      -6.393  20.540  64.622  1.00  0.00    -0.345 C  
HETATM   32  C   UNL     1      -6.923  19.972  65.942  1.00  0.00    -0.305 C  
ENDBRANCH  28  29
BRANCH  28  33
HETATM   33  N   UNL     1      -8.735  18.741  67.786  1.00  0.00    -0.283 N  
HETATM   34  C   UNL     1     -10.005  18.540  68.247  1.00  0.00    -0.376 C  
HETATM   35  O   UNL     1     -10.730  17.607  67.940  1.00  0.00    -0.394 OA 
HETATM   36  H   UNL     1      -8.235  19.580  68.080  1.00  0.00     0.000 HD 
ENDBRANCH  28  33
ENDBRANCH  26  28
ENDBRANCH  25  26
ENDBRANCH  12  25
ENDBRANCH  11  12
ENDBRANCH  10  11
ENDBRANCH   9  10
ENDBRANCH   8   9
ENDBRANCH   7   8
ENDBRANCH   6   7
ENDBRANCH   5   6
ENDBRANCH   4   5
ENDBRANCH   3   4
ENDBRANCH   2   3
TORSDOF 22
ENDMDL
MODEL      246
REMARK 921   NORMALIZED FREE ENERGY PREDICTED BY IDOCK:   -3.82 KCAL/MOL
REMARK 922        TOTAL FREE ENERGY PREDICTED BY IDOCK:  -12.35 KCAL/MOL
REMARK 923 INTER-LIGAND FREE ENERGY PREDICTED BY IDOCK:   -8.61 KCAL/MOL
REMARK 924 INTRA-LIGAND FREE ENERGY PREDICTED BY IDOCK:   -3.74 KCAL/MOL
REMARK 927      BINDING AFFINITY PREDICTED BY RF-SCORE:    0.00 PKD
ROOT
HETATM    1  C   UNL     1     -10.002   2.132  62.756  1.00  0.00    -0.094 C  
HETATM    2  C   UNL     1     -10.424   3.574  62.984  1.00  0.00    -0.212 C  
ENDROOT
BRANCH   2   3
HETATM    3  C   UNL     1     -10.627   3.851  64.471  1.00  0.00    -0.201 C  
BRANCH   3   4
HETATM    4  C   UNL     1      -9.329   3.692  65.258  1.00  0.00    -0.158 C  
BRANCH   4   5
HETATM    5  C   UNL     1      -9.568   3.927  66.751  1.00  0.00    -0.222 C  
BRANCH   5   6
HETATM    6  C   UNL     1      -9.455   5.408  67.085  1.00  0.00    -0.127 C  
BRANCH   6   7
HETATM    7  C   UNL     1      -8.238   6.062  66.428  1.00  0.00    -0.112 C  
BRANCH   7   8
HETATM    8  C   UNL     1      -8.648   7.436  65.908  1.00  0.00    -0.165 C  
BRANCH   8   9
HETATM    9  C   UNL     1      -9.843   8.043  66.636  1.00  0.00    -0.322 C  
BRANCH   9  10
HETATM   10  C   UNL     1      -9.954   9.516  66.230  1.00  0.00    -0.344 C  
BRANCH  10  11
HETATM   11  C   UNL     1     -10.018  10.479  67.405  1.00  0.00    -0.214 C  
BRANCH  11  12
HETATM   12  C   UNL     1     -11.247  10.355  68.325  1.00  0.00    -0.267 C  
BRANCH  12  13
HETATM   13  C   UNL     1     -10.946  10.407  69.839  1.00  0.00    -0.364 C  
BRANCH  13  14
HETATM   14  C   UNL     1     -10.737   9.034  70.490  1.00  0.00    -0.239 C  
HETATM   15  O   UNL     1     -10.814   9.090  71.943  1.00  0.00    -0.350 OA 
HETATM   16  O   UNL     1      -8.941   8.467  73.134  1.00  0.00    -0.288 OA 
HETATM   17  C   UNL     1      -9.266   8.543  70.595  1.00  0.00    -0.189 C  
HETATM   18  C   UNL     1      -9.543   8.659  72.105  1.00  0.00    -0.307 C  
BRANCH  17  19
HETATM   19  C   UNL     1      -8.896   7.132  70.148  1.00  0.00    -0.145 C  
BRANCH  19  20
HETATM   20  C   UNL     1      -7.402   7.038  69.853  1.00  0.00    -0.085 C  
BRANCH  20  21
HETATM   21  C   UNL     1      -6.769   8.426  69.720  1.00  0.00    -0.039 C  
BRANCH  21  22
HETATM   22  C   UNL     1      -6.245   8.661  68.303  1.00  0.00    -0.054 C  
BRANCH  22  23
HETATM   23  C   UNL     1      -6.357  10.129  67.892  1.00  0.00    -0.061 C  
HETATM   24  C   UNL     1      -6.807  10.994  69.061  1.00  0.00    -0.084 C  
ENDBRANCH  22  23
ENDBRANCH  21  22
ENDBRANCH  20  21
ENDBRANCH  19  20
ENDBRANCH  17  19
ENDBRANCH  13  14
ENDBRANCH  12  13
BRANCH  12  25
HETATM   25  O   UNL     1     -12.207  11.399  68.041  1.00  0.00    -0.607 OA 
BRANCH  25  26
HETATM   26  C   UNL     1     -11.824  12.684  68.279  1.00  0.00    -0.306 C  
HETATM   27  O   UNL     1     -11.739  13.220  69.379  1.00  0.00    -0.290 OA 
BRANCH  26  28
HETATM   28  C   UNL     1     -11.480  13.399  66.975  1.00  0.00    -0.337 C  
BRANCH  28  29
HETATM   29  C   UNL     1     -11.567  14.927  67.118  1.00  0.00    -0.327 C  
HETATM   30  C   UNL     1      -9.438  15.650  65.852  1.00  0.00    -0.376 C  
HETATM   31  C   UNL     1     -10.512  17.167  67.503  1.00  0.00    -0.348 C  
HETATM   32  C   UNL     1     -10.230  15.701  67.160  1.00  0.00    -0.270 C  
ENDBRANCH  28  29
BRANCH  28  33
HETATM   33  N   UNL     1     -12.333  12.871  65.911  1.00  0.00    -0.396 N  
HETATM   34  C   UNL     1     -11.851  12.532  64.679  1.00  0.00    -0.378 C  
HETATM   35  O   UNL     1     -10.695  12.666  64.309  1.00  0.00    -0.331 OA 
HETATM   36  H   UNL     1     -13.329  12.752  66.097  1.00  0.00     0.000 HD 
ENDBRANCH  28  33
ENDBRANCH  26  28
ENDBRANCH  25  26
ENDBRANCH  12  25
ENDBRANCH  11  12
ENDBRANCH  10  11
ENDBRANCH   9  10
ENDBRANCH   8   9
ENDBRANCH   7   8
ENDBRANCH   6   7
ENDBRANCH   5   6
ENDBRANCH   4   5
ENDBRANCH   3   4
ENDBRANCH   2   3
TORSDOF 22
ENDMDL
MODEL      247
REMARK 921   NORMALIZED FREE ENERGY PREDICTED BY IDOCK:   -3.81 KCAL/MOL
REMARK 922        TOTAL FREE ENERGY PREDICTED BY IDOCK:  -12.34 KCAL/MOL
REMARK 923 INTER-LIGAND FREE ENERGY PREDICTED BY IDOCK:   -8.46 KCAL/MOL
REMARK 924 INTRA-LIGAND FREE ENERGY PREDICTED BY IDOCK:   -3.87 KCAL/MOL
REMARK 927      BINDING AFFINITY PREDICTED BY RF-SCORE:    0.00 PKD
ROOT
HETATM    1  C   UNL     1     -12.514  12.161  63.668  1.00  0.00    -0.658 C  
HETATM    2  C   UNL     1     -11.039  11.950  63.371  1.00  0.00    -0.463 C  
ENDROOT
BRANCH   2   3
HETATM    3  C   UNL     1     -10.286  11.530  64.631  1.00  0.00    -0.349 C  
BRANCH   3   4
HETATM    4  C   UNL     1      -9.447  10.277  64.397  1.00  0.00    -0.360 C  
BRANCH   4   5
HETATM    5  C   UNL     1      -9.696   9.244  65.498  1.00  0.00    -0.247 C  
BRANCH   5   6
HETATM    6  C   UNL     1      -8.422   8.464  65.797  1.00  0.00    -0.169 C  
BRANCH   6   7
HETATM    7  C   UNL     1      -7.168   9.180  65.291  1.00  0.00    -0.089 C  
BRANCH   7   8
HETATM    8  C   UNL     1      -6.340   9.614  66.495  1.00  0.00    -0.066 C  
BRANCH   8   9
HETATM    9  C   UNL     1      -6.100  11.118  66.574  1.00  0.00    -0.144 C  
BRANCH   9  10
HETATM   10  C   UNL     1      -7.375  11.779  67.107  1.00  0.00    -0.146 C  
BRANCH  10  11
HETATM   11  C   UNL     1      -7.575  11.621  68.606  1.00  0.00    -0.133 C  
BRANCH  11  12
HETATM   12  C   UNL     1      -8.892  10.962  69.055  1.00  0.00    -0.096 C  
BRANCH  12  13
HETATM   13  C   UNL     1     -10.113  11.243  68.152  1.00  0.00    -0.195 C  
BRANCH  13  14
HETATM   14  C   UNL     1     -10.820  12.573  68.441  1.00  0.00    -0.243 C  
HETATM   15  O   UNL     1     -12.176  12.609  67.909  1.00  0.00    -0.311 OA 
HETATM   16  O   UNL     1     -12.658  14.217  66.330  1.00  0.00    -0.449 OA 
HETATM   17  C   UNL     1     -10.437  13.767  67.523  1.00  0.00    -0.245 C  
HETATM   18  C   UNL     1     -11.911  13.652  67.092  1.00  0.00    -0.396 C  
BRANCH  17  19
HETATM   19  C   UNL     1     -10.082  15.119  68.134  1.00  0.00    -0.222 C  
BRANCH  19  20
HETATM   20  C   UNL     1      -8.879  15.730  67.421  1.00  0.00    -0.199 C  
BRANCH  20  21
HETATM   21  C   UNL     1      -8.466  17.059  68.060  1.00  0.00    -0.216 C  
BRANCH  21  22
HETATM   22  C   UNL     1      -7.838  16.838  69.437  1.00  0.00     0.096 C  
BRANCH  22  23
HETATM   23  C   UNL     1      -6.370  17.262  69.467  1.00  0.00    -0.235 C  
HETATM   24  C   UNL     1      -5.536  16.296  70.296  1.00  0.00    -0.183 C  
ENDBRANCH  22  23
ENDBRANCH  21  22
ENDBRANCH  20  21
ENDBRANCH  19  20
ENDBRANCH  17  19
ENDBRANCH  13  14
ENDBRANCH  12  13
BRANCH  12  25
HETATM   25  O   UNL     1      -8.743   9.525  69.140  1.00  0.00    -0.133 OA 
BRANCH  25  26
HETATM   26  C   UNL     1      -8.584   8.984  70.380  1.00  0.00    -0.193 C  
HETATM   27  O   UNL     1      -7.697   9.263  71.180  1.00  0.00    -0.282 OA 
BRANCH  26  28
HETATM   28  C   UNL     1      -9.685   7.970  70.676  1.00  0.00    -0.173 C  
BRANCH  28  29
HETATM   29  C   UNL     1     -10.498   7.623  69.419  1.00  0.00    -0.220 C  
HETATM   30  C   UNL     1     -10.399   5.045  69.480  1.00  0.00    -0.231 C  
HETATM   31  C   UNL     1     -10.895   6.248  67.362  1.00  0.00    -0.448 C  
HETATM   32  C   UNL     1     -10.120   6.319  68.681  1.00  0.00    -0.185 C  
ENDBRANCH  28  29
BRANCH  28  33
HETATM   33  N   UNL     1     -10.508   8.478  71.772  1.00  0.00    -0.272 N  
HETATM   34  C   UNL     1     -10.866   7.711  72.844  1.00  0.00    -0.389 C  
HETATM   35  O   UNL     1     -10.590   6.530  72.993  1.00  0.00    -0.221 OA 
HETATM   36  H   UNL     1     -10.829   9.446  71.735  1.00  0.00     0.000 HD 
ENDBRANCH  28  33
ENDBRANCH  26  28
ENDBRANCH  25  26
ENDBRANCH  12  25
ENDBRANCH  11  12
ENDBRANCH  10  11
ENDBRANCH   9  10
ENDBRANCH   8   9
ENDBRANCH   7   8
ENDBRANCH   6   7
ENDBRANCH   5   6
ENDBRANCH   4   5
ENDBRANCH   3   4
ENDBRANCH   2   3
TORSDOF 22
ENDMDL
MODEL      248
REMARK 921   NORMALIZED FREE ENERGY PREDICTED BY IDOCK:   -3.81 KCAL/MOL
REMARK 922        TOTAL FREE ENERGY PREDICTED BY IDOCK:  -12.34 KCAL/MOL
REMARK 923 INTER-LIGAND FREE ENERGY PREDICTED BY IDOCK:   -8.54 KCAL/MOL
REMARK 924 INTRA-LIGAND FREE ENERGY PREDICTED BY IDOCK:   -3.80 KCAL/MOL
REMARK 927      BINDING AFFINITY PREDICTED BY RF-SCORE:    0.00 PKD
ROOT
HETATM    1  C   UNL     1     -13.147   9.783  71.738  1.00  0.00    -0.528 C  
HETATM    2  C   UNL     1     -13.852   8.437  71.729  1.00  0.00    -0.458 C  
ENDROOT
BRANCH   2   3
HETATM    3  C   UNL     1     -12.916   7.338  71.233  1.00  0.00    -0.377 C  
BRANCH   3   4
HETATM    4  C   UNL     1     -12.520   6.383  72.355  1.00  0.00    -0.007 C  
BRANCH   4   5
HETATM    5  C   UNL     1     -10.999   6.327  72.509  1.00  0.00    -0.286 C  
BRANCH   5   6
HETATM    6  C   UNL     1     -10.327   6.236  71.145  1.00  0.00    -0.255 C  
BRANCH   6   7
HETATM    7  C   UNL     1      -9.065   7.097  71.058  1.00  0.00    -0.151 C  
BRANCH   7   8
HETATM    8  C   UNL     1      -9.352   8.445  71.708  1.00  0.00    -0.293 C  
BRANCH   8   9
HETATM    9  C   UNL     1      -9.685   9.555  70.716  1.00  0.00    -0.289 C  
BRANCH   9  10
HETATM   10  C   UNL     1      -8.539   9.651  69.703  1.00  0.00    -0.196 C  
BRANCH  10  11
HETATM   11  C   UNL     1      -8.253  11.066  69.225  1.00  0.00     0.010 C  
BRANCH  11  12
HETATM   12  C   UNL     1      -9.112  11.580  68.055  1.00  0.00    -0.174 C  
BRANCH  12  13
HETATM   13  C   UNL     1      -9.577  10.500  67.053  1.00  0.00    -0.202 C  
BRANCH  13  14
HETATM   14  C   UNL     1      -8.715  10.398  65.788  1.00  0.00    -0.168 C  
HETATM   15  O   UNL     1      -9.125  11.342  64.758  1.00  0.00    -0.142 OA 
HETATM   16  O   UNL     1      -9.838  10.477  62.744  1.00  0.00    -0.294 OA 
HETATM   17  C   UNL     1      -9.044   9.220  64.828  1.00  0.00    -0.201 C  
HETATM   18  C   UNL     1      -9.423  10.365  63.872  1.00  0.00    -0.304 C  
BRANCH  17  19
HETATM   19  C   UNL     1      -7.925   8.328  64.300  1.00  0.00    -0.148 C  
BRANCH  19  20
HETATM   20  C   UNL     1      -7.491   7.325  65.365  1.00  0.00    -0.087 C  
BRANCH  20  21
HETATM   21  C   UNL     1      -8.689   6.562  65.936  1.00  0.00    -0.149 C  
BRANCH  21  22
HETATM   22  C   UNL     1      -8.486   6.244  67.419  1.00  0.00    -0.108 C  
BRANCH  22  23
HETATM   23  C   UNL     1      -7.261   6.959  67.990  1.00  0.00    -0.091 C  
HETATM   24  C   UNL     1      -6.337   5.981  68.703  1.00  0.00    -0.040 C  
ENDBRANCH  22  23
ENDBRANCH  21  22
ENDBRANCH  20  21
ENDBRANCH  19  20
ENDBRANCH  17  19
ENDBRANCH  13  14
ENDBRANCH  12  13
BRANCH  12  25
HETATM   25  O   UNL     1     -10.297  12.250  68.545  1.00  0.00    -0.226 OA 
BRANCH  25  26
HETATM   26  C   UNL     1     -10.332  13.608  68.453  1.00  0.00    -0.248 C  
HETATM   27  O   UNL     1      -9.360  14.356  68.454  1.00  0.00    -0.196 OA 
BRANCH  26  28
HETATM   28  C   UNL     1     -11.768  14.107  68.322  1.00  0.00    -0.348 C  
BRANCH  28  29
HETATM   29  C   UNL     1     -12.034  14.737  66.946  1.00  0.00    -0.212 C  
HETATM   30  C   UNL     1     -12.351  12.620  65.504  1.00  0.00    -0.455 C  
HETATM   31  C   UNL     1     -11.748  14.793  64.457  1.00  0.00    -0.398 C  
HETATM   32  C   UNL     1     -11.582  13.927  65.709  1.00  0.00    -0.343 C  
ENDBRANCH  28  29
BRANCH  28  33
HETATM   33  N   UNL     1     -12.054  15.013  69.434  1.00  0.00    -0.471 N  
HETATM   34  C   UNL     1     -12.309  14.570  70.701  1.00  0.00    -0.339 C  
HETATM   35  O   UNL     1     -12.375  13.399  71.041  1.00  0.00    -0.363 OA 
HETATM   36  H   UNL     1     -12.062  16.018  69.257  1.00  0.00     0.000 HD 
ENDBRANCH  28  33
ENDBRANCH  26  28
ENDBRANCH  25  26
ENDBRANCH  12  25
ENDBRANCH  11  12
ENDBRANCH  10  11
ENDBRANCH   9  10
ENDBRANCH   8   9
ENDBRANCH   7   8
ENDBRANCH   6   7
ENDBRANCH   5   6
ENDBRANCH   4   5
ENDBRANCH   3   4
ENDBRANCH   2   3
TORSDOF 22
ENDMDL
MODEL      249
REMARK 921   NORMALIZED FREE ENERGY PREDICTED BY IDOCK:   -3.81 KCAL/MOL
REMARK 922        TOTAL FREE ENERGY PREDICTED BY IDOCK:  -12.33 KCAL/MOL
REMARK 923 INTER-LIGAND FREE ENERGY PREDICTED BY IDOCK:   -8.79 KCAL/MOL
REMARK 924 INTRA-LIGAND FREE ENERGY PREDICTED BY IDOCK:   -3.54 KCAL/MOL
REMARK 927      BINDING AFFINITY PREDICTED BY RF-SCORE:    0.00 PKD
ROOT
HETATM    1  C   UNL     1     -11.930  13.018  69.787  1.00  0.00    -0.377 C  
HETATM    2  C   UNL     1     -11.638  14.488  70.038  1.00  0.00    -0.339 C  
ENDROOT
BRANCH   2   3
HETATM    3  C   UNL     1     -11.658  15.276  68.731  1.00  0.00    -0.379 C  
BRANCH   3   4
HETATM    4  C   UNL     1     -12.028  14.393  67.543  1.00  0.00    -0.389 C  
BRANCH   4   5
HETATM    5  C   UNL     1     -11.602  15.047  66.227  1.00  0.00    -0.160 C  
BRANCH   5   6
HETATM    6  C   UNL     1     -12.089  14.226  65.041  1.00  0.00    -0.428 C  
BRANCH   6   7
HETATM    7  C   UNL     1     -10.955  13.463  64.354  1.00  0.00    -0.413 C  
BRANCH   7   8
HETATM    8  C   UNL     1     -11.540  12.223  63.687  1.00  0.00    -0.581 C  
BRANCH   8   9
HETATM    9  C   UNL     1     -10.604  11.019  63.685  1.00  0.00    -0.338 C  
BRANCH   9  10
HETATM   10  C   UNL     1      -9.447  11.310  64.645  1.00  0.00    -0.215 C  
BRANCH  10  11
HETATM   11  C   UNL     1      -9.279  10.275  65.747  1.00  0.00    -0.215 C  
BRANCH  11  12
HETATM   12  C   UNL     1      -8.873  10.811  67.132  1.00  0.00    -0.134 C  
BRANCH  12  13
HETATM   13  C   UNL     1      -9.164  12.309  67.373  1.00  0.00    -0.182 C  
BRANCH  13  14
HETATM   14  C   UNL     1      -7.911  13.180  67.526  1.00  0.00    -0.179 C  
HETATM   15  O   UNL     1      -7.303  13.052  68.843  1.00  0.00    -0.095 OA 
HETATM   16  O   UNL     1      -7.168  14.951  70.143  1.00  0.00    -0.103 OA 
HETATM   17  C   UNL     1      -8.155  14.691  67.795  1.00  0.00    -0.160 C  
HETATM   18  C   UNL     1      -7.479  14.359  69.137  1.00  0.00    -0.094 C  
BRANCH  17  19
HETATM   19  C   UNL     1      -7.412  15.744  66.979  1.00  0.00    -0.242 C  
BRANCH  19  20
HETATM   20  C   UNL     1      -8.339  16.904  66.629  1.00  0.00    -0.289 C  
BRANCH  20  21
HETATM   21  C   UNL     1      -8.906  17.567  67.887  1.00  0.00    -0.247 C  
BRANCH  21  22
HETATM   22  C   UNL     1      -8.050  18.760  68.316  1.00  0.00    -0.353 C  
BRANCH  22  23
HETATM   23  C   UNL     1      -8.268  19.971  67.409  1.00  0.00    -0.373 C  
HETATM   24  C   UNL     1      -9.697  20.485  67.515  1.00  0.00    -0.554 C  
ENDBRANCH  22  23
ENDBRANCH  21  22
ENDBRANCH  20  21
ENDBRANCH  19  20
ENDBRANCH  17  19
ENDBRANCH  13  14
ENDBRANCH  12  13
BRANCH  12  25
HETATM   25  O   UNL     1      -9.536  10.070  68.183  1.00  0.00    -0.138 OA 
BRANCH  25  26
HETATM   26  C   UNL     1      -8.752   9.494  69.136  1.00  0.00    -0.146 C  
HETATM   27  O   UNL     1      -8.216  10.073  70.075  1.00  0.00    -0.178 OA 
BRANCH  26  28
HETATM   28  C   UNL     1      -8.630   7.991  68.904  1.00  0.00    -0.131 C  
BRANCH  28  29
HETATM   29  C   UNL     1      -8.997   7.185  70.161  1.00  0.00    -0.145 C  
HETATM   30  C   UNL     1     -11.351   6.345  69.522  1.00  0.00    -0.460 C  
HETATM   31  C   UNL     1     -10.640   6.446  71.902  1.00  0.00    -0.247 C  
HETATM   32  C   UNL     1     -10.496   7.113  70.530  1.00  0.00    -0.228 C  
ENDBRANCH  28  29
BRANCH  28  33
HETATM   33  N   UNL     1      -7.287   7.700  68.405  1.00  0.00    -0.093 N  
HETATM   34  C   UNL     1      -7.016   6.637  67.590  1.00  0.00    -0.083 C  
HETATM   35  O   UNL     1      -7.827   5.799  67.227  1.00  0.00    -0.100 OA 
HETATM   36  H   UNL     1      -6.520   8.316  68.677  1.00  0.00     0.000 HD 
ENDBRANCH  28  33
ENDBRANCH  26  28
ENDBRANCH  25  26
ENDBRANCH  12  25
ENDBRANCH  11  12
ENDBRANCH  10  11
ENDBRANCH   9  10
ENDBRANCH   8   9
ENDBRANCH   7   8
ENDBRANCH   6   7
ENDBRANCH   5   6
ENDBRANCH   4   5
ENDBRANCH   3   4
ENDBRANCH   2   3
TORSDOF 22
ENDMDL
MODEL      250
REMARK 921   NORMALIZED FREE ENERGY PREDICTED BY IDOCK:   -3.79 KCAL/MOL
REMARK 922        TOTAL FREE ENERGY PREDICTED BY IDOCK:  -12.29 KCAL/MOL
REMARK 923 INTER-LIGAND FREE ENERGY PREDICTED BY IDOCK:   -8.43 KCAL/MOL
REMARK 924 INTRA-LIGAND FREE ENERGY PREDICTED BY IDOCK:   -3.86 KCAL/MOL
REMARK 927      BINDING AFFINITY PREDICTED BY RF-SCORE:    0.00 PKD
ROOT
HETATM    1  C   UNL     1      -8.414   7.976  73.361  1.00  0.00    -0.295 C  
HETATM    2  C   UNL     1      -7.948   7.079  72.226  1.00  0.00    -0.092 C  
ENDROOT
BRANCH   2   3
HETATM    3  C   UNL     1      -7.379   7.908  71.078  1.00  0.00    -0.062 C  
BRANCH   3   4
HETATM    4  C   UNL     1      -6.999   7.036  69.885  1.00  0.00    -0.062 C  
BRANCH   4   5
HETATM    5  C   UNL     1      -7.936   7.294  68.704  1.00  0.00    -0.124 C  
BRANCH   5   6
HETATM    6  C   UNL     1      -8.373   8.753  68.677  1.00  0.00    -0.128 C  
BRANCH   6   7
HETATM    7  C   UNL     1      -7.655   9.558  67.592  1.00  0.00    -0.094 C  
BRANCH   7   8
HETATM    8  C   UNL     1      -8.150   9.084  66.230  1.00  0.00    -0.110 C  
BRANCH   8   9
HETATM    9  C   UNL     1      -9.648   9.271  66.016  1.00  0.00    -0.338 C  
BRANCH   9  10
HETATM   10  C   UNL     1      -9.957  10.770  66.072  1.00  0.00    -0.295 C  
BRANCH  10  11
HETATM   11  C   UNL     1     -11.083  11.136  67.027  1.00  0.00    -0.339 C  
BRANCH  11  12
HETATM   12  C   UNL     1     -10.684  11.946  68.275  1.00  0.00    -0.223 C  
BRANCH  12  13
HETATM   13  C   UNL     1     -10.554  11.128  69.579  1.00  0.00    -0.137 C  
BRANCH  13  14
HETATM   14  C   UNL     1     -11.641  10.064  69.770  1.00  0.00    -0.134 C  
HETATM   15  O   UNL     1     -12.831  10.594  70.420  1.00  0.00    -0.322 OA 
HETATM   16  O   UNL     1     -13.437   9.678  72.446  1.00  0.00    -0.432 OA 
HETATM   17  C   UNL     1     -11.439   9.084  70.959  1.00  0.00    -0.358 C  
HETATM   18  C   UNL     1     -12.718   9.764  71.480  1.00  0.00    -0.406 C  
BRANCH  17  19
HETATM   19  C   UNL     1     -11.589   7.581  70.747  1.00  0.00    -0.300 C  
BRANCH  19  20
HETATM   20  C   UNL     1     -11.760   6.865  72.083  1.00  0.00    -0.327 C  
BRANCH  20  21
HETATM   21  C   UNL     1     -11.160   5.456  72.044  1.00  0.00    -0.204 C  
BRANCH  21  22
HETATM   22  C   UNL     1     -11.166   4.815  73.433  1.00  0.00    -0.425 C  
BRANCH  22  23
HETATM   23  C   UNL     1      -9.966   3.889  73.636  1.00  0.00    -0.169 C  
HETATM   24  C   UNL     1     -10.337   2.692  74.501  1.00  0.00    -0.197 C  
ENDBRANCH  22  23
ENDBRANCH  21  22
ENDBRANCH  20  21
ENDBRANCH  19  20
ENDBRANCH  17  19
ENDBRANCH  13  14
ENDBRANCH  12  13
BRANCH  12  25
HETATM   25  O   UNL     1      -9.424  12.624  68.065  1.00  0.00    -0.197 OA 
BRANCH  25  26
HETATM   26  C   UNL     1      -9.434  13.986  68.082  1.00  0.00    -0.215 C  
HETATM   27  O   UNL     1      -8.449  14.714  68.137  1.00  0.00    -0.144 OA 
BRANCH  26  28
HETATM   28  C   UNL     1     -10.861  14.520  68.002  1.00  0.00    -0.244 C  
BRANCH  28  29
HETATM   29  C   UNL     1     -11.114  15.288  66.695  1.00  0.00    -0.276 C  
HETATM   30  C   UNL     1     -13.005  13.868  65.662  1.00  0.00    -0.361 C  
HETATM   31  C   UNL     1     -11.609  15.354  64.240  1.00  0.00    -0.196 C  
HETATM   32  C   UNL     1     -11.607  14.462  65.485  1.00  0.00    -0.347 C  
ENDBRANCH  28  29
BRANCH  28  33
HETATM   33  N   UNL     1     -11.134  15.315  69.199  1.00  0.00    -0.247 N  
HETATM   34  C   UNL     1     -11.984  14.901  70.183  1.00  0.00    -0.317 C  
HETATM   35  O   UNL     1     -12.638  13.869  70.166  1.00  0.00    -0.314 OA 
HETATM   36  H   UNL     1     -10.669  16.218  69.302  1.00  0.00     0.000 HD 
ENDBRANCH  28  33
ENDBRANCH  26  28
ENDBRANCH  25  26
ENDBRANCH  12  25
ENDBRANCH  11  12
ENDBRANCH  10  11
ENDBRANCH   9  10
ENDBRANCH   8   9
ENDBRANCH   7   8
ENDBRANCH   6   7
ENDBRANCH   5   6
ENDBRANCH   4   5
ENDBRANCH   3   4
ENDBRANCH   2   3
TORSDOF 22
ENDMDL
MODEL      251
REMARK 921   NORMALIZED FREE ENERGY PREDICTED BY IDOCK:   -3.78 KCAL/MOL
REMARK 922        TOTAL FREE ENERGY PREDICTED BY IDOCK:  -12.26 KCAL/MOL
REMARK 923 INTER-LIGAND FREE ENERGY PREDICTED BY IDOCK:   -8.67 KCAL/MOL
REMARK 924 INTRA-LIGAND FREE ENERGY PREDICTED BY IDOCK:   -3.59 KCAL/MOL
REMARK 927      BINDING AFFINITY PREDICTED BY RF-SCORE:    0.00 PKD
ROOT
HETATM    1  C   UNL     1     -11.902  13.559  68.427  1.00  0.00    -0.408 C  
HETATM    2  C   UNL     1     -11.875  14.735  69.390  1.00  0.00    -0.360 C  
ENDROOT
BRANCH   2   3
HETATM    3  C   UNL     1     -11.255  15.963  68.730  1.00  0.00    -0.359 C  
BRANCH   3   4
HETATM    4  C   UNL     1      -9.899  15.648  68.108  1.00  0.00    -0.212 C  
BRANCH   4   5
HETATM    5  C   UNL     1      -9.531  16.690  67.049  1.00  0.00    -0.239 C  
BRANCH   5   6
HETATM    6  C   UNL     1     -10.260  16.404  65.743  1.00  0.00    -0.370 C  
BRANCH   6   7
HETATM    7  C   UNL     1     -10.103  14.951  65.292  1.00  0.00    -0.380 C  
BRANCH   7   8
HETATM    8  C   UNL     1     -11.367  14.534  64.549  1.00  0.00    -0.323 C  
BRANCH   8   9
HETATM    9  C   UNL     1     -11.585  13.026  64.491  1.00  0.00    -0.406 C  
BRANCH   9  10
HETATM   10  C   UNL     1     -10.628  12.365  65.489  1.00  0.00    -0.307 C  
BRANCH  10  11
HETATM   11  C   UNL     1     -10.340  10.901  65.195  1.00  0.00    -0.344 C  
BRANCH  11  12
HETATM   12  C   UNL     1      -9.839  10.052  66.377  1.00  0.00    -0.224 C  
BRANCH  12  13
HETATM   13  C   UNL     1     -10.896   9.741  67.461  1.00  0.00    -0.286 C  
BRANCH  13  14
HETATM   14  C   UNL     1     -10.589  10.347  68.836  1.00  0.00    -0.216 C  
HETATM   15  O   UNL     1      -9.171  10.619  69.021  1.00  0.00    -0.175 OA 
HETATM   16  O   UNL     1      -8.090   9.521  70.735  1.00  0.00    -0.248 OA 
HETATM   17  C   UNL     1     -10.546   9.353  70.029  1.00  0.00    -0.267 C  
HETATM   18  C   UNL     1      -9.066   9.775  70.070  1.00  0.00    -0.223 C  
BRANCH  17  19
HETATM   19  C   UNL     1     -11.307   9.664  71.314  1.00  0.00    -0.458 C  
BRANCH  19  20
HETATM   20  C   UNL     1     -11.307   8.455  72.244  1.00  0.00    -0.448 C  
BRANCH  20  21
HETATM   21  C   UNL     1     -12.475   7.513  71.936  1.00  0.00    -0.335 C  
BRANCH  21  22
HETATM   22  C   UNL     1     -12.007   6.059  71.863  1.00  0.00    -0.185 C  
BRANCH  22  23
HETATM   23  C   UNL     1     -10.483   5.952  71.847  1.00  0.00    -0.267 C  
HETATM   24  C   UNL     1      -9.991   5.293  70.566  1.00  0.00    -0.299 C  
ENDBRANCH  22  23
ENDBRANCH  21  22
ENDBRANCH  20  21
ENDBRANCH  19  20
ENDBRANCH  17  19
ENDBRANCH  13  14
ENDBRANCH  12  13
BRANCH  12  25
HETATM   25  O   UNL     1      -9.314   8.786  65.914  1.00  0.00    -0.220 OA 
BRANCH  25  26
HETATM   26  C   UNL     1      -8.007   8.514  66.181  1.00  0.00    -0.102 C  
HETATM   27  O   UNL     1      -7.046   9.202  65.855  1.00  0.00    -0.087 OA 
BRANCH  26  28
HETATM   28  C   UNL     1      -7.873   7.220  66.979  1.00  0.00    -0.112 C  
BRANCH  28  29
HETATM   29  C   UNL     1      -9.170   6.396  66.957  1.00  0.00    -0.136 C  
HETATM   30  C   UNL     1      -8.252   4.073  66.309  1.00  0.00    -0.104 C  
HETATM   31  C   UNL     1     -10.647   4.638  65.953  1.00  0.00    -0.265 C  
HETATM   32  C   UNL     1      -9.224   5.205  65.973  1.00  0.00    -0.159 C  
ENDBRANCH  28  29
BRANCH  28  33
HETATM   33  N   UNL     1      -7.421   7.546  68.331  1.00  0.00    -0.106 N  
HETATM   34  C   UNL     1      -6.343   6.944  68.914  1.00  0.00    -0.028 C  
HETATM   35  O   UNL     1      -5.672   6.054  68.414  1.00  0.00    -0.011 OA 
HETATM   36  H   UNL     1      -7.932   8.253  68.860  1.00  0.00     0.000 HD 
ENDBRANCH  28  33
ENDBRANCH  26  28
ENDBRANCH  25  26
ENDBRANCH  12  25
ENDBRANCH  11  12
ENDBRANCH  10  11
ENDBRANCH   9  10
ENDBRANCH   8   9
ENDBRANCH   7   8
ENDBRANCH   6   7
ENDBRANCH   5   6
ENDBRANCH   4   5
ENDBRANCH   3   4
ENDBRANCH   2   3
TORSDOF 22
ENDMDL
MODEL      252
REMARK 921   NORMALIZED FREE ENERGY PREDICTED BY IDOCK:   -3.78 KCAL/MOL
REMARK 922        TOTAL FREE ENERGY PREDICTED BY IDOCK:  -12.25 KCAL/MOL
REMARK 923 INTER-LIGAND FREE ENERGY PREDICTED BY IDOCK:   -9.02 KCAL/MOL
REMARK 924 INTRA-LIGAND FREE ENERGY PREDICTED BY IDOCK:   -3.24 KCAL/MOL
REMARK 927      BINDING AFFINITY PREDICTED BY RF-SCORE:    0.00 PKD
ROOT
HETATM    1  C   UNL     1     -11.735  12.893  63.773  1.00  0.00    -0.557 C  
HETATM    2  C   UNL     1     -10.639  13.672  64.482  1.00  0.00    -0.428 C  
ENDROOT
BRANCH   2   3
HETATM    3  C   UNL     1     -11.118  15.074  64.846  1.00  0.00    -0.425 C  
BRANCH   3   4
HETATM    4  C   UNL     1     -10.993  15.344  66.343  1.00  0.00    -0.277 C  
BRANCH   4   5
HETATM    5  C   UNL     1     -10.505  16.772  66.597  1.00  0.00    -0.258 C  
BRANCH   5   6
HETATM    6  C   UNL     1      -9.191  16.758  67.367  1.00  0.00    -0.220 C  
BRANCH   6   7
HETATM    7  C   UNL     1      -8.006  16.344  66.493  1.00  0.00    -0.342 C  
BRANCH   7   8
HETATM    8  C   UNL     1      -7.292  15.177  67.166  1.00  0.00    -0.145 C  
BRANCH   8   9
HETATM    9  C   UNL     1      -7.924  14.739  68.483  1.00  0.00    -0.136 C  
BRANCH   9  10
HETATM   10  C   UNL     1      -8.021  13.211  68.483  1.00  0.00    -0.094 C  
BRANCH  10  11
HETATM   11  C   UNL     1      -8.758  12.636  67.283  1.00  0.00    -0.198 C  
BRANCH  11  12
HETATM   12  C   UNL     1      -9.197  11.165  67.390  1.00  0.00    -0.153 C  
BRANCH  12  13
HETATM   13  C   UNL     1     -10.554  10.831  66.730  1.00  0.00    -0.307 C  
BRANCH  13  14
HETATM   14  C   UNL     1     -11.776  11.158  67.596  1.00  0.00    -0.083 C  
HETATM   15  O   UNL     1     -12.152  12.563  67.520  1.00  0.00    -0.453 OA 
HETATM   16  O   UNL     1     -12.095  13.789  69.471  1.00  0.00    -0.324 OA 
HETATM   17  C   UNL     1     -11.514  11.320  69.119  1.00  0.00    -0.364 C  
HETATM   18  C   UNL     1     -11.949  12.770  68.840  1.00  0.00    -0.244 C  
BRANCH  17  19
HETATM   19  C   UNL     1     -12.400  10.599  70.130  1.00  0.00    -0.370 C  
BRANCH  19  20
HETATM   20  C   UNL     1     -11.568  10.078  71.298  1.00  0.00    -0.430 C  
BRANCH  20  21
HETATM   21  C   UNL     1     -10.419   9.189  70.812  1.00  0.00    -0.322 C  
BRANCH  21  22
HETATM   22  C   UNL     1     -10.591   7.749  71.302  1.00  0.00    -0.241 C  
BRANCH  22  23
HETATM   23  C   UNL     1     -11.242   7.693  72.684  1.00  0.00    -0.419 C  
HETATM   24  C   UNL     1     -10.276   7.142  73.724  1.00  0.00    -0.395 C  
ENDBRANCH  22  23
ENDBRANCH  21  22
ENDBRANCH  20  21
ENDBRANCH  19  20
ENDBRANCH  17  19
ENDBRANCH  13  14
ENDBRANCH  12  13
BRANCH  12  25
HETATM   25  O   UNL     1      -8.207  10.290  66.801  1.00  0.00    -0.121 OA 
BRANCH  25  26
HETATM   26  C   UNL     1      -8.468   8.953  66.808  1.00  0.00    -0.115 C  
HETATM   27  O   UNL     1      -8.804   8.290  67.783  1.00  0.00    -0.136 OA 
BRANCH  26  28
HETATM   28  C   UNL     1      -8.308   8.361  65.411  1.00  0.00    -0.157 C  
BRANCH  28  29
HETATM   29  C   UNL     1      -8.991   9.225  64.340  1.00  0.00    -0.163 C  
HETATM   30  C   UNL     1      -7.249   9.100  62.440  1.00  0.00    -0.096 C  
HETATM   31  C   UNL     1      -8.914  10.944  62.518  1.00  0.00    -0.360 C  
HETATM   32  C   UNL     1      -8.065   9.997  63.372  1.00  0.00    -0.158 C  
ENDBRANCH  28  29
BRANCH  28  33
HETATM   33  N   UNL     1      -8.788   6.980  65.429  1.00  0.00    -0.367 N  
HETATM   34  C   UNL     1      -7.951   5.905  65.316  1.00  0.00    -0.115 C  
HETATM   35  O   UNL     1      -6.743   5.964  65.146  1.00  0.00    -0.042 OA 
HETATM   36  H   UNL     1      -9.789   6.811  65.529  1.00  0.00     0.000 HD 
ENDBRANCH  28  33
ENDBRANCH  26  28
ENDBRANCH  25  26
ENDBRANCH  12  25
ENDBRANCH  11  12
ENDBRANCH  10  11
ENDBRANCH   9  10
ENDBRANCH   8   9
ENDBRANCH   7   8
ENDBRANCH   6   7
ENDBRANCH   5   6
ENDBRANCH   4   5
ENDBRANCH   3   4
ENDBRANCH   2   3
TORSDOF 22
ENDMDL
MODEL      253
REMARK 921   NORMALIZED FREE ENERGY PREDICTED BY IDOCK:   -3.77 KCAL/MOL
REMARK 922        TOTAL FREE ENERGY PREDICTED BY IDOCK:  -12.25 KCAL/MOL
REMARK 923 INTER-LIGAND FREE ENERGY PREDICTED BY IDOCK:   -9.80 KCAL/MOL
REMARK 924 INTRA-LIGAND FREE ENERGY PREDICTED BY IDOCK:   -2.45 KCAL/MOL
REMARK 927      BINDING AFFINITY PREDICTED BY RF-SCORE:    0.00 PKD
ROOT
HETATM    1  C   UNL     1      -7.972  15.503  67.420  1.00  0.00    -0.211 C  
HETATM    2  C   UNL     1      -8.708  16.128  66.247  1.00  0.00    -0.373 C  
ENDROOT
BRANCH   2   3
HETATM    3  C   UNL     1     -10.218  16.085  66.469  1.00  0.00    -0.301 C  
BRANCH   3   4
HETATM    4  C   UNL     1     -10.628  16.849  67.724  1.00  0.00    -0.340 C  
BRANCH   4   5
HETATM    5  C   UNL     1     -11.615  16.032  68.560  1.00  0.00    -0.316 C  
BRANCH   5   6
HETATM    6  C   UNL     1     -10.939  15.500  69.817  1.00  0.00    -0.299 C  
BRANCH   6   7
HETATM    7  C   UNL     1     -11.661  15.933  71.094  1.00  0.00    -0.481 C  
BRANCH   7   8
HETATM    8  C   UNL     1     -12.987  15.185  71.178  1.00  0.00    -0.488 C  
BRANCH   8   9
HETATM    9  C   UNL     1     -13.177  14.403  72.474  1.00  0.00    -0.558 C  
BRANCH   9  10
HETATM   10  C   UNL     1     -13.039  12.911  72.158  1.00  0.00    -0.466 C  
BRANCH  10  11
HETATM   11  C   UNL     1     -12.756  12.610  70.694  1.00  0.00    -0.141 C  
BRANCH  11  12
HETATM   12  C   UNL     1     -12.534  11.131  70.330  1.00  0.00    -0.274 C  
BRANCH  12  13
HETATM   13  C   UNL     1     -12.035  10.873  68.891  1.00  0.00    -0.277 C  
BRANCH  13  14
HETATM   14  C   UNL     1     -11.476  12.113  68.183  1.00  0.00    -0.317 C  
HETATM   15  O   UNL     1     -12.510  12.875  67.495  1.00  0.00    -0.139 OA 
HETATM   16  O   UNL     1     -12.316  13.114  65.211  1.00  0.00    -0.430 OA 
HETATM   17  C   UNL     1     -10.767  11.865  66.822  1.00  0.00    -0.282 C  
HETATM   18  C   UNL     1     -11.940  12.702  66.282  1.00  0.00    -0.374 C  
BRANCH  17  19
HETATM   19  C   UNL     1      -9.399  12.481  66.548  1.00  0.00    -0.233 C  
BRANCH  19  20
HETATM   20  C   UNL     1      -8.287  11.492  66.886  1.00  0.00    -0.166 C  
BRANCH  20  21
HETATM   21  C   UNL     1      -7.948  10.601  65.688  1.00  0.00    -0.136 C  
BRANCH  21  22
HETATM   22  C   UNL     1      -7.504   9.209  66.142  1.00  0.00    -0.095 C  
BRANCH  22  23
HETATM   23  C   UNL     1      -7.288   8.267  64.958  1.00  0.00    -0.086 C  
HETATM   24  C   UNL     1      -6.450   8.931  63.874  1.00  0.00    -0.087 C  
ENDBRANCH  22  23
ENDBRANCH  21  22
ENDBRANCH  20  21
ENDBRANCH  19  20
ENDBRANCH  17  19
ENDBRANCH  13  14
ENDBRANCH  12  13
BRANCH  12  25
HETATM   25  O   UNL     1     -11.583  10.518  71.230  1.00  0.00    -0.263 OA 
BRANCH  25  26
HETATM   26  C   UNL     1     -11.948   9.350  71.829  1.00  0.00    -0.382 C  
HETATM   27  O   UNL     1     -12.956   9.171  72.503  1.00  0.00    -0.407 OA 
BRANCH  26  28
HETATM   28  C   UNL     1     -10.934   8.249  71.535  1.00  0.00    -0.254 C  
BRANCH  28  29
HETATM   29  C   UNL     1      -9.487   8.745  71.688  1.00  0.00    -0.358 C  
HETATM   30  C   UNL     1      -8.686   8.652  69.237  1.00  0.00    -0.133 C  
HETATM   31  C   UNL     1      -7.051   8.644  71.110  1.00  0.00    -0.081 C  
HETATM   32  C   UNL     1      -8.452   8.199  70.679  1.00  0.00    -0.128 C  
ENDBRANCH  28  29
BRANCH  28  33
HETATM   33  N   UNL     1     -11.214   7.692  70.213  1.00  0.00    -0.357 N  
HETATM   34  C   UNL     1     -11.334   6.350  69.987  1.00  0.00    -0.430 C  
HETATM   35  O   UNL     1     -11.181   5.475  70.824  1.00  0.00    -0.138 OA 
HETATM   36  H   UNL     1     -11.325   8.332  69.426  1.00  0.00     0.000 HD 
ENDBRANCH  28  33
ENDBRANCH  26  28
ENDBRANCH  25  26
ENDBRANCH  12  25
ENDBRANCH  11  12
ENDBRANCH  10  11
ENDBRANCH   9  10
ENDBRANCH   8   9
ENDBRANCH   7   8
ENDBRANCH   6   7
ENDBRANCH   5   6
ENDBRANCH   4   5
ENDBRANCH   3   4
ENDBRANCH   2   3
TORSDOF 22
ENDMDL
MODEL      254
REMARK 921   NORMALIZED FREE ENERGY PREDICTED BY IDOCK:   -3.77 KCAL/MOL
REMARK 922        TOTAL FREE ENERGY PREDICTED BY IDOCK:  -12.23 KCAL/MOL
REMARK 923 INTER-LIGAND FREE ENERGY PREDICTED BY IDOCK:   -8.83 KCAL/MOL
REMARK 924 INTRA-LIGAND FREE ENERGY PREDICTED BY IDOCK:   -3.40 KCAL/MOL
REMARK 927      BINDING AFFINITY PREDICTED BY RF-SCORE:    0.00 PKD
ROOT
HETATM    1  C   UNL     1      -8.104   2.580  63.498  1.00  0.00    -0.081 C  
HETATM    2  C   UNL     1      -9.532   2.700  64.004  1.00  0.00    -0.125 C  
ENDROOT
BRANCH   2   3
HETATM    3  C   UNL     1      -9.613   3.678  65.173  1.00  0.00    -0.167 C  
BRANCH   3   4
HETATM    4  C   UNL     1      -8.346   4.518  65.297  1.00  0.00    -0.121 C  
BRANCH   4   5
HETATM    5  C   UNL     1      -8.690   6.002  65.441  1.00  0.00    -0.090 C  
BRANCH   5   6
HETATM    6  C   UNL     1      -7.550   6.752  66.117  1.00  0.00    -0.086 C  
BRANCH   6   7
HETATM    7  C   UNL     1      -7.958   8.158  66.559  1.00  0.00    -0.101 C  
BRANCH   7   8
HETATM    8  C   UNL     1      -8.554   8.888  65.360  1.00  0.00    -0.200 C  
BRANCH   8   9
HETATM    9  C   UNL     1      -9.869   9.600  65.658  1.00  0.00    -0.369 C  
BRANCH   9  10
HETATM   10  C   UNL     1     -10.529   8.907  66.854  1.00  0.00    -0.304 C  
BRANCH  10  11
HETATM   11  C   UNL     1     -11.065   9.864  67.908  1.00  0.00    -0.216 C  
BRANCH  11  12
HETATM   12  C   UNL     1     -10.044  10.393  68.932  1.00  0.00    -0.201 C  
BRANCH  12  13
HETATM   13  C   UNL     1      -9.368  11.731  68.560  1.00  0.00    -0.158 C  
BRANCH  13  14
HETATM   14  C   UNL     1     -10.205  12.628  67.639  1.00  0.00    -0.217 C  
HETATM   15  O   UNL     1      -9.452  13.096  66.484  1.00  0.00    -0.252 OA 
HETATM   16  O   UNL     1      -9.170  15.371  66.247  1.00  0.00    -0.275 OA 
HETATM   17  C   UNL     1     -10.394  14.099  68.101  1.00  0.00    -0.239 C  
HETATM   18  C   UNL     1      -9.585  14.396  66.826  1.00  0.00    -0.268 C  
BRANCH  17  19
HETATM   19  C   UNL     1     -11.784  14.728  68.105  1.00  0.00    -0.353 C  
BRANCH  19  20
HETATM   20  C   UNL     1     -11.865  15.844  69.143  1.00  0.00    -0.340 C  
BRANCH  20  21
HETATM   21  C   UNL     1     -12.308  15.307  70.507  1.00  0.00    -0.434 C  
BRANCH  21  22
HETATM   22  C   UNL     1     -11.585  16.029  71.646  1.00  0.00    -0.538 C  
BRANCH  22  23
HETATM   23  C   UNL     1     -12.073  15.559  73.016  1.00  0.00    -0.574 C  
HETATM   24  C   UNL     1     -13.530  15.940  73.241  1.00  0.00    -0.599 C  
ENDBRANCH  22  23
ENDBRANCH  21  22
ENDBRANCH  20  21
ENDBRANCH  19  20
ENDBRANCH  17  19
ENDBRANCH  13  14
ENDBRANCH  12  13
BRANCH  12  25
HETATM   25  O   UNL     1     -10.663  10.570  70.228  1.00  0.00    -0.253 OA 
BRANCH  25  26
HETATM   26  C   UNL     1     -11.308   9.498  70.766  1.00  0.00    -0.321 C  
HETATM   27  O   UNL     1     -12.511   9.421  70.994  1.00  0.00    -0.297 OA 
BRANCH  26  28
HETATM   28  C   UNL     1     -10.333   8.358  71.041  1.00  0.00    -0.198 C  
BRANCH  28  29
HETATM   29  C   UNL     1     -10.762   7.055  70.348  1.00  0.00    -0.259 C  
HETATM   30  C   UNL     1      -8.483   5.871  70.096  1.00  0.00    -0.126 C  
HETATM   31  C   UNL     1     -10.409   5.240  68.656  1.00  0.00    -0.193 C  
HETATM   32  C   UNL     1      -9.735   6.401  69.395  1.00  0.00    -0.160 C  
ENDBRANCH  28  29
BRANCH  28  33
HETATM   33  N   UNL     1     -10.174   8.214  72.488  1.00  0.00    -0.290 N  
HETATM   34  C   UNL     1      -8.970   8.355  73.117  1.00  0.00    -0.151 C  
HETATM   35  O   UNL     1      -7.903   8.566  72.562  1.00  0.00    -0.271 OA 
HETATM   36  H   UNL     1     -10.998   7.999  73.051  1.00  0.00     0.000 HD 
ENDBRANCH  28  33
ENDBRANCH  26  28
ENDBRANCH  25  26
ENDBRANCH  12  25
ENDBRANCH  11  12
ENDBRANCH  10  11
ENDBRANCH   9  10
ENDBRANCH   8   9
ENDBRANCH   7   8
ENDBRANCH   6   7
ENDBRANCH   5   6
ENDBRANCH   4   5
ENDBRANCH   3   4
ENDBRANCH   2   3
TORSDOF 22
ENDMDL
MODEL      255
REMARK 921   NORMALIZED FREE ENERGY PREDICTED BY IDOCK:   -3.76 KCAL/MOL
REMARK 922        TOTAL FREE ENERGY PREDICTED BY IDOCK:  -12.22 KCAL/MOL
REMARK 923 INTER-LIGAND FREE ENERGY PREDICTED BY IDOCK:   -9.05 KCAL/MOL
REMARK 924 INTRA-LIGAND FREE ENERGY PREDICTED BY IDOCK:   -3.17 KCAL/MOL
REMARK 927      BINDING AFFINITY PREDICTED BY RF-SCORE:    0.00 PKD
ROOT
HETATM    1  C   UNL     1     -10.301   5.110  70.139  1.00  0.00    -0.340 C  
HETATM    2  C   UNL     1      -9.038   5.950  70.231  1.00  0.00    -0.156 C  
ENDROOT
BRANCH   2   3
HETATM    3  C   UNL     1      -8.887   6.553  71.625  1.00  0.00    -0.135 C  
BRANCH   3   4
HETATM    4  C   UNL     1      -8.711   8.068  71.570  1.00  0.00    -0.168 C  
BRANCH   4   5
HETATM    5  C   UNL     1      -7.664   8.455  70.523  1.00  0.00    -0.080 C  
BRANCH   5   6
HETATM    6  C   UNL     1      -7.859   9.899  70.082  1.00  0.00    -0.186 C  
BRANCH   6   7
HETATM    7  C   UNL     1      -6.655  10.441  69.309  1.00  0.00    -0.056 C  
BRANCH   7   8
HETATM    8  C   UNL     1      -7.068  10.657  67.858  1.00  0.00    -0.086 C  
BRANCH   8   9
HETATM    9  C   UNL     1      -6.437  11.886  67.210  1.00  0.00    -0.141 C  
BRANCH   9  10
HETATM   10  C   UNL     1      -6.776  13.108  68.069  1.00  0.00    -0.119 C  
BRANCH  10  11
HETATM   11  C   UNL     1      -7.427  14.246  67.298  1.00  0.00    -0.082 C  
BRANCH  11  12
HETATM   12  C   UNL     1      -8.926  14.480  67.562  1.00  0.00    -0.188 C  
BRANCH  12  13
HETATM   13  C   UNL     1      -9.545  13.609  68.677  1.00  0.00    -0.100 C  
BRANCH  13  14
HETATM   14  C   UNL     1     -10.716  12.732  68.219  1.00  0.00    -0.239 C  
HETATM   15  O   UNL     1     -11.710  12.538  69.266  1.00  0.00    -0.291 OA 
HETATM   16  O   UNL     1     -12.100  10.381  69.978  1.00  0.00    -0.267 OA 
HETATM   17  C   UNL     1     -10.457  11.200  68.193  1.00  0.00    -0.215 C  
HETATM   18  C   UNL     1     -11.538  11.198  69.289  1.00  0.00    -0.318 C  
BRANCH  17  19
HETATM   19  C   UNL     1     -10.833  10.380  66.962  1.00  0.00    -0.269 C  
BRANCH  19  20
HETATM   20  C   UNL     1      -9.795  10.564  65.858  1.00  0.00    -0.291 C  
BRANCH  20  21
HETATM   21  C   UNL     1     -10.026  11.865  65.084  1.00  0.00    -0.276 C  
BRANCH  21  22
HETATM   22  C   UNL     1     -10.603  11.585  63.695  1.00  0.00    -0.491 C  
BRANCH  22  23
HETATM   23  C   UNL     1     -12.058  12.040  63.583  1.00  0.00    -0.627 C  
HETATM   24  C   UNL     1     -12.418  13.009  64.701  1.00  0.00    -0.460 C  
ENDBRANCH  22  23
ENDBRANCH  21  22
ENDBRANCH  20  21
ENDBRANCH  19  20
ENDBRANCH  17  19
ENDBRANCH  13  14
ENDBRANCH  12  13
BRANCH  12  25
HETATM   25  O   UNL     1      -9.176  15.862  67.908  1.00  0.00    -0.197 OA 
BRANCH  25  26
HETATM   26  C   UNL     1     -10.422  16.355  67.664  1.00  0.00    -0.302 C  
HETATM   27  O   UNL     1     -11.141  16.056  66.717  1.00  0.00    -0.190 OA 
BRANCH  26  28
HETATM   28  C   UNL     1     -10.841  17.339  68.752  1.00  0.00    -0.153 C  
BRANCH  28  29
HETATM   29  C   UNL     1     -10.033  18.645  68.687  1.00  0.00    -0.431 C  
HETATM   30  C   UNL     1     -10.780  19.558  66.391  1.00  0.00    -0.528 C  
HETATM   31  C   UNL     1      -8.658  20.325  67.436  1.00  0.00    -0.420 C  
HETATM   32  C   UNL     1      -9.611  19.135  67.283  1.00  0.00    -0.375 C  
ENDBRANCH  28  29
BRANCH  28  33
HETATM   33  N   UNL     1     -10.752  16.671  70.049  1.00  0.00    -0.256 N  
HETATM   34  C   UNL     1     -11.727  15.838  70.520  1.00  0.00    -0.377 C  
HETATM   35  O   UNL     1     -12.781  15.592  69.954  1.00  0.00    -0.242 OA 
HETATM   36  H   UNL     1      -9.927  16.833  70.627  1.00  0.00     0.000 HD 
ENDBRANCH  28  33
ENDBRANCH  26  28
ENDBRANCH  25  26
ENDBRANCH  12  25
ENDBRANCH  11  12
ENDBRANCH  10  11
ENDBRANCH   9  10
ENDBRANCH   8   9
ENDBRANCH   7   8
ENDBRANCH   6   7
ENDBRANCH   5   6
ENDBRANCH   4   5
ENDBRANCH   3   4
ENDBRANCH   2   3
TORSDOF 22
ENDMDL
MODEL      256
REMARK 921   NORMALIZED FREE ENERGY PREDICTED BY IDOCK:   -3.76 KCAL/MOL
REMARK 922        TOTAL FREE ENERGY PREDICTED BY IDOCK:  -12.22 KCAL/MOL
REMARK 923 INTER-LIGAND FREE ENERGY PREDICTED BY IDOCK:   -9.29 KCAL/MOL
REMARK 924 INTRA-LIGAND FREE ENERGY PREDICTED BY IDOCK:   -2.93 KCAL/MOL
REMARK 927      BINDING AFFINITY PREDICTED BY RF-SCORE:    0.00 PKD
ROOT
HETATM    1  C   UNL     1      -8.936   5.516  66.587  1.00  0.00    -0.118 C  
HETATM    2  C   UNL     1      -9.052   7.022  66.757  1.00  0.00    -0.162 C  
ENDROOT
BRANCH   2   3
HETATM    3  C   UNL     1     -10.447   7.407  67.241  1.00  0.00    -0.385 C  
BRANCH   3   4
HETATM    4  C   UNL     1     -10.405   8.082  68.608  1.00  0.00    -0.224 C  
BRANCH   4   5
HETATM    5  C   UNL     1      -8.977   8.502  68.963  1.00  0.00    -0.146 C  
BRANCH   5   6
HETATM    6  C   UNL     1      -8.967   9.894  69.580  1.00  0.00    -0.232 C  
BRANCH   6   7
HETATM    7  C   UNL     1      -7.664  10.646  69.301  1.00  0.00    -0.142 C  
BRANCH   7   8
HETATM    8  C   UNL     1      -7.480  10.751  67.792  1.00  0.00    -0.094 C  
BRANCH   8   9
HETATM    9  C   UNL     1      -7.450  12.183  67.268  1.00  0.00    -0.152 C  
BRANCH   9  10
HETATM   10  C   UNL     1      -7.403  13.132  68.469  1.00  0.00    -0.111 C  
BRANCH  10  11
HETATM   11  C   UNL     1      -8.203  14.412  68.281  1.00  0.00    -0.149 C  
BRANCH  11  12
HETATM   12  C   UNL     1      -7.954  15.187  66.974  1.00  0.00    -0.188 C  
BRANCH  12  13
HETATM   13  C   UNL     1      -9.225  15.649  66.228  1.00  0.00    -0.365 C  
BRANCH  13  14
HETATM   14  C   UNL     1     -10.173  14.512  65.829  1.00  0.00    -0.335 C  
HETATM   15  O   UNL     1     -10.544  14.564  64.422  1.00  0.00    -0.231 OA 
HETATM   16  O   UNL     1     -12.778  14.825  63.919  1.00  0.00    -0.794 OA 
HETATM   17  C   UNL     1     -11.666  14.694  66.221  1.00  0.00    -0.325 C  
HETATM   18  C   UNL     1     -11.859  14.718  64.694  1.00  0.00    -0.436 C  
BRANCH  17  19
HETATM   19  C   UNL     1     -12.419  13.564  66.916  1.00  0.00    -0.162 C  
BRANCH  19  20
HETATM   20  C   UNL     1     -11.447  12.636  67.638  1.00  0.00    -0.390 C  
BRANCH  20  21
HETATM   21  C   UNL     1     -11.315  11.292  66.915  1.00  0.00    -0.231 C  
BRANCH  21  22
HETATM   22  C   UNL     1     -10.215  11.342  65.853  1.00  0.00    -0.298 C  
BRANCH  22  23
HETATM   23  C   UNL     1     -10.085  10.013  65.108  1.00  0.00    -0.268 C  
HETATM   24  C   UNL     1      -8.696   9.856  64.505  1.00  0.00    -0.219 C  
ENDBRANCH  22  23
ENDBRANCH  21  22
ENDBRANCH  20  21
ENDBRANCH  19  20
ENDBRANCH  17  19
ENDBRANCH  13  14
ENDBRANCH  12  13
BRANCH  12  25
HETATM   25  O   UNL     1      -7.150  16.364  67.222  1.00  0.00    -0.145 OA 
BRANCH  25  26
HETATM   26  C   UNL     1      -7.780  17.458  67.732  1.00  0.00    -0.195 C  
HETATM   27  O   UNL     1      -8.025  17.662  68.916  1.00  0.00    -0.262 OA 
BRANCH  26  28
HETATM   28  C   UNL     1      -8.140  18.444  66.624  1.00  0.00    -0.264 C  
BRANCH  28  29
HETATM   29  C   UNL     1      -6.890  19.026  65.945  1.00  0.00    -0.296 C  
HETATM   30  C   UNL     1      -6.198  20.819  67.667  1.00  0.00    -0.342 C  
HETATM   31  C   UNL     1      -5.427  20.957  65.308  1.00  0.00    -0.248 C  
HETATM   32  C   UNL     1      -6.577  20.515  66.217  1.00  0.00    -0.286 C  
ENDBRANCH  28  29
BRANCH  28  33
HETATM   33  N   UNL     1      -9.025  19.469  67.177  1.00  0.00    -0.294 N  
HETATM   34  C   UNL     1     -10.338  19.581  66.821  1.00  0.00    -0.462 C  
HETATM   35  O   UNL     1     -10.907  18.891  65.989  1.00  0.00    -0.341 OA 
HETATM   36  H   UNL     1      -8.644  20.128  67.857  1.00  0.00     0.000 HD 
ENDBRANCH  28  33
ENDBRANCH  26  28
ENDBRANCH  25  26
ENDBRANCH  12  25
ENDBRANCH  11  12
ENDBRANCH  10  11
ENDBRANCH   9  10
ENDBRANCH   8   9
ENDBRANCH   7   8
ENDBRANCH   6   7
ENDBRANCH   5   6
ENDBRANCH   4   5
ENDBRANCH   3   4
ENDBRANCH   2   3
TORSDOF 22
ENDMDL
MODEL      257
REMARK 921   NORMALIZED FREE ENERGY PREDICTED BY IDOCK:   -3.76 KCAL/MOL
REMARK 922        TOTAL FREE ENERGY PREDICTED BY IDOCK:  -12.20 KCAL/MOL
REMARK 923 INTER-LIGAND FREE ENERGY PREDICTED BY IDOCK:   -9.97 KCAL/MOL
REMARK 924 INTRA-LIGAND FREE ENERGY PREDICTED BY IDOCK:   -2.23 KCAL/MOL
REMARK 927      BINDING AFFINITY PREDICTED BY RF-SCORE:    0.00 PKD
ROOT
HETATM    1  C   UNL     1      -6.408   8.560  72.039  1.00  0.00    -0.071 C  
HETATM    2  C   UNL     1      -6.381   8.455  73.555  1.00  0.00    -0.130 C  
ENDROOT
BRANCH   2   3
HETATM    3  C   UNL     1      -7.671   7.827  74.078  1.00  0.00    -0.206 C  
BRANCH   3   4
HETATM    4  C   UNL     1      -8.860   8.142  73.176  1.00  0.00    -0.325 C  
BRANCH   4   5
HETATM    5  C   UNL     1     -10.113   7.406  73.653  1.00  0.00    -0.376 C  
BRANCH   5   6
HETATM    6  C   UNL     1     -11.296   7.721  72.747  1.00  0.00    -0.446 C  
BRANCH   6   7
HETATM    7  C   UNL     1     -11.981   6.458  72.222  1.00  0.00    -0.289 C  
BRANCH   7   8
HETATM    8  C   UNL     1     -12.002   6.515  70.699  1.00  0.00    -0.345 C  
BRANCH   8   9
HETATM    9  C   UNL     1     -10.619   6.461  70.058  1.00  0.00    -0.291 C  
BRANCH   9  10
HETATM   10  C   UNL     1     -10.735   6.991  68.625  1.00  0.00    -0.225 C  
BRANCH  10  11
HETATM   11  C   UNL     1      -9.968   8.280  68.376  1.00  0.00    -0.211 C  
BRANCH  11  12
HETATM   12  C   UNL     1     -10.729   9.397  67.638  1.00  0.00    -0.230 C  
BRANCH  12  13
HETATM   13  C   UNL     1     -10.349  10.837  68.048  1.00  0.00    -0.211 C  
BRANCH  13  14
HETATM   14  C   UNL     1     -11.528  11.817  68.079  1.00  0.00    -0.319 C  
HETATM   15  O   UNL     1     -12.015  12.145  66.747  1.00  0.00    -0.606 OA 
HETATM   16  O   UNL     1     -11.913  14.352  66.088  1.00  0.00    -0.389 OA 
HETATM   17  C   UNL     1     -11.170  13.312  68.307  1.00  0.00    -0.309 C  
HETATM   18  C   UNL     1     -11.735  13.460  66.883  1.00  0.00    -0.389 C  
BRANCH  17  19
HETATM   19  C   UNL     1     -11.924  14.130  69.351  1.00  0.00    -0.382 C  
BRANCH  19  20
HETATM   20  C   UNL     1     -12.269  13.266  70.561  1.00  0.00    -0.416 C  
BRANCH  20  21
HETATM   21  C   UNL     1     -13.154  14.024  71.555  1.00  0.00    -0.436 C  
BRANCH  21  22
HETATM   22  C   UNL     1     -12.956  15.536  71.429  1.00  0.00    -0.553 C  
BRANCH  22  23
HETATM   23  C   UNL     1     -12.113  16.096  72.574  1.00  0.00    -0.644 C  
HETATM   24  C   UNL     1     -12.191  15.199  73.802  1.00  0.00    -0.678 C  
ENDBRANCH  22  23
ENDBRANCH  21  22
ENDBRANCH  20  21
ENDBRANCH  19  20
ENDBRANCH  17  19
ENDBRANCH  13  14
ENDBRANCH  12  13
BRANCH  12  25
HETATM   25  O   UNL     1     -10.533   9.291  66.208  1.00  0.00    -0.188 OA 
BRANCH  25  26
HETATM   26  C   UNL     1      -9.340   9.713  65.706  1.00  0.00    -0.228 C  
HETATM   27  O   UNL     1      -9.107  10.820  65.234  1.00  0.00    -0.185 OA 
BRANCH  26  28
HETATM   28  C   UNL     1      -8.284   8.617  65.821  1.00  0.00    -0.126 C  
BRANCH  28  29
HETATM   29  C   UNL     1      -6.898   9.189  66.161  1.00  0.00    -0.085 C  
HETATM   30  C   UNL     1      -6.289   7.774  68.231  1.00  0.00    -0.045 C  
HETATM   31  C   UNL     1      -5.176   9.957  67.811  1.00  0.00    -0.035 C  
HETATM   32  C   UNL     1      -6.483   9.175  67.650  1.00  0.00    -0.063 C  
ENDBRANCH  28  29
BRANCH  28  33
HETATM   33  N   UNL     1      -8.294   7.824  64.593  1.00  0.00    -0.344 N  
HETATM   34  C   UNL     1      -8.021   6.486  64.576  1.00  0.00    -0.110 C  
HETATM   35  O   UNL     1      -7.699   5.817  65.546  1.00  0.00    -0.084 OA 
HETATM   36  H   UNL     1      -8.514   8.289  63.712  1.00  0.00     0.000 HD 
ENDBRANCH  28  33
ENDBRANCH  26  28
ENDBRANCH  25  26
ENDBRANCH  12  25
ENDBRANCH  11  12
ENDBRANCH  10  11
ENDBRANCH   9  10
ENDBRANCH   8   9
ENDBRANCH   7   8
ENDBRANCH   6   7
ENDBRANCH   5   6
ENDBRANCH   4   5
ENDBRANCH   3   4
ENDBRANCH   2   3
TORSDOF 22
ENDMDL
MODEL      258
REMARK 921   NORMALIZED FREE ENERGY PREDICTED BY IDOCK:   -3.76 KCAL/MOL
REMARK 922        TOTAL FREE ENERGY PREDICTED BY IDOCK:  -12.20 KCAL/MOL
REMARK 923 INTER-LIGAND FREE ENERGY PREDICTED BY IDOCK:   -9.19 KCAL/MOL
REMARK 924 INTRA-LIGAND FREE ENERGY PREDICTED BY IDOCK:   -3.01 KCAL/MOL
REMARK 927      BINDING AFFINITY PREDICTED BY RF-SCORE:    0.00 PKD
ROOT
HETATM    1  C   UNL     1     -10.207  20.054  68.666  1.00  0.00    -0.443 C  
HETATM    2  C   UNL     1     -10.449  19.434  67.300  1.00  0.00    -0.579 C  
ENDROOT
BRANCH   2   3
HETATM    3  C   UNL     1      -9.940  17.996  67.259  1.00  0.00    -0.324 C  
BRANCH   3   4
HETATM    4  C   UNL     1      -8.516  17.884  67.794  1.00  0.00    -0.242 C  
BRANCH   4   5
HETATM    5  C   UNL     1      -8.238  16.469  68.305  1.00  0.00    -0.185 C  
BRANCH   5   6
HETATM    6  C   UNL     1      -6.739  16.220  68.401  1.00  0.00    -0.136 C  
BRANCH   6   7
HETATM    7  C   UNL     1      -6.387  14.734  68.308  1.00  0.00    -0.123 C  
BRANCH   7   8
HETATM    8  C   UNL     1      -7.654  13.920  68.541  1.00  0.00    -0.134 C  
BRANCH   8   9
HETATM    9  C   UNL     1      -7.505  12.435  68.227  1.00  0.00    -0.124 C  
BRANCH   9  10
HETATM   10  C   UNL     1      -7.007  11.726  69.490  1.00  0.00     0.027 C  
BRANCH  10  11
HETATM   11  C   UNL     1      -6.902  10.215  69.352  1.00  0.00    -0.070 C  
BRANCH  11  12
HETATM   12  C   UNL     1      -8.170   9.482  68.875  1.00  0.00    -0.116 C  
BRANCH  12  13
HETATM   13  C   UNL     1      -8.052   8.785  67.501  1.00  0.00    -0.106 C  
BRANCH  13  14
HETATM   14  C   UNL     1      -9.185   9.120  66.523  1.00  0.00    -0.175 C  
HETATM   15  O   UNL     1      -9.183   8.254  65.353  1.00  0.00    -0.030 OA 
HETATM   16  O   UNL     1      -8.896   9.247  63.293  1.00  0.00    -0.219 OA 
HETATM   17  C   UNL     1      -8.955  10.351  65.603  1.00  0.00    -0.198 C  
HETATM   18  C   UNL     1      -8.990   9.281  64.496  1.00  0.00    -0.136 C  
BRANCH  17  19
HETATM   19  C   UNL     1     -10.038  11.414  65.460  1.00  0.00    -0.293 C  
BRANCH  19  20
HETATM   20  C   UNL     1     -10.807  11.226  64.156  1.00  0.00    -0.407 C  
BRANCH  20  21
HETATM   21  C   UNL     1     -11.613  12.477  63.796  1.00  0.00    -0.552 C  
BRANCH  21  22
HETATM   22  C   UNL     1     -11.108  13.700  64.565  1.00  0.00    -0.396 C  
BRANCH  22  23
HETATM   23  C   UNL     1     -12.056  14.090  65.698  1.00  0.00    -0.432 C  
HETATM   24  C   UNL     1     -11.288  14.652  66.887  1.00  0.00    -0.361 C  
ENDBRANCH  22  23
ENDBRANCH  21  22
ENDBRANCH  20  21
ENDBRANCH  19  20
ENDBRANCH  17  19
ENDBRANCH  13  14
ENDBRANCH  12  13
BRANCH  12  25
HETATM   25  O   UNL     1      -8.572   8.477  69.834  1.00  0.00    -0.126 OA 
BRANCH  25  26
HETATM   26  C   UNL     1      -9.485   8.840  70.777  1.00  0.00    -0.206 C  
HETATM   27  O   UNL     1      -9.233   9.216  71.917  1.00  0.00    -0.354 OA 
BRANCH  26  28
HETATM   28  C   UNL     1     -10.905   8.741  70.227  1.00  0.00    -0.231 C  
BRANCH  28  29
HETATM   29  C   UNL     1     -11.724  10.008  70.521  1.00  0.00    -0.400 C  
HETATM   30  C   UNL     1     -11.562  11.223  68.250  1.00  0.00    -0.370 C  
HETATM   31  C   UNL     1     -12.110  12.476  70.326  1.00  0.00    -0.373 C  
HETATM   32  C   UNL     1     -11.322  11.292  69.759  1.00  0.00    -0.348 C  
ENDBRANCH  28  29
BRANCH  28  33
HETATM   33  N   UNL     1     -11.525   7.522  70.742  1.00  0.00    -0.284 N  
HETATM   34  C   UNL     1     -11.597   6.367  70.017  1.00  0.00    -0.377 C  
HETATM   35  O   UNL     1     -11.207   6.226  68.869  1.00  0.00    -0.370 OA 
HETATM   36  H   UNL     1     -11.921   7.535  71.683  1.00  0.00     0.000 HD 
ENDBRANCH  28  33
ENDBRANCH  26  28
ENDBRANCH  25  26
ENDBRANCH  12  25
ENDBRANCH  11  12
ENDBRANCH  10  11
ENDBRANCH   9  10
ENDBRANCH   8   9
ENDBRANCH   7   8
ENDBRANCH   6   7
ENDBRANCH   5   6
ENDBRANCH   4   5
ENDBRANCH   3   4
ENDBRANCH   2   3
TORSDOF 22
ENDMDL
MODEL      259
REMARK 921   NORMALIZED FREE ENERGY PREDICTED BY IDOCK:   -3.75 KCAL/MOL
REMARK 922        TOTAL FREE ENERGY PREDICTED BY IDOCK:  -12.20 KCAL/MOL
REMARK 923 INTER-LIGAND FREE ENERGY PREDICTED BY IDOCK:   -9.05 KCAL/MOL
REMARK 924 INTRA-LIGAND FREE ENERGY PREDICTED BY IDOCK:   -3.14 KCAL/MOL
REMARK 927      BINDING AFFINITY PREDICTED BY RF-SCORE:    0.00 PKD
ROOT
HETATM    1  C   UNL     1     -11.858   5.844  72.441  1.00  0.00    -0.263 C  
HETATM    2  C   UNL     1     -12.192   6.965  71.470  1.00  0.00    -0.415 C  
ENDROOT
BRANCH   2   3
HETATM    3  C   UNL     1     -11.985   8.328  72.124  1.00  0.00    -0.429 C  
BRANCH   3   4
HETATM    4  C   UNL     1     -10.721   9.015  71.615  1.00  0.00    -0.441 C  
BRANCH   4   5
HETATM    5  C   UNL     1      -9.979   8.118  70.622  1.00  0.00    -0.204 C  
BRANCH   5   6
HETATM    6  C   UNL     1      -8.692   7.588  71.238  1.00  0.00    -0.127 C  
BRANCH   6   7
HETATM    7  C   UNL     1      -7.906   8.675  71.974  1.00  0.00    -0.104 C  
BRANCH   7   8
HETATM    8  C   UNL     1      -6.778   9.154  71.068  1.00  0.00    -0.093 C  
BRANCH   8   9
HETATM    9  C   UNL     1      -7.115  10.406  70.265  1.00  0.00    -0.060 C  
BRANCH   9  10
HETATM   10  C   UNL     1      -7.352   9.993  68.810  1.00  0.00    -0.078 C  
BRANCH  10  11
HETATM   11  C   UNL     1      -8.551  10.668  68.161  1.00  0.00    -0.123 C  
BRANCH  11  12
HETATM   12  C   UNL     1      -8.241  11.751  67.111  1.00  0.00    -0.169 C  
BRANCH  12  13
HETATM   13  C   UNL     1      -6.776  12.243  67.083  1.00  0.00    -0.105 C  
BRANCH  13  14
HETATM   14  C   UNL     1      -6.580  13.673  67.599  1.00  0.00    -0.165 C  
HETATM   15  O   UNL     1      -5.687  13.733  68.748  1.00  0.00    -0.079 OA 
HETATM   16  O   UNL     1      -6.546  14.552  70.723  1.00  0.00    -0.062 OA 
HETATM   17  C   UNL     1      -7.728  14.251  68.472  1.00  0.00    -0.137 C  
HETATM   18  C   UNL     1      -6.638  14.244  69.560  1.00  0.00    -0.134 C  
BRANCH  17  19
HETATM   19  C   UNL     1      -8.290  15.639  68.178  1.00  0.00    -0.146 C  
BRANCH  19  20
HETATM   20  C   UNL     1      -8.168  15.963  66.692  1.00  0.00    -0.317 C  
BRANCH  20  21
HETATM   21  C   UNL     1      -8.399  17.453  66.424  1.00  0.00    -0.302 C  
BRANCH  21  22
HETATM   22  C   UNL     1      -9.850  17.722  66.019  1.00  0.00    -0.181 C  
BRANCH  22  23
HETATM   23  C   UNL     1     -10.179  19.215  66.045  1.00  0.00    -0.494 C  
HETATM   24  C   UNL     1      -9.504  19.905  67.222  1.00  0.00    -0.487 C  
ENDBRANCH  22  23
ENDBRANCH  21  22
ENDBRANCH  20  21
ENDBRANCH  19  20
ENDBRANCH  17  19
ENDBRANCH  13  14
ENDBRANCH  12  13
BRANCH  12  25
HETATM   25  O   UNL     1      -8.562  11.283  65.781  1.00  0.00    -0.160 OA 
BRANCH  25  26
HETATM   26  C   UNL     1      -9.815  10.790  65.575  1.00  0.00    -0.255 C  
HETATM   27  O   UNL     1     -10.135   9.607  65.583  1.00  0.00    -0.296 OA 
BRANCH  26  28
HETATM   28  C   UNL     1     -10.814  11.922  65.348  1.00  0.00    -0.294 C  
BRANCH  28  29
HETATM   29  C   UNL     1     -11.623  12.236  66.616  1.00  0.00    -0.438 C  
HETATM   30  C   UNL     1     -11.528  14.815  66.620  1.00  0.00    -0.339 C  
HETATM   31  C   UNL     1     -12.015  13.557  68.709  1.00  0.00    -0.374 C  
HETATM   32  C   UNL     1     -11.244  13.522  67.386  1.00  0.00    -0.317 C  
ENDBRANCH  28  29
BRANCH  28  33
HETATM   33  N   UNL     1     -11.652  11.585  64.199  1.00  0.00    -0.273 N  
HETATM   34  C   UNL     1     -12.356  12.522  63.498  1.00  0.00    -0.525 C  
HETATM   35  O   UNL     1     -12.409  13.713  63.765  1.00  0.00    -0.671 OA 
HETATM   36  H   UNL     1     -11.713  10.609  63.907  1.00  0.00     0.000 HD 
ENDBRANCH  28  33
ENDBRANCH  26  28
ENDBRANCH  25  26
ENDBRANCH  12  25
ENDBRANCH  11  12
ENDBRANCH  10  11
ENDBRANCH   9  10
ENDBRANCH   8   9
ENDBRANCH   7   8
ENDBRANCH   6   7
ENDBRANCH   5   6
ENDBRANCH   4   5
ENDBRANCH   3   4
ENDBRANCH   2   3
TORSDOF 22
ENDMDL
MODEL      260
REMARK 921   NORMALIZED FREE ENERGY PREDICTED BY IDOCK:   -3.75 KCAL/MOL
REMARK 922        TOTAL FREE ENERGY PREDICTED BY IDOCK:  -12.18 KCAL/MOL
REMARK 923 INTER-LIGAND FREE ENERGY PREDICTED BY IDOCK:   -9.19 KCAL/MOL
REMARK 924 INTRA-LIGAND FREE ENERGY PREDICTED BY IDOCK:   -2.99 KCAL/MOL
REMARK 927      BINDING AFFINITY PREDICTED BY RF-SCORE:    0.00 PKD
ROOT
HETATM    1  C   UNL     1      -7.517   7.171  64.074  1.00  0.00    -0.099 C  
HETATM    2  C   UNL     1      -7.478   5.771  64.666  1.00  0.00    -0.077 C  
ENDROOT
BRANCH   2   3
HETATM    3  C   UNL     1      -8.868   5.337  65.123  1.00  0.00    -0.130 C  
BRANCH   3   4
HETATM    4  C   UNL     1      -9.162   3.888  64.743  1.00  0.00    -0.149 C  
BRANCH   4   5
HETATM    5  C   UNL     1      -9.263   3.009  65.991  1.00  0.00    -0.122 C  
BRANCH   5   6
HETATM    6  C   UNL     1      -9.457   3.867  67.234  1.00  0.00    -0.235 C  
BRANCH   6   7
HETATM    7  C   UNL     1      -8.766   3.276  68.465  1.00  0.00    -0.141 C  
BRANCH   7   8
HETATM    8  C   UNL     1      -8.089   4.406  69.230  1.00  0.00    -0.069 C  
BRANCH   8   9
HETATM    9  C   UNL     1      -7.282   5.355  68.350  1.00  0.00    -0.071 C  
BRANCH   9  10
HETATM   10  C   UNL     1      -7.509   6.785  68.852  1.00  0.00    -0.096 C  
BRANCH  10  11
HETATM   11  C   UNL     1      -8.645   7.514  68.152  1.00  0.00    -0.123 C  
BRANCH  11  12
HETATM   12  C   UNL     1      -9.092   8.847  68.781  1.00  0.00    -0.134 C  
BRANCH  12  13
HETATM   13  C   UNL     1      -9.306  10.008  67.784  1.00  0.00    -0.154 C  
BRANCH  13  14
HETATM   14  C   UNL     1     -10.447  10.961  68.159  1.00  0.00    -0.182 C  
HETATM   15  O   UNL     1     -11.635  10.756  67.342  1.00  0.00    -0.485 OA 
HETATM   16  O   UNL     1     -12.356  12.523  66.049  1.00  0.00    -0.615 OA 
HETATM   17  C   UNL     1     -10.334  12.413  67.617  1.00  0.00    -0.223 C  
HETATM   18  C   UNL     1     -11.598  12.009  66.837  1.00  0.00    -0.318 C  
BRANCH  17  19
HETATM   19  C   UNL     1     -10.545  13.599  68.552  1.00  0.00    -0.259 C  
BRANCH  19  20
HETATM   20  C   UNL     1     -12.000  13.672  69.005  1.00  0.00    -0.392 C  
BRANCH  20  21
HETATM   21  C   UNL     1     -12.106  13.973  70.503  1.00  0.00    -0.424 C  
BRANCH  21  22
HETATM   22  C   UNL     1     -12.784  15.322  70.749  1.00  0.00    -0.491 C  
BRANCH  22  23
HETATM   23  C   UNL     1     -13.694  15.284  71.977  1.00  0.00    -0.596 C  
HETATM   24  C   UNL     1     -13.038  14.527  73.124  1.00  0.00    -0.553 C  
ENDBRANCH  22  23
ENDBRANCH  21  22
ENDBRANCH  20  21
ENDBRANCH  19  20
ENDBRANCH  17  19
ENDBRANCH  13  14
ENDBRANCH  12  13
BRANCH  12  25
HETATM   25  O   UNL     1     -10.326   8.679  69.517  1.00  0.00    -0.206 OA 
BRANCH  25  26
HETATM   26  C   UNL     1     -10.242   8.610  70.874  1.00  0.00    -0.209 C  
HETATM   27  O   UNL     1      -9.511   9.291  71.586  1.00  0.00    -0.294 OA 
BRANCH  26  28
HETATM   28  C   UNL     1     -11.210   7.569  71.427  1.00  0.00    -0.242 C  
BRANCH  28  29
HETATM   29  C   UNL     1     -10.706   6.136  71.195  1.00  0.00    -0.312 C  
HETATM   30  C   UNL     1     -11.969   4.874  73.058  1.00  0.00    -0.022 C  
HETATM   31  C   UNL     1      -9.913   3.915  72.042  1.00  0.00    -0.241 C  
HETATM   32  C   UNL     1     -10.615   5.218  72.435  1.00  0.00    -0.280 C  
ENDBRANCH  28  29
BRANCH  28  33
HETATM   33  N   UNL     1     -12.536   7.812  70.860  1.00  0.00    -0.518 N  
HETATM   34  C   UNL     1     -13.514   8.489  71.531  1.00  0.00    -0.294 C  
HETATM   35  O   UNL     1     -13.421   8.922  72.670  1.00  0.00    -0.435 OA 
HETATM   36  H   UNL     1     -12.739   7.460  69.924  1.00  0.00     0.000 HD 
ENDBRANCH  28  33
ENDBRANCH  26  28
ENDBRANCH  25  26
ENDBRANCH  12  25
ENDBRANCH  11  12
ENDBRANCH  10  11
ENDBRANCH   9  10
ENDBRANCH   8   9
ENDBRANCH   7   8
ENDBRANCH   6   7
ENDBRANCH   5   6
ENDBRANCH   4   5
ENDBRANCH   3   4
ENDBRANCH   2   3
TORSDOF 22
ENDMDL
MODEL      261
REMARK 921   NORMALIZED FREE ENERGY PREDICTED BY IDOCK:   -3.75 KCAL/MOL
REMARK 922        TOTAL FREE ENERGY PREDICTED BY IDOCK:  -12.18 KCAL/MOL
REMARK 923 INTER-LIGAND FREE ENERGY PREDICTED BY IDOCK:   -8.46 KCAL/MOL
REMARK 924 INTRA-LIGAND FREE ENERGY PREDICTED BY IDOCK:   -3.72 KCAL/MOL
REMARK 927      BINDING AFFINITY PREDICTED BY RF-SCORE:    0.00 PKD
ROOT
HETATM    1  C   UNL     1     -12.010  16.095  72.125  1.00  0.00    -0.623 C  
HETATM    2  C   UNL     1     -13.095  15.237  71.494  1.00  0.00    -0.517 C  
ENDROOT
BRANCH   2   3
HETATM    3  C   UNL     1     -12.513  14.339  70.407  1.00  0.00    -0.426 C  
BRANCH   3   4
HETATM    4  C   UNL     1     -11.233  14.922  69.816  1.00  0.00    -0.308 C  
BRANCH   4   5
HETATM    5  C   UNL     1     -11.508  15.565  68.455  1.00  0.00    -0.369 C  
BRANCH   5   6
HETATM    6  C   UNL     1     -11.631  14.498  67.375  1.00  0.00    -0.406 C  
BRANCH   6   7
HETATM    7  C   UNL     1     -10.460  13.514  67.390  1.00  0.00    -0.247 C  
BRANCH   7   8
HETATM    8  C   UNL     1     -10.993  12.122  67.072  1.00  0.00    -0.319 C  
BRANCH   8   9
HETATM    9  C   UNL     1     -11.814  11.499  68.196  1.00  0.00    -0.306 C  
BRANCH   9  10
HETATM   10  C   UNL     1     -11.170  10.164  68.578  1.00  0.00    -0.226 C  
BRANCH  10  11
HETATM   11  C   UNL     1      -9.835  10.302  69.294  1.00  0.00    -0.244 C  
BRANCH  11  12
HETATM   12  C   UNL     1      -8.637   9.576  68.655  1.00  0.00    -0.119 C  
BRANCH  12  13
HETATM   13  C   UNL     1      -8.058   8.405  69.479  1.00  0.00    -0.113 C  
BRANCH  13  14
HETATM   14  C   UNL     1      -9.065   7.734  70.420  1.00  0.00    -0.155 C  
HETATM   15  O   UNL     1      -8.438   6.766  71.309  1.00  0.00    -0.123 OA 
HETATM   16  O   UNL     1      -9.127   4.572  71.153  1.00  0.00    -0.124 OA 
HETATM   17  C   UNL     1      -9.926   6.596  69.803  1.00  0.00    -0.189 C  
HETATM   18  C   UNL     1      -9.160   5.733  70.821  1.00  0.00    -0.148 C  
BRANCH  17  19
HETATM   19  C   UNL     1     -11.438   6.583  70.006  1.00  0.00    -0.476 C  
BRANCH  19  20
HETATM   20  C   UNL     1     -11.786   6.867  71.464  1.00  0.00    -0.351 C  
BRANCH  20  21
HETATM   21  C   UNL     1     -13.281   7.150  71.637  1.00  0.00    -0.403 C  
BRANCH  21  22
HETATM   22  C   UNL     1     -13.511   8.476  72.364  1.00  0.00    -0.320 C  
BRANCH  22  23
HETATM   23  C   UNL     1     -13.655   9.642  71.386  1.00  0.00    -0.343 C  
HETATM   24  C   UNL     1     -12.759  10.807  71.784  1.00  0.00    -0.464 C  
ENDBRANCH  22  23
ENDBRANCH  21  22
ENDBRANCH  20  21
ENDBRANCH  19  20
ENDBRANCH  17  19
ENDBRANCH  13  14
ENDBRANCH  12  13
BRANCH  12  25
HETATM   25  O   UNL     1      -8.991   9.052  67.354  1.00  0.00    -0.124 OA 
BRANCH  25  26
HETATM   26  C   UNL     1      -8.014   9.017  66.405  1.00  0.00    -0.103 C  
HETATM   27  O   UNL     1      -7.168   9.883  66.210  1.00  0.00    -0.096 OA 
BRANCH  26  28
HETATM   28  C   UNL     1      -8.082   7.722  65.601  1.00  0.00    -0.129 C  
BRANCH  28  29
HETATM   29  C   UNL     1      -8.976   6.672  66.279  1.00  0.00    -0.168 C  
HETATM   30  C   UNL     1      -7.223   5.361  67.646  1.00  0.00    -0.072 C  
HETATM   31  C   UNL     1      -9.416   4.337  67.075  1.00  0.00    -0.205 C  
HETATM   32  C   UNL     1      -8.330   5.303  66.592  1.00  0.00    -0.108 C  
ENDBRANCH  28  29
BRANCH  28  33
HETATM   33  N   UNL     1      -6.721   7.248  65.356  1.00  0.00    -0.047 N  
HETATM   34  C   UNL     1      -6.208   7.092  64.100  1.00  0.00    -0.040 C  
HETATM   35  O   UNL     1      -6.817   7.279  63.058  1.00  0.00    -0.052 OA 
HETATM   36  H   UNL     1      -6.130   7.024  66.157  1.00  0.00     0.000 HD 
ENDBRANCH  28  33
ENDBRANCH  26  28
ENDBRANCH  25  26
ENDBRANCH  12  25
ENDBRANCH  11  12
ENDBRANCH  10  11
ENDBRANCH   9  10
ENDBRANCH   8   9
ENDBRANCH   7   8
ENDBRANCH   6   7
ENDBRANCH   5   6
ENDBRANCH   4   5
ENDBRANCH   3   4
ENDBRANCH   2   3
TORSDOF 22
ENDMDL
MODEL      262
REMARK 921   NORMALIZED FREE ENERGY PREDICTED BY IDOCK:   -3.74 KCAL/MOL
REMARK 922        TOTAL FREE ENERGY PREDICTED BY IDOCK:  -12.18 KCAL/MOL
REMARK 923 INTER-LIGAND FREE ENERGY PREDICTED BY IDOCK:   -9.47 KCAL/MOL
REMARK 924 INTRA-LIGAND FREE ENERGY PREDICTED BY IDOCK:   -2.71 KCAL/MOL
REMARK 927      BINDING AFFINITY PREDICTED BY RF-SCORE:    0.00 PKD
ROOT
HETATM    1  C   UNL     1     -11.491   2.506  73.525  1.00  0.00    -0.260 C  
HETATM    2  C   UNL     1     -10.680   3.741  73.169  1.00  0.00    -0.267 C  
ENDROOT
BRANCH   2   3
HETATM    3  C   UNL     1      -9.574   3.397  72.175  1.00  0.00    -0.206 C  
BRANCH   3   4
HETATM    4  C   UNL     1      -8.706   4.609  71.853  1.00  0.00    -0.133 C  
BRANCH   4   5
HETATM    5  C   UNL     1      -9.486   5.631  71.025  1.00  0.00    -0.200 C  
BRANCH   5   6
HETATM    6  C   UNL     1      -9.041   5.590  69.569  1.00  0.00    -0.143 C  
BRANCH   6   7
HETATM    7  C   UNL     1      -7.598   6.062  69.386  1.00  0.00    -0.097 C  
BRANCH   7   8
HETATM    8  C   UNL     1      -7.482   6.754  68.033  1.00  0.00    -0.099 C  
BRANCH   8   9
HETATM    9  C   UNL     1      -8.299   6.094  66.927  1.00  0.00    -0.106 C  
BRANCH   9  10
HETATM   10  C   UNL     1      -8.465   7.103  65.787  1.00  0.00    -0.151 C  
BRANCH  10  11
HETATM   11  C   UNL     1      -8.455   8.556  66.238  1.00  0.00    -0.130 C  
BRANCH  11  12
HETATM   12  C   UNL     1      -9.829   9.235  66.388  1.00  0.00    -0.277 C  
BRANCH  12  13
HETATM   13  C   UNL     1     -10.620   8.852  67.658  1.00  0.00    -0.292 C  
BRANCH  13  14
HETATM   14  C   UNL     1     -10.326   9.735  68.877  1.00  0.00    -0.210 C  
HETATM   15  O   UNL     1      -8.947  10.204  68.905  1.00  0.00    -0.137 OA 
HETATM   16  O   UNL     1      -7.647   9.580  70.704  1.00  0.00    -0.144 OA 
HETATM   17  C   UNL     1     -10.093   8.993  70.222  1.00  0.00    -0.232 C  
HETATM   18  C   UNL     1      -8.680   9.587  70.078  1.00  0.00    -0.221 C  
BRANCH  17  19
HETATM   19  C   UNL     1     -10.821   9.446  71.483  1.00  0.00    -0.398 C  
BRANCH  19  20
HETATM   20  C   UNL     1     -12.203   8.804  71.564  1.00  0.00    -0.382 C  
BRANCH  20  21
HETATM   21  C   UNL     1     -13.311   9.861  71.561  1.00  0.00    -0.462 C  
BRANCH  21  22
HETATM   22  C   UNL     1     -12.773  11.224  71.121  1.00  0.00    -0.492 C  
BRANCH  22  23
HETATM   23  C   UNL     1     -13.319  12.358  71.989  1.00  0.00    -0.511 C  
HETATM   24  C   UNL     1     -12.916  13.717  71.434  1.00  0.00    -0.433 C  
ENDBRANCH  22  23
ENDBRANCH  21  22
ENDBRANCH  20  21
ENDBRANCH  19  20
ENDBRANCH  17  19
ENDBRANCH  13  14
ENDBRANCH  12  13
BRANCH  12  25
HETATM   25  O   UNL     1      -9.692  10.675  66.385  1.00  0.00    -0.184 OA 
BRANCH  25  26
HETATM   26  C   UNL     1     -10.328  11.363  65.397  1.00  0.00    -0.279 C  
HETATM   27  O   UNL     1     -10.731  10.896  64.337  1.00  0.00    -0.340 OA 
BRANCH  26  28
HETATM   28  C   UNL     1     -10.507  12.828  65.783  1.00  0.00    -0.276 C  
BRANCH  28  29
HETATM   29  C   UNL     1      -9.444  13.290  66.793  1.00  0.00    -0.257 C  
HETATM   30  C   UNL     1      -9.898  15.830  66.840  1.00  0.00    -0.243 C  
HETATM   31  C   UNL     1      -7.704  14.916  67.571  1.00  0.00    -0.214 C  
HETATM   32  C   UNL     1      -8.876  14.715  66.606  1.00  0.00    -0.240 C  
ENDBRANCH  28  29
BRANCH  28  33
HETATM   33  N   UNL     1     -11.876  13.026  66.257  1.00  0.00    -0.390 N  
HETATM   34  C   UNL     1     -12.803  13.745  65.559  1.00  0.00    -0.419 C  
HETATM   35  O   UNL     1     -12.598  14.333  64.508  1.00  0.00    -0.649 OA 
HETATM   36  H   UNL     1     -12.150  12.608  67.147  1.00  0.00     0.000 HD 
ENDBRANCH  28  33
ENDBRANCH  26  28
ENDBRANCH  25  26
ENDBRANCH  12  25
ENDBRANCH  11  12
ENDBRANCH  10  11
ENDBRANCH   9  10
ENDBRANCH   8   9
ENDBRANCH   7   8
ENDBRANCH   6   7
ENDBRANCH   5   6
ENDBRANCH   4   5
ENDBRANCH   3   4
ENDBRANCH   2   3
TORSDOF 22
ENDMDL
MODEL      263
REMARK 921   NORMALIZED FREE ENERGY PREDICTED BY IDOCK:   -3.73 KCAL/MOL
REMARK 922        TOTAL FREE ENERGY PREDICTED BY IDOCK:  -12.16 KCAL/MOL
REMARK 923 INTER-LIGAND FREE ENERGY PREDICTED BY IDOCK:   -9.00 KCAL/MOL
REMARK 924 INTRA-LIGAND FREE ENERGY PREDICTED BY IDOCK:   -3.16 KCAL/MOL
REMARK 927      BINDING AFFINITY PREDICTED BY RF-SCORE:    0.00 PKD
ROOT
HETATM    1  C   UNL     1      -9.592   1.749  63.088  1.00  0.00    -0.094 C  
HETATM    2  C   UNL     1     -10.729   2.753  63.177  1.00  0.00    -0.224 C  
ENDROOT
BRANCH   2   3
HETATM    3  C   UNL     1     -10.189   4.169  63.356  1.00  0.00    -0.067 C  
BRANCH   3   4
HETATM    4  C   UNL     1      -8.698   4.170  63.680  1.00  0.00    -0.116 C  
BRANCH   4   5
HETATM    5  C   UNL     1      -8.434   4.862  65.019  1.00  0.00    -0.142 C  
BRANCH   5   6
HETATM    6  C   UNL     1      -8.583   3.875  66.169  1.00  0.00    -0.112 C  
BRANCH   6   7
HETATM    7  C   UNL     1      -9.323   4.480  67.364  1.00  0.00    -0.168 C  
BRANCH   7   8
HETATM    8  C   UNL     1     -10.586   5.165  66.855  1.00  0.00    -0.234 C  
BRANCH   8   9
HETATM    9  C   UNL     1     -10.937   6.449  67.599  1.00  0.00    -0.441 C  
BRANCH   9  10
HETATM   10  C   UNL     1     -10.009   7.562  67.102  1.00  0.00    -0.288 C  
BRANCH  10  11
HETATM   11  C   UNL     1     -10.563   8.965  67.296  1.00  0.00    -0.304 C  
BRANCH  11  12
HETATM   12  C   UNL     1      -9.797   9.872  68.276  1.00  0.00    -0.147 C  
BRANCH  12  13
HETATM   13  C   UNL     1      -9.483   9.242  69.651  1.00  0.00    -0.188 C  
BRANCH  13  14
HETATM   14  C   UNL     1     -10.458   9.639  70.766  1.00  0.00    -0.305 C  
HETATM   15  O   UNL     1     -10.225   8.900  71.999  1.00  0.00    -0.334 OA 
HETATM   16  O   UNL     1     -11.937   7.574  72.787  1.00  0.00    -0.178 OA 
HETATM   17  C   UNL     1     -11.885   9.028  70.680  1.00  0.00    -0.193 C  
HETATM   18  C   UNL     1     -11.454   8.339  71.988  1.00  0.00    -0.334 C  
BRANCH  17  19
HETATM   19  C   UNL     1     -13.112   9.920  70.834  1.00  0.00    -0.344 C  
BRANCH  19  20
HETATM   20  C   UNL     1     -12.883  10.962  71.925  1.00  0.00    -0.432 C  
BRANCH  20  21
HETATM   21  C   UNL     1     -12.930  12.384  71.359  1.00  0.00    -0.348 C  
BRANCH  21  22
HETATM   22  C   UNL     1     -13.580  13.352  72.350  1.00  0.00    -0.708 C  
BRANCH  22  23
HETATM   23  C   UNL     1     -14.038  14.641  71.668  1.00  0.00    -0.571 C  
HETATM   24  C   UNL     1     -12.971  15.722  71.764  1.00  0.00    -0.505 C  
ENDBRANCH  22  23
ENDBRANCH  21  22
ENDBRANCH  20  21
ENDBRANCH  19  20
ENDBRANCH  17  19
ENDBRANCH  13  14
ENDBRANCH  12  13
BRANCH  12  25
HETATM   25  O   UNL     1      -8.540  10.301  67.703  1.00  0.00    -0.118 OA 
BRANCH  25  26
HETATM   26  C   UNL     1      -8.583  11.291  66.768  1.00  0.00    -0.159 C  
HETATM   27  O   UNL     1      -8.568  11.135  65.552  1.00  0.00    -0.149 OA 
BRANCH  26  28
HETATM   28  C   UNL     1      -8.674  12.662  67.432  1.00  0.00    -0.191 C  
BRANCH  28  29
HETATM   29  C   UNL     1      -9.983  13.385  67.075  1.00  0.00    -0.246 C  
HETATM   30  C   UNL     1     -10.449  14.647  69.278  1.00  0.00    -0.218 C  
HETATM   31  C   UNL     1     -12.281  14.196  67.658  1.00  0.00    -0.231 C  
HETATM   32  C   UNL     1     -10.969  13.656  68.235  1.00  0.00    -0.275 C  
ENDBRANCH  28  29
BRANCH  28  33
HETATM   33  N   UNL     1      -7.479  13.431  67.089  1.00  0.00    -0.370 N  
HETATM   34  C   UNL     1      -6.782  14.161  68.008  1.00  0.00    -0.148 C  
HETATM   35  O   UNL     1      -7.086  14.296  69.184  1.00  0.00    -0.117 OA 
HETATM   36  H   UNL     1      -7.153  13.422  66.122  1.00  0.00     0.000 HD 
ENDBRANCH  28  33
ENDBRANCH  26  28
ENDBRANCH  25  26
ENDBRANCH  12  25
ENDBRANCH  11  12
ENDBRANCH  10  11
ENDBRANCH   9  10
ENDBRANCH   8   9
ENDBRANCH   7   8
ENDBRANCH   6   7
ENDBRANCH   5   6
ENDBRANCH   4   5
ENDBRANCH   3   4
ENDBRANCH   2   3
TORSDOF 22
ENDMDL
MODEL      264
REMARK 921   NORMALIZED FREE ENERGY PREDICTED BY IDOCK:   -3.73 KCAL/MOL
REMARK 922        TOTAL FREE ENERGY PREDICTED BY IDOCK:  -12.14 KCAL/MOL
REMARK 923 INTER-LIGAND FREE ENERGY PREDICTED BY IDOCK:   -8.74 KCAL/MOL
REMARK 924 INTRA-LIGAND FREE ENERGY PREDICTED BY IDOCK:   -3.40 KCAL/MOL
REMARK 927      BINDING AFFINITY PREDICTED BY RF-SCORE:    0.00 PKD
ROOT
HETATM    1  C   UNL     1     -11.857  14.742  69.077  1.00  0.00    -0.337 C  
HETATM    2  C   UNL     1     -10.688  15.311  69.865  1.00  0.00    -0.300 C  
ENDROOT
BRANCH   2   3
HETATM    3  C   UNL     1      -9.374  15.093  69.119  1.00  0.00    -0.215 C  
BRANCH   3   4
HETATM    4  C   UNL     1      -8.867  16.381  68.477  1.00  0.00    -0.224 C  
BRANCH   4   5
HETATM    5  C   UNL     1      -7.715  16.089  67.513  1.00  0.00    -0.176 C  
BRANCH   5   6
HETATM    6  C   UNL     1      -6.622  15.291  68.212  1.00  0.00    -0.116 C  
BRANCH   6   7
HETATM    7  C   UNL     1      -6.563  13.839  67.731  1.00  0.00    -0.181 C  
BRANCH   7   8
HETATM    8  C   UNL     1      -5.879  13.001  68.805  1.00  0.00    -0.074 C  
BRANCH   8   9
HETATM    9  C   UNL     1      -6.844  12.231  69.700  1.00  0.00     0.135 C  
BRANCH   9  10
HETATM   10  C   UNL     1      -6.847  10.766  69.254  1.00  0.00    -0.092 C  
BRANCH  10  11
HETATM   11  C   UNL     1      -7.744  10.483  68.059  1.00  0.00    -0.092 C  
BRANCH  11  12
HETATM   12  C   UNL     1      -9.255  10.395  68.344  1.00  0.00    -0.147 C  
BRANCH  12  13
HETATM   13  C   UNL     1      -9.632   9.913  69.762  1.00  0.00    -0.261 C  
BRANCH  13  14
HETATM   14  C   UNL     1     -11.028   9.288  69.867  1.00  0.00    -0.213 C  
HETATM   15  O   UNL     1     -12.012  10.212  70.415  1.00  0.00    -0.268 OA 
HETATM   16  O   UNL     1     -13.046   9.621  72.388  1.00  0.00    -0.403 OA 
HETATM   17  C   UNL     1     -11.264   8.336  71.073  1.00  0.00    -0.291 C  
HETATM   18  C   UNL     1     -12.269   9.427  71.484  1.00  0.00    -0.369 C  
BRANCH  17  19
HETATM   19  C   UNL     1     -11.902   6.968  70.854  1.00  0.00    -0.401 C  
BRANCH  19  20
HETATM   20  C   UNL     1     -10.870   5.859  71.038  1.00  0.00    -0.339 C  
BRANCH  20  21
HETATM   21  C   UNL     1     -10.532   5.183  69.706  1.00  0.00    -0.274 C  
BRANCH  21  22
HETATM   22  C   UNL     1      -9.201   5.693  69.150  1.00  0.00    -0.136 C  
BRANCH  22  23
HETATM   23  C   UNL     1      -9.404   6.785  68.101  1.00  0.00    -0.122 C  
HETATM   24  C   UNL     1      -9.392   6.204  66.694  1.00  0.00    -0.161 C  
ENDBRANCH  22  23
ENDBRANCH  21  22
ENDBRANCH  20  21
ENDBRANCH  19  20
ENDBRANCH  17  19
ENDBRANCH  13  14
ENDBRANCH  12  13
BRANCH  12  25
HETATM   25  O   UNL     1      -9.890  11.679  68.143  1.00  0.00    -0.178 OA 
BRANCH  25  26
HETATM   26  C   UNL     1     -10.849  11.759  67.178  1.00  0.00    -0.258 C  
HETATM   27  O   UNL     1     -12.035  11.481  67.317  1.00  0.00    -0.605 OA 
BRANCH  26  28
HETATM   28  C   UNL     1     -10.261  12.273  65.868  1.00  0.00    -0.249 C  
BRANCH  28  29
HETATM   29  C   UNL     1     -10.173  13.808  65.841  1.00  0.00    -0.322 C  
HETATM   30  C   UNL     1     -12.657  14.424  65.505  1.00  0.00    -0.345 C  
HETATM   31  C   UNL     1     -10.856  16.037  64.923  1.00  0.00    -0.391 C  
HETATM   32  C   UNL     1     -11.224  14.551  64.985  1.00  0.00    -0.384 C  
ENDBRANCH  28  29
BRANCH  28  33
HETATM   33  N   UNL     1     -11.034  11.721  64.757  1.00  0.00    -0.303 N  
HETATM   34  C   UNL     1     -10.457  11.303  63.592  1.00  0.00    -0.405 C  
HETATM   35  O   UNL     1      -9.268  11.379  63.323  1.00  0.00    -0.245 OA 
HETATM   36  H   UNL     1     -12.047  11.645  64.856  1.00  0.00     0.000 HD 
ENDBRANCH  28  33
ENDBRANCH  26  28
ENDBRANCH  25  26
ENDBRANCH  12  25
ENDBRANCH  11  12
ENDBRANCH  10  11
ENDBRANCH   9  10
ENDBRANCH   8   9
ENDBRANCH   7   8
ENDBRANCH   6   7
ENDBRANCH   5   6
ENDBRANCH   4   5
ENDBRANCH   3   4
ENDBRANCH   2   3
TORSDOF 22
ENDMDL
MODEL      265
REMARK 921   NORMALIZED FREE ENERGY PREDICTED BY IDOCK:   -3.72 KCAL/MOL
REMARK 922        TOTAL FREE ENERGY PREDICTED BY IDOCK:  -12.12 KCAL/MOL
REMARK 923 INTER-LIGAND FREE ENERGY PREDICTED BY IDOCK:   -7.62 KCAL/MOL
REMARK 924 INTRA-LIGAND FREE ENERGY PREDICTED BY IDOCK:   -4.50 KCAL/MOL
REMARK 927      BINDING AFFINITY PREDICTED BY RF-SCORE:    0.00 PKD
ROOT
HETATM    1  C   UNL     1      -6.927   7.547  63.369  1.00  0.00    -0.060 C  
HETATM    2  C   UNL     1      -7.733   8.387  64.346  1.00  0.00    -0.133 C  
ENDROOT
BRANCH   2   3
HETATM    3  C   UNL     1      -8.086   7.581  65.593  1.00  0.00    -0.128 C  
BRANCH   3   4
HETATM    4  C   UNL     1      -7.014   6.545  65.919  1.00  0.00    -0.061 C  
BRANCH   4   5
HETATM    5  C   UNL     1      -7.651   5.216  66.330  1.00  0.00    -0.088 C  
BRANCH   5   6
HETATM    6  C   UNL     1      -9.056   5.096  65.755  1.00  0.00    -0.158 C  
BRANCH   6   7
HETATM    7  C   UNL     1     -10.075   4.629  66.797  1.00  0.00    -0.246 C  
BRANCH   7   8
HETATM    8  C   UNL     1     -10.773   5.854  67.375  1.00  0.00    -0.370 C  
BRANCH   8   9
HETATM    9  C   UNL     1     -10.775   5.905  68.900  1.00  0.00    -0.370 C  
BRANCH   9  10
HETATM   10  C   UNL     1     -11.152   7.326  69.331  1.00  0.00    -0.092 C  
BRANCH  10  11
HETATM   11  C   UNL     1     -11.866   7.397  70.672  1.00  0.00    -0.245 C  
BRANCH  11  12
HETATM   12  C   UNL     1     -11.724   8.717  71.453  1.00  0.00    -0.297 C  
BRANCH  12  13
HETATM   13  C   UNL     1     -10.461   8.830  72.335  1.00  0.00    -0.220 C  
BRANCH  13  14
HETATM   14  C   UNL     1      -9.897   7.485  72.807  1.00  0.00    -0.208 C  
HETATM   15  O   UNL     1      -9.347   7.554  74.154  1.00  0.00    -0.241 OA 
HETATM   16  O   UNL     1      -7.106   7.084  74.416  1.00  0.00    -0.096 OA 
HETATM   17  C   UNL     1      -8.492   7.102  72.263  1.00  0.00    -0.126 C  
HETATM   18  C   UNL     1      -8.103   7.218  73.748  1.00  0.00    -0.119 C  
BRANCH  17  19
HETATM   19  C   UNL     1      -8.251   5.716  71.674  1.00  0.00    -0.119 C  
BRANCH  19  20
HETATM   20  C   UNL     1      -7.185   5.774  70.584  1.00  0.00    -0.082 C  
BRANCH  20  21
HETATM   21  C   UNL     1      -7.462   6.907  69.592  1.00  0.00    -0.099 C  
BRANCH  21  22
HETATM   22  C   UNL     1      -6.214   7.764  69.370  1.00  0.00    -0.034 C  
BRANCH  22  23
HETATM   23  C   UNL     1      -6.568   9.229  69.117  1.00  0.00    -0.049 C  
HETATM   24  C   UNL     1      -8.060   9.398  68.864  1.00  0.00    -0.103 C  
ENDBRANCH  22  23
ENDBRANCH  21  22
ENDBRANCH  20  21
ENDBRANCH  19  20
ENDBRANCH  17  19
ENDBRANCH  13  14
ENDBRANCH  12  13
BRANCH  12  25
HETATM   25  O   UNL     1     -11.721   9.848  70.551  1.00  0.00    -0.272 OA 
BRANCH  25  26
HETATM   26  C   UNL     1     -12.381  10.970  70.951  1.00  0.00    -0.402 C  
HETATM   27  O   UNL     1     -13.055  11.086  71.969  1.00  0.00    -0.496 OA 
BRANCH  26  28
HETATM   28  C   UNL     1     -12.161  12.112  69.963  1.00  0.00    -0.277 C  
BRANCH  28  29
HETATM   29  C   UNL     1     -11.191  11.718  68.838  1.00  0.00    -0.311 C  
HETATM   30  C   UNL     1     -11.607  13.630  67.155  1.00  0.00    -0.392 C  
HETATM   31  C   UNL     1     -10.615  11.475  66.411  1.00  0.00    -0.304 C  
HETATM   32  C   UNL     1     -11.591  12.120  67.400  1.00  0.00    -0.410 C  
ENDBRANCH  28  29
BRANCH  28  33
HETATM   33  N   UNL     1     -11.732  13.298  70.704  1.00  0.00    -0.491 N  
HETATM   34  C   UNL     1     -12.589  14.303  71.049  1.00  0.00    -0.358 C  
HETATM   35  O   UNL     1     -13.772  14.358  70.751  1.00  0.00    -0.161 OA 
HETATM   36  H   UNL     1     -10.751  13.377  70.974  1.00  0.00     0.000 HD 
ENDBRANCH  28  33
ENDBRANCH  26  28
ENDBRANCH  25  26
ENDBRANCH  12  25
ENDBRANCH  11  12
ENDBRANCH  10  11
ENDBRANCH   9  10
ENDBRANCH   8   9
ENDBRANCH   7   8
ENDBRANCH   6   7
ENDBRANCH   5   6
ENDBRANCH   4   5
ENDBRANCH   3   4
ENDBRANCH   2   3
TORSDOF 22
ENDMDL
MODEL      266
REMARK 921   NORMALIZED FREE ENERGY PREDICTED BY IDOCK:   -3.72 KCAL/MOL
REMARK 922        TOTAL FREE ENERGY PREDICTED BY IDOCK:  -12.11 KCAL/MOL
REMARK 923 INTER-LIGAND FREE ENERGY PREDICTED BY IDOCK:   -9.73 KCAL/MOL
REMARK 924 INTRA-LIGAND FREE ENERGY PREDICTED BY IDOCK:   -2.38 KCAL/MOL
REMARK 927      BINDING AFFINITY PREDICTED BY RF-SCORE:    0.00 PKD
ROOT
HETATM    1  C   UNL     1      -7.951   5.595  69.477  1.00  0.00    -0.092 C  
HETATM    2  C   UNL     1      -9.334   5.337  68.902  1.00  0.00    -0.163 C  
ENDROOT
BRANCH   2   3
HETATM    3  C   UNL     1     -10.410   5.540  69.964  1.00  0.00    -0.358 C  
BRANCH   3   4
HETATM    4  C   UNL     1     -10.117   4.736  71.228  1.00  0.00    -0.258 C  
BRANCH   4   5
HETATM    5  C   UNL     1     -10.067   5.651  72.453  1.00  0.00    -0.214 C  
BRANCH   5   6
HETATM    6  C   UNL     1     -11.329   6.499  72.539  1.00  0.00    -0.299 C  
BRANCH   6   7
HETATM    7  C   UNL     1     -11.023   7.978  72.779  1.00  0.00    -0.449 C  
BRANCH   7   8
HETATM    8  C   UNL     1     -11.800   8.805  71.761  1.00  0.00    -0.414 C  
BRANCH   8   9
HETATM    9  C   UNL     1     -10.952   9.834  71.020  1.00  0.00    -0.402 C  
BRANCH   9  10
HETATM   10  C   UNL     1     -11.874  10.961  70.543  1.00  0.00    -0.457 C  
BRANCH  10  11
HETATM   11  C   UNL     1     -11.927  11.121  69.032  1.00  0.00    -0.389 C  
BRANCH  11  12
HETATM   12  C   UNL     1     -11.685  12.540  68.486  1.00  0.00    -0.324 C  
BRANCH  12  13
HETATM   13  C   UNL     1     -12.262  13.686  69.347  1.00  0.00    -0.307 C  
BRANCH  13  14
HETATM   14  C   UNL     1     -11.208  14.486  70.123  1.00  0.00    -0.146 C  
HETATM   15  O   UNL     1     -11.563  14.660  71.525  1.00  0.00    -0.295 OA 
HETATM   16  O   UNL     1     -11.845  16.815  72.292  1.00  0.00    -0.361 OA 
HETATM   17  C   UNL     1     -11.241  16.028  69.932  1.00  0.00    -0.361 C  
HETATM   18  C   UNL     1     -11.601  16.008  71.428  1.00  0.00    -0.455 C  
BRANCH  17  19
HETATM   19  C   UNL     1      -9.955  16.789  69.622  1.00  0.00     0.044 C  
BRANCH  19  20
HETATM   20  C   UNL     1      -8.793  15.820  69.426  1.00  0.00    -0.237 C  
BRANCH  20  21
HETATM   21  C   UNL     1      -7.545  16.542  68.910  1.00  0.00    -0.238 C  
BRANCH  21  22
HETATM   22  C   UNL     1      -7.904  17.898  68.300  1.00  0.00    -0.285 C  
BRANCH  22  23
HETATM   23  C   UNL     1      -8.160  17.795  66.797  1.00  0.00    -0.265 C  
HETATM   24  C   UNL     1      -9.295  18.716  66.369  1.00  0.00    -0.301 C  
ENDBRANCH  22  23
ENDBRANCH  21  22
ENDBRANCH  20  21
ENDBRANCH  19  20
ENDBRANCH  17  19
ENDBRANCH  13  14
ENDBRANCH  12  13
BRANCH  12  25
HETATM   25  O   UNL     1     -10.270  12.794  68.325  1.00  0.00    -0.233 OA 
BRANCH  25  26
HETATM   26  C   UNL     1      -9.816  13.037  67.064  1.00  0.00    -0.238 C  
HETATM   27  O   UNL     1      -9.411  14.113  66.639  1.00  0.00    -0.272 OA 
BRANCH  26  28
HETATM   28  C   UNL     1      -9.852  11.767  66.219  1.00  0.00    -0.221 C  
BRANCH  28  29
HETATM   29  C   UNL     1      -9.069  10.619  66.876  1.00  0.00    -0.168 C  
HETATM   30  C   UNL     1      -6.833  11.798  67.396  1.00  0.00    -0.122 C  
HETATM   31  C   UNL     1      -6.958   9.320  67.244  1.00  0.00    -0.081 C  
HETATM   32  C   UNL     1      -7.533  10.630  66.699  1.00  0.00    -0.129 C  
ENDBRANCH  28  29
BRANCH  28  33
HETATM   33  N   UNL     1      -9.384  12.086  64.871  1.00  0.00    -0.426 N  
HETATM   34  C   UNL     1     -10.210  12.089  63.784  1.00  0.00    -0.422 C  
HETATM   35  O   UNL     1     -11.394  11.790  63.794  1.00  0.00    -0.395 OA 
HETATM   36  H   UNL     1      -8.398  12.315  64.737  1.00  0.00     0.000 HD 
ENDBRANCH  28  33
ENDBRANCH  26  28
ENDBRANCH  25  26
ENDBRANCH  12  25
ENDBRANCH  11  12
ENDBRANCH  10  11
ENDBRANCH   9  10
ENDBRANCH   8   9
ENDBRANCH   7   8
ENDBRANCH   6   7
ENDBRANCH   5   6
ENDBRANCH   4   5
ENDBRANCH   3   4
ENDBRANCH   2   3
TORSDOF 22
ENDMDL
MODEL      267
REMARK 921   NORMALIZED FREE ENERGY PREDICTED BY IDOCK:   -3.71 KCAL/MOL
REMARK 922        TOTAL FREE ENERGY PREDICTED BY IDOCK:  -12.11 KCAL/MOL
REMARK 923 INTER-LIGAND FREE ENERGY PREDICTED BY IDOCK:   -9.35 KCAL/MOL
REMARK 924 INTRA-LIGAND FREE ENERGY PREDICTED BY IDOCK:   -2.76 KCAL/MOL
REMARK 927      BINDING AFFINITY PREDICTED BY RF-SCORE:    0.00 PKD
ROOT
HETATM    1  C   UNL     1      -8.903  16.310  66.358  1.00  0.00    -0.346 C  
HETATM    2  C   UNL     1     -10.143  15.447  66.523  1.00  0.00    -0.282 C  
ENDROOT
BRANCH   2   3
HETATM    3  C   UNL     1     -10.662  15.510  67.956  1.00  0.00    -0.283 C  
BRANCH   3   4
HETATM    4  C   UNL     1     -11.916  14.661  68.142  1.00  0.00    -0.281 C  
BRANCH   4   5
HETATM    5  C   UNL     1     -11.782  13.758  69.370  1.00  0.00    -0.379 C  
BRANCH   5   6
HETATM    6  C   UNL     1     -11.238  12.392  68.972  1.00  0.00    -0.320 C  
BRANCH   6   7
HETATM    7  C   UNL     1     -12.131  11.246  69.451  1.00  0.00    -0.384 C  
BRANCH   7   8
HETATM    8  C   UNL     1     -12.089  11.203  70.974  1.00  0.00    -0.380 C  
BRANCH   8   9
HETATM    9  C   UNL     1     -13.266  10.469  71.607  1.00  0.00    -0.493 C  
BRANCH   9  10
HETATM   10  C   UNL     1     -12.731   9.212  72.300  1.00  0.00    -0.447 C  
BRANCH  10  11
HETATM   11  C   UNL     1     -13.199   7.909  71.670  1.00  0.00    -0.367 C  
BRANCH  11  12
HETATM   12  C   UNL     1     -12.103   6.993  71.097  1.00  0.00    -0.369 C  
BRANCH  12  13
HETATM   13  C   UNL     1     -10.779   7.698  70.729  1.00  0.00    -0.231 C  
BRANCH  13  14
HETATM   14  C   UNL     1     -10.638   8.045  69.242  1.00  0.00    -0.184 C  
HETATM   15  O   UNL     1     -10.618   6.861  68.394  1.00  0.00    -0.193 OA 
HETATM   16  O   UNL     1      -8.729   6.490  67.127  1.00  0.00    -0.111 OA 
HETATM   17  C   UNL     1      -9.207   8.408  68.755  1.00  0.00    -0.143 C  
HETATM   18  C   UNL     1      -9.378   7.123  67.925  1.00  0.00    -0.128 C  
BRANCH  17  19
HETATM   19  C   UNL     1      -8.979   9.656  67.910  1.00  0.00    -0.120 C  
BRANCH  19  20
HETATM   20  C   UNL     1     -10.103   9.828  66.893  1.00  0.00    -0.287 C  
BRANCH  20  21
HETATM   21  C   UNL     1      -9.842  11.018  65.965  1.00  0.00    -0.273 C  
BRANCH  21  22
HETATM   22  C   UNL     1     -11.143  11.745  65.619  1.00  0.00    -0.340 C  
BRANCH  22  23
HETATM   23  C   UNL     1     -11.143  12.255  64.178  1.00  0.00    -0.423 C  
HETATM   24  C   UNL     1     -11.892  13.575  64.063  1.00  0.00    -0.476 C  
ENDBRANCH  22  23
ENDBRANCH  21  22
ENDBRANCH  20  21
ENDBRANCH  19  20
ENDBRANCH  17  19
ENDBRANCH  13  14
ENDBRANCH  12  13
BRANCH  12  25
HETATM   25  O   UNL     1     -11.782   5.934  72.028  1.00  0.00    -0.279 OA 
BRANCH  25  26
HETATM   26  C   UNL     1     -10.719   6.129  72.858  1.00  0.00    -0.247 C  
HETATM   27  O   UNL     1     -10.592   7.046  73.662  1.00  0.00    -0.357 OA 
BRANCH  26  28
HETATM   28  C   UNL     1      -9.680   5.026  72.680  1.00  0.00    -0.153 C  
BRANCH  28  29
HETATM   29  C   UNL     1      -9.930   3.844  73.629  1.00  0.00    -0.169 C  
HETATM   30  C   UNL     1      -9.476   1.855  72.049  1.00  0.00    -0.171 C  
HETATM   31  C   UNL     1     -10.836   1.557  74.109  1.00  0.00    -0.190 C  
HETATM   32  C   UNL     1     -10.465   2.540  72.994  1.00  0.00    -0.245 C  
ENDBRANCH  28  29
BRANCH  28  33
HETATM   33  N   UNL     1      -8.347   5.609  72.824  1.00  0.00    -0.119 N  
HETATM   34  C   UNL     1      -7.530   5.857  71.758  1.00  0.00    -0.095 C  
HETATM   35  O   UNL     1      -7.784   5.589  70.594  1.00  0.00    -0.086 OA 
HETATM   36  H   UNL     1      -8.013   5.840  73.761  1.00  0.00     0.000 HD 
ENDBRANCH  28  33
ENDBRANCH  26  28
ENDBRANCH  25  26
ENDBRANCH  12  25
ENDBRANCH  11  12
ENDBRANCH  10  11
ENDBRANCH   9  10
ENDBRANCH   8   9
ENDBRANCH   7   8
ENDBRANCH   6   7
ENDBRANCH   5   6
ENDBRANCH   4   5
ENDBRANCH   3   4
ENDBRANCH   2   3
TORSDOF 22
ENDMDL
MODEL      268
REMARK 921   NORMALIZED FREE ENERGY PREDICTED BY IDOCK:   -3.70 KCAL/MOL
REMARK 922        TOTAL FREE ENERGY PREDICTED BY IDOCK:  -12.09 KCAL/MOL
REMARK 923 INTER-LIGAND FREE ENERGY PREDICTED BY IDOCK:   -9.46 KCAL/MOL
REMARK 924 INTRA-LIGAND FREE ENERGY PREDICTED BY IDOCK:   -2.63 KCAL/MOL
REMARK 927      BINDING AFFINITY PREDICTED BY RF-SCORE:    0.00 PKD
ROOT
HETATM    1  C   UNL     1      -9.326  15.635  65.861  1.00  0.00    -0.357 C  
HETATM    2  C   UNL     1     -10.119  15.648  67.157  1.00  0.00    -0.256 C  
ENDROOT
BRANCH   2   3
HETATM    3  C   UNL     1     -10.742  14.281  67.425  1.00  0.00    -0.282 C  
BRANCH   3   4
HETATM    4  C   UNL     1     -12.214  14.241  67.025  1.00  0.00    -0.338 C  
BRANCH   4   5
HETATM    5  C   UNL     1     -12.363  13.934  65.534  1.00  0.00    -0.506 C  
BRANCH   5   6
HETATM    6  C   UNL     1     -11.976  12.490  65.244  1.00  0.00    -0.490 C  
BRANCH   6   7
HETATM    7  C   UNL     1     -10.890  12.381  64.172  1.00  0.00    -0.414 C  
BRANCH   7   8
HETATM    8  C   UNL     1      -9.714  11.603  64.751  1.00  0.00    -0.217 C  
BRANCH   8   9
HETATM    9  C   UNL     1      -9.897  10.089  64.723  1.00  0.00    -0.325 C  
BRANCH   9  10
HETATM   10  C   UNL     1      -9.430   9.525  66.068  1.00  0.00    -0.294 C  
BRANCH  10  11
HETATM   11  C   UNL     1     -10.498   8.744  66.818  1.00  0.00    -0.283 C  
BRANCH  11  12
HETATM   12  C   UNL     1     -10.092   7.351  67.333  1.00  0.00    -0.211 C  
BRANCH  12  13
HETATM   13  C   UNL     1      -8.629   6.944  67.051  1.00  0.00    -0.121 C  
BRANCH  13  14
HETATM   14  C   UNL     1      -8.470   5.571  66.386  1.00  0.00    -0.119 C  
HETATM   15  O   UNL     1      -9.117   5.507  65.083  1.00  0.00    -0.092 OA 
HETATM   16  O   UNL     1     -10.813   3.970  64.810  1.00  0.00    -0.233 OA 
HETATM   17  C   UNL     1      -9.412   4.447  66.900  1.00  0.00    -0.194 C  
HETATM   18  C   UNL     1      -9.962   4.523  65.464  1.00  0.00    -0.215 C  
BRANCH  17  19
HETATM   19  C   UNL     1      -8.845   3.080  67.266  1.00  0.00    -0.160 C  
BRANCH  19  20
HETATM   20  C   UNL     1      -9.313   2.660  68.656  1.00  0.00    -0.244 C  
BRANCH  20  21
HETATM   21  C   UNL     1      -9.452   3.866  69.589  1.00  0.00    -0.263 C  
BRANCH  21  22
HETATM   22  C   UNL     1      -9.235   3.464  71.049  1.00  0.00    -0.197 C  
BRANCH  22  23
HETATM   23  C   UNL     1      -9.496   4.628  72.004  1.00  0.00    -0.191 C  
HETATM   24  C   UNL     1      -8.477   5.742  71.803  1.00  0.00    -0.131 C  
ENDBRANCH  22  23
ENDBRANCH  21  22
ENDBRANCH  20  21
ENDBRANCH  19  20
ENDBRANCH  17  19
ENDBRANCH  13  14
ENDBRANCH  12  13
BRANCH  12  25
HETATM   25  O   UNL     1     -10.298   7.252  68.761  1.00  0.00    -0.191 OA 
BRANCH  25  26
HETATM   26  C   UNL     1      -9.900   8.305  69.527  1.00  0.00    -0.181 C  
HETATM   27  O   UNL     1      -8.771   8.781  69.567  1.00  0.00    -0.133 OA 
BRANCH  26  28
HETATM   28  C   UNL     1     -11.067   8.858  70.340  1.00  0.00    -0.239 C  
BRANCH  28  29
HETATM   29  C   UNL     1     -11.021  10.391  70.441  1.00  0.00    -0.320 C  
HETATM   30  C   UNL     1     -13.112  10.839  71.886  1.00  0.00    -0.557 C  
HETATM   31  C   UNL     1     -12.143  12.631  70.460  1.00  0.00    -0.360 C  
HETATM   32  C   UNL     1     -12.377  11.122  70.575  1.00  0.00    -0.454 C  
ENDBRANCH  28  29
BRANCH  28  33
HETATM   33  N   UNL     1     -11.085   8.196  71.644  1.00  0.00    -0.245 N  
HETATM   34  C   UNL     1     -12.024   7.265  71.986  1.00  0.00    -0.296 C  
HETATM   35  O   UNL     1     -12.961   6.915  71.286  1.00  0.00    -0.350 OA 
HETATM   36  H   UNL     1     -10.367   8.440  72.327  1.00  0.00     0.000 HD 
ENDBRANCH  28  33
ENDBRANCH  26  28
ENDBRANCH  25  26
ENDBRANCH  12  25
ENDBRANCH  11  12
ENDBRANCH  10  11
ENDBRANCH   9  10
ENDBRANCH   8   9
ENDBRANCH   7   8
ENDBRANCH   6   7
ENDBRANCH   5   6
ENDBRANCH   4   5
ENDBRANCH   3   4
ENDBRANCH   2   3
TORSDOF 22
ENDMDL
MODEL      269
REMARK 921   NORMALIZED FREE ENERGY PREDICTED BY IDOCK:   -3.70 KCAL/MOL
REMARK 922        TOTAL FREE ENERGY PREDICTED BY IDOCK:  -12.08 KCAL/MOL
REMARK 923 INTER-LIGAND FREE ENERGY PREDICTED BY IDOCK:   -8.27 KCAL/MOL
REMARK 924 INTRA-LIGAND FREE ENERGY PREDICTED BY IDOCK:   -3.81 KCAL/MOL
REMARK 927      BINDING AFFINITY PREDICTED BY RF-SCORE:    0.00 PKD
ROOT
HETATM    1  C   UNL     1     -14.287   8.690  72.292  1.00  0.00    -0.486 C  
HETATM    2  C   UNL     1     -13.093   9.558  71.931  1.00  0.00    -0.517 C  
ENDROOT
BRANCH   2   3
HETATM    3  C   UNL     1     -12.003   8.729  71.258  1.00  0.00    -0.353 C  
BRANCH   3   4
HETATM    4  C   UNL     1     -10.723   8.696  72.087  1.00  0.00    -0.417 C  
BRANCH   4   5
HETATM    5  C   UNL     1     -10.601   7.372  72.844  1.00  0.00    -0.370 C  
BRANCH   5   6
HETATM    6  C   UNL     1     -11.266   6.246  72.063  1.00  0.00    -0.327 C  
BRANCH   6   7
HETATM    7  C   UNL     1     -10.252   5.250  71.498  1.00  0.00    -0.276 C  
BRANCH   7   8
HETATM    8  C   UNL     1      -9.768   5.763  70.147  1.00  0.00    -0.219 C  
BRANCH   8   9
HETATM    9  C   UNL     1     -10.844   5.774  69.066  1.00  0.00    -0.330 C  
BRANCH   9  10
HETATM   10  C   UNL     1     -10.956   7.198  68.514  1.00  0.00    -0.080 C  
BRANCH  10  11
HETATM   11  C   UNL     1     -10.774   7.296  67.008  1.00  0.00    -0.406 C  
BRANCH  11  12
HETATM   12  C   UNL     1      -9.369   7.683  66.512  1.00  0.00    -0.189 C  
BRANCH  12  13
HETATM   13  C   UNL     1      -8.596   8.666  67.419  1.00  0.00    -0.134 C  
BRANCH  13  14
HETATM   14  C   UNL     1      -9.154  10.094  67.425  1.00  0.00    -0.137 C  
HETATM   15  O   UNL     1      -8.160  11.082  67.029  1.00  0.00    -0.125 OA 
HETATM   16  O   UNL     1      -7.605  12.709  68.564  1.00  0.00    -0.126 OA 
HETATM   17  C   UNL     1      -9.270  10.780  68.815  1.00  0.00    -0.192 C  
HETATM   18  C   UNL     1      -8.217  11.729  68.214  1.00  0.00    -0.157 C  
BRANCH  17  19
HETATM   19  C   UNL     1     -10.564  11.479  69.219  1.00  0.00    -0.120 C  
BRANCH  19  20
HETATM   20  C   UNL     1     -11.629  11.302  68.140  1.00  0.00    -0.359 C  
BRANCH  20  21
HETATM   21  C   UNL     1     -11.880  12.608  67.382  1.00  0.00    -0.393 C  
BRANCH  21  22
HETATM   22  C   UNL     1     -11.577  12.447  65.891  1.00  0.00    -0.449 C  
BRANCH  22  23
HETATM   23  C   UNL     1     -12.592  13.191  65.022  1.00  0.00    -0.499 C  
HETATM   24  C   UNL     1     -12.169  14.636  64.799  1.00  0.00    -0.403 C  
ENDBRANCH  22  23
ENDBRANCH  21  22
ENDBRANCH  20  21
ENDBRANCH  19  20
ENDBRANCH  17  19
ENDBRANCH  13  14
ENDBRANCH  12  13
BRANCH  12  25
HETATM   25  O   UNL     1      -8.541   6.509  66.347  1.00  0.00    -0.125 OA 
BRANCH  25  26
HETATM   26  C   UNL     1      -8.312   6.076  65.076  1.00  0.00    -0.121 C  
HETATM   27  O   UNL     1      -7.984   6.776  64.125  1.00  0.00    -0.124 OA 
BRANCH  26  28
HETATM   28  C   UNL     1      -8.496   4.565  64.975  1.00  0.00    -0.128 C  
BRANCH  28  29
HETATM   29  C   UNL     1      -9.297   4.003  66.161  1.00  0.00    -0.174 C  
HETATM   30  C   UNL     1      -7.468   3.924  67.980  1.00  0.00    -0.066 C  
HETATM   31  C   UNL     1      -9.511   2.520  68.169  1.00  0.00    -0.217 C  
HETATM   32  C   UNL     1      -8.518   3.146  67.185  1.00  0.00    -0.104 C  
ENDBRANCH  28  29
BRANCH  28  33
HETATM   33  N   UNL     1      -7.182   3.941  64.821  1.00  0.00    -0.065 N  
HETATM   34  C   UNL     1      -6.693   3.540  63.610  1.00  0.00    -0.042 C  
HETATM   35  O   UNL     1      -7.291   3.607  62.547  1.00  0.00    -0.043 OA 
HETATM   36  H   UNL     1      -6.607   3.799  65.652  1.00  0.00     0.000 HD 
ENDBRANCH  28  33
ENDBRANCH  26  28
ENDBRANCH  25  26
ENDBRANCH  12  25
ENDBRANCH  11  12
ENDBRANCH  10  11
ENDBRANCH   9  10
ENDBRANCH   8   9
ENDBRANCH   7   8
ENDBRANCH   6   7
ENDBRANCH   5   6
ENDBRANCH   4   5
ENDBRANCH   3   4
ENDBRANCH   2   3
TORSDOF 22
ENDMDL
MODEL      270
REMARK 921   NORMALIZED FREE ENERGY PREDICTED BY IDOCK:   -3.70 KCAL/MOL
REMARK 922        TOTAL FREE ENERGY PREDICTED BY IDOCK:  -12.08 KCAL/MOL
REMARK 923 INTER-LIGAND FREE ENERGY PREDICTED BY IDOCK:   -9.01 KCAL/MOL
REMARK 924 INTRA-LIGAND FREE ENERGY PREDICTED BY IDOCK:   -3.08 KCAL/MOL
REMARK 927      BINDING AFFINITY PREDICTED BY RF-SCORE:    0.00 PKD
ROOT
HETATM    1  C   UNL     1     -10.532  19.302  66.337  1.00  0.00    -0.563 C  
HETATM    2  C   UNL     1      -9.931  19.902  67.597  1.00  0.00    -0.553 C  
ENDROOT
BRANCH   2   3
HETATM    3  C   UNL     1      -9.964  18.897  68.745  1.00  0.00    -0.466 C  
BRANCH   3   4
HETATM    4  C   UNL     1     -10.368  17.505  68.268  1.00  0.00    -0.379 C  
BRANCH   4   5
HETATM    5  C   UNL     1     -10.781  16.625  69.449  1.00  0.00    -0.331 C  
BRANCH   5   6
HETATM    6  C   UNL     1     -11.839  15.617  69.020  1.00  0.00    -0.379 C  
BRANCH   6   7
HETATM    7  C   UNL     1     -12.394  14.815  70.199  1.00  0.00    -0.381 C  
BRANCH   7   8
HETATM    8  C   UNL     1     -12.064  13.343  69.981  1.00  0.00    -0.404 C  
BRANCH   8   9
HETATM    9  C   UNL     1     -12.480  12.436  71.134  1.00  0.00    -0.323 C  
BRANCH   9  10
HETATM   10  C   UNL     1     -12.979  11.112  70.548  1.00  0.00    -0.106 C  
BRANCH  10  11
HETATM   11  C   UNL     1     -12.397   9.878  71.220  1.00  0.00    -0.478 C  
BRANCH  11  12
HETATM   12  C   UNL     1     -10.926   9.555  70.901  1.00  0.00    -0.337 C  
BRANCH  12  13
HETATM   13  C   UNL     1     -10.158   8.808  72.013  1.00  0.00    -0.397 C  
BRANCH  13  14
HETATM   14  C   UNL     1     -10.735   7.432  72.366  1.00  0.00    -0.253 C  
HETATM   15  O   UNL     1     -10.579   7.108  73.778  1.00  0.00    -0.377 OA 
HETATM   16  O   UNL     1      -9.324   5.250  74.312  1.00  0.00    -0.126 OA 
HETATM   17  C   UNL     1      -9.857   6.204  71.996  1.00  0.00    -0.174 C  
HETATM   18  C   UNL     1      -9.814   6.023  73.524  1.00  0.00    -0.171 C  
BRANCH  17  19
HETATM   19  C   UNL     1     -10.469   5.020  71.256  1.00  0.00    -0.213 C  
BRANCH  19  20
HETATM   20  C   UNL     1      -9.382   4.050  70.804  1.00  0.00    -0.217 C  
BRANCH  20  21
HETATM   21  C   UNL     1      -9.456   3.789  69.296  1.00  0.00    -0.252 C  
BRANCH  21  22
HETATM   22  C   UNL     1      -9.993   5.013  68.551  1.00  0.00    -0.207 C  
BRANCH  22  23
HETATM   23  C   UNL     1     -10.073   4.770  67.044  1.00  0.00    -0.228 C  
HETATM   24  C   UNL     1      -8.788   4.143  66.520  1.00  0.00    -0.118 C  
ENDBRANCH  22  23
ENDBRANCH  21  22
ENDBRANCH  20  21
ENDBRANCH  19  20
ENDBRANCH  17  19
ENDBRANCH  13  14
ENDBRANCH  12  13
BRANCH  12  25
HETATM   25  O   UNL     1     -10.825   8.757  69.699  1.00  0.00    -0.231 OA 
BRANCH  25  26
HETATM   26  C   UNL     1     -10.390   9.378  68.567  1.00  0.00    -0.209 C  
HETATM   27  O   UNL     1     -10.933  10.328  68.013  1.00  0.00    -0.263 OA 
BRANCH  26  28
HETATM   28  C   UNL     1      -9.095   8.749  68.065  1.00  0.00    -0.140 C  
BRANCH  28  29
HETATM   29  C   UNL     1      -7.989   8.781  69.132  1.00  0.00    -0.109 C  
HETATM   30  C   UNL     1      -6.664   6.654  68.514  1.00  0.00    -0.064 C  
HETATM   31  C   UNL     1      -6.495   7.641  70.789  1.00  0.00    -0.038 C  
HETATM   32  C   UNL     1      -7.429   7.417  69.597  1.00  0.00    -0.093 C  
ENDBRANCH  28  29
BRANCH  28  33
HETATM   33  N   UNL     1      -8.707   9.405  66.816  1.00  0.00    -0.127 N  
HETATM   34  C   UNL     1      -8.560   8.726  65.640  1.00  0.00    -0.172 C  
HETATM   35  O   UNL     1      -8.684   7.519  65.500  1.00  0.00    -0.127 OA 
HETATM   36  H   UNL     1      -8.540  10.411  66.824  1.00  0.00     0.000 HD 
ENDBRANCH  28  33
ENDBRANCH  26  28
ENDBRANCH  25  26
ENDBRANCH  12  25
ENDBRANCH  11  12
ENDBRANCH  10  11
ENDBRANCH   9  10
ENDBRANCH   8   9
ENDBRANCH   7   8
ENDBRANCH   6   7
ENDBRANCH   5   6
ENDBRANCH   4   5
ENDBRANCH   3   4
ENDBRANCH   2   3
TORSDOF 22
ENDMDL
MODEL      271
REMARK 921   NORMALIZED FREE ENERGY PREDICTED BY IDOCK:   -3.70 KCAL/MOL
REMARK 922        TOTAL FREE ENERGY PREDICTED BY IDOCK:  -12.07 KCAL/MOL
REMARK 923 INTER-LIGAND FREE ENERGY PREDICTED BY IDOCK:   -9.39 KCAL/MOL
REMARK 924 INTRA-LIGAND FREE ENERGY PREDICTED BY IDOCK:   -2.67 KCAL/MOL
REMARK 927      BINDING AFFINITY PREDICTED BY RF-SCORE:    0.00 PKD
ROOT
HETATM    1  C   UNL     1     -10.053  15.854  65.400  1.00  0.00    -0.296 C  
HETATM    2  C   UNL     1     -11.353  16.358  64.795  1.00  0.00    -0.154 C  
ENDROOT
BRANCH   2   3
HETATM    3  C   UNL     1     -12.281  15.195  64.457  1.00  0.00    -0.278 C  
BRANCH   3   4
HETATM    4  C   UNL     1     -11.515  13.884  64.309  1.00  0.00    -0.336 C  
BRANCH   4   5
HETATM    5  C   UNL     1     -12.230  12.945  63.336  1.00  0.00    -0.574 C  
BRANCH   5   6
HETATM    6  C   UNL     1     -11.817  11.500  63.587  1.00  0.00    -0.238 C  
BRANCH   6   7
HETATM    7  C   UNL     1     -10.346  11.376  63.990  1.00  0.00    -0.418 C  
BRANCH   7   8
HETATM    8  C   UNL     1     -10.267  10.593  65.296  1.00  0.00    -0.351 C  
BRANCH   8   9
HETATM    9  C   UNL     1     -11.003  11.251  66.459  1.00  0.00    -0.303 C  
BRANCH   9  10
HETATM   10  C   UNL     1     -10.941  10.305  67.662  1.00  0.00    -0.356 C  
BRANCH  10  11
HETATM   11  C   UNL     1      -9.904  10.694  68.704  1.00  0.00    -0.183 C  
BRANCH  11  12
HETATM   12  C   UNL     1      -8.481  10.968  68.183  1.00  0.00    -0.135 C  
BRANCH  12  13
HETATM   13  C   UNL     1      -7.893  12.345  68.562  1.00  0.00    -0.112 C  
BRANCH  13  14
HETATM   14  C   UNL     1      -8.664  13.541  67.990  1.00  0.00    -0.181 C  
HETATM   15  O   UNL     1      -7.872  14.763  67.984  1.00  0.00    -0.115 OA 
HETATM   16  O   UNL     1      -8.651  16.544  69.222  1.00  0.00    -0.199 OA 
HETATM   17  C   UNL     1      -9.686  14.219  68.944  1.00  0.00    -0.118 C  
HETATM   18  C   UNL     1      -8.724  15.413  68.807  1.00  0.00    -0.195 C  
BRANCH  17  19
HETATM   19  C   UNL     1     -11.103  14.516  68.464  1.00  0.00    -0.271 C  
BRANCH  19  20
HETATM   20  C   UNL     1     -12.065  14.592  69.645  1.00  0.00    -0.369 C  
BRANCH  20  21
HETATM   21  C   UNL     1     -12.131  13.260  70.399  1.00  0.00    -0.401 C  
BRANCH  21  22
HETATM   22  C   UNL     1     -13.076  13.351  71.599  1.00  0.00    -0.463 C  
BRANCH  22  23
HETATM   23  C   UNL     1     -13.845  14.672  71.617  1.00  0.00    -0.522 C  
HETATM   24  C   UNL     1     -13.183  15.681  72.546  1.00  0.00    -0.583 C  
ENDBRANCH  22  23
ENDBRANCH  21  22
ENDBRANCH  20  21
ENDBRANCH  19  20
ENDBRANCH  17  19
ENDBRANCH  13  14
ENDBRANCH  12  13
BRANCH  12  25
HETATM   25  O   UNL     1      -7.558   9.961  68.660  1.00  0.00    -0.077 OA 
BRANCH  25  26
HETATM   26  C   UNL     1      -7.703   9.536  69.946  1.00  0.00    -0.129 C  
HETATM   27  O   UNL     1      -7.214  10.063  70.939  1.00  0.00    -0.326 OA 
BRANCH  26  28
HETATM   28  C   UNL     1      -8.593   8.298  70.012  1.00  0.00    -0.128 C  
BRANCH  28  29
HETATM   29  C   UNL     1      -9.468   8.287  71.275  1.00  0.00    -0.219 C  
HETATM   30  C   UNL     1     -11.560   7.056  70.400  1.00  0.00    -0.341 C  
HETATM   31  C   UNL     1     -11.687   8.499  72.420  1.00  0.00    -0.429 C  
HETATM   32  C   UNL     1     -10.999   8.314  71.064  1.00  0.00    -0.280 C  
ENDBRANCH  28  29
BRANCH  28  33
HETATM   33  N   UNL     1      -7.753   7.108  69.883  1.00  0.00    -0.105 N  
HETATM   34  C   UNL     1      -7.655   6.396  68.722  1.00  0.00    -0.093 C  
HETATM   35  O   UNL     1      -8.272   6.629  67.694  1.00  0.00    -0.120 OA 
HETATM   36  H   UNL     1      -7.218   6.797  70.694  1.00  0.00     0.000 HD 
ENDBRANCH  28  33
ENDBRANCH  26  28
ENDBRANCH  25  26
ENDBRANCH  12  25
ENDBRANCH  11  12
ENDBRANCH  10  11
ENDBRANCH   9  10
ENDBRANCH   8   9
ENDBRANCH   7   8
ENDBRANCH   6   7
ENDBRANCH   5   6
ENDBRANCH   4   5
ENDBRANCH   3   4
ENDBRANCH   2   3
TORSDOF 22
ENDMDL
MODEL      272
REMARK 921   NORMALIZED FREE ENERGY PREDICTED BY IDOCK:   -3.70 KCAL/MOL
REMARK 922        TOTAL FREE ENERGY PREDICTED BY IDOCK:  -12.07 KCAL/MOL
REMARK 923 INTER-LIGAND FREE ENERGY PREDICTED BY IDOCK:   -8.84 KCAL/MOL
REMARK 924 INTRA-LIGAND FREE ENERGY PREDICTED BY IDOCK:   -3.23 KCAL/MOL
REMARK 927      BINDING AFFINITY PREDICTED BY RF-SCORE:    0.00 PKD
ROOT
HETATM    1  C   UNL     1     -11.256  16.760  65.939  1.00  0.00     0.442 C  
HETATM    2  C   UNL     1     -11.286  16.115  64.563  1.00  0.00    -0.273 C  
ENDROOT
BRANCH   2   3
HETATM    3  C   UNL     1     -11.164  14.598  64.672  1.00  0.00    -0.353 C  
BRANCH   3   4
HETATM    4  C   UNL     1     -12.200  13.884  63.808  1.00  0.00    -0.310 C  
BRANCH   4   5
HETATM    5  C   UNL     1     -11.740  12.464  63.472  1.00  0.00    -0.592 C  
BRANCH   5   6
HETATM    6  C   UNL     1     -10.345  12.209  64.026  1.00  0.00    -0.412 C  
BRANCH   6   7
HETATM    7  C   UNL     1      -9.819  10.819  63.664  1.00  0.00    -0.406 C  
BRANCH   7   8
HETATM    8  C   UNL     1      -8.699  10.457  64.633  1.00  0.00    -0.198 C  
BRANCH   8   9
HETATM    9  C   UNL     1      -9.027  10.744  66.095  1.00  0.00    -0.192 C  
BRANCH   9  10
HETATM   10  C   UNL     1      -8.068  11.828  66.597  1.00  0.00    -0.094 C  
BRANCH  10  11
HETATM   11  C   UNL     1      -8.425  12.385  67.967  1.00  0.00    -0.176 C  
BRANCH  11  12
HETATM   12  C   UNL     1      -8.747  13.889  68.030  1.00  0.00    -0.183 C  
BRANCH  12  13
HETATM   13  C   UNL     1      -8.197  14.733  66.859  1.00  0.00    -0.144 C  
BRANCH  13  14
HETATM   14  C   UNL     1      -7.932  16.202  67.208  1.00  0.00    -0.174 C  
HETATM   15  O   UNL     1      -8.291  17.105  66.124  1.00  0.00    -0.407 OA 
HETATM   16  O   UNL     1      -6.614  18.395  65.210  1.00  0.00    -0.443 OA 
HETATM   17  C   UNL     1      -6.455  16.677  67.102  1.00  0.00    -0.223 C  
HETATM   18  C   UNL     1      -7.029  17.566  65.984  1.00  0.00    -0.261 C  
BRANCH  17  19
HETATM   19  C   UNL     1      -5.819  17.463  68.244  1.00  0.00    -0.149 C  
BRANCH  19  20
HETATM   20  C   UNL     1      -6.341  16.970  69.590  1.00  0.00    -0.215 C  
BRANCH  20  21
HETATM   21  C   UNL     1      -5.410  15.918  70.199  1.00  0.00    -0.149 C  
BRANCH  21  22
HETATM   22  C   UNL     1      -5.860  14.503  69.830  1.00  0.00    -0.111 C  
BRANCH  22  23
HETATM   23  C   UNL     1      -5.655  13.522  70.984  1.00  0.00    -0.206 C  
HETATM   24  C   UNL     1      -5.893  12.087  70.534  1.00  0.00    -0.122 C  
ENDBRANCH  22  23
ENDBRANCH  21  22
ENDBRANCH  20  21
ENDBRANCH  19  20
ENDBRANCH  17  19
ENDBRANCH  13  14
ENDBRANCH  12  13
BRANCH  12  25
HETATM   25  O   UNL     1     -10.177  14.105  68.081  1.00  0.00    -0.229 OA 
BRANCH  25  26
HETATM   26  C   UNL     1     -10.676  14.749  69.172  1.00  0.00    -0.254 C  
HETATM   27  O   UNL     1     -10.326  15.851  69.581  1.00  0.00    -0.261 OA 
BRANCH  26  28
HETATM   28  C   UNL     1     -11.771  13.922  69.838  1.00  0.00    -0.291 C  
BRANCH  28  29
HETATM   29  C   UNL     1     -12.006  12.589  69.111  1.00  0.00    -0.287 C  
HETATM   30  C   UNL     1     -12.099  10.961  71.112  1.00  0.00    -0.386 C  
HETATM   31  C   UNL     1     -11.591  10.135  68.823  1.00  0.00    -0.037 C  
HETATM   32  C   UNL     1     -11.434  11.319  69.781  1.00  0.00    -0.386 C  
ENDBRANCH  28  29
BRANCH  28  33
HETATM   33  N   UNL     1     -12.979  14.740  69.944  1.00  0.00    -0.561 N  
HETATM   34  C   UNL     1     -13.292  15.453  71.066  1.00  0.00    -0.480 C  
HETATM   35  O   UNL     1     -12.647  15.459  72.103  1.00  0.00    -0.319 OA 
HETATM   36  H   UNL     1     -13.614  14.780  69.146  1.00  0.00     0.000 HD 
ENDBRANCH  28  33
ENDBRANCH  26  28
ENDBRANCH  25  26
ENDBRANCH  12  25
ENDBRANCH  11  12
ENDBRANCH  10  11
ENDBRANCH   9  10
ENDBRANCH   8   9
ENDBRANCH   7   8
ENDBRANCH   6   7
ENDBRANCH   5   6
ENDBRANCH   4   5
ENDBRANCH   3   4
ENDBRANCH   2   3
TORSDOF 22
ENDMDL
MODEL      273
REMARK 921   NORMALIZED FREE ENERGY PREDICTED BY IDOCK:   -3.69 KCAL/MOL
REMARK 922        TOTAL FREE ENERGY PREDICTED BY IDOCK:  -12.06 KCAL/MOL
REMARK 923 INTER-LIGAND FREE ENERGY PREDICTED BY IDOCK:   -9.01 KCAL/MOL
REMARK 924 INTRA-LIGAND FREE ENERGY PREDICTED BY IDOCK:   -3.05 KCAL/MOL
REMARK 927      BINDING AFFINITY PREDICTED BY RF-SCORE:    0.00 PKD
ROOT
HETATM    1  C   UNL     1      -6.569   7.127  62.372  1.00  0.00    -0.056 C  
HETATM    2  C   UNL     1      -7.766   6.373  62.929  1.00  0.00    -0.090 C  
ENDROOT
BRANCH   2   3
HETATM    3  C   UNL     1      -8.020   6.758  64.384  1.00  0.00    -0.096 C  
BRANCH   3   4
HETATM    4  C   UNL     1      -6.732   7.152  65.099  1.00  0.00    -0.047 C  
BRANCH   4   5
HETATM    5  C   UNL     1      -6.952   8.390  65.971  1.00  0.00    -0.065 C  
BRANCH   5   6
HETATM    6  C   UNL     1      -6.913   9.655  65.123  1.00  0.00    -0.106 C  
BRANCH   6   7
HETATM    7  C   UNL     1      -8.180  10.498  65.274  1.00  0.00    -0.146 C  
BRANCH   7   8
HETATM    8  C   UNL     1      -9.081  10.239  64.072  1.00  0.00    -0.283 C  
BRANCH   8   9
HETATM    9  C   UNL     1     -10.506  10.753  64.242  1.00  0.00    -0.330 C  
BRANCH   9  10
HETATM   10  C   UNL     1     -10.439  12.240  64.606  1.00  0.00    -0.334 C  
BRANCH  10  11
HETATM   11  C   UNL     1     -11.766  12.826  65.064  1.00  0.00    -0.391 C  
BRANCH  11  12
HETATM   12  C   UNL     1     -11.877  13.184  66.557  1.00  0.00    -0.400 C  
BRANCH  12  13
HETATM   13  C   UNL     1     -10.877  12.459  67.486  1.00  0.00    -0.271 C  
BRANCH  13  14
HETATM   14  C   UNL     1     -11.390  11.130  68.054  1.00  0.00    -0.312 C  
HETATM   15  O   UNL     1     -12.532  11.308  68.940  1.00  0.00    -0.433 OA 
HETATM   16  O   UNL     1     -12.296  10.631  71.130  1.00  0.00    -0.346 OA 
HETATM   17  C   UNL     1     -10.578  10.530  69.234  1.00  0.00    -0.265 C  
HETATM   18  C   UNL     1     -11.884  10.789  70.006  1.00  0.00    -0.344 C  
BRANCH  17  19
HETATM   19  C   UNL     1     -10.162   9.062  69.210  1.00  0.00    -0.210 C  
BRANCH  19  20
HETATM   20  C   UNL     1      -9.967   8.584  67.775  1.00  0.00    -0.241 C  
BRANCH  20  21
HETATM   21  C   UNL     1     -10.588   7.201  67.557  1.00  0.00    -0.348 C  
BRANCH  21  22
HETATM   22  C   UNL     1      -9.623   6.090  67.975  1.00  0.00    -0.120 C  
BRANCH  22  23
HETATM   23  C   UNL     1     -10.123   5.339  69.209  1.00  0.00    -0.300 C  
HETATM   24  C   UNL     1      -9.366   5.770  70.458  1.00  0.00    -0.189 C  
ENDBRANCH  22  23
ENDBRANCH  21  22
ENDBRANCH  20  21
ENDBRANCH  19  20
ENDBRANCH  17  19
ENDBRANCH  13  14
ENDBRANCH  12  13
BRANCH  12  25
HETATM   25  O   UNL     1     -11.697  14.605  66.759  1.00  0.00    -0.373 OA 
BRANCH  25  26
HETATM   26  C   UNL     1     -11.303  15.018  67.996  1.00  0.00    -0.327 C  
HETATM   27  O   UNL     1     -11.862  14.756  69.055  1.00  0.00    -0.298 OA 
BRANCH  26  28
HETATM   28  C   UNL     1     -10.030  15.855  67.910  1.00  0.00    -0.221 C  
BRANCH  28  29
HETATM   29  C   UNL     1     -10.296  17.245  67.311  1.00  0.00    -0.331 C  
HETATM   30  C   UNL     1      -8.241  18.543  68.179  1.00  0.00    -0.315 C  
HETATM   31  C   UNL     1     -10.296  19.746  67.464  1.00  0.00    -0.578 C  
HETATM   32  C   UNL     1      -9.767  18.460  68.107  1.00  0.00    -0.352 C  
ENDBRANCH  28  29
BRANCH  28  33
HETATM   33  N   UNL     1      -9.018  15.096  67.176  1.00  0.00    -0.201 N  
HETATM   34  C   UNL     1      -7.793  14.799  67.701  1.00  0.00    -0.175 C  
HETATM   35  O   UNL     1      -7.386  15.157  68.796  1.00  0.00    -0.117 OA 
HETATM   36  H   UNL     1      -9.236  14.776  66.231  1.00  0.00     0.000 HD 
ENDBRANCH  28  33
ENDBRANCH  26  28
ENDBRANCH  25  26
ENDBRANCH  12  25
ENDBRANCH  11  12
ENDBRANCH  10  11
ENDBRANCH   9  10
ENDBRANCH   8   9
ENDBRANCH   7   8
ENDBRANCH   6   7
ENDBRANCH   5   6
ENDBRANCH   4   5
ENDBRANCH   3   4
ENDBRANCH   2   3
TORSDOF 22
ENDMDL
MODEL      274
REMARK 921   NORMALIZED FREE ENERGY PREDICTED BY IDOCK:   -3.69 KCAL/MOL
REMARK 922        TOTAL FREE ENERGY PREDICTED BY IDOCK:  -12.05 KCAL/MOL
REMARK 923 INTER-LIGAND FREE ENERGY PREDICTED BY IDOCK:   -8.94 KCAL/MOL
REMARK 924 INTRA-LIGAND FREE ENERGY PREDICTED BY IDOCK:   -3.11 KCAL/MOL
REMARK 927      BINDING AFFINITY PREDICTED BY RF-SCORE:    0.00 PKD
ROOT
HETATM    1  C   UNL     1     -10.052  17.282  68.733  1.00  0.00    -0.337 C  
HETATM    2  C   UNL     1     -10.833  16.223  67.973  1.00  0.00    -0.339 C  
ENDROOT
BRANCH   2   3
HETATM    3  C   UNL     1     -10.587  16.340  66.471  1.00  0.00    -0.256 C  
BRANCH   3   4
HETATM    4  C   UNL     1      -9.502  15.377  65.999  1.00  0.00    -0.381 C  
BRANCH   4   5
HETATM    5  C   UNL     1      -9.639  14.021  66.694  1.00  0.00    -0.299 C  
BRANCH   5   6
HETATM    6  C   UNL     1     -10.637  13.140  65.955  1.00  0.00    -0.290 C  
BRANCH   6   7
HETATM    7  C   UNL     1     -11.758  12.637  66.866  1.00  0.00    -0.453 C  
BRANCH   7   8
HETATM    8  C   UNL     1     -11.366  11.266  67.405  1.00  0.00    -0.349 C  
BRANCH   8   9
HETATM    9  C   UNL     1     -11.056  11.252  68.899  1.00  0.00    -0.295 C  
BRANCH   9  10
HETATM   10  C   UNL     1     -10.138  10.060  69.187  1.00  0.00    -0.219 C  
BRANCH  10  11
HETATM   11  C   UNL     1     -10.565   8.770  68.505  1.00  0.00    -0.171 C  
BRANCH  11  12
HETATM   12  C   UNL     1     -10.237   7.462  69.249  1.00  0.00    -0.199 C  
BRANCH  12  13
HETATM   13  C   UNL     1     -11.455   6.578  69.598  1.00  0.00    -0.417 C  
BRANCH  13  14
HETATM   14  C   UNL     1     -11.857   6.611  71.077  1.00  0.00    -0.372 C  
HETATM   15  O   UNL     1     -13.133   7.278  71.293  1.00  0.00    -0.369 OA 
HETATM   16  O   UNL     1     -13.139   9.165  72.616  1.00  0.00    -0.415 OA 
HETATM   17  C   UNL     1     -11.156   7.685  71.955  1.00  0.00    -0.290 C  
HETATM   18  C   UNL     1     -12.588   8.239  72.071  1.00  0.00    -0.349 C  
BRANCH  17  19
HETATM   19  C   UNL     1     -10.541   7.297  73.295  1.00  0.00    -0.428 C  
BRANCH  19  20
HETATM   20  C   UNL     1     -10.773   5.817  73.584  1.00  0.00    -0.281 C  
BRANCH  20  21
HETATM   21  C   UNL     1      -9.569   4.969  73.164  1.00  0.00    -0.156 C  
BRANCH  21  22
HETATM   22  C   UNL     1     -10.016   3.629  72.578  1.00  0.00    -0.227 C  
BRANCH  22  23
HETATM   23  C   UNL     1     -11.063   2.945  73.457  1.00  0.00    -0.316 C  
HETATM   24  C   UNL     1     -10.416   1.944  74.404  1.00  0.00    -0.183 C  
ENDBRANCH  22  23
ENDBRANCH  21  22
ENDBRANCH  20  21
ENDBRANCH  19  20
ENDBRANCH  17  19
ENDBRANCH  13  14
ENDBRANCH  12  13
BRANCH  12  25
HETATM   25  O   UNL     1      -9.323   6.649  68.478  1.00  0.00    -0.127 OA 
BRANCH  25  26
HETATM   26  C   UNL     1      -9.399   6.735  67.120  1.00  0.00    -0.136 C  
HETATM   27  O   UNL     1     -10.254   6.215  66.412  1.00  0.00    -0.138 OA 
BRANCH  26  28
HETATM   28  C   UNL     1      -8.270   7.599  66.566  1.00  0.00    -0.125 C  
BRANCH  28  29
HETATM   29  C   UNL     1      -8.665   8.281  65.246  1.00  0.00    -0.121 C  
HETATM   30  C   UNL     1      -7.902  10.703  65.710  1.00  0.00    -0.141 C  
HETATM   31  C   UNL     1      -9.601  10.217  63.961  1.00  0.00    -0.365 C  
HETATM   32  C   UNL     1      -9.055   9.775  65.322  1.00  0.00    -0.259 C  
ENDBRANCH  28  29
BRANCH  28  33
HETATM   33  N   UNL     1      -7.064   6.782  66.454  1.00  0.00    -0.069 N  
HETATM   34  C   UNL     1      -5.834   7.221  66.853  1.00  0.00    -0.030 C  
HETATM   35  O   UNL     1      -5.589   8.332  67.296  1.00  0.00    -0.036 OA 
HETATM   36  H   UNL     1      -7.144   5.843  66.060  1.00  0.00     0.000 HD 
ENDBRANCH  28  33
ENDBRANCH  26  28
ENDBRANCH  25  26
ENDBRANCH  12  25
ENDBRANCH  11  12
ENDBRANCH  10  11
ENDBRANCH   9  10
ENDBRANCH   8   9
ENDBRANCH   7   8
ENDBRANCH   6   7
ENDBRANCH   5   6
ENDBRANCH   4   5
ENDBRANCH   3   4
ENDBRANCH   2   3
TORSDOF 22
ENDMDL
MODEL      275
REMARK 921   NORMALIZED FREE ENERGY PREDICTED BY IDOCK:   -3.68 KCAL/MOL
REMARK 922        TOTAL FREE ENERGY PREDICTED BY IDOCK:  -12.03 KCAL/MOL
REMARK 923 INTER-LIGAND FREE ENERGY PREDICTED BY IDOCK:   -7.83 KCAL/MOL
REMARK 924 INTRA-LIGAND FREE ENERGY PREDICTED BY IDOCK:   -4.20 KCAL/MOL
REMARK 927      BINDING AFFINITY PREDICTED BY RF-SCORE:    0.00 PKD
ROOT
HETATM    1  C   UNL     1     -10.859  14.839  67.568  1.00  0.00    -0.287 C  
HETATM    2  C   UNL     1     -12.028  14.132  66.903  1.00  0.00    -0.479 C  
ENDROOT
BRANCH   2   3
HETATM    3  C   UNL     1     -11.838  14.072  65.390  1.00  0.00    -0.363 C  
BRANCH   3   4
HETATM    4  C   UNL     1     -10.455  13.551  65.014  1.00  0.00    -0.390 C  
BRANCH   4   5
HETATM    5  C   UNL     1     -10.469  12.027  64.874  1.00  0.00    -0.325 C  
BRANCH   5   6
HETATM    6  C   UNL     1     -10.531  11.625  63.407  1.00  0.00    -0.482 C  
BRANCH   6   7
HETATM    7  C   UNL     1      -9.421  10.646  63.022  1.00  0.00    -0.363 C  
BRANCH   7   8
HETATM    8  C   UNL     1      -9.277   9.615  64.136  1.00  0.00    -0.218 C  
BRANCH   8   9
HETATM    9  C   UNL     1      -8.221   8.549  63.862  1.00  0.00    -0.128 C  
BRANCH   9  10
HETATM   10  C   UNL     1      -8.354   7.458  64.928  1.00  0.00    -0.029 C  
BRANCH  10  11
HETATM   11  C   UNL     1      -7.081   7.209  65.723  1.00  0.00    -0.069 C  
BRANCH  11  12
HETATM   12  C   UNL     1      -7.006   7.863  67.115  1.00  0.00    -0.074 C  
BRANCH  12  13
HETATM   13  C   UNL     1      -6.619   9.358  67.122  1.00  0.00    -0.071 C  
BRANCH  13  14
HETATM   14  C   UNL     1      -7.812  10.320  67.186  1.00  0.00    -0.110 C  
HETATM   15  O   UNL     1      -7.562  11.566  66.475  1.00  0.00    -0.124 OA 
HETATM   16  O   UNL     1      -7.617  13.519  67.697  1.00  0.00    -0.147 OA 
HETATM   17  C   UNL     1      -7.980  11.118  68.509  1.00  0.00    -0.143 C  
HETATM   18  C   UNL     1      -7.702  12.320  67.588  1.00  0.00    -0.144 C  
BRANCH  17  19
HETATM   19  C   UNL     1      -9.338  11.178  69.200  1.00  0.00     0.019 C  
BRANCH  19  20
HETATM   20  C   UNL     1     -10.435  10.659  68.275  1.00  0.00    -0.214 C  
BRANCH  20  21
HETATM   21  C   UNL     1     -11.828  10.992  68.816  1.00  0.00    -0.352 C  
BRANCH  21  22
HETATM   22  C   UNL     1     -11.748  12.006  69.959  1.00  0.00    -0.346 C  
BRANCH  22  23
HETATM   23  C   UNL     1     -12.612  11.590  71.149  1.00  0.00    -0.463 C  
HETATM   24  C   UNL     1     -13.024  10.128  71.044  1.00  0.00    -0.473 C  
ENDBRANCH  22  23
ENDBRANCH  21  22
ENDBRANCH  20  21
ENDBRANCH  19  20
ENDBRANCH  17  19
ENDBRANCH  13  14
ENDBRANCH  12  13
BRANCH  12  25
HETATM   25  O   UNL     1      -8.271   7.742  67.807  1.00  0.00    -0.123 OA 
BRANCH  25  26
HETATM   26  C   UNL     1      -8.317   6.916  68.889  1.00  0.00    -0.121 C  
HETATM   27  O   UNL     1      -7.409   6.727  69.691  1.00  0.00    -0.082 OA 
BRANCH  26  28
HETATM   28  C   UNL     1      -9.683   6.247  69.004  1.00  0.00    -0.130 C  
BRANCH  28  29
HETATM   29  C   UNL     1     -10.156   5.673  67.658  1.00  0.00    -0.208 C  
HETATM   30  C   UNL     1      -9.524   3.187  67.949  1.00  0.00    -0.215 C  
HETATM   31  C   UNL     1      -9.861   4.157  65.685  1.00  0.00    -0.207 C  
HETATM   32  C   UNL     1      -9.378   4.456  67.107  1.00  0.00    -0.173 C  
ENDBRANCH  28  29
BRANCH  28  33
HETATM   33  N   UNL     1     -10.627   7.200  69.586  1.00  0.00    -0.229 N  
HETATM   34  C   UNL     1     -11.353   6.928  70.710  1.00  0.00    -0.310 C  
HETATM   35  O   UNL     1     -11.341   5.871  71.322  1.00  0.00    -0.261 OA 
HETATM   36  H   UNL     1     -10.747   8.107  69.133  1.00  0.00     0.000 HD 
ENDBRANCH  28  33
ENDBRANCH  26  28
ENDBRANCH  25  26
ENDBRANCH  12  25
ENDBRANCH  11  12
ENDBRANCH  10  11
ENDBRANCH   9  10
ENDBRANCH   8   9
ENDBRANCH   7   8
ENDBRANCH   6   7
ENDBRANCH   5   6
ENDBRANCH   4   5
ENDBRANCH   3   4
ENDBRANCH   2   3
TORSDOF 22
ENDMDL
MODEL      276
REMARK 921   NORMALIZED FREE ENERGY PREDICTED BY IDOCK:   -3.66 KCAL/MOL
REMARK 922        TOTAL FREE ENERGY PREDICTED BY IDOCK:  -11.99 KCAL/MOL
REMARK 923 INTER-LIGAND FREE ENERGY PREDICTED BY IDOCK:   -9.92 KCAL/MOL
REMARK 924 INTRA-LIGAND FREE ENERGY PREDICTED BY IDOCK:   -2.07 KCAL/MOL
REMARK 927      BINDING AFFINITY PREDICTED BY RF-SCORE:    0.00 PKD
ROOT
HETATM    1  C   UNL     1     -10.517  19.542  67.800  1.00  0.00    -0.574 C  
HETATM    2  C   UNL     1     -10.508  18.040  67.563  1.00  0.00    -0.408 C  
ENDROOT
BRANCH   2   3
HETATM    3  C   UNL     1      -9.703  17.693  66.314  1.00  0.00    -0.275 C  
BRANCH   3   4
HETATM    4  C   UNL     1     -10.427  16.675  65.439  1.00  0.00    -0.253 C  
BRANCH   4   5
HETATM    5  C   UNL     1      -9.734  15.312  65.504  1.00  0.00    -0.313 C  
BRANCH   5   6
HETATM    6  C   UNL     1     -10.457  14.303  64.623  1.00  0.00    -0.325 C  
BRANCH   6   7
HETATM    7  C   UNL     1     -11.975  14.499  64.635  1.00  0.00    -0.478 C  
BRANCH   7   8
HETATM    8  C   UNL     1     -12.512  14.037  65.985  1.00  0.00    -0.489 C  
BRANCH   8   9
HETATM    9  C   UNL     1     -11.947  12.700  66.453  1.00  0.00    -0.425 C  
BRANCH   9  10
HETATM   10  C   UNL     1     -11.455  12.866  67.894  1.00  0.00    -0.362 C  
BRANCH  10  11
HETATM   11  C   UNL     1      -9.988  12.516  68.093  1.00  0.00    -0.224 C  
BRANCH  11  12
HETATM   12  C   UNL     1      -9.691  11.279  68.960  1.00  0.00    -0.054 C  
BRANCH  12  13
HETATM   13  C   UNL     1     -10.916  10.661  69.670  1.00  0.00    -0.331 C  
BRANCH  13  14
HETATM   14  C   UNL     1     -10.566   9.710  70.821  1.00  0.00    -0.322 C  
HETATM   15  O   UNL     1      -9.129   9.548  70.993  1.00  0.00    -0.224 OA 
HETATM   16  O   UNL     1      -8.256   7.431  70.734  1.00  0.00    -0.109 OA 
HETATM   17  C   UNL     1     -10.692   8.191  70.516  1.00  0.00    -0.233 C  
HETATM   18  C   UNL     1      -9.170   8.221  70.744  1.00  0.00    -0.153 C  
BRANCH  17  19
HETATM   19  C   UNL     1     -11.437   7.275  71.482  1.00  0.00    -0.292 C  
BRANCH  19  20
HETATM   20  C   UNL     1     -11.065   7.601  72.926  1.00  0.00    -0.448 C  
BRANCH  20  21
HETATM   21  C   UNL     1     -10.546   6.364  73.663  1.00  0.00    -0.288 C  
BRANCH  21  22
HETATM   22  C   UNL     1     -10.855   5.085  72.881  1.00  0.00    -0.322 C  
BRANCH  22  23
HETATM   23  C   UNL     1      -9.591   4.461  72.290  1.00  0.00    -0.200 C  
HETATM   24  C   UNL     1      -9.903   3.143  71.595  1.00  0.00    -0.216 C  
ENDBRANCH  22  23
ENDBRANCH  21  22
ENDBRANCH  20  21
ENDBRANCH  19  20
ENDBRANCH  17  19
ENDBRANCH  13  14
ENDBRANCH  12  13
BRANCH  12  25
HETATM   25  O   UNL     1      -9.081  10.233  68.168  1.00  0.00    -0.133 OA 
BRANCH  25  26
HETATM   26  C   UNL     1      -8.892  10.479  66.842  1.00  0.00    -0.137 C  
HETATM   27  O   UNL     1      -8.009  11.179  66.357  1.00  0.00    -0.159 OA 
BRANCH  26  28
HETATM   28  C   UNL     1      -9.929   9.743  65.999  1.00  0.00    -0.272 C  
BRANCH  28  29
HETATM   29  C   UNL     1     -10.657   8.656  66.806  1.00  0.00    -0.223 C  
HETATM   30  C   UNL     1      -8.737   6.974  67.187  1.00  0.00    -0.121 C  
HETATM   31  C   UNL     1     -11.110   6.254  67.358  1.00  0.00    -0.384 C  
HETATM   32  C   UNL     1     -10.147   7.206  66.642  1.00  0.00    -0.229 C  
ENDBRANCH  28  29
BRANCH  28  33
HETATM   33  N   UNL     1      -9.277   9.227  64.797  1.00  0.00    -0.431 N  
HETATM   34  C   UNL     1      -9.326   9.874  63.595  1.00  0.00    -0.191 C  
HETATM   35  O   UNL     1      -9.940  10.906  63.371  1.00  0.00    -0.318 OA 
HETATM   36  H   UNL     1      -8.764   8.347  64.858  1.00  0.00     0.000 HD 
ENDBRANCH  28  33
ENDBRANCH  26  28
ENDBRANCH  25  26
ENDBRANCH  12  25
ENDBRANCH  11  12
ENDBRANCH  10  11
ENDBRANCH   9  10
ENDBRANCH   8   9
ENDBRANCH   7   8
ENDBRANCH   6   7
ENDBRANCH   5   6
ENDBRANCH   4   5
ENDBRANCH   3   4
ENDBRANCH   2   3
TORSDOF 22
ENDMDL
MODEL      277
REMARK 921   NORMALIZED FREE ENERGY PREDICTED BY IDOCK:   -3.66 KCAL/MOL
REMARK 922        TOTAL FREE ENERGY PREDICTED BY IDOCK:  -11.98 KCAL/MOL
REMARK 923 INTER-LIGAND FREE ENERGY PREDICTED BY IDOCK:   -9.51 KCAL/MOL
REMARK 924 INTRA-LIGAND FREE ENERGY PREDICTED BY IDOCK:   -2.47 KCAL/MOL
REMARK 927      BINDING AFFINITY PREDICTED BY RF-SCORE:    0.00 PKD
ROOT
HETATM    1  C   UNL     1      -9.689  19.164  68.886  1.00  0.00    -0.474 C  
HETATM    2  C   UNL     1     -10.207  18.040  68.005  1.00  0.00    -0.390 C  
ENDROOT
BRANCH   2   3
HETATM    3  C   UNL     1     -10.651  18.576  66.647  1.00  0.00    -0.383 C  
BRANCH   3   4
HETATM    4  C   UNL     1     -10.588  17.500  65.566  1.00  0.00    -0.097 C  
BRANCH   4   5
HETATM    5  C   UNL     1     -10.135  16.164  66.156  1.00  0.00    -0.356 C  
BRANCH   5   6
HETATM    6  C   UNL     1     -10.293  15.046  65.134  1.00  0.00    -0.422 C  
BRANCH   6   7
HETATM    7  C   UNL     1     -11.755  14.810  64.750  1.00  0.00    -0.422 C  
BRANCH   7   8
HETATM    8  C   UNL     1     -12.522  14.394  65.999  1.00  0.00    -0.305 C  
BRANCH   8   9
HETATM    9  C   UNL     1     -12.094  13.047  66.571  1.00  0.00    -0.410 C  
BRANCH   9  10
HETATM   10  C   UNL     1     -11.796  13.232  68.063  1.00  0.00    -0.392 C  
BRANCH  10  11
HETATM   11  C   UNL     1     -10.367  12.890  68.457  1.00  0.00    -0.239 C  
BRANCH  11  12
HETATM   12  C   UNL     1     -10.106  11.436  68.889  1.00  0.00    -0.150 C  
BRANCH  12  13
HETATM   13  C   UNL     1     -11.350  10.519  68.907  1.00  0.00    -0.313 C  
BRANCH  13  14
HETATM   14  C   UNL     1     -11.228   9.306  69.837  1.00  0.00    -0.126 C  
HETATM   15  O   UNL     1     -10.902   9.684  71.205  1.00  0.00    -0.350 OA 
HETATM   16  O   UNL     1      -8.925   8.891  72.086  1.00  0.00    -0.381 OA 
HETATM   17  C   UNL     1      -9.899   8.505  69.750  1.00  0.00    -0.186 C  
HETATM   18  C   UNL     1      -9.735   9.001  71.198  1.00  0.00    -0.299 C  
BRANCH  17  19
HETATM   19  C   UNL     1      -9.927   6.986  69.623  1.00  0.00    -0.177 C  
BRANCH  19  20
HETATM   20  C   UNL     1     -11.155   6.535  68.838  1.00  0.00    -0.371 C  
BRANCH  20  21
HETATM   21  C   UNL     1     -10.763   5.690  67.622  1.00  0.00    -0.260 C  
BRANCH  21  22
HETATM   22  C   UNL     1      -9.786   4.580  68.014  1.00  0.00    -0.192 C  
BRANCH  22  23
HETATM   23  C   UNL     1      -9.336   3.765  66.801  1.00  0.00    -0.209 C  
HETATM   24  C   UNL     1     -10.098   4.178  65.549  1.00  0.00    -0.198 C  
ENDBRANCH  22  23
ENDBRANCH  21  22
ENDBRANCH  20  21
ENDBRANCH  19  20
ENDBRANCH  17  19
ENDBRANCH  13  14
ENDBRANCH  12  13
BRANCH  12  25
HETATM   25  O   UNL     1      -9.126  10.812  68.027  1.00  0.00    -0.143 OA 
BRANCH  25  26
HETATM   26  C   UNL     1      -8.831  11.441  66.855  1.00  0.00    -0.173 C  
HETATM   27  O   UNL     1      -8.124  12.435  66.729  1.00  0.00    -0.111 OA 
BRANCH  26  28
HETATM   28  C   UNL     1      -9.487  10.730  65.676  1.00  0.00    -0.209 C  
BRANCH  28  29
HETATM   29  C   UNL     1      -9.359   9.202  65.783  1.00  0.00    -0.309 C  
HETATM   30  C   UNL     1      -6.792   8.939  65.847  1.00  0.00    -0.072 C  
HETATM   31  C   UNL     1      -8.249   7.037  65.184  1.00  0.00    -0.113 C  
HETATM   32  C   UNL     1      -8.102   8.561  65.152  1.00  0.00    -0.142 C  
ENDBRANCH  28  29
BRANCH  28  33
HETATM   33  N   UNL     1      -8.933  11.268  64.434  1.00  0.00    -0.391 N  
HETATM   34  C   UNL     1      -9.716  11.716  63.409  1.00  0.00    -0.348 C  
HETATM   35  O   UNL     1     -10.936  11.681  63.383  1.00  0.00    -0.397 OA 
HETATM   36  H   UNL     1      -7.918  11.310  64.330  1.00  0.00     0.000 HD 
ENDBRANCH  28  33
ENDBRANCH  26  28
ENDBRANCH  25  26
ENDBRANCH  12  25
ENDBRANCH  11  12
ENDBRANCH  10  11
ENDBRANCH   9  10
ENDBRANCH   8   9
ENDBRANCH   7   8
ENDBRANCH   6   7
ENDBRANCH   5   6
ENDBRANCH   4   5
ENDBRANCH   3   4
ENDBRANCH   2   3
TORSDOF 22
ENDMDL
MODEL      278
REMARK 921   NORMALIZED FREE ENERGY PREDICTED BY IDOCK:   -3.63 KCAL/MOL
REMARK 922        TOTAL FREE ENERGY PREDICTED BY IDOCK:  -11.93 KCAL/MOL
REMARK 923 INTER-LIGAND FREE ENERGY PREDICTED BY IDOCK:   -7.43 KCAL/MOL
REMARK 924 INTRA-LIGAND FREE ENERGY PREDICTED BY IDOCK:   -4.50 KCAL/MOL
REMARK 927      BINDING AFFINITY PREDICTED BY RF-SCORE:    0.00 PKD
ROOT
HETATM    1  C   UNL     1      -8.605   1.938  69.622  1.00  0.00    -0.095 C  
HETATM    2  C   UNL     1      -7.516   2.951  69.310  1.00  0.00    -0.044 C  
ENDROOT
BRANCH   2   3
HETATM    3  C   UNL     1      -7.988   3.950  68.257  1.00  0.00    -0.076 C  
BRANCH   3   4
HETATM    4  C   UNL     1      -8.959   3.312  67.268  1.00  0.00    -0.180 C  
BRANCH   4   5
HETATM    5  C   UNL     1      -8.343   3.247  65.869  1.00  0.00    -0.103 C  
BRANCH   5   6
HETATM    6  C   UNL     1      -7.665   4.565  65.521  1.00  0.00    -0.090 C  
BRANCH   6   7
HETATM    7  C   UNL     1      -8.626   5.562  64.872  1.00  0.00    -0.111 C  
BRANCH   7   8
HETATM    8  C   UNL     1      -8.743   6.783  65.777  1.00  0.00    -0.122 C  
BRANCH   8   9
HETATM    9  C   UNL     1      -7.403   7.319  66.272  1.00  0.00    -0.079 C  
BRANCH   9  10
HETATM   10  C   UNL     1      -7.545   7.666  67.757  1.00  0.00    -0.117 C  
BRANCH  10  11
HETATM   11  C   UNL     1      -6.687   8.839  68.204  1.00  0.00    -0.065 C  
BRANCH  11  12
HETATM   12  C   UNL     1      -7.438  10.062  68.762  1.00  0.00    -0.081 C  
BRANCH  12  13
HETATM   13  C   UNL     1      -8.162  10.929  67.708  1.00  0.00    -0.116 C  
BRANCH  13  14
HETATM   14  C   UNL     1      -9.614  10.515  67.438  1.00  0.00    -0.158 C  
HETATM   15  O   UNL     1     -10.048  10.852  66.090  1.00  0.00    -0.224 OA 
HETATM   16  O   UNL     1     -11.817  12.313  65.874  1.00  0.00    -0.473 OA 
HETATM   17  C   UNL     1     -10.712  11.450  68.017  1.00  0.00    -0.240 C  
HETATM   18  C   UNL     1     -11.027  11.675  66.527  1.00  0.00    -0.299 C  
BRANCH  17  19
HETATM   19  C   UNL     1     -11.879  10.865  68.806  1.00  0.00    -0.305 C  
BRANCH  19  20
HETATM   20  C   UNL     1     -11.637  11.008  70.306  1.00  0.00    -0.414 C  
BRANCH  20  21
HETATM   21  C   UNL     1     -12.879  11.541  71.025  1.00  0.00    -0.358 C  
BRANCH  21  22
HETATM   22  C   UNL     1     -13.364  10.558  72.092  1.00  0.00    -0.347 C  
BRANCH  22  23
HETATM   23  C   UNL     1     -12.713   9.183  71.937  1.00  0.00    -0.464 C  
HETATM   24  C   UNL     1     -13.749   8.121  71.598  1.00  0.00    -0.403 C  
ENDBRANCH  22  23
ENDBRANCH  21  22
ENDBRANCH  20  21
ENDBRANCH  19  20
ENDBRANCH  17  19
ENDBRANCH  13  14
ENDBRANCH  12  13
BRANCH  12  25
HETATM   25  O   UNL     1      -8.426   9.656  69.737  1.00  0.00    -0.153 OA 
BRANCH  25  26
HETATM   26  C   UNL     1      -7.971   9.191  70.934  1.00  0.00    -0.157 C  
HETATM   27  O   UNL     1      -7.026   9.644  71.571  1.00  0.00    -0.316 OA 
BRANCH  26  28
HETATM   28  C   UNL     1      -8.815   8.015  71.417  1.00  0.00    -0.141 C  
BRANCH  28  29
HETATM   29  C   UNL     1      -9.961   7.694  70.444  1.00  0.00    -0.188 C  
HETATM   30  C   UNL     1     -10.342   5.194  70.960  1.00  0.00    -0.278 C  
HETATM   31  C   UNL     1     -11.101   6.178  68.807  1.00  0.00    -0.398 C  
HETATM   32  C   UNL     1     -10.028   6.249  69.898  1.00  0.00    -0.206 C  
ENDBRANCH  28  29
BRANCH  28  33
HETATM   33  N   UNL     1      -9.275   8.293  72.776  1.00  0.00    -0.262 N  
HETATM   34  C   UNL     1      -8.998   7.472  73.832  1.00  0.00    -0.251 C  
HETATM   35  O   UNL     1      -8.391   6.413  73.765  1.00  0.00    -0.114 OA 
HETATM   36  H   UNL     1      -9.825   9.136  72.944  1.00  0.00     0.000 HD 
ENDBRANCH  28  33
ENDBRANCH  26  28
ENDBRANCH  25  26
ENDBRANCH  12  25
ENDBRANCH  11  12
ENDBRANCH  10  11
ENDBRANCH   9  10
ENDBRANCH   8   9
ENDBRANCH   7   8
ENDBRANCH   6   7
ENDBRANCH   5   6
ENDBRANCH   4   5
ENDBRANCH   3   4
ENDBRANCH   2   3
TORSDOF 22
ENDMDL
MODEL      279
REMARK 921   NORMALIZED FREE ENERGY PREDICTED BY IDOCK:   -3.63 KCAL/MOL
REMARK 922        TOTAL FREE ENERGY PREDICTED BY IDOCK:  -11.93 KCAL/MOL
REMARK 923 INTER-LIGAND FREE ENERGY PREDICTED BY IDOCK:   -9.25 KCAL/MOL
REMARK 924 INTRA-LIGAND FREE ENERGY PREDICTED BY IDOCK:   -2.68 KCAL/MOL
REMARK 927      BINDING AFFINITY PREDICTED BY RF-SCORE:    0.00 PKD
ROOT
HETATM    1  C   UNL     1      -7.529   5.610  69.820  1.00  0.00    -0.074 C  
HETATM    2  C   UNL     1      -8.479   6.053  68.720  1.00  0.00    -0.113 C  
ENDROOT
BRANCH   2   3
HETATM    3  C   UNL     1      -9.770   6.614  69.310  1.00  0.00    -0.151 C  
BRANCH   3   4
HETATM    4  C   UNL     1     -10.521   5.566  70.125  1.00  0.00    -0.370 C  
BRANCH   4   5
HETATM    5  C   UNL     1     -10.780   6.067  71.547  1.00  0.00    -0.309 C  
BRANCH   5   6
HETATM    6  C   UNL     1     -12.000   6.979  71.579  1.00  0.00    -0.372 C  
BRANCH   6   7
HETATM    7  C   UNL     1     -11.678   8.364  72.143  1.00  0.00    -0.442 C  
BRANCH   7   8
HETATM    8  C   UNL     1     -12.061   9.411  71.104  1.00  0.00    -0.406 C  
BRANCH   8   9
HETATM    9  C   UNL     1     -10.914   9.824  70.187  1.00  0.00    -0.339 C  
BRANCH   9  10
HETATM   10  C   UNL     1     -11.213  11.226  69.647  1.00  0.00    -0.321 C  
BRANCH  10  11
HETATM   11  C   UNL     1     -11.784  11.238  68.237  1.00  0.00    -0.344 C  
BRANCH  11  12
HETATM   12  C   UNL     1     -11.488  12.490  67.391  1.00  0.00    -0.341 C  
BRANCH  12  13
HETATM   13  C   UNL     1     -12.151  13.794  67.887  1.00  0.00    -0.322 C  
BRANCH  13  14
HETATM   14  C   UNL     1     -11.515  14.385  69.151  1.00  0.00    -0.294 C  
HETATM   15  O   UNL     1     -12.278  14.081  70.354  1.00  0.00    -0.319 OA 
HETATM   16  O   UNL     1     -13.130  15.855  71.552  1.00  0.00    -0.464 OA 
HETATM   17  C   UNL     1     -11.754  15.902  69.394  1.00  0.00    -0.350 C  
HETATM   18  C   UNL     1     -12.516  15.383  70.626  1.00  0.00    -0.428 C  
BRANCH  17  19
HETATM   19  C   UNL     1     -10.583  16.816  69.740  1.00  0.00    -0.174 C  
BRANCH  19  20
HETATM   20  C   UNL     1      -9.257  16.146  69.390  1.00  0.00    -0.170 C  
BRANCH  20  21
HETATM   21  C   UNL     1      -8.862  16.414  67.936  1.00  0.00    -0.184 C  
BRANCH  21  22
HETATM   22  C   UNL     1      -8.911  17.910  67.617  1.00  0.00    -0.250 C  
BRANCH  22  23
HETATM   23  C   UNL     1      -9.854  18.211  66.452  1.00  0.00    -0.353 C  
HETATM   24  C   UNL     1     -10.539  19.559  66.636  1.00  0.00    -0.583 C  
ENDBRANCH  22  23
ENDBRANCH  21  22
ENDBRANCH  20  21
ENDBRANCH  19  20
ENDBRANCH  17  19
ENDBRANCH  13  14
ENDBRANCH  12  13
BRANCH  12  25
HETATM   25  O   UNL     1     -10.064  12.734  67.315  1.00  0.00    -0.222 OA 
BRANCH  25  26
HETATM   26  C   UNL     1      -9.414  12.305  66.198  1.00  0.00    -0.217 C  
HETATM   27  O   UNL     1      -9.789  12.461  65.041  1.00  0.00    -0.219 OA 
BRANCH  26  28
HETATM   28  C   UNL     1      -8.110  11.602  66.564  1.00  0.00    -0.075 C  
BRANCH  28  29
HETATM   29  C   UNL     1      -7.873  10.349  65.705  1.00  0.00    -0.154 C  
HETATM   30  C   UNL     1      -9.986   8.977  66.261  1.00  0.00    -0.352 C  
HETATM   31  C   UNL     1      -7.953   7.869  65.356  1.00  0.00    -0.123 C  
HETATM   32  C   UNL     1      -8.457   9.019  66.233  1.00  0.00    -0.132 C  
ENDBRANCH  28  29
BRANCH  28  33
HETATM   33  N   UNL     1      -8.114  11.323  67.999  1.00  0.00    -0.122 N  
HETATM   34  C   UNL     1      -7.203  11.866  68.859  1.00  0.00    -0.098 C  
HETATM   35  O   UNL     1      -6.274  12.592  68.540  1.00  0.00    -0.061 OA 
HETATM   36  H   UNL     1      -8.826  10.696  68.374  1.00  0.00     0.000 HD 
ENDBRANCH  28  33
ENDBRANCH  26  28
ENDBRANCH  25  26
ENDBRANCH  12  25
ENDBRANCH  11  12
ENDBRANCH  10  11
ENDBRANCH   9  10
ENDBRANCH   8   9
ENDBRANCH   7   8
ENDBRANCH   6   7
ENDBRANCH   5   6
ENDBRANCH   4   5
ENDBRANCH   3   4
ENDBRANCH   2   3
TORSDOF 22
ENDMDL
MODEL      280
REMARK 921   NORMALIZED FREE ENERGY PREDICTED BY IDOCK:   -3.61 KCAL/MOL
REMARK 922        TOTAL FREE ENERGY PREDICTED BY IDOCK:  -11.88 KCAL/MOL
REMARK 923 INTER-LIGAND FREE ENERGY PREDICTED BY IDOCK:   -8.69 KCAL/MOL
REMARK 924 INTRA-LIGAND FREE ENERGY PREDICTED BY IDOCK:   -3.19 KCAL/MOL
REMARK 927      BINDING AFFINITY PREDICTED BY RF-SCORE:    0.00 PKD
ROOT
HETATM    1  C   UNL     1     -12.027  14.203  69.353  1.00  0.00    -0.382 C  
HETATM    2  C   UNL     1     -11.677  15.516  70.035  1.00  0.00    -0.363 C  
ENDROOT
BRANCH   2   3
HETATM    3  C   UNL     1     -10.441  16.145  69.398  1.00  0.00    -0.283 C  
BRANCH   3   4
HETATM    4  C   UNL     1     -10.814  17.161  68.322  1.00  0.00    -0.314 C  
BRANCH   4   5
HETATM    5  C   UNL     1      -9.754  17.199  67.220  1.00  0.00    -0.254 C  
BRANCH   5   6
HETATM    6  C   UNL     1      -8.378  16.882  67.791  1.00  0.00    -0.198 C  
BRANCH   6   7
HETATM    7  C   UNL     1      -7.537  16.023  66.845  1.00  0.00    -0.268 C  
BRANCH   7   8
HETATM    8  C   UNL     1      -6.566  15.194  67.678  1.00  0.00    -0.195 C  
BRANCH   8   9
HETATM    9  C   UNL     1      -7.222  14.443  68.832  1.00  0.00    -0.125 C  
BRANCH   9  10
HETATM   10  C   UNL     1      -6.740  12.990  68.794  1.00  0.00    -0.100 C  
BRANCH  10  11
HETATM   11  C   UNL     1      -7.229  12.207  67.585  1.00  0.00    -0.123 C  
BRANCH  11  12
HETATM   12  C   UNL     1      -8.447  11.293  67.809  1.00  0.00    -0.126 C  
BRANCH  12  13
HETATM   13  C   UNL     1      -8.393  10.420  69.082  1.00  0.00    -0.160 C  
BRANCH  13  14
HETATM   14  C   UNL     1      -7.935   8.977  68.842  1.00  0.00    -0.100 C  
HETATM   15  O   UNL     1      -6.536   8.895  68.446  1.00  0.00    -0.058 OA 
HETATM   16  O   UNL     1      -6.065   7.988  66.380  1.00  0.00    -0.043 OA 
HETATM   17  C   UNL     1      -8.348   8.344  67.484  1.00  0.00    -0.129 C  
HETATM   18  C   UNL     1      -6.826   8.335  67.251  1.00  0.00    -0.070 C  
BRANCH  17  19
HETATM   19  C   UNL     1      -8.981   6.957  67.446  1.00  0.00    -0.116 C  
BRANCH  19  20
HETATM   20  C   UNL     1     -10.503   7.062  67.417  1.00  0.00    -0.343 C  
BRANCH  20  21
HETATM   21  C   UNL     1     -11.141   6.250  68.547  1.00  0.00    -0.397 C  
BRANCH  21  22
HETATM   22  C   UNL     1     -10.441   6.515  69.881  1.00  0.00    -0.258 C  
BRANCH  22  23
HETATM   23  C   UNL     1     -11.318   6.124  71.071  1.00  0.00    -0.348 C  
HETATM   24  C   UNL     1     -12.481   7.092  71.237  1.00  0.00    -0.425 C  
ENDBRANCH  22  23
ENDBRANCH  21  22
ENDBRANCH  20  21
ENDBRANCH  19  20
ENDBRANCH  17  19
ENDBRANCH  13  14
ENDBRANCH  12  13
BRANCH  12  25
HETATM   25  O   UNL     1      -9.666  12.069  67.871  1.00  0.00    -0.183 OA 
BRANCH  25  26
HETATM   26  C   UNL     1     -10.591  11.864  66.892  1.00  0.00    -0.230 C  
HETATM   27  O   UNL     1     -11.694  11.351  67.039  1.00  0.00    -0.535 OA 
BRANCH  26  28
HETATM   28  C   UNL     1     -10.085  12.384  65.549  1.00  0.00    -0.267 C  
BRANCH  28  29
HETATM   29  C   UNL     1     -10.329  13.893  65.390  1.00  0.00    -0.364 C  
HETATM   30  C   UNL     1     -12.909  13.966  65.395  1.00  0.00    -0.466 C  
HETATM   31  C   UNL     1     -11.586  15.831  64.419  1.00  0.00    -0.240 C  
HETATM   32  C   UNL     1     -11.619  14.318  64.651  1.00  0.00    -0.415 C  
ENDBRANCH  28  29
BRANCH  28  33
HETATM   33  N   UNL     1     -10.687  11.588  64.481  1.00  0.00    -0.315 N  
HETATM   34  C   UNL     1      -9.985  10.656  63.770  1.00  0.00    -0.317 C  
HETATM   35  O   UNL     1      -8.796  10.413  63.902  1.00  0.00    -0.184 OA 
HETATM   36  H   UNL     1     -11.671  11.735  64.256  1.00  0.00     0.000 HD 
ENDBRANCH  28  33
ENDBRANCH  26  28
ENDBRANCH  25  26
ENDBRANCH  12  25
ENDBRANCH  11  12
ENDBRANCH  10  11
ENDBRANCH   9  10
ENDBRANCH   8   9
ENDBRANCH   7   8
ENDBRANCH   6   7
ENDBRANCH   5   6
ENDBRANCH   4   5
ENDBRANCH   3   4
ENDBRANCH   2   3
TORSDOF 22
ENDMDL
MODEL      281
REMARK 921   NORMALIZED FREE ENERGY PREDICTED BY IDOCK:   -3.61 KCAL/MOL
REMARK 922        TOTAL FREE ENERGY PREDICTED BY IDOCK:  -11.86 KCAL/MOL
REMARK 923 INTER-LIGAND FREE ENERGY PREDICTED BY IDOCK:   -9.07 KCAL/MOL
REMARK 924 INTRA-LIGAND FREE ENERGY PREDICTED BY IDOCK:   -2.79 KCAL/MOL
REMARK 927      BINDING AFFINITY PREDICTED BY RF-SCORE:    0.00 PKD
ROOT
HETATM    1  C   UNL     1      -9.963  18.871  68.732  1.00  0.00    -0.466 C  
HETATM    2  C   UNL     1     -10.394  17.754  67.795  1.00  0.00    -0.382 C  
ENDROOT
BRANCH   2   3
HETATM    3  C   UNL     1     -10.504  18.262  66.360  1.00  0.00    -0.387 C  
BRANCH   3   4
HETATM    4  C   UNL     1     -10.808  17.131  65.382  1.00  0.00    -0.051 C  
BRANCH   4   5
HETATM    5  C   UNL     1     -10.112  15.838  65.814  1.00  0.00    -0.399 C  
BRANCH   5   6
HETATM    6  C   UNL     1     -10.434  14.709  64.844  1.00  0.00    -0.415 C  
BRANCH   6   7
HETATM    7  C   UNL     1     -11.916  14.670  64.466  1.00  0.00    -0.473 C  
BRANCH   7   8
HETATM    8  C   UNL     1     -12.668  13.882  65.533  1.00  0.00    -0.536 C  
BRANCH   8   9
HETATM    9  C   UNL     1     -11.842  12.777  66.185  1.00  0.00    -0.484 C  
BRANCH   9  10
HETATM   10  C   UNL     1     -11.910  12.962  67.704  1.00  0.00    -0.400 C  
BRANCH  10  11
HETATM   11  C   UNL     1     -10.583  12.748  68.415  1.00  0.00    -0.262 C  
BRANCH  11  12
HETATM   12  C   UNL     1     -10.413  11.412  69.161  1.00  0.00    -0.127 C  
BRANCH  12  13
HETATM   13  C   UNL     1     -11.587  10.419  69.011  1.00  0.00    -0.220 C  
BRANCH  13  14
HETATM   14  C   UNL     1     -11.837   9.545  70.246  1.00  0.00    -0.057 C  
HETATM   15  O   UNL     1     -11.160  10.050  71.433  1.00  0.00    -0.259 OA 
HETATM   16  O   UNL     1      -9.588   8.687  72.424  1.00  0.00    -0.288 OA 
HETATM   17  C   UNL     1     -11.005   8.236  70.340  1.00  0.00    -0.244 C  
HETATM   18  C   UNL     1     -10.410   8.935  71.575  1.00  0.00    -0.324 C  
BRANCH  17  19
HETATM   19  C   UNL     1     -11.693   6.912  70.658  1.00  0.00    -0.417 C  
BRANCH  19  20
HETATM   20  C   UNL     1     -11.048   5.771  69.878  1.00  0.00    -0.327 C  
BRANCH  20  21
HETATM   21  C   UNL     1     -10.646   6.214  68.468  1.00  0.00    -0.327 C  
BRANCH  21  22
HETATM   22  C   UNL     1     -10.173   5.025  67.629  1.00  0.00    -0.168 C  
BRANCH  22  23
HETATM   23  C   UNL     1     -10.309   5.297  66.131  1.00  0.00    -0.238 C  
HETATM   24  C   UNL     1      -9.959   4.061  65.315  1.00  0.00    -0.193 C  
ENDBRANCH  22  23
ENDBRANCH  21  22
ENDBRANCH  20  21
ENDBRANCH  19  20
ENDBRANCH  17  19
ENDBRANCH  13  14
ENDBRANCH  12  13
BRANCH  12  25
HETATM   25  O   UNL     1      -9.214  10.730  68.725  1.00  0.00    -0.175 OA 
BRANCH  25  26
HETATM   26  C   UNL     1      -8.148  11.500  68.373  1.00  0.00    -0.149 C  
HETATM   27  O   UNL     1      -7.659  12.404  69.042  1.00  0.00    -0.021 OA 
BRANCH  26  28
HETATM   28  C   UNL     1      -7.599  11.080  67.012  1.00  0.00    -0.127 C  
BRANCH  28  29
HETATM   29  C   UNL     1      -8.613  11.328  65.883  1.00  0.00    -0.096 C  
HETATM   30  C   UNL     1     -10.004   9.158  66.001  1.00  0.00    -0.293 C  
HETATM   31  C   UNL     1      -9.976  10.541  63.935  1.00  0.00    -0.348 C  
HETATM   32  C   UNL     1      -9.145  10.084  65.137  1.00  0.00    -0.247 C  
ENDBRANCH  28  29
BRANCH  28  33
HETATM   33  N   UNL     1      -7.157   9.688  67.093  1.00  0.00    -0.085 N  
HETATM   34  C   UNL     1      -5.978   9.321  67.675  1.00  0.00    -0.053 C  
HETATM   35  O   UNL     1      -5.151  10.087  68.143  1.00  0.00    -0.036 OA 
HETATM   36  H   UNL     1      -7.755   8.962  66.698  1.00  0.00     0.000 HD 
ENDBRANCH  28  33
ENDBRANCH  26  28
ENDBRANCH  25  26
ENDBRANCH  12  25
ENDBRANCH  11  12
ENDBRANCH  10  11
ENDBRANCH   9  10
ENDBRANCH   8   9
ENDBRANCH   7   8
ENDBRANCH   6   7
ENDBRANCH   5   6
ENDBRANCH   4   5
ENDBRANCH   3   4
ENDBRANCH   2   3
TORSDOF 22
ENDMDL
MODEL      282
REMARK 921   NORMALIZED FREE ENERGY PREDICTED BY IDOCK:   -3.60 KCAL/MOL
REMARK 922        TOTAL FREE ENERGY PREDICTED BY IDOCK:  -11.84 KCAL/MOL
REMARK 923 INTER-LIGAND FREE ENERGY PREDICTED BY IDOCK:   -8.57 KCAL/MOL
REMARK 924 INTRA-LIGAND FREE ENERGY PREDICTED BY IDOCK:   -3.27 KCAL/MOL
REMARK 927      BINDING AFFINITY PREDICTED BY RF-SCORE:    0.00 PKD
ROOT
HETATM    1  C   UNL     1     -12.382  12.244  63.789  1.00  0.00    -0.637 C  
HETATM    2  C   UNL     1     -11.062  11.537  63.527  1.00  0.00    -0.434 C  
ENDROOT
BRANCH   2   3
HETATM    3  C   UNL     1     -10.195  11.522  64.782  1.00  0.00    -0.331 C  
BRANCH   3   4
HETATM    4  C   UNL     1      -9.184  10.380  64.759  1.00  0.00    -0.273 C  
BRANCH   4   5
HETATM    5  C   UNL     1      -9.748   9.142  65.459  1.00  0.00    -0.171 C  
BRANCH   5   6
HETATM    6  C   UNL     1      -8.620   8.239  65.941  1.00  0.00    -0.170 C  
BRANCH   6   7
HETATM    7  C   UNL     1      -7.248   8.904  65.817  1.00  0.00    -0.085 C  
BRANCH   7   8
HETATM    8  C   UNL     1      -6.709   9.167  67.218  1.00  0.00    -0.069 C  
BRANCH   8   9
HETATM    9  C   UNL     1      -6.308  10.617  67.467  1.00  0.00    -0.057 C  
BRANCH   9  10
HETATM   10  C   UNL     1      -7.373  11.263  68.359  1.00  0.00    -0.097 C  
BRANCH  10  11
HETATM   11  C   UNL     1      -7.896  10.352  69.459  1.00  0.00    -0.161 C  
BRANCH  11  12
HETATM   12  C   UNL     1      -9.426  10.206  69.556  1.00  0.00    -0.214 C  
BRANCH  12  13
HETATM   13  C   UNL     1     -10.226  10.860  68.408  1.00  0.00    -0.193 C  
BRANCH  13  14
HETATM   14  C   UNL     1     -10.798  12.243  68.743  1.00  0.00    -0.229 C  
HETATM   15  O   UNL     1     -12.120  12.452  68.171  1.00  0.00    -0.362 OA 
HETATM   16  O   UNL     1     -12.369  14.177  66.663  1.00  0.00    -0.455 OA 
HETATM   17  C   UNL     1     -10.255  13.432  67.901  1.00  0.00    -0.241 C  
HETATM   18  C   UNL     1     -11.715  13.498  67.418  1.00  0.00    -0.380 C  
BRANCH  17  19
HETATM   19  C   UNL     1      -9.781  14.706  68.592  1.00  0.00    -0.220 C  
BRANCH  19  20
HETATM   20  C   UNL     1      -9.128  15.650  67.587  1.00  0.00    -0.193 C  
BRANCH  20  21
HETATM   21  C   UNL     1     -10.016  16.865  67.302  1.00  0.00    -0.277 C  
BRANCH  21  22
HETATM   22  C   UNL     1      -9.201  18.019  66.717  1.00  0.00    -0.285 C  
BRANCH  22  23
HETATM   23  C   UNL     1      -7.711  17.881  67.033  1.00  0.00    -0.232 C  
HETATM   24  C   UNL     1      -6.858  18.233  65.822  1.00  0.00    -0.310 C  
ENDBRANCH  22  23
ENDBRANCH  21  22
ENDBRANCH  20  21
ENDBRANCH  19  20
ENDBRANCH  17  19
ENDBRANCH  13  14
ENDBRANCH  12  13
BRANCH  12  25
HETATM   25  O   UNL     1      -9.806   8.811  69.604  1.00  0.00    -0.177 OA 
BRANCH  25  26
HETATM   26  C   UNL     1     -10.311   8.339  70.777  1.00  0.00    -0.193 C  
HETATM   27  O   UNL     1      -9.965   8.684  71.902  1.00  0.00    -0.265 OA 
BRANCH  26  28
HETATM   28  C   UNL     1     -11.410   7.311  70.522  1.00  0.00    -0.280 C  
BRANCH  28  29
HETATM   29  C   UNL     1     -12.660   7.584  71.374  1.00  0.00    -0.382 C  
HETATM   30  C   UNL     1     -13.335   9.918  70.504  1.00  0.00     0.055 C  
HETATM   31  C   UNL     1     -14.116   9.113  72.723  1.00  0.00    -0.175 C  
HETATM   32  C   UNL     1     -12.964   9.060  71.715  1.00  0.00    -0.436 C  
ENDBRANCH  28  29
BRANCH  28  33
HETATM   33  N   UNL     1     -10.857   5.973  70.722  1.00  0.00    -0.277 N  
HETATM   34  C   UNL     1     -10.447   5.180  69.688  1.00  0.00    -0.191 C  
HETATM   35  O   UNL     1     -10.531   5.464  68.503  1.00  0.00    -0.177 OA 
HETATM   36  H   UNL     1     -10.774   5.615  71.675  1.00  0.00     0.000 HD 
ENDBRANCH  28  33
ENDBRANCH  26  28
ENDBRANCH  25  26
ENDBRANCH  12  25
ENDBRANCH  11  12
ENDBRANCH  10  11
ENDBRANCH   9  10
ENDBRANCH   8   9
ENDBRANCH   7   8
ENDBRANCH   6   7
ENDBRANCH   5   6
ENDBRANCH   4   5
ENDBRANCH   3   4
ENDBRANCH   2   3
TORSDOF 22
ENDMDL
MODEL      283
REMARK 921   NORMALIZED FREE ENERGY PREDICTED BY IDOCK:   -3.60 KCAL/MOL
REMARK 922        TOTAL FREE ENERGY PREDICTED BY IDOCK:  -11.84 KCAL/MOL
REMARK 923 INTER-LIGAND FREE ENERGY PREDICTED BY IDOCK:   -7.79 KCAL/MOL
REMARK 924 INTRA-LIGAND FREE ENERGY PREDICTED BY IDOCK:   -4.05 KCAL/MOL
REMARK 927      BINDING AFFINITY PREDICTED BY RF-SCORE:    0.00 PKD
ROOT
HETATM    1  C   UNL     1      -9.929   7.816  72.860  1.00  0.00    -0.341 C  
HETATM    2  C   UNL     1     -11.328   8.377  72.664  1.00  0.00    -0.346 C  
ENDROOT
BRANCH   2   3
HETATM    3  C   UNL     1     -12.145   7.485  71.734  1.00  0.00    -0.340 C  
BRANCH   3   4
HETATM    4  C   UNL     1     -11.446   6.155  71.467  1.00  0.00    -0.325 C  
BRANCH   4   5
HETATM    5  C   UNL     1     -11.340   5.891  69.964  1.00  0.00    -0.219 C  
BRANCH   5   6
HETATM    6  C   UNL     1     -10.154   4.984  69.663  1.00  0.00    -0.321 C  
BRANCH   6   7
HETATM    7  C   UNL     1      -8.834   5.755  69.590  1.00  0.00    -0.124 C  
BRANCH   7   8
HETATM    8  C   UNL     1      -9.037   6.978  68.703  1.00  0.00    -0.132 C  
BRANCH   8   9
HETATM    9  C   UNL     1      -8.471   8.269  69.287  1.00  0.00    -0.126 C  
BRANCH   9  10
HETATM   10  C   UNL     1      -9.645   9.162  69.702  1.00  0.00    -0.182 C  
BRANCH  10  11
HETATM   11  C   UNL     1     -10.680   9.373  68.608  1.00  0.00    -0.196 C  
BRANCH  11  12
HETATM   12  C   UNL     1     -10.755  10.786  68.001  1.00  0.00    -0.228 C  
BRANCH  12  13
HETATM   13  C   UNL     1     -10.814  10.840  66.459  1.00  0.00    -0.196 C  
BRANCH  13  14
HETATM   14  C   UNL     1      -9.442  10.846  65.773  1.00  0.00    -0.211 C  
HETATM   15  O   UNL     1      -9.164   9.599  65.074  1.00  0.00    -0.224 OA 
HETATM   16  O   UNL     1      -7.338   8.374  65.766  1.00  0.00    -0.071 OA 
HETATM   17  C   UNL     1      -8.215  10.594  66.693  1.00  0.00    -0.134 C  
HETATM   18  C   UNL     1      -8.081   9.324  65.834  1.00  0.00    -0.111 C  
BRANCH  17  19
HETATM   19  C   UNL     1      -7.001  11.514  66.619  1.00  0.00    -0.069 C  
BRANCH  19  20
HETATM   20  C   UNL     1      -6.291  11.575  67.968  1.00  0.00    -0.050 C  
BRANCH  20  21
HETATM   21  C   UNL     1      -7.013  12.514  68.938  1.00  0.00    -0.088 C  
BRANCH  21  22
HETATM   22  C   UNL     1      -6.017  13.267  69.822  1.00  0.00    -0.128 C  
BRANCH  22  23
HETATM   23  C   UNL     1      -6.425  14.727  70.020  1.00  0.00    -0.169 C  
HETATM   24  C   UNL     1      -5.276  15.545  70.594  1.00  0.00    -0.148 C  
ENDBRANCH  22  23
ENDBRANCH  21  22
ENDBRANCH  20  21
ENDBRANCH  19  20
ENDBRANCH  17  19
ENDBRANCH  13  14
ENDBRANCH  12  13
BRANCH  12  25
HETATM   25  O   UNL     1     -11.912  11.497  68.500  1.00  0.00    -0.472 OA 
BRANCH  25  26
HETATM   26  C   UNL     1     -11.832  12.023  69.754  1.00  0.00    -0.331 C  
HETATM   27  O   UNL     1     -11.828  11.388  70.803  1.00  0.00    -0.309 OA 
BRANCH  26  28
HETATM   28  C   UNL     1     -11.723  13.544  69.700  1.00  0.00    -0.314 C  
BRANCH  28  29
HETATM   29  C   UNL     1     -10.438  14.003  68.992  1.00  0.00    -0.169 C  
HETATM   30  C   UNL     1     -11.397  15.724  67.324  1.00  0.00    -0.059 C  
HETATM   31  C   UNL     1      -9.177  14.675  66.934  1.00  0.00    -0.267 C  
HETATM   32  C   UNL     1     -10.574  14.448  67.518  1.00  0.00    -0.265 C  
ENDBRANCH  28  29
BRANCH  28  33
HETATM   33  N   UNL     1     -11.853  14.074  71.056  1.00  0.00    -0.499 N  
HETATM   34  C   UNL     1     -12.910  14.844  71.450  1.00  0.00    -0.341 C  
HETATM   35  O   UNL     1     -13.824  15.214  70.730  1.00  0.00    -0.288 OA 
HETATM   36  H   UNL     1     -11.124  13.858  71.737  1.00  0.00     0.000 HD 
ENDBRANCH  28  33
ENDBRANCH  26  28
ENDBRANCH  25  26
ENDBRANCH  12  25
ENDBRANCH  11  12
ENDBRANCH  10  11
ENDBRANCH   9  10
ENDBRANCH   8   9
ENDBRANCH   7   8
ENDBRANCH   6   7
ENDBRANCH   5   6
ENDBRANCH   4   5
ENDBRANCH   3   4
ENDBRANCH   2   3
TORSDOF 22
ENDMDL
MODEL      284
REMARK 921   NORMALIZED FREE ENERGY PREDICTED BY IDOCK:   -3.59 KCAL/MOL
REMARK 922        TOTAL FREE ENERGY PREDICTED BY IDOCK:  -11.83 KCAL/MOL
REMARK 923 INTER-LIGAND FREE ENERGY PREDICTED BY IDOCK:   -8.64 KCAL/MOL
REMARK 924 INTRA-LIGAND FREE ENERGY PREDICTED BY IDOCK:   -3.19 KCAL/MOL
REMARK 927      BINDING AFFINITY PREDICTED BY RF-SCORE:    0.00 PKD
ROOT
HETATM    1  C   UNL     1     -14.087   9.225  72.258  1.00  0.00    -0.374 C  
HETATM    2  C   UNL     1     -12.838  10.068  72.058  1.00  0.00    -0.484 C  
ENDROOT
BRANCH   2   3
HETATM    3  C   UNL     1     -11.807   9.319  71.219  1.00  0.00    -0.415 C  
BRANCH   3   4
HETATM    4  C   UNL     1     -10.569   8.956  72.033  1.00  0.00    -0.388 C  
BRANCH   4   5
HETATM    5  C   UNL     1     -10.786   7.648  72.797  1.00  0.00    -0.416 C  
BRANCH   5   6
HETATM    6  C   UNL     1     -11.515   6.635  71.925  1.00  0.00    -0.332 C  
BRANCH   6   7
HETATM    7  C   UNL     1     -10.650   5.416  71.600  1.00  0.00    -0.284 C  
BRANCH   7   8
HETATM    8  C   UNL     1     -10.161   5.538  70.162  1.00  0.00    -0.333 C  
BRANCH   8   9
HETATM    9  C   UNL     1     -11.167   6.188  69.218  1.00  0.00    -0.438 C  
BRANCH   9  10
HETATM   10  C   UNL     1     -10.495   7.398  68.560  1.00  0.00    -0.215 C  
BRANCH  10  11
HETATM   11  C   UNL     1     -10.523   7.372  67.040  1.00  0.00    -0.404 C  
BRANCH  11  12
HETATM   12  C   UNL     1      -9.157   7.404  66.330  1.00  0.00    -0.156 C  
BRANCH  12  13
HETATM   13  C   UNL     1      -8.160   8.455  66.864  1.00  0.00    -0.099 C  
BRANCH  13  14
HETATM   14  C   UNL     1      -8.665   9.901  66.792  1.00  0.00    -0.128 C  
HETATM   15  O   UNL     1      -7.624  10.836  66.388  1.00  0.00    -0.131 OA 
HETATM   16  O   UNL     1      -7.059  12.506  67.873  1.00  0.00    -0.088 OA 
HETATM   17  C   UNL     1      -8.800  10.649  68.148  1.00  0.00    -0.134 C  
HETATM   18  C   UNL     1      -7.695  11.535  67.543  1.00  0.00    -0.132 C  
BRANCH  17  19
HETATM   19  C   UNL     1     -10.080  11.409  68.480  1.00  0.00    -0.211 C  
BRANCH  19  20
HETATM   20  C   UNL     1     -11.150  11.145  67.424  1.00  0.00    -0.370 C  
BRANCH  20  21
HETATM   21  C   UNL     1     -11.597  12.443  66.745  1.00  0.00    -0.444 C  
BRANCH  21  22
HETATM   22  C   UNL     1     -10.627  12.846  65.632  1.00  0.00    -0.295 C  
BRANCH  22  23
HETATM   23  C   UNL     1     -11.364  13.327  64.383  1.00  0.00    -0.415 C  
HETATM   24  C   UNL     1     -11.717  12.161  63.470  1.00  0.00    -0.579 C  
ENDBRANCH  22  23
ENDBRANCH  21  22
ENDBRANCH  20  21
ENDBRANCH  19  20
ENDBRANCH  17  19
ENDBRANCH  13  14
ENDBRANCH  12  13
BRANCH  12  25
HETATM   25  O   UNL     1      -8.507   6.114  66.412  1.00  0.00    -0.116 OA 
BRANCH  25  26
HETATM   26  C   UNL     1      -8.301   5.441  65.246  1.00  0.00    -0.142 C  
HETATM   27  O   UNL     1      -8.229   5.940  64.128  1.00  0.00    -0.126 OA 
BRANCH  26  28
HETATM   28  C   UNL     1      -8.145   3.945  65.502  1.00  0.00    -0.101 C  
BRANCH  28  29
HETATM   29  C   UNL     1      -8.168   3.133  64.197  1.00  0.00    -0.086 C  
HETATM   30  C   UNL     1     -10.656   3.341  63.547  1.00  0.00    -0.257 C  
HETATM   31  C   UNL     1      -9.254   1.500  62.638  1.00  0.00    -0.078 C  
HETATM   32  C   UNL     1      -9.487   2.404  63.852  1.00  0.00    -0.120 C  
ENDBRANCH  28  29
BRANCH  28  33
HETATM   33  N   UNL     1      -9.165   3.523  66.461  1.00  0.00    -0.164 N  
HETATM   34  C   UNL     1      -8.868   3.152  67.741  1.00  0.00    -0.134 C  
HETATM   35  O   UNL     1      -7.744   3.085  68.216  1.00  0.00    -0.056 OA 
HETATM   36  H   UNL     1     -10.140   3.504  66.161  1.00  0.00     0.000 HD 
ENDBRANCH  28  33
ENDBRANCH  26  28
ENDBRANCH  25  26
ENDBRANCH  12  25
ENDBRANCH  11  12
ENDBRANCH  10  11
ENDBRANCH   9  10
ENDBRANCH   8   9
ENDBRANCH   7   8
ENDBRANCH   6   7
ENDBRANCH   5   6
ENDBRANCH   4   5
ENDBRANCH   3   4
ENDBRANCH   2   3
TORSDOF 22
ENDMDL
MODEL      285
REMARK 921   NORMALIZED FREE ENERGY PREDICTED BY IDOCK:   -3.58 KCAL/MOL
REMARK 922        TOTAL FREE ENERGY PREDICTED BY IDOCK:  -11.81 KCAL/MOL
REMARK 923 INTER-LIGAND FREE ENERGY PREDICTED BY IDOCK:   -7.96 KCAL/MOL
REMARK 924 INTRA-LIGAND FREE ENERGY PREDICTED BY IDOCK:   -3.85 KCAL/MOL
REMARK 927      BINDING AFFINITY PREDICTED BY RF-SCORE:    0.00 PKD
ROOT
HETATM    1  C   UNL     1     -12.399   9.061  72.252  1.00  0.00    -0.402 C  
HETATM    2  C   UNL     1     -13.433  10.153  72.031  1.00  0.00    -0.418 C  
ENDROOT
BRANCH   2   3
HETATM    3  C   UNL     1     -12.804  11.365  71.350  1.00  0.00    -0.502 C  
BRANCH   3   4
HETATM    4  C   UNL     1     -11.673  10.962  70.409  1.00  0.00    -0.444 C  
BRANCH   4   5
HETATM    5  C   UNL     1     -11.976  11.402  68.975  1.00  0.00    -0.387 C  
BRANCH   5   6
HETATM    6  C   UNL     1     -11.867  12.916  68.847  1.00  0.00    -0.352 C  
BRANCH   6   7
HETATM    7  C   UNL     1     -12.010  13.391  67.400  1.00  0.00    -0.391 C  
BRANCH   7   8
HETATM    8  C   UNL     1     -10.681  13.991  66.954  1.00  0.00    -0.285 C  
BRANCH   8   9
HETATM    9  C   UNL     1      -9.605  13.988  68.035  1.00  0.00    -0.217 C  
BRANCH   9  10
HETATM   10  C   UNL     1      -8.412  13.175  67.521  1.00  0.00    -0.198 C  
BRANCH  10  11
HETATM   11  C   UNL     1      -8.023  12.011  68.419  1.00  0.00    -0.152 C  
BRANCH  11  12
HETATM   12  C   UNL     1      -7.424  10.777  67.719  1.00  0.00    -0.094 C  
BRANCH  12  13
HETATM   13  C   UNL     1      -7.516   9.457  68.515  1.00  0.00    -0.080 C  
BRANCH  13  14
HETATM   14  C   UNL     1      -8.732   9.361  69.444  1.00  0.00    -0.157 C  
HETATM   15  O   UNL     1      -8.406   9.688  70.824  1.00  0.00    -0.264 OA 
HETATM   16  O   UNL     1      -8.726   8.048  72.412  1.00  0.00    -0.133 OA 
HETATM   17  C   UNL     1      -9.144   7.929  69.889  1.00  0.00    -0.146 C  
HETATM   18  C   UNL     1      -8.754   8.464  71.279  1.00  0.00    -0.162 C  
BRANCH  17  19
HETATM   19  C   UNL     1     -10.599   7.485  69.790  1.00  0.00    -0.245 C  
BRANCH  19  20
HETATM   20  C   UNL     1     -10.777   6.094  70.390  1.00  0.00    -0.347 C  
BRANCH  20  21
HETATM   21  C   UNL     1     -10.087   5.025  69.538  1.00  0.00    -0.301 C  
BRANCH  21  22
HETATM   22  C   UNL     1      -9.714   3.804  70.381  1.00  0.00    -0.225 C  
BRANCH  22  23
HETATM   23  C   UNL     1      -9.446   4.179  71.838  1.00  0.00    -0.201 C  
HETATM   24  C   UNL     1      -7.956   4.146  72.149  1.00  0.00    -0.086 C  
ENDBRANCH  22  23
ENDBRANCH  21  22
ENDBRANCH  20  21
ENDBRANCH  19  20
ENDBRANCH  17  19
ENDBRANCH  13  14
ENDBRANCH  12  13
BRANCH  12  25
HETATM   25  O   UNL     1      -8.063  10.553  66.440  1.00  0.00    -0.124 OA 
BRANCH  25  26
HETATM   26  C   UNL     1      -7.458   9.687  65.581  1.00  0.00    -0.101 C  
HETATM   27  O   UNL     1      -6.251   9.590  65.386  1.00  0.00    -0.063 OA 
BRANCH  26  28
HETATM   28  C   UNL     1      -8.489   8.807  64.880  1.00  0.00    -0.171 C  
BRANCH  28  29
HETATM   29  C   UNL     1      -8.151   7.313  65.010  1.00  0.00    -0.120 C  
HETATM   30  C   UNL     1     -10.148   6.490  66.421  1.00  0.00    -0.061 C  
HETATM   31  C   UNL     1      -8.032   5.188  66.332  1.00  0.00    -0.104 C  
HETATM   32  C   UNL     1      -8.628   6.599  66.295  1.00  0.00    -0.139 C  
ENDBRANCH  28  29
BRANCH  28  33
HETATM   33  N   UNL     1      -8.620   9.250  63.493  1.00  0.00    -0.257 N  
HETATM   34  C   UNL     1      -9.475  10.245  63.113  1.00  0.00    -0.298 C  
HETATM   35  O   UNL     1     -10.245  10.837  63.853  1.00  0.00    -0.339 OA 
HETATM   36  H   UNL     1      -8.049   8.796  62.779  1.00  0.00     0.000 HD 
ENDBRANCH  28  33
ENDBRANCH  26  28
ENDBRANCH  25  26
ENDBRANCH  12  25
ENDBRANCH  11  12
ENDBRANCH  10  11
ENDBRANCH   9  10
ENDBRANCH   8   9
ENDBRANCH   7   8
ENDBRANCH   6   7
ENDBRANCH   5   6
ENDBRANCH   4   5
ENDBRANCH   3   4
ENDBRANCH   2   3
TORSDOF 22
ENDMDL
MODEL      286
REMARK 921   NORMALIZED FREE ENERGY PREDICTED BY IDOCK:   -3.57 KCAL/MOL
REMARK 922        TOTAL FREE ENERGY PREDICTED BY IDOCK:  -11.78 KCAL/MOL
REMARK 923 INTER-LIGAND FREE ENERGY PREDICTED BY IDOCK:   -9.95 KCAL/MOL
REMARK 924 INTRA-LIGAND FREE ENERGY PREDICTED BY IDOCK:   -1.84 KCAL/MOL
REMARK 927      BINDING AFFINITY PREDICTED BY RF-SCORE:    0.00 PKD
ROOT
HETATM    1  C   UNL     1      -5.178  19.225  71.550  1.00  0.00    -0.360 C  
HETATM    2  C   UNL     1      -6.125  20.167  70.824  1.00  0.00    -0.335 C  
ENDROOT
BRANCH   2   3
HETATM    3  C   UNL     1      -5.456  20.760  69.587  1.00  0.00    -0.408 C  
BRANCH   3   4
HETATM    4  C   UNL     1      -6.343  20.639  68.352  1.00  0.00    -0.341 C  
BRANCH   4   5
HETATM    5  C   UNL     1      -7.489  19.656  68.600  1.00  0.00    -0.368 C  
BRANCH   5   6
HETATM    6  C   UNL     1      -7.214  18.328  67.908  1.00  0.00    -0.230 C  
BRANCH   6   7
HETATM    7  C   UNL     1      -7.825  18.263  66.507  1.00  0.00    -0.279 C  
BRANCH   7   8
HETATM    8  C   UNL     1      -9.343  18.270  66.639  1.00  0.00    -0.304 C  
BRANCH   8   9
HETATM    9  C   UNL     1     -10.001  16.934  66.308  1.00  0.00    -0.324 C  
BRANCH   9  10
HETATM   10  C   UNL     1      -8.905  15.867  66.227  1.00  0.00    -0.386 C  
BRANCH  10  11
HETATM   11  C   UNL     1      -9.424  14.464  65.958  1.00  0.00    -0.239 C  
BRANCH  11  12
HETATM   12  C   UNL     1      -9.317  13.460  67.120  1.00  0.00    -0.240 C  
BRANCH  12  13
HETATM   13  C   UNL     1      -7.879  13.051  67.509  1.00  0.00    -0.178 C  
BRANCH  13  14
HETATM   14  C   UNL     1      -7.741  11.599  67.981  1.00  0.00    -0.121 C  
HETATM   15  O   UNL     1      -7.675  10.657  66.872  1.00  0.00    -0.112 OA 
HETATM   16  O   UNL     1      -9.331   9.061  66.731  1.00  0.00    -0.147 OA 
HETATM   17  C   UNL     1      -9.043  10.911  68.477  1.00  0.00    -0.173 C  
HETATM   18  C   UNL     1      -8.799  10.010  67.253  1.00  0.00    -0.135 C  
BRANCH  17  19
HETATM   19  C   UNL     1      -9.054  10.154  69.801  1.00  0.00    -0.166 C  
BRANCH  19  20
HETATM   20  C   UNL     1      -8.767   8.673  69.575  1.00  0.00    -0.139 C  
BRANCH  20  21
HETATM   21  C   UNL     1      -9.781   7.788  70.305  1.00  0.00    -0.179 C  
BRANCH  21  22
HETATM   22  C   UNL     1      -9.616   7.896  71.822  1.00  0.00    -0.214 C  
BRANCH  22  23
HETATM   23  C   UNL     1     -10.268   6.720  72.549  1.00  0.00    -0.200 C  
HETATM   24  C   UNL     1     -11.560   6.297  71.863  1.00  0.00    -0.369 C  
ENDBRANCH  22  23
ENDBRANCH  21  22
ENDBRANCH  20  21
ENDBRANCH  19  20
ENDBRANCH  17  19
ENDBRANCH  13  14
ENDBRANCH  12  13
BRANCH  12  25
HETATM   25  O   UNL     1      -9.952  13.984  68.310  1.00  0.00    -0.224 OA 
BRANCH  25  26
HETATM   26  C   UNL     1     -11.313  13.970  68.353  1.00  0.00    -0.291 C  
HETATM   27  O   UNL     1     -12.066  14.232  67.422  1.00  0.00    -0.400 OA 
BRANCH  26  28
HETATM   28  C   UNL     1     -11.809  13.555  69.735  1.00  0.00    -0.329 C  
BRANCH  28  29
HETATM   29  C   UNL     1     -12.275  12.090  69.762  1.00  0.00    -0.226 C  
HETATM   30  C   UNL     1     -13.445  12.001  72.060  1.00  0.00    -0.364 C  
HETATM   31  C   UNL     1     -12.650   9.920  70.956  1.00  0.00    -0.431 C  
HETATM   32  C   UNL     1     -12.367  11.413  71.148  1.00  0.00    -0.404 C  
ENDBRANCH  28  29
BRANCH  28  33
HETATM   33  N   UNL     1     -12.842  14.496  70.165  1.00  0.00    -0.538 N  
HETATM   34  C   UNL     1     -12.628  15.439  71.129  1.00  0.00    -0.422 C  
HETATM   35  O   UNL     1     -11.594  15.579  71.764  1.00  0.00    -0.368 OA 
HETATM   36  H   UNL     1     -13.763  14.445  69.727  1.00  0.00     0.000 HD 
ENDBRANCH  28  33
ENDBRANCH  26  28
ENDBRANCH  25  26
ENDBRANCH  12  25
ENDBRANCH  11  12
ENDBRANCH  10  11
ENDBRANCH   9  10
ENDBRANCH   8   9
ENDBRANCH   7   8
ENDBRANCH   6   7
ENDBRANCH   5   6
ENDBRANCH   4   5
ENDBRANCH   3   4
ENDBRANCH   2   3
TORSDOF 22
ENDMDL
MODEL      287
REMARK 921   NORMALIZED FREE ENERGY PREDICTED BY IDOCK:   -3.57 KCAL/MOL
REMARK 922        TOTAL FREE ENERGY PREDICTED BY IDOCK:  -11.78 KCAL/MOL
REMARK 923 INTER-LIGAND FREE ENERGY PREDICTED BY IDOCK:   -9.72 KCAL/MOL
REMARK 924 INTRA-LIGAND FREE ENERGY PREDICTED BY IDOCK:   -2.06 KCAL/MOL
REMARK 927      BINDING AFFINITY PREDICTED BY RF-SCORE:    0.00 PKD
ROOT
HETATM    1  C   UNL     1     -10.473   5.290  67.290  1.00  0.00    -0.236 C  
HETATM    2  C   UNL     1     -10.342   4.814  65.852  1.00  0.00    -0.303 C  
ENDROOT
BRANCH   2   3
HETATM    3  C   UNL     1      -8.876   4.738  65.437  1.00  0.00    -0.146 C  
BRANCH   3   4
HETATM    4  C   UNL     1      -7.999   5.651  66.289  1.00  0.00    -0.102 C  
BRANCH   4   5
HETATM    5  C   UNL     1      -7.510   6.850  65.473  1.00  0.00    -0.086 C  
BRANCH   5   6
HETATM    6  C   UNL     1      -7.830   6.657  63.996  1.00  0.00    -0.112 C  
BRANCH   6   7
HETATM    7  C   UNL     1      -7.989   7.986  63.255  1.00  0.00    -0.143 C  
BRANCH   7   8
HETATM    8  C   UNL     1      -8.476   9.037  64.246  1.00  0.00    -0.185 C  
BRANCH   8   9
HETATM    9  C   UNL     1      -8.874  10.361  63.601  1.00  0.00    -0.222 C  
BRANCH   9  10
HETATM   10  C   UNL     1     -10.307  10.690  64.027  1.00  0.00    -0.262 C  
BRANCH  10  11
HETATM   11  C   UNL     1     -10.410  11.834  65.024  1.00  0.00    -0.325 C  
BRANCH  11  12
HETATM   12  C   UNL     1      -9.726  11.618  66.386  1.00  0.00    -0.214 C  
BRANCH  12  13
HETATM   13  C   UNL     1      -9.021  12.860  66.976  1.00  0.00    -0.225 C  
BRANCH  13  14
HETATM   14  C   UNL     1      -9.950  14.052  67.232  1.00  0.00    -0.242 C  
HETATM   15  O   UNL     1     -10.889  14.271  66.140  1.00  0.00    -0.301 OA 
HETATM   16  O   UNL     1     -10.780  16.289  65.032  1.00  0.00    -0.600 OA 
HETATM   17  C   UNL     1      -9.343  15.461  66.982  1.00  0.00    -0.238 C  
HETATM   18  C   UNL     1     -10.411  15.508  65.875  1.00  0.00    -0.342 C  
BRANCH  17  19
HETATM   19  C   UNL     1      -9.498  16.559  68.029  1.00  0.00    -0.222 C  
BRANCH  19  20
HETATM   20  C   UNL     1      -8.200  17.347  68.177  1.00  0.00    -0.238 C  
BRANCH  20  21
HETATM   21  C   UNL     1      -8.473  18.826  68.462  1.00  0.00    -0.379 C  
BRANCH  21  22
HETATM   22  C   UNL     1      -9.969  19.136  68.389  1.00  0.00    -0.493 C  
BRANCH  22  23
HETATM   23  C   UNL     1     -10.273  20.240  67.377  1.00  0.00    -0.494 C  
HETATM   24  C   UNL     1     -10.308  19.690  65.958  1.00  0.00    -0.620 C  
ENDBRANCH  22  23
ENDBRANCH  21  22
ENDBRANCH  20  21
ENDBRANCH  19  20
ENDBRANCH  17  19
ENDBRANCH  13  14
ENDBRANCH  12  13
BRANCH  12  25
HETATM   25  O   UNL     1     -10.678  11.156  67.372  1.00  0.00    -0.219 OA 
BRANCH  25  26
HETATM   26  C   UNL     1     -10.675   9.828  67.673  1.00  0.00    -0.274 C  
HETATM   27  O   UNL     1     -10.826   8.908  66.877  1.00  0.00    -0.162 OA 
BRANCH  26  28
HETATM   28  C   UNL     1     -10.433   9.609  69.164  1.00  0.00    -0.214 C  
BRANCH  28  29
HETATM   29  C   UNL     1     -11.085  10.708  70.018  1.00  0.00    -0.359 C  
HETATM   30  C   UNL     1     -12.278   9.281  71.807  1.00  0.00    -0.457 C  
HETATM   31  C   UNL     1     -13.002  11.616  71.352  1.00  0.00    -0.426 C  
HETATM   32  C   UNL     1     -12.414  10.350  70.721  1.00  0.00    -0.461 C  
ENDBRANCH  28  29
BRANCH  28  33
HETATM   33  N   UNL     1      -8.995   9.479  69.392  1.00  0.00    -0.160 N  
HETATM   34  C   UNL     1      -8.393   8.280  69.649  1.00  0.00    -0.123 C  
HETATM   35  O   UNL     1      -8.970   7.209  69.763  1.00  0.00    -0.142 OA 
HETATM   36  H   UNL     1      -8.416  10.319  69.358  1.00  0.00     0.000 HD 
ENDBRANCH  28  33
ENDBRANCH  26  28
ENDBRANCH  25  26
ENDBRANCH  12  25
ENDBRANCH  11  12
ENDBRANCH  10  11
ENDBRANCH   9  10
ENDBRANCH   8   9
ENDBRANCH   7   8
ENDBRANCH   6   7
ENDBRANCH   5   6
ENDBRANCH   4   5
ENDBRANCH   3   4
ENDBRANCH   2   3
TORSDOF 22
ENDMDL
MODEL      288
REMARK 921   NORMALIZED FREE ENERGY PREDICTED BY IDOCK:   -3.57 KCAL/MOL
REMARK 922        TOTAL FREE ENERGY PREDICTED BY IDOCK:  -11.78 KCAL/MOL
REMARK 923 INTER-LIGAND FREE ENERGY PREDICTED BY IDOCK:   -9.93 KCAL/MOL
REMARK 924 INTRA-LIGAND FREE ENERGY PREDICTED BY IDOCK:   -1.85 KCAL/MOL
REMARK 927      BINDING AFFINITY PREDICTED BY RF-SCORE:    0.00 PKD
ROOT
HETATM    1  C   UNL     1      -8.411   5.387  69.135  1.00  0.00    -0.097 C  
HETATM    2  C   UNL     1      -7.812   6.782  69.052  1.00  0.00    -0.111 C  
ENDROOT
BRANCH   2   3
HETATM    3  C   UNL     1      -7.347   7.088  67.631  1.00  0.00    -0.096 C  
BRANCH   3   4
HETATM    4  C   UNL     1      -6.537   8.379  67.567  1.00  0.00    -0.058 C  
BRANCH   4   5
HETATM    5  C   UNL     1      -7.039   9.280  66.436  1.00  0.00    -0.088 C  
BRANCH   5   6
HETATM    6  C   UNL     1      -8.092   8.558  65.606  1.00  0.00    -0.119 C  
BRANCH   6   7
HETATM    7  C   UNL     1      -8.541   9.377  64.394  1.00  0.00    -0.214 C  
BRANCH   7   8
HETATM    8  C   UNL     1      -9.605  10.370  64.848  1.00  0.00    -0.348 C  
BRANCH   8   9
HETATM    9  C   UNL     1     -10.386  11.008  63.704  1.00  0.00    -0.415 C  
BRANCH   9  10
HETATM   10  C   UNL     1     -10.331  12.529  63.876  1.00  0.00    -0.436 C  
BRANCH  10  11
HETATM   11  C   UNL     1     -11.631  13.145  64.369  1.00  0.00    -0.422 C  
BRANCH  11  12
HETATM   12  C   UNL     1     -11.681  13.539  65.857  1.00  0.00    -0.352 C  
BRANCH  12  13
HETATM   13  C   UNL     1     -12.003  12.388  66.835  1.00  0.00    -0.266 C  
BRANCH  13  14
HETATM   14  C   UNL     1     -11.272  12.477  68.180  1.00  0.00    -0.267 C  
HETATM   15  O   UNL     1      -9.900  11.995  68.101  1.00  0.00    -0.190 OA 
HETATM   16  O   UNL     1      -9.329  10.188  69.413  1.00  0.00    -0.201 OA 
HETATM   17  C   UNL     1     -11.596  11.360  69.211  1.00  0.00    -0.384 C  
HETATM   18  C   UNL     1     -10.113  11.006  68.998  1.00  0.00    -0.180 C  
BRANCH  17  19
HETATM   19  C   UNL     1     -11.936  11.725  70.653  1.00  0.00    -0.320 C  
BRANCH  19  20
HETATM   20  C   UNL     1     -12.721  10.599  71.320  1.00  0.00    -0.537 C  
BRANCH  20  21
HETATM   21  C   UNL     1     -11.797   9.464  71.770  1.00  0.00    -0.452 C  
BRANCH  21  22
HETATM   22  C   UNL     1     -12.598   8.213  72.136  1.00  0.00    -0.349 C  
BRANCH  22  23
HETATM   23  C   UNL     1     -11.819   6.932  71.840  1.00  0.00    -0.351 C  
HETATM   24  C   UNL     1     -11.459   6.837  70.363  1.00  0.00    -0.419 C  
ENDBRANCH  22  23
ENDBRANCH  21  22
ENDBRANCH  20  21
ENDBRANCH  19  20
ENDBRANCH  17  19
ENDBRANCH  13  14
ENDBRANCH  12  13
BRANCH  12  25
HETATM   25  O   UNL     1     -10.424  14.120  66.276  1.00  0.00    -0.277 OA 
BRANCH  25  26
HETATM   26  C   UNL     1     -10.265  15.462  66.107  1.00  0.00    -0.308 C  
HETATM   27  O   UNL     1     -10.558  16.101  65.102  1.00  0.00    -0.538 OA 
BRANCH  26  28
HETATM   28  C   UNL     1      -9.682  16.103  67.362  1.00  0.00    -0.233 C  
BRANCH  28  29
HETATM   29  C   UNL     1      -8.834  17.342  67.033  1.00  0.00    -0.248 C  
HETATM   30  C   UNL     1      -9.751  19.024  68.762  1.00  0.00    -0.473 C  
HETATM   31  C   UNL     1      -8.576  19.814  66.718  1.00  0.00    -0.375 C  
HETATM   32  C   UNL     1      -9.486  18.721  67.286  1.00  0.00    -0.326 C  
ENDBRANCH  28  29
BRANCH  28  33
HETATM   33  N   UNL     1      -8.947  15.085  68.112  1.00  0.00    -0.169 N  
HETATM   34  C   UNL     1      -7.675  14.706  67.790  1.00  0.00    -0.157 C  
HETATM   35  O   UNL     1      -7.031  15.123  66.840  1.00  0.00    -0.148 OA 
HETATM   36  H   UNL     1      -9.403  14.639  68.908  1.00  0.00     0.000 HD 
ENDBRANCH  28  33
ENDBRANCH  26  28
ENDBRANCH  25  26
ENDBRANCH  12  25
ENDBRANCH  11  12
ENDBRANCH  10  11
ENDBRANCH   9  10
ENDBRANCH   8   9
ENDBRANCH   7   8
ENDBRANCH   6   7
ENDBRANCH   5   6
ENDBRANCH   4   5
ENDBRANCH   3   4
ENDBRANCH   2   3
TORSDOF 22
ENDMDL
MODEL      289
REMARK 921   NORMALIZED FREE ENERGY PREDICTED BY IDOCK:   -3.57 KCAL/MOL
REMARK 922        TOTAL FREE ENERGY PREDICTED BY IDOCK:  -11.77 KCAL/MOL
REMARK 923 INTER-LIGAND FREE ENERGY PREDICTED BY IDOCK:   -8.45 KCAL/MOL
REMARK 924 INTRA-LIGAND FREE ENERGY PREDICTED BY IDOCK:   -3.32 KCAL/MOL
REMARK 927      BINDING AFFINITY PREDICTED BY RF-SCORE:    0.00 PKD
ROOT
HETATM    1  C   UNL     1     -12.413   8.530  72.313  1.00  0.00    -0.448 C  
HETATM    2  C   UNL     1     -13.505   9.376  71.678  1.00  0.00    -0.467 C  
ENDROOT
BRANCH   2   3
HETATM    3  C   UNL     1     -13.009  10.795  71.415  1.00  0.00    -0.535 C  
BRANCH   3   4
HETATM    4  C   UNL     1     -11.672  10.799  70.680  1.00  0.00    -0.442 C  
BRANCH   4   5
HETATM    5  C   UNL     1     -11.884  10.883  69.167  1.00  0.00    -0.389 C  
BRANCH   5   6
HETATM    6  C   UNL     1     -10.985  11.952  68.560  1.00  0.00    -0.277 C  
BRANCH   6   7
HETATM    7  C   UNL     1     -11.753  12.908  67.645  1.00  0.00    -0.422 C  
BRANCH   7   8
HETATM    8  C   UNL     1     -11.685  12.373  66.219  1.00  0.00    -0.457 C  
BRANCH   8   9
HETATM    9  C   UNL     1     -10.284  11.961  65.777  1.00  0.00    -0.276 C  
BRANCH   9  10
HETATM   10  C   UNL     1     -10.393  10.640  65.009  1.00  0.00    -0.341 C  
BRANCH  10  11
HETATM   11  C   UNL     1      -9.906   9.429  65.789  1.00  0.00    -0.345 C  
BRANCH  11  12
HETATM   12  C   UNL     1      -8.430   9.036  65.591  1.00  0.00    -0.150 C  
BRANCH  12  13
HETATM   13  C   UNL     1      -7.587   8.964  66.884  1.00  0.00    -0.087 C  
BRANCH  13  14
HETATM   14  C   UNL     1      -8.291   9.514  68.130  1.00  0.00    -0.118 C  
HETATM   15  O   UNL     1      -7.620  10.685  68.677  1.00  0.00    -0.089 OA 
HETATM   16  O   UNL     1      -6.803  10.535  70.827  1.00  0.00    -0.317 OA 
HETATM   17  C   UNL     1      -8.029   8.752  69.459  1.00  0.00    -0.096 C  
HETATM   18  C   UNL     1      -7.365  10.082  69.860  1.00  0.00    -0.161 C  
BRANCH  17  19
HETATM   19  C   UNL     1      -9.196   8.355  70.357  1.00  0.00    -0.161 C  
BRANCH  19  20
HETATM   20  C   UNL     1      -8.767   8.349  71.822  1.00  0.00    -0.241 C  
BRANCH  20  21
HETATM   21  C   UNL     1      -8.278   6.965  72.256  1.00  0.00    -0.104 C  
BRANCH  21  22
HETATM   22  C   UNL     1      -8.369   6.797  73.774  1.00  0.00    -0.137 C  
BRANCH  22  23
HETATM   23  C   UNL     1      -9.819   6.727  74.251  1.00  0.00    -0.348 C  
HETATM   24  C   UNL     1     -10.533   5.517  73.662  1.00  0.00    -0.292 C  
ENDBRANCH  22  23
ENDBRANCH  21  22
ENDBRANCH  20  21
ENDBRANCH  19  20
ENDBRANCH  17  19
ENDBRANCH  13  14
ENDBRANCH  12  13
BRANCH  12  25
HETATM   25  O   UNL     1      -8.325   7.749  64.938  1.00  0.00    -0.136 OA 
BRANCH  25  26
HETATM   26  C   UNL     1      -8.039   6.671  65.719  1.00  0.00    -0.122 C  
HETATM   27  O   UNL     1      -6.943   6.396  66.194  1.00  0.00    -0.062 OA 
BRANCH  26  28
HETATM   28  C   UNL     1      -9.288   5.827  65.960  1.00  0.00    -0.117 C  
BRANCH  28  29
HETATM   29  C   UNL     1      -9.853   6.030  67.375  1.00  0.00    -0.147 C  
HETATM   30  C   UNL     1      -8.087   4.779  68.781  1.00  0.00    -0.083 C  
HETATM   31  C   UNL     1     -10.366   5.198  69.682  1.00  0.00    -0.316 C  
HETATM   32  C   UNL     1      -9.564   4.917  68.408  1.00  0.00    -0.201 C  
ENDBRANCH  28  29
BRANCH  28  33
HETATM   33  N   UNL     1      -8.977   4.431  65.659  1.00  0.00    -0.126 N  
HETATM   34  C   UNL     1      -9.731   3.672  64.810  1.00  0.00    -0.178 C  
HETATM   35  O   UNL     1     -10.753   4.040  64.252  1.00  0.00    -0.259 OA 
HETATM   36  H   UNL     1      -8.161   4.005  66.101  1.00  0.00     0.000 HD 
ENDBRANCH  28  33
ENDBRANCH  26  28
ENDBRANCH  25  26
ENDBRANCH  12  25
ENDBRANCH  11  12
ENDBRANCH  10  11
ENDBRANCH   9  10
ENDBRANCH   8   9
ENDBRANCH   7   8
ENDBRANCH   6   7
ENDBRANCH   5   6
ENDBRANCH   4   5
ENDBRANCH   3   4
ENDBRANCH   2   3
TORSDOF 22
ENDMDL
MODEL      290
REMARK 921   NORMALIZED FREE ENERGY PREDICTED BY IDOCK:   -3.56 KCAL/MOL
REMARK 922        TOTAL FREE ENERGY PREDICTED BY IDOCK:  -11.76 KCAL/MOL
REMARK 923 INTER-LIGAND FREE ENERGY PREDICTED BY IDOCK:   -8.89 KCAL/MOL
REMARK 924 INTRA-LIGAND FREE ENERGY PREDICTED BY IDOCK:   -2.87 KCAL/MOL
REMARK 927      BINDING AFFINITY PREDICTED BY RF-SCORE:    0.00 PKD
ROOT
HETATM    1  C   UNL     1      -6.115  18.875  69.403  1.00  0.00    -0.285 C  
HETATM    2  C   UNL     1      -7.141  18.643  68.306  1.00  0.00    -0.271 C  
ENDROOT
BRANCH   2   3
HETATM    3  C   UNL     1      -7.891  19.932  67.983  1.00  0.00    -0.317 C  
BRANCH   3   4
HETATM    4  C   UNL     1      -8.957  19.713  66.914  1.00  0.00    -0.395 C  
BRANCH   4   5
HETATM    5  C   UNL     1     -10.266  19.233  67.543  1.00  0.00    -0.514 C  
BRANCH   5   6
HETATM    6  C   UNL     1     -10.499  17.760  67.234  1.00  0.00    -0.356 C  
BRANCH   6   7
HETATM    7  C   UNL     1     -10.850  16.950  68.484  1.00  0.00    -0.335 C  
BRANCH   7   8
HETATM    8  C   UNL     1     -10.163  15.593  68.390  1.00  0.00    -0.222 C  
BRANCH   8   9
HETATM    9  C   UNL     1      -8.912  15.590  67.517  1.00  0.00    -0.196 C  
BRANCH   9  10
HETATM   10  C   UNL     1      -8.551  14.135  67.201  1.00  0.00    -0.230 C  
BRANCH  10  11
HETATM   11  C   UNL     1      -9.119  13.127  68.188  1.00  0.00    -0.200 C  
BRANCH  11  12
HETATM   12  C   UNL     1      -8.794  11.647  67.918  1.00  0.00    -0.155 C  
BRANCH  12  13
HETATM   13  C   UNL     1      -9.366  10.646  68.946  1.00  0.00    -0.191 C  
BRANCH  13  14
HETATM   14  C   UNL     1      -8.315  10.010  69.863  1.00  0.00    -0.151 C  
HETATM   15  O   UNL     1      -7.244   9.363  69.118  1.00  0.00    -0.064 OA 
HETATM   16  O   UNL     1      -6.955   7.096  69.419  1.00  0.00    -0.058 OA 
HETATM   17  C   UNL     1      -8.693   8.640  70.493  1.00  0.00    -0.178 C  
HETATM   18  C   UNL     1      -7.516   8.144  69.634  1.00  0.00    -0.086 C  
BRANCH  17  19
HETATM   19  C   UNL     1      -8.500   8.405  71.988  1.00  0.00    -0.245 C  
BRANCH  19  20
HETATM   20  C   UNL     1      -9.845   8.177  72.672  1.00  0.00    -0.364 C  
BRANCH  20  21
HETATM   21  C   UNL     1     -10.993   8.794  71.869  1.00  0.00    -0.435 C  
BRANCH  21  22
HETATM   22  C   UNL     1     -12.282   7.989  72.041  1.00  0.00    -0.374 C  
BRANCH  22  23
HETATM   23  C   UNL     1     -13.523   8.879  71.966  1.00  0.00    -0.482 C  
HETATM   24  C   UNL     1     -13.191  10.232  71.351  1.00  0.00    -0.464 C  
ENDBRANCH  22  23
ENDBRANCH  21  22
ENDBRANCH  20  21
ENDBRANCH  19  20
ENDBRANCH  17  19
ENDBRANCH  13  14
ENDBRANCH  12  13
BRANCH  12  25
HETATM   25  O   UNL     1      -9.276  11.246  66.614  1.00  0.00    -0.171 OA 
BRANCH  25  26
HETATM   26  C   UNL     1      -8.412  10.568  65.807  1.00  0.00    -0.175 C  
HETATM   27  O   UNL     1      -7.188  10.604  65.870  1.00  0.00    -0.137 OA 
BRANCH  26  28
HETATM   28  C   UNL     1      -9.170   9.713  64.796  1.00  0.00    -0.238 C  
BRANCH  28  29
HETATM   29  C   UNL     1      -8.768   8.232  64.881  1.00  0.00    -0.008 C  
HETATM   30  C   UNL     1     -10.389   7.398  66.708  1.00  0.00    -0.321 C  
HETATM   31  C   UNL     1      -8.303   6.147  66.191  1.00  0.00    -0.128 C  
HETATM   32  C   UNL     1      -8.935   7.541  66.254  1.00  0.00    -0.199 C  
ENDBRANCH  28  29
BRANCH  28  33
HETATM   33  N   UNL     1      -8.984  10.285  63.464  1.00  0.00    -0.218 N  
HETATM   34  C   UNL     1      -9.793  11.263  62.960  1.00  0.00    -0.341 C  
HETATM   35  O   UNL     1     -10.769  11.734  63.523  1.00  0.00    -0.382 OA 
HETATM   36  H   UNL     1      -8.217   9.938  62.886  1.00  0.00     0.000 HD 
ENDBRANCH  28  33
ENDBRANCH  26  28
ENDBRANCH  25  26
ENDBRANCH  12  25
ENDBRANCH  11  12
ENDBRANCH  10  11
ENDBRANCH   9  10
ENDBRANCH   8   9
ENDBRANCH   7   8
ENDBRANCH   6   7
ENDBRANCH   5   6
ENDBRANCH   4   5
ENDBRANCH   3   4
ENDBRANCH   2   3
TORSDOF 22
ENDMDL
MODEL      291
REMARK 921   NORMALIZED FREE ENERGY PREDICTED BY IDOCK:   -3.56 KCAL/MOL
REMARK 922        TOTAL FREE ENERGY PREDICTED BY IDOCK:  -11.76 KCAL/MOL
REMARK 923 INTER-LIGAND FREE ENERGY PREDICTED BY IDOCK:  -10.23 KCAL/MOL
REMARK 924 INTRA-LIGAND FREE ENERGY PREDICTED BY IDOCK:   -1.53 KCAL/MOL
REMARK 927      BINDING AFFINITY PREDICTED BY RF-SCORE:    0.00 PKD
ROOT
HETATM    1  C   UNL     1     -10.825  17.187  66.092  1.00  0.00     0.026 C  
HETATM    2  C   UNL     1     -10.952  16.587  64.701  1.00  0.00    -0.096 C  
ENDROOT
BRANCH   2   3
HETATM    3  C   UNL     1     -10.943  15.062  64.765  1.00  0.00    -0.389 C  
BRANCH   3   4
HETATM    4  C   UNL     1     -12.198  14.462  64.140  1.00  0.00    -0.393 C  
BRANCH   4   5
HETATM    5  C   UNL     1     -12.058  12.946  63.989  1.00  0.00    -0.526 C  
BRANCH   5   6
HETATM    6  C   UNL     1     -10.726  12.473  64.555  1.00  0.00    -0.360 C  
BRANCH   6   7
HETATM    7  C   UNL     1     -10.457  10.996  64.260  1.00  0.00    -0.427 C  
BRANCH   7   8
HETATM    8  C   UNL     1      -9.404  10.490  65.239  1.00  0.00    -0.258 C  
BRANCH   8   9
HETATM    9  C   UNL     1      -9.599  10.984  66.669  1.00  0.00    -0.216 C  
BRANCH   9  10
HETATM   10  C   UNL     1      -8.467  11.963  66.996  1.00  0.00    -0.177 C  
BRANCH  10  11
HETATM   11  C   UNL     1      -8.651  12.706  68.310  1.00  0.00    -0.167 C  
BRANCH  11  12
HETATM   12  C   UNL     1      -8.597  14.243  68.240  1.00  0.00    -0.176 C  
BRANCH  12  13
HETATM   13  C   UNL     1      -7.704  14.822  67.120  1.00  0.00    -0.149 C  
BRANCH  13  14
HETATM   14  C   UNL     1      -7.394  16.316  67.267  1.00  0.00    -0.182 C  
HETATM   15  O   UNL     1      -7.249  16.984  65.981  1.00  0.00    -0.229 OA 
HETATM   16  O   UNL     1      -5.214  17.961  65.512  1.00  0.00    -0.173 OA 
HETATM   17  C   UNL     1      -5.923  16.681  67.613  1.00  0.00    -0.169 C  
HETATM   18  C   UNL     1      -5.967  17.339  66.222  1.00  0.00    -0.141 C  
BRANCH  17  19
HETATM   19  C   UNL     1      -5.622  17.659  68.744  1.00  0.00    -0.162 C  
BRANCH  19  20
HETATM   20  C   UNL     1      -6.153  19.049  68.406  1.00  0.00    -0.235 C  
BRANCH  20  21
HETATM   21  C   UNL     1      -7.670  19.129  68.593  1.00  0.00    -0.387 C  
BRANCH  21  22
HETATM   22  C   UNL     1      -8.324  19.927  67.463  1.00  0.00    -0.366 C  
BRANCH  22  23
HETATM   23  C   UNL     1      -9.774  20.288  67.788  1.00  0.00    -0.520 C  
HETATM   24  C   UNL     1     -10.159  19.811  69.182  1.00  0.00    -0.372 C  
ENDBRANCH  22  23
ENDBRANCH  21  22
ENDBRANCH  20  21
ENDBRANCH  19  20
ENDBRANCH  17  19
ENDBRANCH  13  14
ENDBRANCH  12  13
BRANCH  12  25
HETATM   25  O   UNL     1      -9.923  14.795  68.060  1.00  0.00    -0.214 OA 
BRANCH  25  26
HETATM   26  C   UNL     1     -10.455  15.498  69.098  1.00  0.00    -0.232 C  
HETATM   27  O   UNL     1      -9.920  16.432  69.685  1.00  0.00    -0.201 OA 
BRANCH  26  28
HETATM   28  C   UNL     1     -11.849  14.985  69.444  1.00  0.00    -0.329 C  
BRANCH  28  29
HETATM   29  C   UNL     1     -11.966  14.593  70.926  1.00  0.00    -0.388 C  
HETATM   30  C   UNL     1     -14.384  15.337  71.431  1.00  0.00    -0.578 C  
HETATM   31  C   UNL     1     -12.736  15.037  73.268  1.00  0.00    -0.635 C  
HETATM   32  C   UNL     1     -12.905  15.451  71.803  1.00  0.00    -0.483 C  
ENDBRANCH  28  29
BRANCH  28  33
HETATM   33  N   UNL     1     -12.189  13.894  68.532  1.00  0.00    -0.493 N  
HETATM   34  C   UNL     1     -12.145  12.580  68.903  1.00  0.00    -0.122 C  
HETATM   35  O   UNL     1     -11.783  12.164  69.992  1.00  0.00    -0.308 OA 
HETATM   36  H   UNL     1     -12.471  14.124  67.578  1.00  0.00     0.000 HD 
ENDBRANCH  28  33
ENDBRANCH  26  28
ENDBRANCH  25  26
ENDBRANCH  12  25
ENDBRANCH  11  12
ENDBRANCH  10  11
ENDBRANCH   9  10
ENDBRANCH   8   9
ENDBRANCH   7   8
ENDBRANCH   6   7
ENDBRANCH   5   6
ENDBRANCH   4   5
ENDBRANCH   3   4
ENDBRANCH   2   3
TORSDOF 22
ENDMDL
MODEL      292
REMARK 921   NORMALIZED FREE ENERGY PREDICTED BY IDOCK:   -3.55 KCAL/MOL
REMARK 922        TOTAL FREE ENERGY PREDICTED BY IDOCK:  -11.74 KCAL/MOL
REMARK 923 INTER-LIGAND FREE ENERGY PREDICTED BY IDOCK:   -7.75 KCAL/MOL
REMARK 924 INTRA-LIGAND FREE ENERGY PREDICTED BY IDOCK:   -4.00 KCAL/MOL
REMARK 927      BINDING AFFINITY PREDICTED BY RF-SCORE:    0.00 PKD
ROOT
HETATM    1  C   UNL     1     -11.608  14.515  67.901  1.00  0.00    -0.371 C  
HETATM    2  C   UNL     1     -12.348  13.485  67.063  1.00  0.00    -0.260 C  
ENDROOT
BRANCH   2   3
HETATM    3  C   UNL     1     -12.065  13.690  65.578  1.00  0.00    -0.440 C  
BRANCH   3   4
HETATM    4  C   UNL     1     -10.613  13.376  65.229  1.00  0.00    -0.333 C  
BRANCH   4   5
HETATM    5  C   UNL     1     -10.413  11.870  65.045  1.00  0.00    -0.333 C  
BRANCH   5   6
HETATM    6  C   UNL     1     -10.486  11.498  63.570  1.00  0.00    -0.486 C  
BRANCH   6   7
HETATM    7  C   UNL     1      -9.571  10.322  63.219  1.00  0.00    -0.305 C  
BRANCH   7   8
HETATM    8  C   UNL     1      -9.112   9.663  64.515  1.00  0.00    -0.287 C  
BRANCH   8   9
HETATM    9  C   UNL     1      -8.160   8.489  64.309  1.00  0.00    -0.155 C  
BRANCH   9  10
HETATM   10  C   UNL     1      -7.980   7.777  65.654  1.00  0.00    -0.118 C  
BRANCH  10  11
HETATM   11  C   UNL     1      -6.540   7.402  65.968  1.00  0.00    -0.049 C  
BRANCH  11  12
HETATM   12  C   UNL     1      -6.223   7.082  67.440  1.00  0.00    -0.041 C  
BRANCH  12  13
HETATM   13  C   UNL     1      -5.556   8.226  68.236  1.00  0.00    -0.034 C  
BRANCH  13  14
HETATM   14  C   UNL     1      -6.452   9.451  68.452  1.00  0.00    -0.053 C  
HETATM   15  O   UNL     1      -5.694  10.636  68.830  1.00  0.00    -0.041 OA 
HETATM   16  O   UNL     1      -6.154  11.587  70.878  1.00  0.00    -0.360 OA 
HETATM   17  C   UNL     1      -7.211   9.516  69.807  1.00  0.00    -0.084 C  
HETATM   18  C   UNL     1      -6.321  10.753  70.021  1.00  0.00    -0.137 C  
BRANCH  17  19
HETATM   19  C   UNL     1      -8.705   9.824  69.835  1.00  0.00    -0.238 C  
BRANCH  19  20
HETATM   20  C   UNL     1      -9.253   9.947  68.416  1.00  0.00    -0.130 C  
BRANCH  20  21
HETATM   21  C   UNL     1     -10.687  10.485  68.416  1.00  0.00    -0.262 C  
BRANCH  21  22
HETATM   22  C   UNL     1     -11.316  10.383  69.807  1.00  0.00    -0.353 C  
BRANCH  22  23
HETATM   23  C   UNL     1     -12.008  11.683  70.215  1.00  0.00    -0.445 C  
HETATM   24  C   UNL     1     -12.967  11.454  71.375  1.00  0.00    -0.468 C  
ENDBRANCH  22  23
ENDBRANCH  21  22
ENDBRANCH  20  21
ENDBRANCH  19  20
ENDBRANCH  17  19
ENDBRANCH  13  14
ENDBRANCH  12  13
BRANCH  12  25
HETATM   25  O   UNL     1      -7.423   6.705  68.154  1.00  0.00    -0.091 OA 
BRANCH  25  26
HETATM   26  C   UNL     1      -7.480   5.443  68.663  1.00  0.00    -0.075 C  
HETATM   27  O   UNL     1      -6.682   4.948  69.452  1.00  0.00    -0.048 OA 
BRANCH  26  28
HETATM   28  C   UNL     1      -8.704   4.698  68.138  1.00  0.00    -0.103 C  
BRANCH  28  29
HETATM   29  C   UNL     1      -9.948   4.956  69.003  1.00  0.00    -0.237 C  
HETATM   30  C   UNL     1     -11.144   6.760  67.599  1.00  0.00    -0.309 C  
HETATM   31  C   UNL     1     -11.644   6.494  70.019  1.00  0.00    -0.455 C  
HETATM   32  C   UNL     1     -10.549   6.379  68.955  1.00  0.00    -0.305 C  
ENDBRANCH  28  29
BRANCH  28  33
HETATM   33  N   UNL     1      -8.373   3.280  68.013  1.00  0.00    -0.082 N  
HETATM   34  C   UNL     1      -8.682   2.544  66.905  1.00  0.00    -0.124 C  
HETATM   35  O   UNL     1      -9.295   2.954  65.931  1.00  0.00    -0.135 OA 
HETATM   36  H   UNL     1      -7.890   2.820  68.786  1.00  0.00     0.000 HD 
ENDBRANCH  28  33
ENDBRANCH  26  28
ENDBRANCH  25  26
ENDBRANCH  12  25
ENDBRANCH  11  12
ENDBRANCH  10  11
ENDBRANCH   9  10
ENDBRANCH   8   9
ENDBRANCH   7   8
ENDBRANCH   6   7
ENDBRANCH   5   6
ENDBRANCH   4   5
ENDBRANCH   3   4
ENDBRANCH   2   3
TORSDOF 22
ENDMDL
MODEL      293
REMARK 921   NORMALIZED FREE ENERGY PREDICTED BY IDOCK:   -3.55 KCAL/MOL
REMARK 922        TOTAL FREE ENERGY PREDICTED BY IDOCK:  -11.74 KCAL/MOL
REMARK 923 INTER-LIGAND FREE ENERGY PREDICTED BY IDOCK:   -8.81 KCAL/MOL
REMARK 924 INTRA-LIGAND FREE ENERGY PREDICTED BY IDOCK:   -2.93 KCAL/MOL
REMARK 927      BINDING AFFINITY PREDICTED BY RF-SCORE:    0.00 PKD
ROOT
HETATM    1  C   UNL     1      -9.712  19.660  68.779  1.00  0.00    -0.488 C  
HETATM    2  C   UNL     1      -9.459  20.388  67.469  1.00  0.00    -0.532 C  
ENDROOT
BRANCH   2   3
HETATM    3  C   UNL     1     -10.102  19.644  66.302  1.00  0.00    -0.578 C  
BRANCH   3   4
HETATM    4  C   UNL     1     -10.710  18.316  66.743  1.00  0.00    -0.247 C  
BRANCH   4   5
HETATM    5  C   UNL     1     -10.039  17.145  66.023  1.00  0.00    -0.303 C  
BRANCH   5   6
HETATM    6  C   UNL     1     -10.934  16.618  64.910  1.00  0.00    -0.162 C  
BRANCH   6   7
HETATM    7  C   UNL     1     -10.550  15.203  64.474  1.00  0.00     0.035 C  
BRANCH   7   8
HETATM    8  C   UNL     1     -11.821  14.451  64.094  1.00  0.00    -0.316 C  
BRANCH   8   9
HETATM    9  C   UNL     1     -12.070  13.195  64.922  1.00  0.00    -0.448 C  
BRANCH   9  10
HETATM   10  C   UNL     1     -12.822  13.600  66.194  1.00  0.00    -0.143 C  
BRANCH  10  11
HETATM   11  C   UNL     1     -11.917  14.021  67.341  1.00  0.00    -0.439 C  
BRANCH  11  12
HETATM   12  C   UNL     1     -10.670  13.151  67.584  1.00  0.00    -0.238 C  
BRANCH  12  13
HETATM   13  C   UNL     1      -9.317  13.885  67.452  1.00  0.00    -0.228 C  
BRANCH  13  14
HETATM   14  C   UNL     1      -8.189  13.290  68.304  1.00  0.00    -0.156 C  
HETATM   15  O   UNL     1      -7.737  14.204  69.344  1.00  0.00     0.023 OA 
HETATM   16  O   UNL     1      -5.536  14.886  69.279  1.00  0.00    -0.093 OA 
HETATM   17  C   UNL     1      -6.768  13.316  67.675  1.00  0.00    -0.171 C  
HETATM   18  C   UNL     1      -6.480  14.265  68.852  1.00  0.00    -0.092 C  
BRANCH  17  19
HETATM   19  C   UNL     1      -5.907  12.057  67.679  1.00  0.00    -0.093 C  
BRANCH  19  20
HETATM   20  C   UNL     1      -6.101  11.271  66.386  1.00  0.00    -0.117 C  
BRANCH  20  21
HETATM   21  C   UNL     1      -6.459   9.809  66.669  1.00  0.00    -0.070 C  
BRANCH  21  22
HETATM   22  C   UNL     1      -7.856   9.691  67.281  1.00  0.00    -0.095 C  
BRANCH  22  23
HETATM   23  C   UNL     1      -7.801   9.587  68.805  1.00  0.00    -0.084 C  
HETATM   24  C   UNL     1      -8.987   8.800  69.345  1.00  0.00    -0.145 C  
ENDBRANCH  22  23
ENDBRANCH  21  22
ENDBRANCH  20  21
ENDBRANCH  19  20
ENDBRANCH  17  19
ENDBRANCH  13  14
ENDBRANCH  12  13
BRANCH  12  25
HETATM   25  O   UNL     1     -10.709  12.555  68.901  1.00  0.00    -0.227 OA 
BRANCH  25  26
HETATM   26  C   UNL     1     -11.687  11.640  69.147  1.00  0.00    -0.326 C  
HETATM   27  O   UNL     1     -11.946  10.659  68.457  1.00  0.00    -0.425 OA 
BRANCH  26  28
HETATM   28  C   UNL     1     -12.434  11.974  70.435  1.00  0.00    -0.153 C  
BRANCH  28  29
HETATM   29  C   UNL     1     -12.057  13.363  70.973  1.00  0.00    -0.192 C  
HETATM   30  C   UNL     1     -14.309  14.115  71.984  1.00  0.00    -0.599 C  
HETATM   31  C   UNL     1     -12.568  15.783  71.377  1.00  0.00    -0.516 C  
HETATM   32  C   UNL     1     -13.177  14.428  71.004  1.00  0.00    -0.395 C  
ENDBRANCH  28  29
BRANCH  28  33
HETATM   33  N   UNL     1     -12.208  10.901  71.402  1.00  0.00    -0.280 N  
HETATM   34  C   UNL     1     -13.019   9.806  71.494  1.00  0.00    -0.407 C  
HETATM   35  O   UNL     1     -14.029   9.616  70.833  1.00  0.00    -0.111 OA 
HETATM   36  H   UNL     1     -11.410  10.973  72.034  1.00  0.00     0.000 HD 
ENDBRANCH  28  33
ENDBRANCH  26  28
ENDBRANCH  25  26
ENDBRANCH  12  25
ENDBRANCH  11  12
ENDBRANCH  10  11
ENDBRANCH   9  10
ENDBRANCH   8   9
ENDBRANCH   7   8
ENDBRANCH   6   7
ENDBRANCH   5   6
ENDBRANCH   4   5
ENDBRANCH   3   4
ENDBRANCH   2   3
TORSDOF 22
ENDMDL
MODEL      294
REMARK 921   NORMALIZED FREE ENERGY PREDICTED BY IDOCK:   -3.55 KCAL/MOL
REMARK 922        TOTAL FREE ENERGY PREDICTED BY IDOCK:  -11.73 KCAL/MOL
REMARK 923 INTER-LIGAND FREE ENERGY PREDICTED BY IDOCK:   -8.10 KCAL/MOL
REMARK 924 INTRA-LIGAND FREE ENERGY PREDICTED BY IDOCK:   -3.63 KCAL/MOL
REMARK 927      BINDING AFFINITY PREDICTED BY RF-SCORE:    0.00 PKD
ROOT
HETATM    1  C   UNL     1     -12.365   9.135  72.039  1.00  0.00    -0.448 C  
HETATM    2  C   UNL     1     -13.362  10.259  71.810  1.00  0.00    -0.476 C  
ENDROOT
BRANCH   2   3
HETATM    3  C   UNL     1     -12.678  11.474  71.191  1.00  0.00    -0.458 C  
BRANCH   3   4
HETATM    4  C   UNL     1     -11.539  11.069  70.260  1.00  0.00    -0.414 C  
BRANCH   4   5
HETATM    5  C   UNL     1     -11.755  11.640  68.857  1.00  0.00    -0.397 C  
BRANCH   5   6
HETATM    6  C   UNL     1     -11.631  13.157  68.872  1.00  0.00    -0.354 C  
BRANCH   6   7
HETATM    7  C   UNL     1     -11.692  13.761  67.468  1.00  0.00    -0.410 C  
BRANCH   7   8
HETATM    8  C   UNL     1     -10.342  14.397  67.155  1.00  0.00    -0.262 C  
BRANCH   8   9
HETATM    9  C   UNL     1      -9.330  14.296  68.292  1.00  0.00    -0.208 C  
BRANCH   9  10
HETATM   10  C   UNL     1      -8.118  13.506  67.787  1.00  0.00    -0.177 C  
BRANCH  10  11
HETATM   11  C   UNL     1      -7.824  12.245  68.584  1.00  0.00    -0.063 C  
BRANCH  11  12
HETATM   12  C   UNL     1      -7.176  11.082  67.810  1.00  0.00    -0.091 C  
BRANCH  12  13
HETATM   13  C   UNL     1      -7.326   9.691  68.464  1.00  0.00    -0.078 C  
BRANCH  13  14
HETATM   14  C   UNL     1      -8.600   9.517  69.299  1.00  0.00    -0.149 C  
HETATM   15  O   UNL     1      -8.340   9.577  70.730  1.00  0.00    -0.243 OA 
HETATM   16  O   UNL     1      -8.850   7.713  71.985  1.00  0.00    -0.112 OA 
HETATM   17  C   UNL     1      -9.119   8.061  69.463  1.00  0.00    -0.152 C  
HETATM   18  C   UNL     1      -8.784   8.319  70.943  1.00  0.00    -0.146 C  
BRANCH  17  19
HETATM   19  C   UNL     1     -10.590   7.740  69.216  1.00  0.00    -0.199 C  
BRANCH  19  20
HETATM   20  C   UNL     1     -10.886   6.283  69.559  1.00  0.00    -0.404 C  
BRANCH  20  21
HETATM   21  C   UNL     1     -10.142   5.326  68.624  1.00  0.00    -0.238 C  
BRANCH  21  22
HETATM   22  C   UNL     1      -9.529   4.160  69.402  1.00  0.00    -0.260 C  
BRANCH  22  23
HETATM   23  C   UNL     1      -9.177   4.556  70.836  1.00  0.00    -0.201 C  
HETATM   24  C   UNL     1      -7.687   4.835  70.979  1.00  0.00    -0.081 C  
ENDBRANCH  22  23
ENDBRANCH  21  22
ENDBRANCH  20  21
ENDBRANCH  19  20
ENDBRANCH  17  19
ENDBRANCH  13  14
ENDBRANCH  12  13
BRANCH  12  25
HETATM   25  O   UNL     1      -7.721  10.990  66.473  1.00  0.00    -0.146 OA 
BRANCH  25  26
HETATM   26  C   UNL     1      -7.118  10.127  65.609  1.00  0.00    -0.133 C  
HETATM   27  O   UNL     1      -5.917  10.063  65.375  1.00  0.00    -0.074 OA 
BRANCH  26  28
HETATM   28  C   UNL     1      -8.144   9.202  64.961  1.00  0.00    -0.130 C  
BRANCH  28  29
HETATM   29  C   UNL     1      -9.532   9.856  64.873  1.00  0.00    -0.355 C  
HETATM   30  C   UNL     1      -9.642  10.412  62.355  1.00  0.00    -0.178 C  
HETATM   31  C   UNL     1     -11.090  11.606  63.986  1.00  0.00    -0.458 C  
HETATM   32  C   UNL     1      -9.725  10.941  63.789  1.00  0.00    -0.354 C  
ENDBRANCH  28  29
BRANCH  28  33
HETATM   33  N   UNL     1      -8.152   7.930  65.682  1.00  0.00    -0.122 N  
HETATM   34  C   UNL     1      -7.514   6.814  65.219  1.00  0.00    -0.086 C  
HETATM   35  O   UNL     1      -6.917   6.730  64.157  1.00  0.00    -0.047 OA 
HETATM   36  H   UNL     1      -8.655   7.873  66.568  1.00  0.00     0.000 HD 
ENDBRANCH  28  33
ENDBRANCH  26  28
ENDBRANCH  25  26
ENDBRANCH  12  25
ENDBRANCH  11  12
ENDBRANCH  10  11
ENDBRANCH   9  10
ENDBRANCH   8   9
ENDBRANCH   7   8
ENDBRANCH   6   7
ENDBRANCH   5   6
ENDBRANCH   4   5
ENDBRANCH   3   4
ENDBRANCH   2   3
TORSDOF 22
ENDMDL
MODEL      295
REMARK 921   NORMALIZED FREE ENERGY PREDICTED BY IDOCK:   -3.54 KCAL/MOL
REMARK 922        TOTAL FREE ENERGY PREDICTED BY IDOCK:  -11.72 KCAL/MOL
REMARK 923 INTER-LIGAND FREE ENERGY PREDICTED BY IDOCK:   -8.85 KCAL/MOL
REMARK 924 INTRA-LIGAND FREE ENERGY PREDICTED BY IDOCK:   -2.87 KCAL/MOL
REMARK 927      BINDING AFFINITY PREDICTED BY RF-SCORE:    0.00 PKD
ROOT
HETATM    1  C   UNL     1      -6.597  15.228  67.897  1.00  0.00    -0.174 C  
HETATM    2  C   UNL     1      -7.068  16.097  66.742  1.00  0.00    -0.152 C  
ENDROOT
BRANCH   2   3
HETATM    3  C   UNL     1      -8.568  15.932  66.515  1.00  0.00    -0.345 C  
BRANCH   3   4
HETATM    4  C   UNL     1      -9.357  17.119  67.056  1.00  0.00    -0.250 C  
BRANCH   4   5
HETATM    5  C   UNL     1     -10.676  16.657  67.678  1.00  0.00    -0.306 C  
BRANCH   5   6
HETATM    6  C   UNL     1     -10.552  15.229  68.194  1.00  0.00    -0.254 C  
BRANCH   6   7
HETATM    7  C   UNL     1     -11.521  14.937  69.341  1.00  0.00    -0.324 C  
BRANCH   7   8
HETATM    8  C   UNL     1     -12.102  13.542  69.140  1.00  0.00    -0.331 C  
BRANCH   8   9
HETATM    9  C   UNL     1     -12.256  12.742  70.430  1.00  0.00    -0.371 C  
BRANCH   9  10
HETATM   10  C   UNL     1     -12.223  11.252  70.077  1.00  0.00    -0.389 C  
BRANCH  10  11
HETATM   11  C   UNL     1     -10.847  10.616  70.200  1.00  0.00    -0.224 C  
BRANCH  11  12
HETATM   12  C   UNL     1     -10.729   9.148  69.750  1.00  0.00    -0.228 C  
BRANCH  12  13
HETATM   13  C   UNL     1      -9.557   8.844  68.791  1.00  0.00    -0.159 C  
BRANCH  13  14
HETATM   14  C   UNL     1      -9.681   9.503  67.412  1.00  0.00    -0.157 C  
HETATM   15  O   UNL     1      -8.845   8.858  66.409  1.00  0.00    -0.138 OA 
HETATM   16  O   UNL     1      -7.209  10.134  65.406  1.00  0.00    -0.132 OA 
HETATM   17  C   UNL     1      -8.890  10.825  67.210  1.00  0.00    -0.133 C  
HETATM   18  C   UNL     1      -8.122   9.976  66.180  1.00  0.00    -0.122 C  
BRANCH  17  19
HETATM   19  C   UNL     1      -9.578  12.045  66.605  1.00  0.00    -0.225 C  
BRANCH  19  20
HETATM   20  C   UNL     1     -11.071  11.786  66.429  1.00  0.00    -0.360 C  
BRANCH  20  21
HETATM   21  C   UNL     1     -11.471  11.800  64.951  1.00  0.00    -0.269 C  
BRANCH  21  22
HETATM   22  C   UNL     1     -12.638  12.758  64.703  1.00  0.00    -0.491 C  
BRANCH  22  23
HETATM   23  C   UNL     1     -12.442  14.091  65.426  1.00  0.00    -0.520 C  
HETATM   24  C   UNL     1     -11.510  15.007  64.644  1.00  0.00    -0.382 C  
ENDBRANCH  22  23
ENDBRANCH  21  22
ENDBRANCH  20  21
ENDBRANCH  19  20
ENDBRANCH  17  19
ENDBRANCH  13  14
ENDBRANCH  12  13
BRANCH  12  25
HETATM   25  O   UNL     1     -10.588   8.272  70.892  1.00  0.00    -0.202 OA 
BRANCH  25  26
HETATM   26  C   UNL     1     -11.663   7.509  71.234  1.00  0.00    -0.287 C  
HETATM   27  O   UNL     1     -12.795   7.921  71.466  1.00  0.00    -0.320 OA 
BRANCH  26  28
HETATM   28  C   UNL     1     -11.290   6.030  71.276  1.00  0.00    -0.230 C  
BRANCH  28  29
HETATM   29  C   UNL     1     -10.099   5.765  72.211  1.00  0.00    -0.216 C  
HETATM   30  C   UNL     1     -10.916   3.648  73.440  1.00  0.00    -0.312 C  
HETATM   31  C   UNL     1      -9.147   5.089  74.428  1.00  0.00    -0.114 C  
HETATM   32  C   UNL     1     -10.412   5.087  73.565  1.00  0.00    -0.278 C  
ENDBRANCH  28  29
BRANCH  28  33
HETATM   33  N   UNL     1     -11.063   5.564  69.909  1.00  0.00    -0.141 N  
HETATM   34  C   UNL     1      -9.816   5.323  69.408  1.00  0.00    -0.195 C  
HETATM   35  O   UNL     1      -8.766   5.506  70.005  1.00  0.00    -0.123 OA 
HETATM   36  H   UNL     1     -11.871   5.412  69.304  1.00  0.00     0.000 HD 
ENDBRANCH  28  33
ENDBRANCH  26  28
ENDBRANCH  25  26
ENDBRANCH  12  25
ENDBRANCH  11  12
ENDBRANCH  10  11
ENDBRANCH   9  10
ENDBRANCH   8   9
ENDBRANCH   7   8
ENDBRANCH   6   7
ENDBRANCH   5   6
ENDBRANCH   4   5
ENDBRANCH   3   4
ENDBRANCH   2   3
TORSDOF 22
ENDMDL
MODEL      296
REMARK 921   NORMALIZED FREE ENERGY PREDICTED BY IDOCK:   -3.54 KCAL/MOL
REMARK 922        TOTAL FREE ENERGY PREDICTED BY IDOCK:  -11.70 KCAL/MOL
REMARK 923 INTER-LIGAND FREE ENERGY PREDICTED BY IDOCK:   -9.74 KCAL/MOL
REMARK 924 INTRA-LIGAND FREE ENERGY PREDICTED BY IDOCK:   -1.96 KCAL/MOL
REMARK 927      BINDING AFFINITY PREDICTED BY RF-SCORE:    0.00 PKD
ROOT
HETATM    1  C   UNL     1      -9.434   3.535  68.975  1.00  0.00    -0.213 C  
HETATM    2  C   UNL     1      -9.633   4.995  69.348  1.00  0.00    -0.236 C  
ENDROOT
BRANCH   2   3
HETATM    3  C   UNL     1      -8.662   5.888  68.581  1.00  0.00    -0.109 C  
BRANCH   3   4
HETATM    4  C   UNL     1      -8.952   5.884  67.083  1.00  0.00    -0.113 C  
BRANCH   4   5
HETATM    5  C   UNL     1      -9.445   7.257  66.622  1.00  0.00    -0.228 C  
BRANCH   5   6
HETATM    6  C   UNL     1      -8.784   8.363  67.434  1.00  0.00    -0.136 C  
BRANCH   6   7
HETATM    7  C   UNL     1      -9.570   9.674  67.380  1.00  0.00    -0.183 C  
BRANCH   7   8
HETATM    8  C   UNL     1     -10.414   9.683  66.111  1.00  0.00    -0.111 C  
BRANCH   8   9
HETATM    9  C   UNL     1     -10.481  11.040  65.419  1.00  0.00    -0.306 C  
BRANCH   9  10
HETATM   10  C   UNL     1      -9.424  11.952  66.050  1.00  0.00    -0.241 C  
BRANCH  10  11
HETATM   11  C   UNL     1      -9.989  13.224  66.662  1.00  0.00    -0.272 C  
BRANCH  11  12
HETATM   12  C   UNL     1      -9.076  13.972  67.651  1.00  0.00    -0.192 C  
BRANCH  12  13
HETATM   13  C   UNL     1      -8.458  15.283  67.118  1.00  0.00    -0.235 C  
BRANCH  13  14
HETATM   14  C   UNL     1      -7.100  15.640  67.734  1.00  0.00    -0.153 C  
HETATM   15  O   UNL     1      -6.565  14.567  68.561  1.00  0.00    -0.083 OA 
HETATM   16  O   UNL     1      -6.208  15.019  70.792  1.00  0.00    -0.054 OA 
HETATM   17  C   UNL     1      -7.135  16.570  68.979  1.00  0.00    -0.213 C  
HETATM   18  C   UNL     1      -6.563  15.325  69.680  1.00  0.00    -0.174 C  
BRANCH  17  19
HETATM   19  C   UNL     1      -6.220  17.788  69.051  1.00  0.00    -0.218 C  
BRANCH  19  20
HETATM   20  C   UNL     1      -7.039  19.075  69.061  1.00  0.00    -0.361 C  
BRANCH  20  21
HETATM   21  C   UNL     1      -8.432  18.856  68.467  1.00  0.00    -0.384 C  
BRANCH  21  22
HETATM   22  C   UNL     1      -8.575  19.564  67.118  1.00  0.00    -0.337 C  
BRANCH  22  23
HETATM   23  C   UNL     1      -9.851  20.403  67.048  1.00  0.00    -0.594 C  
HETATM   24  C   UNL     1     -11.020  19.580  66.523  1.00  0.00    -0.343 C  
ENDBRANCH  22  23
ENDBRANCH  21  22
ENDBRANCH  20  21
ENDBRANCH  19  20
ENDBRANCH  17  19
ENDBRANCH  13  14
ENDBRANCH  12  13
BRANCH  12  25
HETATM   25  O   UNL     1      -9.792  14.297  68.865  1.00  0.00    -0.213 OA 
BRANCH  25  26
HETATM   26  C   UNL     1     -11.022  14.865  68.734  1.00  0.00    -0.253 C  
HETATM   27  O   UNL     1     -11.276  15.905  68.136  1.00  0.00    -0.338 OA 
BRANCH  26  28
HETATM   28  C   UNL     1     -12.089  14.019  69.424  1.00  0.00    -0.340 C  
BRANCH  28  29
HETATM   29  C   UNL     1     -12.983  14.863  70.346  1.00  0.00    -0.272 C  
HETATM   30  C   UNL     1     -11.346  15.363  72.277  1.00  0.00    -0.421 C  
HETATM   31  C   UNL     1     -13.803  15.521  72.620  1.00  0.00    -0.654 C  
HETATM   32  C   UNL     1     -12.698  14.780  71.863  1.00  0.00    -0.396 C  
ENDBRANCH  28  29
BRANCH  28  33
HETATM   33  N   UNL     1     -11.434  12.910  70.115  1.00  0.00    -0.519 N  
HETATM   34  C   UNL     1     -11.575  11.609  69.723  1.00  0.00    -0.315 C  
HETATM   35  O   UNL     1     -12.281  11.219  68.805  1.00  0.00    -0.532 OA 
HETATM   36  H   UNL     1     -10.847  13.116  70.924  1.00  0.00     0.000 HD 
ENDBRANCH  28  33
ENDBRANCH  26  28
ENDBRANCH  25  26
ENDBRANCH  12  25
ENDBRANCH  11  12
ENDBRANCH  10  11
ENDBRANCH   9  10
ENDBRANCH   8   9
ENDBRANCH   7   8
ENDBRANCH   6   7
ENDBRANCH   5   6
ENDBRANCH   4   5
ENDBRANCH   3   4
ENDBRANCH   2   3
TORSDOF 22
ENDMDL
MODEL      297
REMARK 921   NORMALIZED FREE ENERGY PREDICTED BY IDOCK:   -3.54 KCAL/MOL
REMARK 922        TOTAL FREE ENERGY PREDICTED BY IDOCK:  -11.70 KCAL/MOL
REMARK 923 INTER-LIGAND FREE ENERGY PREDICTED BY IDOCK:   -8.76 KCAL/MOL
REMARK 924 INTRA-LIGAND FREE ENERGY PREDICTED BY IDOCK:   -2.94 KCAL/MOL
REMARK 927      BINDING AFFINITY PREDICTED BY RF-SCORE:    0.00 PKD
ROOT
HETATM    1  C   UNL     1     -13.392  12.809  72.163  1.00  0.00    -0.593 C  
HETATM    2  C   UNL     1     -13.381  11.354  71.724  1.00  0.00    -0.368 C  
ENDROOT
BRANCH   2   3
HETATM    3  C   UNL     1     -12.162  11.059  70.853  1.00  0.00    -0.471 C  
BRANCH   3   4
HETATM    4  C   UNL     1     -11.734   9.598  70.954  1.00  0.00    -0.412 C  
BRANCH   4   5
HETATM    5  C   UNL     1     -10.224   9.489  71.173  1.00  0.00    -0.300 C  
BRANCH   5   6
HETATM    6  C   UNL     1      -9.917   8.515  72.303  1.00  0.00    -0.385 C  
BRANCH   6   7
HETATM    7  C   UNL     1     -10.689   7.202  72.167  1.00  0.00    -0.245 C  
BRANCH   7   8
HETATM    8  C   UNL     1      -9.767   6.161  71.542  1.00  0.00    -0.182 C  
BRANCH   8   9
HETATM    9  C   UNL     1     -10.411   5.356  70.418  1.00  0.00    -0.353 C  
BRANCH   9  10
HETATM   10  C   UNL     1     -11.133   6.332  69.483  1.00  0.00    -0.476 C  
BRANCH  10  11
HETATM   11  C   UNL     1     -10.979   6.003  68.006  1.00  0.00    -0.340 C  
BRANCH  11  12
HETATM   12  C   UNL     1      -9.730   6.568  67.306  1.00  0.00    -0.132 C  
BRANCH  12  13
HETATM   13  C   UNL     1      -9.111   7.819  67.968  1.00  0.00    -0.128 C  
BRANCH  13  14
HETATM   14  C   UNL     1      -9.835   9.131  67.641  1.00  0.00    -0.172 C  
HETATM   15  O   UNL     1     -10.639   9.036  66.431  1.00  0.00    -0.148 OA 
HETATM   16  O   UNL     1     -10.102  10.440  64.683  1.00  0.00    -0.345 OA 
HETATM   17  C   UNL     1      -8.976  10.241  66.974  1.00  0.00    -0.147 C  
HETATM   18  C   UNL     1      -9.937  10.000  65.796  1.00  0.00    -0.276 C  
BRANCH  17  19
HETATM   19  C   UNL     1      -9.014  11.667  67.513  1.00  0.00    -0.165 C  
BRANCH  19  20
HETATM   20  C   UNL     1     -10.452  12.096  67.795  1.00  0.00    -0.222 C  
BRANCH  20  21
HETATM   21  C   UNL     1     -10.499  13.380  68.627  1.00  0.00    -0.237 C  
BRANCH  21  22
HETATM   22  C   UNL     1     -11.868  14.056  68.522  1.00  0.00    -0.399 C  
BRANCH  22  23
HETATM   23  C   UNL     1     -11.809  15.526  68.934  1.00  0.00    -0.357 C  
HETATM   24  C   UNL     1     -12.059  15.689  70.427  1.00  0.00    -0.425 C  
ENDBRANCH  22  23
ENDBRANCH  21  22
ENDBRANCH  20  21
ENDBRANCH  19  20
ENDBRANCH  17  19
ENDBRANCH  13  14
ENDBRANCH  12  13
BRANCH  12  25
HETATM   25  O   UNL     1      -8.690   5.565  67.227  1.00  0.00    -0.110 OA 
BRANCH  25  26
HETATM   26  C   UNL     1      -9.025   4.354  66.703  1.00  0.00    -0.117 C  
HETATM   27  O   UNL     1      -9.661   3.473  67.272  1.00  0.00    -0.183 OA 
BRANCH  26  28
HETATM   28  C   UNL     1      -8.520   4.223  65.269  1.00  0.00    -0.115 C  
BRANCH  28  29
HETATM   29  C   UNL     1      -7.172   4.934  65.068  1.00  0.00    -0.064 C  
HETATM   30  C   UNL     1      -7.970   7.280  64.349  1.00  0.00    -0.106 C  
HETATM   31  C   UNL     1      -5.672   6.497  63.810  1.00  0.00    -0.030 C  
HETATM   32  C   UNL     1      -7.125   6.053  64.003  1.00  0.00    -0.053 C  
ENDBRANCH  28  29
BRANCH  28  33
HETATM   33  N   UNL     1      -9.561   4.696  64.358  1.00  0.00    -0.349 N  
HETATM   34  C   UNL     1     -10.448   3.854  63.749  1.00  0.00    -0.208 C  
HETATM   35  O   UNL     1     -10.451   2.637  63.849  1.00  0.00    -0.149 OA 
HETATM   36  H   UNL     1      -9.629   5.697  64.170  1.00  0.00     0.000 HD 
ENDBRANCH  28  33
ENDBRANCH  26  28
ENDBRANCH  25  26
ENDBRANCH  12  25
ENDBRANCH  11  12
ENDBRANCH  10  11
ENDBRANCH   9  10
ENDBRANCH   8   9
ENDBRANCH   7   8
ENDBRANCH   6   7
ENDBRANCH   5   6
ENDBRANCH   4   5
ENDBRANCH   3   4
ENDBRANCH   2   3
TORSDOF 22
ENDMDL
MODEL      298
REMARK 921   NORMALIZED FREE ENERGY PREDICTED BY IDOCK:   -3.53 KCAL/MOL
REMARK 922        TOTAL FREE ENERGY PREDICTED BY IDOCK:  -11.69 KCAL/MOL
REMARK 923 INTER-LIGAND FREE ENERGY PREDICTED BY IDOCK:   -9.41 KCAL/MOL
REMARK 924 INTRA-LIGAND FREE ENERGY PREDICTED BY IDOCK:   -2.28 KCAL/MOL
REMARK 927      BINDING AFFINITY PREDICTED BY RF-SCORE:    0.00 PKD
ROOT
HETATM    1  C   UNL     1      -8.008   3.237  65.854  1.00  0.00    -0.085 C  
HETATM    2  C   UNL     1      -8.018   4.227  64.702  1.00  0.00    -0.090 C  
ENDROOT
BRANCH   2   3
HETATM    3  C   UNL     1      -6.943   5.294  64.894  1.00  0.00    -0.053 C  
BRANCH   3   4
HETATM    4  C   UNL     1      -6.807   6.187  63.664  1.00  0.00    -0.041 C  
BRANCH   4   5
HETATM    5  C   UNL     1      -8.109   6.945  63.397  1.00  0.00     0.000 C  
BRANCH   5   6
HETATM    6  C   UNL     1      -7.817   8.386  63.001  1.00  0.00    -0.150 C  
BRANCH   6   7
HETATM    7  C   UNL     1      -7.385   9.243  64.193  1.00  0.00    -0.106 C  
BRANCH   7   8
HETATM    8  C   UNL     1      -8.113  10.580  64.116  1.00  0.00    -0.027 C  
BRANCH   8   9
HETATM    9  C   UNL     1      -9.563  10.472  63.656  1.00  0.00    -0.370 C  
BRANCH   9  10
HETATM   10  C   UNL     1     -10.446  11.196  64.678  1.00  0.00    -0.400 C  
BRANCH  10  11
HETATM   11  C   UNL     1      -9.839  11.284  66.070  1.00  0.00    -0.267 C  
BRANCH  11  12
HETATM   12  C   UNL     1     -10.707  11.948  67.154  1.00  0.00    -0.240 C  
BRANCH  12  13
HETATM   13  C   UNL     1     -11.999  12.623  66.644  1.00  0.00    -0.382 C  
BRANCH  13  14
HETATM   14  C   UNL     1     -12.131  14.104  67.020  1.00  0.00    -0.414 C  
HETATM   15  O   UNL     1     -11.306  14.966  66.186  1.00  0.00    -0.344 OA 
HETATM   16  O   UNL     1      -9.672  16.212  67.229  1.00  0.00    -0.229 OA 
HETATM   17  C   UNL     1     -11.334  14.566  68.272  1.00  0.00    -0.319 C  
HETATM   18  C   UNL     1     -10.579  15.415  67.233  1.00  0.00    -0.294 C  
BRANCH  17  19
HETATM   19  C   UNL     1     -12.020  15.393  69.355  1.00  0.00    -0.351 C  
BRANCH  19  20
HETATM   20  C   UNL     1     -11.777  14.781  70.731  1.00  0.00    -0.355 C  
BRANCH  20  21
HETATM   21  C   UNL     1     -13.046  14.123  71.282  1.00  0.00    -0.420 C  
BRANCH  21  22
HETATM   22  C   UNL     1     -13.081  14.185  72.810  1.00  0.00    -0.573 C  
BRANCH  22  23
HETATM   23  C   UNL     1     -13.234  15.619  73.317  1.00  0.00    -0.666 C  
HETATM   24  C   UNL     1     -12.168  15.952  74.351  1.00  0.00    -0.656 C  
ENDBRANCH  22  23
ENDBRANCH  21  22
ENDBRANCH  20  21
ENDBRANCH  19  20
ENDBRANCH  17  19
ENDBRANCH  13  14
ENDBRANCH  12  13
BRANCH  12  25
HETATM   25  O   UNL     1     -11.094  10.985  68.162  1.00  0.00    -0.226 OA 
BRANCH  25  26
HETATM   26  C   UNL     1     -10.105  10.444  68.925  1.00  0.00    -0.201 C  
HETATM   27  O   UNL     1      -9.179  11.057  69.446  1.00  0.00     0.001 OA 
BRANCH  26  28
HETATM   28  C   UNL     1     -10.300   8.939  69.081  1.00  0.00    -0.220 C  
BRANCH  28  29
HETATM   29  C   UNL     1     -10.197   8.496  70.549  1.00  0.00    -0.220 C  
HETATM   30  C   UNL     1     -11.731   6.421  70.533  1.00  0.00    -0.385 C  
HETATM   31  C   UNL     1     -11.216   7.605  72.658  1.00  0.00    -0.419 C  
HETATM   32  C   UNL     1     -11.431   7.787  71.152  1.00  0.00    -0.295 C  
ENDBRANCH  28  29
BRANCH  28  33
HETATM   33  N   UNL     1      -9.354   8.249  68.205  1.00  0.00    -0.134 N  
HETATM   34  C   UNL     1      -9.752   7.499  67.135  1.00  0.00    -0.173 C  
HETATM   35  O   UNL     1     -10.910   7.280  66.815  1.00  0.00    -0.311 OA 
HETATM   36  H   UNL     1      -8.356   8.332  68.400  1.00  0.00     0.000 HD 
ENDBRANCH  28  33
ENDBRANCH  26  28
ENDBRANCH  25  26
ENDBRANCH  12  25
ENDBRANCH  11  12
ENDBRANCH  10  11
ENDBRANCH   9  10
ENDBRANCH   8   9
ENDBRANCH   7   8
ENDBRANCH   6   7
ENDBRANCH   5   6
ENDBRANCH   4   5
ENDBRANCH   3   4
ENDBRANCH   2   3
TORSDOF 22
ENDMDL
MODEL      299
REMARK 921   NORMALIZED FREE ENERGY PREDICTED BY IDOCK:   -3.53 KCAL/MOL
REMARK 922        TOTAL FREE ENERGY PREDICTED BY IDOCK:  -11.68 KCAL/MOL
REMARK 923 INTER-LIGAND FREE ENERGY PREDICTED BY IDOCK:   -9.67 KCAL/MOL
REMARK 924 INTRA-LIGAND FREE ENERGY PREDICTED BY IDOCK:   -2.01 KCAL/MOL
REMARK 927      BINDING AFFINITY PREDICTED BY RF-SCORE:    0.00 PKD
ROOT
HETATM    1  C   UNL     1      -9.116   6.018  74.016  1.00  0.00    -0.129 C  
HETATM    2  C   UNL     1     -10.460   6.625  73.647  1.00  0.00    -0.353 C  
ENDROOT
BRANCH   2   3
HETATM    3  C   UNL     1     -11.051   5.930  72.423  1.00  0.00    -0.328 C  
BRANCH   3   4
HETATM    4  C   UNL     1     -10.042   5.000  71.758  1.00  0.00    -0.262 C  
BRANCH   4   5
HETATM    5  C   UNL     1     -10.202   5.023  70.237  1.00  0.00    -0.328 C  
BRANCH   5   6
HETATM    6  C   UNL     1      -8.844   5.143  69.558  1.00  0.00    -0.120 C  
BRANCH   6   7
HETATM    7  C   UNL     1      -7.989   6.260  70.158  1.00  0.00    -0.108 C  
BRANCH   7   8
HETATM    8  C   UNL     1      -8.605   7.601  69.777  1.00  0.00    -0.135 C  
BRANCH   8   9
HETATM    9  C   UNL     1      -8.453   8.680  70.844  1.00  0.00    -0.195 C  
BRANCH   9  10
HETATM   10  C   UNL     1      -9.815   9.353  71.043  1.00  0.00    -0.317 C  
BRANCH  10  11
HETATM   11  C   UNL     1     -10.701   9.338  69.807  1.00  0.00    -0.245 C  
BRANCH  11  12
HETATM   12  C   UNL     1     -10.927  10.693  69.112  1.00  0.00    -0.247 C  
BRANCH  12  13
HETATM   13  C   UNL     1     -10.807  10.673  67.572  1.00  0.00    -0.351 C  
BRANCH  13  14
HETATM   14  C   UNL     1      -9.565   9.946  67.043  1.00  0.00    -0.175 C  
HETATM   15  O   UNL     1      -8.326  10.527  67.540  1.00  0.00    -0.117 OA 
HETATM   16  O   UNL     1      -6.855  11.387  65.988  1.00  0.00     0.045 OA 
HETATM   17  C   UNL     1      -9.135  10.292  65.590  1.00  0.00    -0.208 C  
HETATM   18  C   UNL     1      -7.889  10.849  66.302  1.00  0.00    -0.158 C  
BRANCH  17  19
HETATM   19  C   UNL     1      -8.824   9.177  64.597  1.00  0.00    -0.183 C  
BRANCH  19  20
HETATM   20  C   UNL     1      -8.582   9.751  63.204  1.00  0.00    -0.198 C  
BRANCH  20  21
HETATM   21  C   UNL     1      -8.977  11.228  63.132  1.00  0.00    -0.143 C  
BRANCH  21  22
HETATM   22  C   UNL     1     -10.494  11.400  63.234  1.00  0.00    -0.397 C  
BRANCH  22  23
HETATM   23  C   UNL     1     -10.874  12.768  63.799  1.00  0.00    -0.416 C  
HETATM   24  C   UNL     1     -12.352  12.821  64.162  1.00  0.00    -0.485 C  
ENDBRANCH  22  23
ENDBRANCH  21  22
ENDBRANCH  20  21
ENDBRANCH  19  20
ENDBRANCH  17  19
ENDBRANCH  13  14
ENDBRANCH  12  13
BRANCH  12  25
HETATM   25  O   UNL     1     -12.233  11.223  69.434  1.00  0.00    -0.317 OA 
BRANCH  25  26
HETATM   26  C   UNL     1     -12.332  12.023  70.533  1.00  0.00    -0.282 C  
HETATM   27  O   UNL     1     -12.541  11.647  71.681  1.00  0.00    -0.277 OA 
BRANCH  26  28
HETATM   28  C   UNL     1     -12.125  13.488  70.160  1.00  0.00    -0.354 C  
BRANCH  28  29
HETATM   29  C   UNL     1     -13.180  14.399  70.806  1.00  0.00    -0.288 C  
HETATM   30  C   UNL     1     -11.668  16.179  71.905  1.00  0.00    -0.575 C  
HETATM   31  C   UNL     1     -13.998  15.825  72.697  1.00  0.00    -0.557 C  
HETATM   32  C   UNL     1     -12.768  15.134  72.102  1.00  0.00    -0.420 C  
ENDBRANCH  28  29
BRANCH  28  33
HETATM   33  N   UNL     1     -12.082  13.600  68.703  1.00  0.00    -0.360 N  
HETATM   34  C   UNL     1     -11.907  14.792  68.059  1.00  0.00    -0.294 C  
HETATM   35  O   UNL     1     -11.814  15.882  68.601  1.00  0.00    -0.388 OA 
HETATM   36  H   UNL     1     -12.188  12.753  68.143  1.00  0.00     0.000 HD 
ENDBRANCH  28  33
ENDBRANCH  26  28
ENDBRANCH  25  26
ENDBRANCH  12  25
ENDBRANCH  11  12
ENDBRANCH  10  11
ENDBRANCH   9  10
ENDBRANCH   8   9
ENDBRANCH   7   8
ENDBRANCH   6   7
ENDBRANCH   5   6
ENDBRANCH   4   5
ENDBRANCH   3   4
ENDBRANCH   2   3
TORSDOF 22
ENDMDL
MODEL      300
REMARK 921   NORMALIZED FREE ENERGY PREDICTED BY IDOCK:   -3.52 KCAL/MOL
REMARK 922        TOTAL FREE ENERGY PREDICTED BY IDOCK:  -11.67 KCAL/MOL
REMARK 923 INTER-LIGAND FREE ENERGY PREDICTED BY IDOCK:   -8.27 KCAL/MOL
REMARK 924 INTRA-LIGAND FREE ENERGY PREDICTED BY IDOCK:   -3.40 KCAL/MOL
REMARK 927      BINDING AFFINITY PREDICTED BY RF-SCORE:    0.00 PKD
ROOT
HETATM    1  C   UNL     1     -12.147  13.708  69.134  1.00  0.00    -0.361 C  
HETATM    2  C   UNL     1     -10.882  14.522  68.921  1.00  0.00    -0.262 C  
ENDROOT
BRANCH   2   3
HETATM    3  C   UNL     1     -11.075  15.543  67.803  1.00  0.00    -0.315 C  
BRANCH   3   4
HETATM    4  C   UNL     1     -10.115  15.299  66.642  1.00  0.00    -0.268 C  
BRANCH   4   5
HETATM    5  C   UNL     1     -10.834  15.459  65.301  1.00  0.00    -0.423 C  
BRANCH   5   6
HETATM    6  C   UNL     1     -10.925  14.121  64.581  1.00  0.00    -0.393 C  
BRANCH   6   7
HETATM    7  C   UNL     1     -12.171  13.327  64.979  1.00  0.00    -0.477 C  
BRANCH   7   8
HETATM    8  C   UNL     1     -11.737  12.142  65.833  1.00  0.00    -0.393 C  
BRANCH   8   9
HETATM    9  C   UNL     1     -10.253  11.808  65.724  1.00  0.00    -0.276 C  
BRANCH   9  10
HETATM   10  C   UNL     1     -10.110  10.509  64.926  1.00  0.00    -0.403 C  
BRANCH  10  11
HETATM   11  C   UNL     1      -9.644   9.321  65.752  1.00  0.00    -0.341 C  
BRANCH  11  12
HETATM   12  C   UNL     1     -10.367   9.093  67.092  1.00  0.00    -0.267 C  
BRANCH  12  13
HETATM   13  C   UNL     1     -10.749   7.628  67.395  1.00  0.00    -0.318 C  
BRANCH  13  14
HETATM   14  C   UNL     1     -10.015   6.592  66.536  1.00  0.00    -0.092 C  
HETATM   15  O   UNL     1     -10.704   5.309  66.501  1.00  0.00    -0.301 OA 
HETATM   16  O   UNL     1      -9.579   3.473  67.322  1.00  0.00    -0.211 OA 
HETATM   17  C   UNL     1      -8.785   5.904  67.191  1.00  0.00    -0.108 C  
HETATM   18  C   UNL     1      -9.667   4.649  67.062  1.00  0.00    -0.195 C  
BRANCH  17  19
HETATM   19  C   UNL     1      -7.467   5.806  66.431  1.00  0.00    -0.086 C  
BRANCH  19  20
HETATM   20  C   UNL     1      -7.607   6.406  65.035  1.00  0.00    -0.091 C  
BRANCH  20  21
HETATM   21  C   UNL     1      -7.340   5.361  63.948  1.00  0.00    -0.053 C  
BRANCH  21  22
HETATM   22  C   UNL     1      -8.650   4.821  63.369  1.00  0.00    -0.131 C  
BRANCH  22  23
HETATM   23  C   UNL     1      -8.635   3.297  63.256  1.00  0.00    -0.089 C  
HETATM   24  C   UNL     1      -9.933   2.695  63.778  1.00  0.00    -0.147 C  
ENDBRANCH  22  23
ENDBRANCH  21  22
ENDBRANCH  20  21
ENDBRANCH  19  20
ENDBRANCH  17  19
ENDBRANCH  13  14
ENDBRANCH  12  13
BRANCH  12  25
HETATM   25  O   UNL     1      -9.562   9.565  68.197  1.00  0.00    -0.137 OA 
BRANCH  25  26
HETATM   26  C   UNL     1     -10.142   9.594  69.429  1.00  0.00    -0.203 C  
HETATM   27  O   UNL     1     -11.096  10.289  69.759  1.00  0.00    -0.249 OA 
BRANCH  26  28
HETATM   28  C   UNL     1      -9.458   8.612  70.375  1.00  0.00    -0.170 C  
BRANCH  28  29
HETATM   29  C   UNL     1     -10.450   7.987  71.369  1.00  0.00    -0.257 C  
HETATM   30  C   UNL     1     -10.436   5.530  70.577  1.00  0.00    -0.347 C  
HETATM   31  C   UNL     1     -12.332   6.425  71.913  1.00  0.00    -0.279 C  
HETATM   32  C   UNL     1     -11.272   6.778  70.866  1.00  0.00    -0.338 C  
ENDBRANCH  28  29
BRANCH  28  33
HETATM   33  N   UNL     1      -8.340   9.291  71.029  1.00  0.00    -0.151 N  
HETATM   34  C   UNL     1      -7.125   8.697  71.222  1.00  0.00    -0.085 C  
HETATM   35  O   UNL     1      -6.846   7.546  70.925  1.00  0.00    -0.046 OA 
HETATM   36  H   UNL     1      -8.472  10.250  71.354  1.00  0.00     0.000 HD 
ENDBRANCH  28  33
ENDBRANCH  26  28
ENDBRANCH  25  26
ENDBRANCH  12  25
ENDBRANCH  11  12
ENDBRANCH  10  11
ENDBRANCH   9  10
ENDBRANCH   8   9
ENDBRANCH   7   8
ENDBRANCH   6   7
ENDBRANCH   5   6
ENDBRANCH   4   5
ENDBRANCH   3   4
ENDBRANCH   2   3
TORSDOF 22
ENDMDL
MODEL      301
REMARK 921   NORMALIZED FREE ENERGY PREDICTED BY IDOCK:   -3.51 KCAL/MOL
REMARK 922        TOTAL FREE ENERGY PREDICTED BY IDOCK:  -11.64 KCAL/MOL
REMARK 923 INTER-LIGAND FREE ENERGY PREDICTED BY IDOCK:   -7.44 KCAL/MOL
REMARK 924 INTRA-LIGAND FREE ENERGY PREDICTED BY IDOCK:   -4.20 KCAL/MOL
REMARK 927      BINDING AFFINITY PREDICTED BY RF-SCORE:    0.00 PKD
ROOT
HETATM    1  C   UNL     1     -10.860  11.597  63.519  1.00  0.00    -0.497 C  
HETATM    2  C   UNL     1      -9.794  11.121  64.492  1.00  0.00    -0.330 C  
ENDROOT
BRANCH   2   3
HETATM    3  C   UNL     1      -9.727  12.034  65.713  1.00  0.00    -0.254 C  
BRANCH   3   4
HETATM    4  C   UNL     1     -11.021  11.995  66.520  1.00  0.00    -0.337 C  
BRANCH   4   5
HETATM    5  C   UNL     1     -11.055  10.768  67.433  1.00  0.00    -0.363 C  
BRANCH   5   6
HETATM    6  C   UNL     1     -11.054  11.190  68.896  1.00  0.00    -0.293 C  
BRANCH   6   7
HETATM    7  C   UNL     1      -9.952  10.499  69.702  1.00  0.00    -0.149 C  
BRANCH   7   8
HETATM    8  C   UNL     1      -8.677  10.488  68.867  1.00  0.00    -0.154 C  
BRANCH   8   9
HETATM    9  C   UNL     1      -7.796   9.264  69.097  1.00  0.00    -0.086 C  
BRANCH   9  10
HETATM   10  C   UNL     1      -7.409   9.223  70.579  1.00  0.00    -0.120 C  
BRANCH  10  11
HETATM   11  C   UNL     1      -6.954   7.855  71.063  1.00  0.00    -0.049 C  
BRANCH  11  12
HETATM   12  C   UNL     1      -8.041   6.770  71.165  1.00  0.00    -0.111 C  
BRANCH  12  13
HETATM   13  C   UNL     1      -7.862   5.565  70.215  1.00  0.00    -0.093 C  
BRANCH  13  14
HETATM   14  C   UNL     1      -9.165   5.054  69.588  1.00  0.00    -0.118 C  
HETATM   15  O   UNL     1      -9.522   3.721  70.053  1.00  0.00    -0.165 OA 
HETATM   16  O   UNL     1      -9.658   2.045  68.477  1.00  0.00    -0.184 OA 
HETATM   17  C   UNL     1      -9.060   4.511  68.136  1.00  0.00    -0.155 C  
HETATM   18  C   UNL     1      -9.454   3.186  68.813  1.00  0.00    -0.121 C  
BRANCH  17  19
HETATM   19  C   UNL     1     -10.050   4.972  67.071  1.00  0.00    -0.251 C  
BRANCH  19  20
HETATM   20  C   UNL     1     -10.845   6.177  67.565  1.00  0.00    -0.422 C  
BRANCH  20  21
HETATM   21  C   UNL     1     -10.221   7.492  67.089  1.00  0.00    -0.350 C  
BRANCH  21  22
HETATM   22  C   UNL     1      -9.565   7.327  65.717  1.00  0.00     0.367 C  
BRANCH  22  23
HETATM   23  C   UNL     1      -8.173   7.956  65.673  1.00  0.00    -0.137 C  
HETATM   24  C   UNL     1      -7.104   6.952  66.082  1.00  0.00    -0.073 C  
ENDBRANCH  22  23
ENDBRANCH  21  22
ENDBRANCH  20  21
ENDBRANCH  19  20
ENDBRANCH  17  19
ENDBRANCH  13  14
ENDBRANCH  12  13
BRANCH  12  25
HETATM   25  O   UNL     1      -8.119   6.247  72.512  1.00  0.00    -0.103 OA 
BRANCH  25  26
HETATM   26  C   UNL     1      -8.916   6.909  73.396  1.00  0.00    -0.133 C  
HETATM   27  O   UNL     1      -8.534   7.650  74.295  1.00  0.00    -0.210 OA 
BRANCH  26  28
HETATM   28  C   UNL     1     -10.389   6.629  73.116  1.00  0.00    -0.234 C  
BRANCH  28  29
HETATM   29  C   UNL     1     -11.216   7.923  73.048  1.00  0.00    -0.346 C  
HETATM   30  C   UNL     1     -13.211   7.142  71.608  1.00  0.00    -0.403 C  
HETATM   31  C   UNL     1     -12.651   9.557  71.803  1.00  0.00    -0.490 C  
HETATM   32  C   UNL     1     -12.065   8.142  71.775  1.00  0.00    -0.357 C  
ENDBRANCH  28  29
BRANCH  28  33
HETATM   33  N   UNL     1     -10.885   5.681  74.113  1.00  0.00    -0.328 N  
HETATM   34  C   UNL     1     -10.621   4.343  74.054  1.00  0.00    -0.270 C  
HETATM   35  O   UNL     1      -9.998   3.782  73.166  1.00  0.00    -0.123 OA 
HETATM   36  H   UNL     1     -11.453   6.035  74.884  1.00  0.00     0.000 HD 
ENDBRANCH  28  33
ENDBRANCH  26  28
ENDBRANCH  25  26
ENDBRANCH  12  25
ENDBRANCH  11  12
ENDBRANCH  10  11
ENDBRANCH   9  10
ENDBRANCH   8   9
ENDBRANCH   7   8
ENDBRANCH   6   7
ENDBRANCH   5   6
ENDBRANCH   4   5
ENDBRANCH   3   4
ENDBRANCH   2   3
TORSDOF 22
ENDMDL
MODEL      302
REMARK 921   NORMALIZED FREE ENERGY PREDICTED BY IDOCK:   -3.50 KCAL/MOL
REMARK 922        TOTAL FREE ENERGY PREDICTED BY IDOCK:  -11.61 KCAL/MOL
REMARK 923 INTER-LIGAND FREE ENERGY PREDICTED BY IDOCK:   -9.19 KCAL/MOL
REMARK 924 INTRA-LIGAND FREE ENERGY PREDICTED BY IDOCK:   -2.42 KCAL/MOL
REMARK 927      BINDING AFFINITY PREDICTED BY RF-SCORE:    0.00 PKD
ROOT
HETATM    1  C   UNL     1     -11.447   5.148  73.064  1.00  0.00    -0.349 C  
HETATM    2  C   UNL     1     -11.474   6.585  72.569  1.00  0.00    -0.274 C  
ENDROOT
BRANCH   2   3
HETATM    3  C   UNL     1     -12.220   6.688  71.242  1.00  0.00    -0.369 C  
BRANCH   3   4
HETATM    4  C   UNL     1     -13.716   6.904  71.450  1.00  0.00    -0.228 C  
BRANCH   4   5
HETATM    5  C   UNL     1     -14.110   8.342  71.105  1.00  0.00    -0.162 C  
BRANCH   5   6
HETATM    6  C   UNL     1     -13.901   9.256  72.306  1.00  0.00    -0.492 C  
BRANCH   6   7
HETATM    7  C   UNL     1     -13.021  10.462  71.974  1.00  0.00    -0.499 C  
BRANCH   7   8
HETATM    8  C   UNL     1     -13.001  10.646  70.461  1.00  0.00    -0.277 C  
BRANCH   8   9
HETATM    9  C   UNL     1     -11.643  11.063  69.905  1.00  0.00    -0.416 C  
BRANCH   9  10
HETATM   10  C   UNL     1     -11.866  12.191  68.893  1.00  0.00    -0.358 C  
BRANCH  10  11
HETATM   11  C   UNL     1     -11.093  13.464  69.203  1.00  0.00    -0.261 C  
BRANCH  11  12
HETATM   12  C   UNL     1      -9.755  13.649  68.464  1.00  0.00    -0.184 C  
BRANCH  12  13
HETATM   13  C   UNL     1      -9.621  12.870  67.136  1.00  0.00    -0.225 C  
BRANCH  13  14
HETATM   14  C   UNL     1      -8.896  11.525  67.262  1.00  0.00    -0.160 C  
HETATM   15  O   UNL     1      -7.971  11.286  66.163  1.00  0.00    -0.134 OA 
HETATM   16  O   UNL     1      -8.358   9.450  64.824  1.00  0.00    -0.135 OA 
HETATM   17  C   UNL     1      -9.707  10.267  66.842  1.00  0.00    -0.229 C  
HETATM   18  C   UNL     1      -8.626  10.179  65.749  1.00  0.00    -0.149 C  
BRANCH  17  19
HETATM   19  C   UNL     1      -9.755   9.047  67.755  1.00  0.00    -0.190 C  
BRANCH  19  20
HETATM   20  C   UNL     1     -10.588   7.936  67.122  1.00  0.00    -0.383 C  
BRANCH  20  21
HETATM   21  C   UNL     1      -9.829   6.607  67.106  1.00  0.00    -0.194 C  
BRANCH  21  22
HETATM   22  C   UNL     1     -10.720   5.467  66.609  1.00  0.00    -0.332 C  
BRANCH  22  23
HETATM   23  C   UNL     1      -9.952   4.492  65.718  1.00  0.00    -0.253 C  
HETATM   24  C   UNL     1      -8.513   4.334  66.190  1.00  0.00    -0.112 C  
ENDBRANCH  22  23
ENDBRANCH  21  22
ENDBRANCH  20  21
ENDBRANCH  19  20
ENDBRANCH  17  19
ENDBRANCH  13  14
ENDBRANCH  12  13
BRANCH  12  25
HETATM   25  O   UNL     1      -9.521  15.045  68.169  1.00  0.00    -0.190 OA 
BRANCH  25  26
HETATM   26  C   UNL     1      -8.368  15.600  68.635  1.00  0.00    -0.177 C  
HETATM   27  O   UNL     1      -7.683  15.171  69.557  1.00  0.00    -0.204 OA 
BRANCH  26  28
HETATM   28  C   UNL     1      -8.003  16.848  67.837  1.00  0.00    -0.183 C  
BRANCH  28  29
HETATM   29  C   UNL     1      -9.248  17.558  67.280  1.00  0.00    -0.240 C  
HETATM   30  C   UNL     1      -8.246  19.845  66.630  1.00  0.00    -0.359 C  
HETATM   31  C   UNL     1     -10.689  19.590  67.011  1.00  0.00    -0.592 C  
HETATM   32  C   UNL     1      -9.305  19.094  67.439  1.00  0.00    -0.356 C  
ENDBRANCH  28  29
BRANCH  28  33
HETATM   33  N   UNL     1      -7.040  16.478  66.800  1.00  0.00    -0.222 N  
HETATM   34  C   UNL     1      -5.775  16.991  66.751  1.00  0.00    -0.175 C  
HETATM   35  O   UNL     1      -5.321  17.831  67.513  1.00  0.00    -0.127 OA 
HETATM   36  H   UNL     1      -7.325  15.809  66.084  1.00  0.00     0.000 HD 
ENDBRANCH  28  33
ENDBRANCH  26  28
ENDBRANCH  25  26
ENDBRANCH  12  25
ENDBRANCH  11  12
ENDBRANCH  10  11
ENDBRANCH   9  10
ENDBRANCH   8   9
ENDBRANCH   7   8
ENDBRANCH   6   7
ENDBRANCH   5   6
ENDBRANCH   4   5
ENDBRANCH   3   4
ENDBRANCH   2   3
TORSDOF 22
ENDMDL
MODEL      303
REMARK 921   NORMALIZED FREE ENERGY PREDICTED BY IDOCK:   -3.49 KCAL/MOL
REMARK 922        TOTAL FREE ENERGY PREDICTED BY IDOCK:  -11.61 KCAL/MOL
REMARK 923 INTER-LIGAND FREE ENERGY PREDICTED BY IDOCK:   -7.05 KCAL/MOL
REMARK 924 INTRA-LIGAND FREE ENERGY PREDICTED BY IDOCK:   -4.56 KCAL/MOL
REMARK 927      BINDING AFFINITY PREDICTED BY RF-SCORE:    0.00 PKD
ROOT
HETATM    1  C   UNL     1     -10.708  13.832  64.851  1.00  0.00    -0.410 C  
HETATM    2  C   UNL     1      -9.943  12.552  65.145  1.00  0.00    -0.212 C  
ENDROOT
BRANCH   2   3
HETATM    3  C   UNL     1     -10.872  11.482  65.709  1.00  0.00    -0.319 C  
BRANCH   3   4
HETATM    4  C   UNL     1     -10.928  11.526  67.233  1.00  0.00    -0.323 C  
BRANCH   4   5
HETATM    5  C   UNL     1     -11.005  10.113  67.815  1.00  0.00    -0.338 C  
BRANCH   5   6
HETATM    6  C   UNL     1     -10.216   9.136  66.954  1.00  0.00    -0.336 C  
BRANCH   6   7
HETATM    7  C   UNL     1     -10.745   7.705  67.061  1.00  0.00    -0.340 C  
BRANCH   7   8
HETATM    8  C   UNL     1      -9.559   6.747  67.041  1.00  0.00    -0.188 C  
BRANCH   8   9
HETATM    9  C   UNL     1      -8.204   7.435  67.172  1.00  0.00    -0.118 C  
BRANCH   9  10
HETATM   10  C   UNL     1      -7.419   6.738  68.287  1.00  0.00    -0.099 C  
BRANCH  10  11
HETATM   11  C   UNL     1      -6.493   7.661  69.064  1.00  0.00    -0.040 C  
BRANCH  11  12
HETATM   12  C   UNL     1      -7.121   8.429  70.240  1.00  0.00    -0.040 C  
BRANCH  12  13
HETATM   13  C   UNL     1      -7.835   9.746  69.863  1.00  0.00    -0.168 C  
BRANCH  13  14
HETATM   14  C   UNL     1      -6.944  10.765  69.141  1.00  0.00    -0.091 C  
HETATM   15  O   UNL     1      -7.193  12.131  69.579  1.00  0.00     0.090 OA 
HETATM   16  O   UNL     1      -7.928  13.639  67.998  1.00  0.00    -0.128 OA 
HETATM   17  C   UNL     1      -7.378  11.156  67.701  1.00  0.00    -0.095 C  
HETATM   18  C   UNL     1      -7.575  12.538  68.348  1.00  0.00    -0.129 C  
BRANCH  17  19
HETATM   19  C   UNL     1      -6.359  11.151  66.566  1.00  0.00    -0.132 C  
BRANCH  19  20
HETATM   20  C   UNL     1      -6.521   9.902  65.705  1.00  0.00    -0.092 C  
BRANCH  20  21
HETATM   21  C   UNL     1      -7.393  10.179  64.476  1.00  0.00    -0.121 C  
BRANCH  21  22
HETATM   22  C   UNL     1      -8.078   8.902  63.986  1.00  0.00    -0.161 C  
BRANCH  22  23
HETATM   23  C   UNL     1      -7.089   7.947  63.318  1.00  0.00    -0.087 C  
HETATM   24  C   UNL     1      -7.813   6.791  62.642  1.00  0.00    -0.108 C  
ENDBRANCH  22  23
ENDBRANCH  21  22
ENDBRANCH  20  21
ENDBRANCH  19  20
ENDBRANCH  17  19
ENDBRANCH  13  14
ENDBRANCH  12  13
BRANCH  12  25
HETATM   25  O   UNL     1      -8.083   7.603  70.936  1.00  0.00    -0.100 OA 
BRANCH  25  26
HETATM   26  C   UNL     1      -8.488   8.016  72.170  1.00  0.00    -0.146 C  
HETATM   27  O   UNL     1      -7.832   8.692  72.955  1.00  0.00    -0.367 OA 
BRANCH  26  28
HETATM   28  C   UNL     1      -9.909   7.543  72.462  1.00  0.00    -0.176 C  
BRANCH  28  29
HETATM   29  C   UNL     1     -10.930   8.686  72.347  1.00  0.00    -0.323 C  
HETATM   30  C   UNL     1     -13.050   7.371  71.685  1.00  0.00    -0.412 C  
HETATM   31  C   UNL     1     -12.865   9.805  71.214  1.00  0.00    -0.472 C  
HETATM   32  C   UNL     1     -12.077   8.496  71.328  1.00  0.00    -0.323 C  
ENDBRANCH  28  29
BRANCH  28  33
HETATM   33  N   UNL     1      -9.926   6.886  73.768  1.00  0.00    -0.277 N  
HETATM   34  C   UNL     1     -10.308   5.585  73.936  1.00  0.00    -0.261 C  
HETATM   35  O   UNL     1     -10.715   4.848  73.052  1.00  0.00    -0.207 OA 
HETATM   36  H   UNL     1      -9.640   7.421  74.589  1.00  0.00     0.000 HD 
ENDBRANCH  28  33
ENDBRANCH  26  28
ENDBRANCH  25  26
ENDBRANCH  12  25
ENDBRANCH  11  12
ENDBRANCH  10  11
ENDBRANCH   9  10
ENDBRANCH   8   9
ENDBRANCH   7   8
ENDBRANCH   6   7
ENDBRANCH   5   6
ENDBRANCH   4   5
ENDBRANCH   3   4
ENDBRANCH   2   3
TORSDOF 22
ENDMDL
MODEL      304
REMARK 921   NORMALIZED FREE ENERGY PREDICTED BY IDOCK:   -3.49 KCAL/MOL
REMARK 922        TOTAL FREE ENERGY PREDICTED BY IDOCK:  -11.59 KCAL/MOL
REMARK 923 INTER-LIGAND FREE ENERGY PREDICTED BY IDOCK:   -8.66 KCAL/MOL
REMARK 924 INTRA-LIGAND FREE ENERGY PREDICTED BY IDOCK:   -2.93 KCAL/MOL
REMARK 927      BINDING AFFINITY PREDICTED BY RF-SCORE:    0.00 PKD
ROOT
HETATM    1  C   UNL     1     -11.839  16.095  71.957  1.00  0.00    -0.615 C  
HETATM    2  C   UNL     1     -12.974  15.270  71.371  1.00  0.00    -0.503 C  
ENDROOT
BRANCH   2   3
HETATM    3  C   UNL     1     -12.438  14.227  70.395  1.00  0.00    -0.426 C  
BRANCH   3   4
HETATM    4  C   UNL     1     -11.282  14.772  69.562  1.00  0.00    -0.305 C  
BRANCH   4   5
HETATM    5  C   UNL     1     -11.745  15.108  68.143  1.00  0.00    -0.323 C  
BRANCH   5   6
HETATM    6  C   UNL     1     -11.832  13.846  67.296  1.00  0.00    -0.442 C  
BRANCH   6   7
HETATM    7  C   UNL     1     -10.496  13.104  67.216  1.00  0.00    -0.243 C  
BRANCH   7   8
HETATM    8  C   UNL     1     -10.766  11.666  66.789  1.00  0.00    -0.299 C  
BRANCH   8   9
HETATM    9  C   UNL     1     -11.407  10.807  67.874  1.00  0.00    -0.372 C  
BRANCH   9  10
HETATM   10  C   UNL     1     -10.653   9.475  67.939  1.00  0.00    -0.299 C  
BRANCH  10  11
HETATM   11  C   UNL     1      -9.357   9.534  68.734  1.00  0.00    -0.146 C  
BRANCH  11  12
HETATM   12  C   UNL     1      -8.337   8.412  68.463  1.00  0.00    -0.131 C  
BRANCH  12  13
HETATM   13  C   UNL     1      -8.027   7.497  69.668  1.00  0.00    -0.125 C  
BRANCH  13  14
HETATM   14  C   UNL     1      -9.212   7.275  70.615  1.00  0.00    -0.157 C  
HETATM   15  O   UNL     1      -8.851   6.482  71.782  1.00  0.00    -0.138 OA 
HETATM   16  O   UNL     1      -9.941   4.473  72.083  1.00  0.00    -0.169 OA 
HETATM   17  C   UNL     1     -10.230   6.178  70.195  1.00  0.00    -0.254 C  
HETATM   18  C   UNL     1      -9.723   5.494  71.477  1.00  0.00    -0.156 C  
BRANCH  17  19
HETATM   19  C   UNL     1     -11.726   6.475  70.211  1.00  0.00    -0.430 C  
BRANCH  19  20
HETATM   20  C   UNL     1     -12.168   6.929  71.599  1.00  0.00    -0.403 C  
BRANCH  20  21
HETATM   21  C   UNL     1     -13.584   7.510  71.573  1.00  0.00    -0.439 C  
BRANCH  21  22
HETATM   22  C   UNL     1     -13.612   8.923  72.160  1.00  0.00    -0.502 C  
BRANCH  22  23
HETATM   23  C   UNL     1     -13.266   9.980  71.111  1.00  0.00    -0.441 C  
HETATM   24  C   UNL     1     -11.868  10.540  71.337  1.00  0.00    -0.237 C  
ENDBRANCH  22  23
ENDBRANCH  21  22
ENDBRANCH  20  21
ENDBRANCH  19  20
ENDBRANCH  17  19
ENDBRANCH  13  14
ENDBRANCH  12  13
BRANCH  12  25
HETATM   25  O   UNL     1      -8.785   7.562  67.382  1.00  0.00    -0.124 OA 
BRANCH  25  26
HETATM   26  C   UNL     1      -7.851   7.150  66.480  1.00  0.00    -0.106 C  
HETATM   27  O   UNL     1      -7.129   7.878  65.807  1.00  0.00    -0.059 OA 
BRANCH  26  28
HETATM   28  C   UNL     1      -7.789   5.627  66.418  1.00  0.00    -0.101 C  
BRANCH  28  29
HETATM   29  C   UNL     1      -6.758   5.135  65.390  1.00  0.00    -0.052 C  
HETATM   30  C   UNL     1      -7.960   5.727  63.184  1.00  0.00    -0.108 C  
HETATM   31  C   UNL     1      -6.163   4.009  63.232  1.00  0.00    -0.018 C  
HETATM   32  C   UNL     1      -7.308   4.636  64.035  1.00  0.00    -0.058 C  
ENDBRANCH  28  29
BRANCH  28  33
HETATM   33  N   UNL     1      -9.136   5.112  66.174  1.00  0.00    -0.139 N  
HETATM   34  C   UNL     1      -9.718   4.163  66.966  1.00  0.00    -0.197 C  
HETATM   35  O   UNL     1      -9.187   3.612  67.917  1.00  0.00    -0.144 OA 
HETATM   36  H   UNL     1      -9.662   5.476  65.380  1.00  0.00     0.000 HD 
ENDBRANCH  28  33
ENDBRANCH  26  28
ENDBRANCH  25  26
ENDBRANCH  12  25
ENDBRANCH  11  12
ENDBRANCH  10  11
ENDBRANCH   9  10
ENDBRANCH   8   9
ENDBRANCH   7   8
ENDBRANCH   6   7
ENDBRANCH   5   6
ENDBRANCH   4   5
ENDBRANCH   3   4
ENDBRANCH   2   3
TORSDOF 22
ENDMDL
MODEL      305
REMARK 921   NORMALIZED FREE ENERGY PREDICTED BY IDOCK:   -3.48 KCAL/MOL
REMARK 922        TOTAL FREE ENERGY PREDICTED BY IDOCK:  -11.56 KCAL/MOL
REMARK 923 INTER-LIGAND FREE ENERGY PREDICTED BY IDOCK:   -8.11 KCAL/MOL
REMARK 924 INTRA-LIGAND FREE ENERGY PREDICTED BY IDOCK:   -3.45 KCAL/MOL
REMARK 927      BINDING AFFINITY PREDICTED BY RF-SCORE:    0.00 PKD
ROOT
HETATM    1  C   UNL     1      -6.430   4.047  72.992  1.00  0.00    -0.036 C  
HETATM    2  C   UNL     1      -7.885   3.673  72.761  1.00  0.00    -0.066 C  
ENDROOT
BRANCH   2   3
HETATM    3  C   UNL     1      -8.515   3.128  74.040  1.00  0.00    -0.073 C  
BRANCH   3   4
HETATM    4  C   UNL     1      -9.760   3.915  74.437  1.00  0.00    -0.152 C  
BRANCH   4   5
HETATM    5  C   UNL     1     -10.791   3.907  73.307  1.00  0.00    -0.297 C  
BRANCH   5   6
HETATM    6  C   UNL     1     -11.264   5.322  73.004  1.00  0.00    -0.387 C  
BRANCH   6   7
HETATM    7  C   UNL     1     -10.442   6.382  73.741  1.00  0.00    -0.319 C  
BRANCH   7   8
HETATM    8  C   UNL     1     -10.260   7.582  72.818  1.00  0.00    -0.307 C  
BRANCH   8   9
HETATM    9  C   UNL     1     -11.566   8.137  72.258  1.00  0.00    -0.436 C  
BRANCH   9  10
HETATM   10  C   UNL     1     -11.272   8.766  70.892  1.00  0.00    -0.320 C  
BRANCH  10  11
HETATM   11  C   UNL     1     -10.620   7.815  69.899  1.00  0.00    -0.239 C  
BRANCH  11  12
HETATM   12  C   UNL     1      -9.313   8.301  69.246  1.00  0.00    -0.155 C  
BRANCH  12  13
HETATM   13  C   UNL     1      -8.856   9.718  69.657  1.00  0.00    -0.224 C  
BRANCH  13  14
HETATM   14  C   UNL     1      -9.142  10.803  68.612  1.00  0.00    -0.173 C  
HETATM   15  O   UNL     1     -10.334  11.578  68.927  1.00  0.00    -0.209 OA 
HETATM   16  O   UNL     1     -12.070  11.524  67.411  1.00  0.00    -0.593 OA 
HETATM   17  C   UNL     1      -9.810  10.326  67.293  1.00  0.00    -0.222 C  
HETATM   18  C   UNL     1     -10.969  11.206  67.793  1.00  0.00    -0.262 C  
BRANCH  17  19
HETATM   19  C   UNL     1      -9.246  10.765  65.946  1.00  0.00    -0.214 C  
BRANCH  19  20
HETATM   20  C   UNL     1     -10.105  10.231  64.804  1.00  0.00    -0.336 C  
BRANCH  20  21
HETATM   21  C   UNL     1     -10.250  11.263  63.682  1.00  0.00    -0.446 C  
BRANCH  21  22
HETATM   22  C   UNL     1     -11.630  11.924  63.715  1.00  0.00    -0.555 C  
BRANCH  22  23
HETATM   23  C   UNL     1     -11.566  13.345  64.275  1.00  0.00    -0.442 C  
HETATM   24  C   UNL     1     -12.867  13.720  64.972  1.00  0.00    -0.319 C  
ENDBRANCH  22  23
ENDBRANCH  21  22
ENDBRANCH  20  21
ENDBRANCH  19  20
ENDBRANCH  17  19
ENDBRANCH  13  14
ENDBRANCH  12  13
BRANCH  12  25
HETATM   25  O   UNL     1      -8.225   7.395  69.541  1.00  0.00    -0.127 OA 
BRANCH  25  26
HETATM   26  C   UNL     1      -7.623   6.773  68.490  1.00  0.00    -0.104 C  
HETATM   27  O   UNL     1      -6.601   7.143  67.922  1.00  0.00    -0.049 OA 
BRANCH  26  28
HETATM   28  C   UNL     1      -8.382   5.508  68.100  1.00  0.00    -0.099 C  
BRANCH  28  29
HETATM   29  C   UNL     1      -7.558   4.238  68.366  1.00  0.00    -0.064 C  
HETATM   30  C   UNL     1      -9.400   2.435  68.247  1.00  0.00    -0.265 C  
HETATM   31  C   UNL     1      -7.258   1.989  69.427  1.00  0.00    -0.039 C  
HETATM   32  C   UNL     1      -8.282   3.071  69.075  1.00  0.00    -0.077 C  
ENDBRANCH  28  29
BRANCH  28  33
HETATM   33  N   UNL     1      -8.817   5.631  66.709  1.00  0.00    -0.114 N  
HETATM   34  C   UNL     1     -10.122   5.830  66.358  1.00  0.00    -0.133 C  
HETATM   35  O   UNL     1     -11.064   5.882  67.134  1.00  0.00    -0.256 OA 
HETATM   36  H   UNL     1      -8.117   5.565  65.970  1.00  0.00     0.000 HD 
ENDBRANCH  28  33
ENDBRANCH  26  28
ENDBRANCH  25  26
ENDBRANCH  12  25
ENDBRANCH  11  12
ENDBRANCH  10  11
ENDBRANCH   9  10
ENDBRANCH   8   9
ENDBRANCH   7   8
ENDBRANCH   6   7
ENDBRANCH   5   6
ENDBRANCH   4   5
ENDBRANCH   3   4
ENDBRANCH   2   3
TORSDOF 22
ENDMDL
MODEL      306
REMARK 921   NORMALIZED FREE ENERGY PREDICTED BY IDOCK:   -3.47 KCAL/MOL
REMARK 922        TOTAL FREE ENERGY PREDICTED BY IDOCK:  -11.56 KCAL/MOL
REMARK 923 INTER-LIGAND FREE ENERGY PREDICTED BY IDOCK:   -9.07 KCAL/MOL
REMARK 924 INTRA-LIGAND FREE ENERGY PREDICTED BY IDOCK:   -2.49 KCAL/MOL
REMARK 927      BINDING AFFINITY PREDICTED BY RF-SCORE:    0.00 PKD
ROOT
HETATM    1  C   UNL     1     -10.519   5.096  72.035  1.00  0.00    -0.278 C  
HETATM    2  C   UNL     1     -11.128   6.471  72.252  1.00  0.00    -0.297 C  
ENDROOT
BRANCH   2   3
HETATM    3  C   UNL     1     -12.095   6.820  71.124  1.00  0.00    -0.422 C  
BRANCH   3   4
HETATM    4  C   UNL     1     -13.547   6.781  71.591  1.00  0.00    -0.178 C  
BRANCH   4   5
HETATM    5  C   UNL     1     -14.253   8.102  71.279  1.00  0.00    -0.346 C  
BRANCH   5   6
HETATM    6  C   UNL     1     -14.216   9.027  72.489  1.00  0.00    -0.356 C  
BRANCH   6   7
HETATM    7  C   UNL     1     -13.287  10.224  72.279  1.00  0.00    -0.296 C  
BRANCH   7   8
HETATM    8  C   UNL     1     -12.954  10.325  70.795  1.00  0.00    -0.408 C  
BRANCH   8   9
HETATM    9  C   UNL     1     -11.947  11.420  70.457  1.00  0.00    -0.451 C  
BRANCH   9  10
HETATM   10  C   UNL     1     -12.529  12.274  69.326  1.00  0.00     0.279 C  
BRANCH  10  11
HETATM   11  C   UNL     1     -12.022  13.708  69.309  1.00  0.00    -0.384 C  
BRANCH  11  12
HETATM   12  C   UNL     1     -10.798  13.990  68.420  1.00  0.00    -0.249 C  
BRANCH  12  13
HETATM   13  C   UNL     1     -10.799  13.277  67.049  1.00  0.00    -0.278 C  
BRANCH  13  14
HETATM   14  C   UNL     1      -9.888  12.046  66.975  1.00  0.00    -0.194 C  
HETATM   15  O   UNL     1      -9.313  11.857  65.651  1.00  0.00    -0.207 OA 
HETATM   16  O   UNL     1      -9.823   9.904  64.538  1.00  0.00    -0.261 OA 
HETATM   17  C   UNL     1     -10.602  10.671  66.853  1.00  0.00    -0.311 C  
HETATM   18  C   UNL     1      -9.900  10.651  65.483  1.00  0.00    -0.258 C  
BRANCH  17  19
HETATM   19  C   UNL     1     -10.200   9.515  67.764  1.00  0.00    -0.265 C  
BRANCH  19  20
HETATM   20  C   UNL     1      -8.884   9.823  68.472  1.00  0.00    -0.121 C  
BRANCH  20  21
HETATM   21  C   UNL     1      -8.969   9.514  69.969  1.00  0.00    -0.249 C  
BRANCH  21  22
HETATM   22  C   UNL     1      -8.509   8.085  70.265  1.00  0.00    -0.127 C  
BRANCH  22  23
HETATM   23  C   UNL     1      -7.710   7.493  69.103  1.00  0.00    -0.113 C  
HETATM   24  C   UNL     1      -8.146   6.064  68.809  1.00  0.00    -0.104 C  
ENDBRANCH  22  23
ENDBRANCH  21  22
ENDBRANCH  20  21
ENDBRANCH  19  20
ENDBRANCH  17  19
ENDBRANCH  13  14
ENDBRANCH  12  13
BRANCH  12  25
HETATM   25  O   UNL     1     -10.664  15.408  68.166  1.00  0.00    -0.256 OA 
BRANCH  25  26
HETATM   26  C   UNL     1     -10.309  16.201  69.215  1.00  0.00    -0.265 C  
HETATM   27  O   UNL     1     -10.673  16.065  70.378  1.00  0.00    -0.295 OA 
BRANCH  26  28
HETATM   28  C   UNL     1      -9.357  17.305  68.764  1.00  0.00    -0.239 C  
BRANCH  28  29
HETATM   29  C   UNL     1     -10.083  18.398  67.963  1.00  0.00    -0.392 C  
HETATM   30  C   UNL     1     -10.416  17.196  65.704  1.00  0.00    -0.208 C  
HETATM   31  C   UNL     1     -10.487  19.677  65.846  1.00  0.00    -0.591 C  
HETATM   32  C   UNL     1      -9.850  18.414  66.435  1.00  0.00    -0.369 C  
ENDBRANCH  28  29
BRANCH  28  33
HETATM   33  N   UNL     1      -8.246  16.698  68.032  1.00  0.00    -0.181 N  
HETATM   34  C   UNL     1      -6.968  16.676  68.514  1.00  0.00    -0.161 C  
HETATM   35  O   UNL     1      -6.598  17.186  69.560  1.00  0.00    -0.236 OA 
HETATM   36  H   UNL     1      -8.433  16.272  67.124  1.00  0.00     0.000 HD 
ENDBRANCH  28  33
ENDBRANCH  26  28
ENDBRANCH  25  26
ENDBRANCH  12  25
ENDBRANCH  11  12
ENDBRANCH  10  11
ENDBRANCH   9  10
ENDBRANCH   8   9
ENDBRANCH   7   8
ENDBRANCH   6   7
ENDBRANCH   5   6
ENDBRANCH   4   5
ENDBRANCH   3   4
ENDBRANCH   2   3
TORSDOF 22
ENDMDL
MODEL      307
REMARK 921   NORMALIZED FREE ENERGY PREDICTED BY IDOCK:   -3.47 KCAL/MOL
REMARK 922        TOTAL FREE ENERGY PREDICTED BY IDOCK:  -11.54 KCAL/MOL
REMARK 923 INTER-LIGAND FREE ENERGY PREDICTED BY IDOCK:   -8.16 KCAL/MOL
REMARK 924 INTRA-LIGAND FREE ENERGY PREDICTED BY IDOCK:   -3.38 KCAL/MOL
REMARK 927      BINDING AFFINITY PREDICTED BY RF-SCORE:    0.00 PKD
ROOT
HETATM    1  C   UNL     1     -12.030  14.503  64.603  1.00  0.00    -0.478 C  
HETATM    2  C   UNL     1     -10.635  15.012  64.927  1.00  0.00    -0.400 C  
ENDROOT
BRANCH   2   3
HETATM    3  C   UNL     1     -10.697  16.391  65.577  1.00  0.00    -0.300 C  
BRANCH   3   4
HETATM    4  C   UNL     1     -10.577  16.307  67.096  1.00  0.00    -0.291 C  
BRANCH   4   5
HETATM    5  C   UNL     1      -9.110  16.231  67.521  1.00  0.00    -0.196 C  
BRANCH   5   6
HETATM    6  C   UNL     1      -8.780  14.845  68.059  1.00  0.00    -0.165 C  
BRANCH   6   7
HETATM    7  C   UNL     1      -7.569  14.221  67.364  1.00  0.00    -0.185 C  
BRANCH   7   8
HETATM    8  C   UNL     1      -7.645  12.707  67.523  1.00  0.00    -0.160 C  
BRANCH   8   9
HETATM    9  C   UNL     1      -7.639  12.234  68.973  1.00  0.00     0.103 C  
BRANCH   9  10
HETATM   10  C   UNL     1      -7.408  10.720  68.982  1.00  0.00    -0.109 C  
BRANCH  10  11
HETATM   11  C   UNL     1      -7.769  10.030  67.676  1.00  0.00    -0.091 C  
BRANCH  11  12
HETATM   12  C   UNL     1      -9.188   9.439  67.584  1.00  0.00    -0.127 C  
BRANCH  12  13
HETATM   13  C   UNL     1     -10.176  10.229  66.696  1.00  0.00    -0.294 C  
BRANCH  13  14
HETATM   14  C   UNL     1     -11.463  10.659  67.409  1.00  0.00     0.064 C  
HETATM   15  O   UNL     1     -11.999  11.908  66.887  1.00  0.00    -0.614 OA 
HETATM   16  O   UNL     1     -12.170  13.686  68.343  1.00  0.00    -0.332 OA 
HETATM   17  C   UNL     1     -11.286  11.326  68.801  1.00  0.00    -0.335 C  
HETATM   18  C   UNL     1     -11.878  12.546  68.072  1.00  0.00    -0.325 C  
BRANCH  17  19
HETATM   19  C   UNL     1     -12.123  10.858  69.988  1.00  0.00    -0.433 C  
BRANCH  19  20
HETATM   20  C   UNL     1     -11.263  10.074  70.975  1.00  0.00    -0.387 C  
BRANCH  20  21
HETATM   21  C   UNL     1     -12.027   8.883  71.558  1.00  0.00    -0.401 C  
BRANCH  21  22
HETATM   22  C   UNL     1     -11.214   8.189  72.653  1.00  0.00    -0.447 C  
BRANCH  22  23
HETATM   23  C   UNL     1     -10.433   6.993  72.110  1.00  0.00    -0.234 C  
HETATM   24  C   UNL     1     -11.278   5.726  72.138  1.00  0.00    -0.327 C  
ENDBRANCH  22  23
ENDBRANCH  21  22
ENDBRANCH  20  21
ENDBRANCH  19  20
ENDBRANCH  17  19
ENDBRANCH  13  14
ENDBRANCH  12  13
BRANCH  12  25
HETATM   25  O   UNL     1      -9.148   8.084  67.080  1.00  0.00    -0.131 OA 
BRANCH  25  26
HETATM   26  C   UNL     1      -9.879   7.146  67.745  1.00  0.00    -0.145 C  
HETATM   27  O   UNL     1     -10.797   7.369  68.527  1.00  0.00    -0.143 OA 
BRANCH  26  28
HETATM   28  C   UNL     1      -9.423   5.738  67.375  1.00  0.00    -0.112 C  
BRANCH  28  29
HETATM   29  C   UNL     1      -8.853   4.983  68.586  1.00  0.00    -0.111 C  
HETATM   30  C   UNL     1      -9.313   2.541  67.889  1.00  0.00    -0.241 C  
HETATM   31  C   UNL     1      -8.952   3.135  70.276  1.00  0.00    -0.164 C  
HETATM   32  C   UNL     1      -9.516   3.632  68.941  1.00  0.00    -0.218 C  
ENDBRANCH  28  29
BRANCH  28  33
HETATM   33  N   UNL     1      -8.484   5.827  66.258  1.00  0.00    -0.122 N  
HETATM   34  C   UNL     1      -8.681   5.175  65.073  1.00  0.00    -0.148 C  
HETATM   35  O   UNL     1      -9.612   4.425  64.825  1.00  0.00    -0.161 OA 
HETATM   36  H   UNL     1      -7.646   6.399  66.367  1.00  0.00     0.000 HD 
ENDBRANCH  28  33
ENDBRANCH  26  28
ENDBRANCH  25  26
ENDBRANCH  12  25
ENDBRANCH  11  12
ENDBRANCH  10  11
ENDBRANCH   9  10
ENDBRANCH   8   9
ENDBRANCH   7   8
ENDBRANCH   6   7
ENDBRANCH   5   6
ENDBRANCH   4   5
ENDBRANCH   3   4
ENDBRANCH   2   3
TORSDOF 22
ENDMDL
MODEL      308
REMARK 921   NORMALIZED FREE ENERGY PREDICTED BY IDOCK:   -3.46 KCAL/MOL
REMARK 922        TOTAL FREE ENERGY PREDICTED BY IDOCK:  -11.54 KCAL/MOL
REMARK 923 INTER-LIGAND FREE ENERGY PREDICTED BY IDOCK:   -8.03 KCAL/MOL
REMARK 924 INTRA-LIGAND FREE ENERGY PREDICTED BY IDOCK:   -3.50 KCAL/MOL
REMARK 927      BINDING AFFINITY PREDICTED BY RF-SCORE:    0.00 PKD
ROOT
HETATM    1  C   UNL     1     -12.111  14.064  69.097  1.00  0.00    -0.375 C  
HETATM    2  C   UNL     1     -11.105  15.063  69.646  1.00  0.00    -0.291 C  
ENDROOT
BRANCH   2   3
HETATM    3  C   UNL     1     -10.163  15.545  68.546  1.00  0.00    -0.215 C  
BRANCH   3   4
HETATM    4  C   UNL     1     -10.434  16.997  68.164  1.00  0.00    -0.357 C  
BRANCH   4   5
HETATM    5  C   UNL     1      -9.336  17.529  67.241  1.00  0.00    -0.244 C  
BRANCH   5   6
HETATM    6  C   UNL     1      -7.976  17.440  67.921  1.00  0.00    -0.218 C  
BRANCH   6   7
HETATM    7  C   UNL     1      -7.076  16.377  67.288  1.00  0.00    -0.216 C  
BRANCH   7   8
HETATM    8  C   UNL     1      -6.203  15.769  68.379  1.00  0.00    -0.101 C  
BRANCH   8   9
HETATM    9  C   UNL     1      -6.923  14.744  69.250  1.00  0.00    -0.149 C  
BRANCH   9  10
HETATM   10  C   UNL     1      -6.551  13.344  68.750  1.00  0.00    -0.102 C  
BRANCH  10  11
HETATM   11  C   UNL     1      -7.359  12.881  67.547  1.00  0.00    -0.154 C  
BRANCH  11  12
HETATM   12  C   UNL     1      -8.398  11.775  67.806  1.00  0.00    -0.146 C  
BRANCH  12  13
HETATM   13  C   UNL     1      -8.266  11.050  69.164  1.00  0.00    -0.052 C  
BRANCH  13  14
HETATM   14  C   UNL     1      -9.115   9.779  69.288  1.00  0.00    -0.184 C  
HETATM   15  O   UNL     1     -10.365  10.012  69.997  1.00  0.00    -0.253 OA 
HETATM   16  O   UNL     1     -10.714   8.845  71.954  1.00  0.00    -0.330 OA 
HETATM   17  C   UNL     1      -8.686   8.773  70.392  1.00  0.00    -0.181 C  
HETATM   18  C   UNL     1     -10.057   9.144  70.986  1.00  0.00    -0.303 C  
BRANCH  17  19
HETATM   19  C   UNL     1      -8.544   7.290  70.064  1.00  0.00    -0.140 C  
BRANCH  19  20
HETATM   20  C   UNL     1      -7.212   7.020  69.369  1.00  0.00    -0.085 C  
BRANCH  20  21
HETATM   21  C   UNL     1      -7.412   6.263  68.053  1.00  0.00    -0.090 C  
BRANCH  21  22
HETATM   22  C   UNL     1      -7.078   7.149  66.851  1.00  0.00    -0.082 C  
BRANCH  22  23
HETATM   23  C   UNL     1      -8.238   7.221  65.858  1.00  0.00    -0.132 C  
HETATM   24  C   UNL     1      -9.238   8.296  66.259  1.00  0.00    -0.258 C  
ENDBRANCH  22  23
ENDBRANCH  21  22
ENDBRANCH  20  21
ENDBRANCH  19  20
ENDBRANCH  17  19
ENDBRANCH  13  14
ENDBRANCH  12  13
BRANCH  12  25
HETATM   25  O   UNL     1      -9.742  12.305  67.732  1.00  0.00    -0.189 OA 
BRANCH  25  26
HETATM   26  C   UNL     1     -10.562  11.800  66.769  1.00  0.00    -0.238 C  
HETATM   27  O   UNL     1     -11.481  11.009  66.947  1.00  0.00    -0.384 OA 
BRANCH  26  28
HETATM   28  C   UNL     1     -10.207  12.370  65.398  1.00  0.00    -0.278 C  
BRANCH  28  29
HETATM   29  C   UNL     1     -10.324  13.902  65.365  1.00  0.00    -0.364 C  
HETATM   30  C   UNL     1     -12.889  14.187  65.396  1.00  0.00    -0.393 C  
HETATM   31  C   UNL     1     -11.417  16.010  64.566  1.00  0.00    -0.274 C  
HETATM   32  C   UNL     1     -11.575  14.491  64.674  1.00  0.00    -0.413 C  
ENDBRANCH  28  29
BRANCH  28  33
HETATM   33  N   UNL     1     -11.029  11.707  64.387  1.00  0.00    -0.333 N  
HETATM   34  C   UNL     1     -10.494  10.992  63.353  1.00  0.00    -0.254 C  
HETATM   35  O   UNL     1      -9.301  10.861  63.126  1.00  0.00    -0.255 OA 
HETATM   36  H   UNL     1     -12.044  11.782  64.456  1.00  0.00     0.000 HD 
ENDBRANCH  28  33
ENDBRANCH  26  28
ENDBRANCH  25  26
ENDBRANCH  12  25
ENDBRANCH  11  12
ENDBRANCH  10  11
ENDBRANCH   9  10
ENDBRANCH   8   9
ENDBRANCH   7   8
ENDBRANCH   6   7
ENDBRANCH   5   6
ENDBRANCH   4   5
ENDBRANCH   3   4
ENDBRANCH   2   3
TORSDOF 22
ENDMDL
MODEL      309
REMARK 921   NORMALIZED FREE ENERGY PREDICTED BY IDOCK:   -3.44 KCAL/MOL
REMARK 922        TOTAL FREE ENERGY PREDICTED BY IDOCK:  -11.48 KCAL/MOL
REMARK 923 INTER-LIGAND FREE ENERGY PREDICTED BY IDOCK:   -8.01 KCAL/MOL
REMARK 924 INTRA-LIGAND FREE ENERGY PREDICTED BY IDOCK:   -3.47 KCAL/MOL
REMARK 927      BINDING AFFINITY PREDICTED BY RF-SCORE:    0.00 PKD
ROOT
HETATM    1  C   UNL     1     -10.240  19.951  68.400  1.00  0.00    -0.557 C  
HETATM    2  C   UNL     1     -10.906  19.240  67.233  1.00  0.00    -0.554 C  
ENDROOT
BRANCH   2   3
HETATM    3  C   UNL     1     -10.494  17.772  67.185  1.00  0.00    -0.338 C  
BRANCH   3   4
HETATM    4  C   UNL     1     -10.625  17.102  68.550  1.00  0.00    -0.361 C  
BRANCH   4   5
HETATM    5  C   UNL     1     -11.637  15.956  68.497  1.00  0.00    -0.351 C  
BRANCH   5   6
HETATM    6  C   UNL     1     -11.320  14.914  69.562  1.00  0.00    -0.307 C  
BRANCH   6   7
HETATM    7  C   UNL     1     -11.488  13.484  69.047  1.00  0.00    -0.349 C  
BRANCH   7   8
HETATM    8  C   UNL     1     -11.920  13.542  67.586  1.00  0.00    -0.373 C  
BRANCH   8   9
HETATM    9  C   UNL     1     -11.353  12.418  66.725  1.00  0.00    -0.391 C  
BRANCH   9  10
HETATM   10  C   UNL     1     -11.504  11.102  67.495  1.00  0.00    -0.296 C  
BRANCH  10  11
HETATM   11  C   UNL     1     -10.183  10.445  67.864  1.00  0.00    -0.211 C  
BRANCH  11  12
HETATM   12  C   UNL     1      -8.907  11.145  67.361  1.00  0.00    -0.139 C  
BRANCH  12  13
HETATM   13  C   UNL     1      -7.998  11.732  68.464  1.00  0.00    -0.145 C  
BRANCH  13  14
HETATM   14  C   UNL     1      -7.288  13.033  68.072  1.00  0.00    -0.123 C  
HETATM   15  O   UNL     1      -6.558  13.626  69.184  1.00  0.00    -0.101 OA 
HETATM   16  O   UNL     1      -7.191  15.733  69.871  1.00  0.00    -0.112 OA 
HETATM   17  C   UNL     1      -8.179  14.304  67.990  1.00  0.00    -0.153 C  
HETATM   18  C   UNL     1      -7.292  14.761  69.162  1.00  0.00    -0.151 C  
BRANCH  17  19
HETATM   19  C   UNL     1      -8.101  15.218  66.772  1.00  0.00    -0.166 C  
BRANCH  19  20
HETATM   20  C   UNL     1      -6.972  16.232  66.933  1.00  0.00    -0.226 C  
BRANCH  20  21
HETATM   21  C   UNL     1      -7.399  17.624  66.459  1.00  0.00    -0.296 C  
BRANCH  21  22
HETATM   22  C   UNL     1      -6.987  18.700  67.466  1.00  0.00    -0.210 C  
BRANCH  22  23
HETATM   23  C   UNL     1      -6.866  20.075  66.810  1.00  0.00    -0.244 C  
HETATM   24  C   UNL     1      -6.219  21.079  67.755  1.00  0.00    -0.414 C  
ENDBRANCH  22  23
ENDBRANCH  21  22
ENDBRANCH  20  21
ENDBRANCH  19  20
ENDBRANCH  17  19
ENDBRANCH  13  14
ENDBRANCH  12  13
BRANCH  12  25
HETATM   25  O   UNL     1      -8.099  10.237  66.577  1.00  0.00    -0.116 OA 
BRANCH  25  26
HETATM   26  C   UNL     1      -8.512   9.967  65.308  1.00  0.00    -0.150 C  
HETATM   27  O   UNL     1      -8.945  10.783  64.502  1.00  0.00    -0.192 OA 
BRANCH  26  28
HETATM   28  C   UNL     1      -8.349   8.484  64.986  1.00  0.00    -0.165 C  
BRANCH  28  29
HETATM   29  C   UNL     1      -8.238   7.630  66.259  1.00  0.00    -0.120 C  
HETATM   30  C   UNL     1      -8.874   5.306  65.334  1.00  0.00    -0.152 C  
HETATM   31  C   UNL     1      -9.059   5.802  67.764  1.00  0.00    -0.106 C  
HETATM   32  C   UNL     1      -9.172   6.402  66.359  1.00  0.00    -0.176 C  
ENDBRANCH  28  29
BRANCH  28  33
HETATM   33  N   UNL     1      -7.211   8.322  64.083  1.00  0.00    -0.086 N  
HETATM   34  C   UNL     1      -7.298   7.645  62.900  1.00  0.00    -0.096 C  
HETATM   35  O   UNL     1      -8.292   7.070  62.485  1.00  0.00    -0.088 OA 
HETATM   36  H   UNL     1      -6.314   8.731  64.347  1.00  0.00     0.000 HD 
ENDBRANCH  28  33
ENDBRANCH  26  28
ENDBRANCH  25  26
ENDBRANCH  12  25
ENDBRANCH  11  12
ENDBRANCH  10  11
ENDBRANCH   9  10
ENDBRANCH   8   9
ENDBRANCH   7   8
ENDBRANCH   6   7
ENDBRANCH   5   6
ENDBRANCH   4   5
ENDBRANCH   3   4
ENDBRANCH   2   3
TORSDOF 22
ENDMDL
MODEL      310
REMARK 921   NORMALIZED FREE ENERGY PREDICTED BY IDOCK:   -3.44 KCAL/MOL
REMARK 922        TOTAL FREE ENERGY PREDICTED BY IDOCK:  -11.48 KCAL/MOL
REMARK 923 INTER-LIGAND FREE ENERGY PREDICTED BY IDOCK:   -9.41 KCAL/MOL
REMARK 924 INTRA-LIGAND FREE ENERGY PREDICTED BY IDOCK:   -2.07 KCAL/MOL
REMARK 927      BINDING AFFINITY PREDICTED BY RF-SCORE:    0.00 PKD
ROOT
HETATM    1  C   UNL     1      -7.578   5.198  69.431  1.00  0.00    -0.061 C  
HETATM    2  C   UNL     1      -8.766   5.464  68.522  1.00  0.00    -0.094 C  
ENDROOT
BRANCH   2   3
HETATM    3  C   UNL     1      -9.963   5.966  69.326  1.00  0.00    -0.224 C  
BRANCH   3   4
HETATM    4  C   UNL     1     -10.253   5.070  70.526  1.00  0.00    -0.316 C  
BRANCH   4   5
HETATM    5  C   UNL     1     -10.797   5.892  71.697  1.00  0.00    -0.321 C  
BRANCH   5   6
HETATM    6  C   UNL     1     -11.656   7.042  71.190  1.00  0.00    -0.351 C  
BRANCH   6   7
HETATM    7  C   UNL     1     -11.696   8.217  72.170  1.00  0.00    -0.418 C  
BRANCH   7   8
HETATM    8  C   UNL     1     -11.774   9.512  71.370  1.00  0.00    -0.465 C  
BRANCH   8   9
HETATM    9  C   UNL     1     -10.615   9.713  70.399  1.00  0.00    -0.354 C  
BRANCH   9  10
HETATM   10  C   UNL     1     -10.830  11.039  69.663  1.00  0.00    -0.241 C  
BRANCH  10  11
HETATM   11  C   UNL     1     -11.608  10.907  68.363  1.00  0.00    -0.346 C  
BRANCH  11  12
HETATM   12  C   UNL     1     -11.375  12.008  67.312  1.00  0.00    -0.330 C  
BRANCH  12  13
HETATM   13  C   UNL     1     -11.990  13.384  67.650  1.00  0.00    -0.362 C  
BRANCH  13  14
HETATM   14  C   UNL     1     -10.979  14.425  68.147  1.00  0.00    -0.254 C  
HETATM   15  O   UNL     1     -10.902  14.476  69.600  1.00  0.00    -0.229 OA 
HETATM   16  O   UNL     1     -11.454  16.465  70.626  1.00  0.00    -0.347 OA 
HETATM   17  C   UNL     1     -11.453  15.905  68.128  1.00  0.00    -0.281 C  
HETATM   18  C   UNL     1     -11.303  15.766  69.654  1.00  0.00    -0.334 C  
BRANCH  17  19
HETATM   19  C   UNL     1     -10.563  16.986  67.522  1.00  0.00    -0.310 C  
BRANCH  19  20
HETATM   20  C   UNL     1     -10.240  18.058  68.559  1.00  0.00    -0.392 C  
BRANCH  20  21
HETATM   21  C   UNL     1     -10.524  19.462  68.018  1.00  0.00    -0.512 C  
BRANCH  21  22
HETATM   22  C   UNL     1      -9.591  19.804  66.855  1.00  0.00    -0.494 C  
BRANCH  22  23
HETATM   23  C   UNL     1      -8.131  19.500  67.189  1.00  0.00    -0.301 C  
HETATM   24  C   UNL     1      -7.368  19.042  65.953  1.00  0.00    -0.268 C  
ENDBRANCH  22  23
ENDBRANCH  21  22
ENDBRANCH  20  21
ENDBRANCH  19  20
ENDBRANCH  17  19
ENDBRANCH  13  14
ENDBRANCH  12  13
BRANCH  12  25
HETATM   25  O   UNL     1      -9.960  12.213  67.090  1.00  0.00    -0.199 OA 
BRANCH  25  26
HETATM   26  C   UNL     1      -9.328  11.353  66.243  1.00  0.00    -0.212 C  
HETATM   27  O   UNL     1      -9.772  10.930  65.182  1.00  0.00    -0.226 OA 
BRANCH  26  28
HETATM   28  C   UNL     1      -7.948  10.982  66.777  1.00  0.00    -0.152 C  
BRANCH  28  29
HETATM   29  C   UNL     1      -7.677  11.609  68.154  1.00  0.00    -0.122 C  
HETATM   30  C   UNL     1      -7.132  14.039  67.475  1.00  0.00    -0.179 C  
HETATM   31  C   UNL     1      -6.380  13.131  69.664  1.00  0.00    -0.086 C  
HETATM   32  C   UNL     1      -6.664  12.776  68.202  1.00  0.00    -0.092 C  
ENDBRANCH  28  29
BRANCH  28  33
HETATM   33  N   UNL     1      -6.945  11.338  65.775  1.00  0.00    -0.359 N  
HETATM   34  C   UNL     1      -5.937  10.494  65.405  1.00  0.00    -0.129 C  
HETATM   35  O   UNL     1      -5.727   9.390  65.884  1.00  0.00    -0.048 OA 
HETATM   36  H   UNL     1      -7.000  12.256  65.332  1.00  0.00     0.000 HD 
ENDBRANCH  28  33
ENDBRANCH  26  28
ENDBRANCH  25  26
ENDBRANCH  12  25
ENDBRANCH  11  12
ENDBRANCH  10  11
ENDBRANCH   9  10
ENDBRANCH   8   9
ENDBRANCH   7   8
ENDBRANCH   6   7
ENDBRANCH   5   6
ENDBRANCH   4   5
ENDBRANCH   3   4
ENDBRANCH   2   3
TORSDOF 22
ENDMDL
MODEL      311
REMARK 921   NORMALIZED FREE ENERGY PREDICTED BY IDOCK:   -3.42 KCAL/MOL
REMARK 922        TOTAL FREE ENERGY PREDICTED BY IDOCK:  -11.44 KCAL/MOL
REMARK 923 INTER-LIGAND FREE ENERGY PREDICTED BY IDOCK:   -8.64 KCAL/MOL
REMARK 924 INTRA-LIGAND FREE ENERGY PREDICTED BY IDOCK:   -2.80 KCAL/MOL
REMARK 927      BINDING AFFINITY PREDICTED BY RF-SCORE:    0.00 PKD
ROOT
HETATM    1  C   UNL     1     -10.882   5.943  67.642  1.00  0.00    -0.331 C  
HETATM    2  C   UNL     1     -10.079   4.939  66.831  1.00  0.00    -0.257 C  
ENDROOT
BRANCH   2   3
HETATM    3  C   UNL     1      -8.754   4.622  67.519  1.00  0.00    -0.107 C  
BRANCH   3   4
HETATM    4  C   UNL     1      -8.791   4.968  69.005  1.00  0.00    -0.112 C  
BRANCH   4   5
HETATM    5  C   UNL     1      -7.760   6.048  69.336  1.00  0.00    -0.098 C  
BRANCH   5   6
HETATM    6  C   UNL     1      -6.797   6.244  68.172  1.00  0.00    -0.070 C  
BRANCH   6   7
HETATM    7  C   UNL     1      -6.606   7.719  67.815  1.00  0.00    -0.060 C  
BRANCH   7   8
HETATM    8  C   UNL     1      -7.896   8.466  68.134  1.00  0.00    -0.111 C  
BRANCH   8   9
HETATM    9  C   UNL     1      -8.442   9.287  66.970  1.00  0.00    -0.124 C  
BRANCH   9  10
HETATM   10  C   UNL     1      -9.970   9.306  67.073  1.00  0.00    -0.286 C  
BRANCH  10  11
HETATM   11  C   UNL     1     -10.569  10.702  67.139  1.00  0.00    -0.312 C  
BRANCH  11  12
HETATM   12  C   UNL     1     -10.068  11.609  68.277  1.00  0.00    -0.202 C  
BRANCH  12  13
HETATM   13  C   UNL     1      -9.260  12.848  67.828  1.00  0.00    -0.200 C  
BRANCH  13  14
HETATM   14  C   UNL     1     -10.117  14.077  67.501  1.00  0.00    -0.237 C  
HETATM   15  O   UNL     1     -10.947  13.879  66.321  1.00  0.00    -0.295 OA 
HETATM   16  O   UNL     1     -10.604  15.285  64.528  1.00  0.00    -0.232 OA 
HETATM   17  C   UNL     1      -9.390  15.247  66.782  1.00  0.00    -0.265 C  
HETATM   18  C   UNL     1     -10.361  14.890  65.643  1.00  0.00    -0.349 C  
BRANCH  17  19
HETATM   19  C   UNL     1      -9.546  16.676  67.294  1.00  0.00    -0.243 C  
BRANCH  19  20
HETATM   20  C   UNL     1      -8.180  17.313  67.532  1.00  0.00    -0.204 C  
BRANCH  20  21
HETATM   21  C   UNL     1      -8.315  18.746  68.053  1.00  0.00    -0.315 C  
BRANCH  21  22
HETATM   22  C   UNL     1      -9.737  19.024  68.545  1.00  0.00    -0.458 C  
BRANCH  22  23
HETATM   23  C   UNL     1     -10.403  20.150  67.755  1.00  0.00    -0.460 C  
HETATM   24  C   UNL     1     -10.627  19.744  66.305  1.00  0.00    -0.572 C  
ENDBRANCH  22  23
ENDBRANCH  21  22
ENDBRANCH  20  21
ENDBRANCH  19  20
ENDBRANCH  17  19
ENDBRANCH  13  14
ENDBRANCH  12  13
BRANCH  12  25
HETATM   25  O   UNL     1     -11.174  12.085  69.079  1.00  0.00    -0.229 OA 
BRANCH  25  26
HETATM   26  C   UNL     1     -12.066  11.160  69.529  1.00  0.00    -0.326 C  
HETATM   27  O   UNL     1     -12.785  10.453  68.831  1.00  0.00     0.222 OA 
BRANCH  26  28
HETATM   28  C   UNL     1     -12.053  11.088  71.053  1.00  0.00    -0.301 C  
BRANCH  28  29
HETATM   29  C   UNL     1     -11.823   9.654  71.557  1.00  0.00    -0.483 C  
HETATM   30  C   UNL     1      -9.288   9.401  71.144  1.00  0.00    -0.143 C  
HETATM   31  C   UNL     1     -10.745   7.400  71.371  1.00  0.00    -0.239 C  
HETATM   32  C   UNL     1     -10.690   8.849  70.880  1.00  0.00    -0.292 C  
ENDBRANCH  28  29
BRANCH  28  33
HETATM   33  N   UNL     1     -13.285  11.686  71.562  1.00  0.00    -0.300 N  
HETATM   34  C   UNL     1     -13.421  13.028  71.776  1.00  0.00    -0.314 C  
HETATM   35  O   UNL     1     -12.544  13.863  71.617  1.00  0.00    -0.333 OA 
HETATM   36  H   UNL     1     -14.077  11.076  71.767  1.00  0.00     0.000 HD 
ENDBRANCH  28  33
ENDBRANCH  26  28
ENDBRANCH  25  26
ENDBRANCH  12  25
ENDBRANCH  11  12
ENDBRANCH  10  11
ENDBRANCH   9  10
ENDBRANCH   8   9
ENDBRANCH   7   8
ENDBRANCH   6   7
ENDBRANCH   5   6
ENDBRANCH   4   5
ENDBRANCH   3   4
ENDBRANCH   2   3
TORSDOF 22
ENDMDL
MODEL      312
REMARK 921   NORMALIZED FREE ENERGY PREDICTED BY IDOCK:   -3.42 KCAL/MOL
REMARK 922        TOTAL FREE ENERGY PREDICTED BY IDOCK:  -11.43 KCAL/MOL
REMARK 923 INTER-LIGAND FREE ENERGY PREDICTED BY IDOCK:   -8.49 KCAL/MOL
REMARK 924 INTRA-LIGAND FREE ENERGY PREDICTED BY IDOCK:   -2.95 KCAL/MOL
REMARK 927      BINDING AFFINITY PREDICTED BY RF-SCORE:    0.00 PKD
ROOT
HETATM    1  C   UNL     1      -7.739   8.223  73.007  1.00  0.00    -0.180 C  
HETATM    2  C   UNL     1      -7.120   7.587  71.773  1.00  0.00    -0.063 C  
ENDROOT
BRANCH   2   3
HETATM    3  C   UNL     1      -6.703   8.653  70.764  1.00  0.00    -0.047 C  
BRANCH   3   4
HETATM    4  C   UNL     1      -6.041   8.039  69.533  1.00  0.00    -0.033 C  
BRANCH   4   5
HETATM    5  C   UNL     1      -6.933   8.200  68.301  1.00  0.00    -0.076 C  
BRANCH   5   6
HETATM    6  C   UNL     1      -7.833   9.419  68.447  1.00  0.00    -0.090 C  
BRANCH   6   7
HETATM    7  C   UNL     1      -7.253  10.658  67.761  1.00  0.00    -0.088 C  
BRANCH   7   8
HETATM    8  C   UNL     1      -7.107  10.362  66.272  1.00  0.00    -0.123 C  
BRANCH   8   9
HETATM    9  C   UNL     1      -8.422  10.040  65.571  1.00  0.00    -0.155 C  
BRANCH   9  10
HETATM   10  C   UNL     1      -9.287  11.305  65.569  1.00  0.00    -0.243 C  
BRANCH  10  11
HETATM   11  C   UNL     1     -10.676  11.107  66.155  1.00  0.00    -0.285 C  
BRANCH  11  12
HETATM   12  C   UNL     1     -11.020  11.945  67.399  1.00  0.00    -0.263 C  
BRANCH  12  13
HETATM   13  C   UNL     1     -10.721  11.268  68.755  1.00  0.00    -0.240 C  
BRANCH  13  14
HETATM   14  C   UNL     1     -11.950  10.666  69.447  1.00  0.00    -0.226 C  
HETATM   15  O   UNL     1     -12.856  11.685  69.957  1.00  0.00     0.073 OA 
HETATM   16  O   UNL     1     -13.242  11.727  72.229  1.00  0.00    -0.438 OA 
HETATM   17  C   UNL     1     -11.734  10.144  70.895  1.00  0.00    -0.468 C  
HETATM   18  C   UNL     1     -12.718  11.277  71.238  1.00  0.00    -0.405 C  
BRANCH  17  19
HETATM   19  C   UNL     1     -12.234   8.759  71.292  1.00  0.00    -0.332 C  
BRANCH  19  20
HETATM   20  C   UNL     1     -11.424   8.213  72.465  1.00  0.00    -0.470 C  
BRANCH  20  21
HETATM   21  C   UNL     1     -11.148   6.715  72.305  1.00  0.00    -0.292 C  
BRANCH  21  22
HETATM   22  C   UNL     1     -10.676   6.097  73.622  1.00  0.00    -0.234 C  
BRANCH  22  23
HETATM   23  C   UNL     1     -10.007   4.740  73.405  1.00  0.00    -0.184 C  
HETATM   24  C   UNL     1     -11.031   3.614  73.420  1.00  0.00    -0.312 C  
ENDBRANCH  22  23
ENDBRANCH  21  22
ENDBRANCH  20  21
ENDBRANCH  19  20
ENDBRANCH  17  19
ENDBRANCH  13  14
ENDBRANCH  12  13
BRANCH  12  25
HETATM   25  O   UNL     1     -10.309  13.205  67.382  1.00  0.00    -0.236 OA 
BRANCH  25  26
HETATM   26  C   UNL     1     -11.054  14.345  67.360  1.00  0.00    -0.308 C  
HETATM   27  O   UNL     1     -12.136  14.488  66.802  1.00  0.00    -0.395 OA 
BRANCH  26  28
HETATM   28  C   UNL     1     -10.372  15.455  68.155  1.00  0.00    -0.239 C  
BRANCH  28  29
HETATM   29  C   UNL     1      -9.041  15.883  67.517  1.00  0.00    -0.204 C  
HETATM   30  C   UNL     1      -8.818  18.284  68.437  1.00  0.00    -0.321 C  
HETATM   31  C   UNL     1      -7.582  17.585  66.396  1.00  0.00    -0.329 C  
HETATM   32  C   UNL     1      -8.871  17.387  67.199  1.00  0.00    -0.242 C  
ENDBRANCH  28  29
BRANCH  28  33
HETATM   33  N   UNL     1     -10.231  15.020  69.543  1.00  0.00    -0.341 N  
HETATM   34  C   UNL     1     -11.199  15.227  70.484  1.00  0.00    -0.310 C  
HETATM   35  O   UNL     1     -12.249  15.822  70.300  1.00  0.00    -0.386 OA 
HETATM   36  H   UNL     1      -9.373  14.542  69.821  1.00  0.00     0.000 HD 
ENDBRANCH  28  33
ENDBRANCH  26  28
ENDBRANCH  25  26
ENDBRANCH  12  25
ENDBRANCH  11  12
ENDBRANCH  10  11
ENDBRANCH   9  10
ENDBRANCH   8   9
ENDBRANCH   7   8
ENDBRANCH   6   7
ENDBRANCH   5   6
ENDBRANCH   4   5
ENDBRANCH   3   4
ENDBRANCH   2   3
TORSDOF 22
ENDMDL
MODEL      313
REMARK 921   NORMALIZED FREE ENERGY PREDICTED BY IDOCK:   -3.41 KCAL/MOL
REMARK 922        TOTAL FREE ENERGY PREDICTED BY IDOCK:  -11.42 KCAL/MOL
REMARK 923 INTER-LIGAND FREE ENERGY PREDICTED BY IDOCK:   -7.40 KCAL/MOL
REMARK 924 INTRA-LIGAND FREE ENERGY PREDICTED BY IDOCK:   -4.03 KCAL/MOL
REMARK 927      BINDING AFFINITY PREDICTED BY RF-SCORE:    0.00 PKD
ROOT
HETATM    1  C   UNL     1     -10.008   3.489  63.369  1.00  0.00    -0.164 C  
HETATM    2  C   UNL     1     -10.704   4.148  64.548  1.00  0.00    -0.161 C  
ENDROOT
BRANCH   2   3
HETATM    3  C   UNL     1      -9.741   4.321  65.719  1.00  0.00    -0.208 C  
BRANCH   3   4
HETATM    4  C   UNL     1      -8.454   3.527  65.515  1.00  0.00    -0.107 C  
BRANCH   4   5
HETATM    5  C   UNL     1      -7.799   3.201  66.859  1.00  0.00    -0.079 C  
BRANCH   5   6
HETATM    6  C   UNL     1      -6.986   4.387  67.359  1.00  0.00    -0.063 C  
BRANCH   6   7
HETATM    7  C   UNL     1      -6.254   5.111  66.227  1.00  0.00    -0.035 C  
BRANCH   7   8
HETATM    8  C   UNL     1      -6.805   6.529  66.124  1.00  0.00    -0.057 C  
BRANCH   8   9
HETATM    9  C   UNL     1      -7.444   7.042  67.410  1.00  0.00    -0.097 C  
BRANCH   9  10
HETATM   10  C   UNL     1      -8.718   7.808  67.039  1.00  0.00    -0.131 C  
BRANCH  10  11
HETATM   11  C   UNL     1      -8.856   9.154  67.735  1.00  0.00    -0.125 C  
BRANCH  11  12
HETATM   12  C   UNL     1     -10.224   9.850  67.612  1.00  0.00    -0.208 C  
BRANCH  12  13
HETATM   13  C   UNL     1     -11.178   9.648  68.810  1.00  0.00    -0.011 C  
BRANCH  13  14
HETATM   14  C   UNL     1     -10.719   8.581  69.812  1.00  0.00    -0.213 C  
HETATM   15  O   UNL     1     -11.836   7.916  70.468  1.00  0.00    -0.176 OA 
HETATM   16  O   UNL     1     -11.992   8.105  72.759  1.00  0.00    -0.365 OA 
HETATM   17  C   UNL     1     -10.230   9.102  71.192  1.00  0.00    -0.384 C  
HETATM   18  C   UNL     1     -11.461   8.330  71.698  1.00  0.00    -0.278 C  
BRANCH  17  19
HETATM   19  C   UNL     1      -8.912   8.602  71.776  1.00  0.00    -0.307 C  
BRANCH  19  20
HETATM   20  C   UNL     1      -8.939   7.086  71.940  1.00  0.00    -0.137 C  
BRANCH  20  21
HETATM   21  C   UNL     1      -7.893   6.408  71.050  1.00  0.00    -0.110 C  
BRANCH  21  22
HETATM   22  C   UNL     1      -8.376   5.036  70.576  1.00  0.00    -0.101 C  
BRANCH  22  23
HETATM   23  C   UNL     1      -9.901   4.971  70.487  1.00  0.00    -0.290 C  
HETATM   24  C   UNL     1     -10.369   5.044  69.040  1.00  0.00    -0.155 C  
ENDBRANCH  22  23
ENDBRANCH  21  22
ENDBRANCH  20  21
ENDBRANCH  19  20
ENDBRANCH  17  19
ENDBRANCH  13  14
ENDBRANCH  12  13
BRANCH  12  25
HETATM   25  O   UNL     1     -10.059  11.275  67.430  1.00  0.00    -0.184 OA 
BRANCH  25  26
HETATM   26  C   UNL     1     -11.038  11.938  66.753  1.00  0.00    -0.308 C  
HETATM   27  O   UNL     1     -11.978  12.544  67.256  1.00  0.00    -0.474 OA 
BRANCH  26  28
HETATM   28  C   UNL     1     -10.810  11.854  65.247  1.00  0.00    -0.297 C  
BRANCH  28  29
HETATM   29  C   UNL     1      -9.342  11.554  64.904  1.00  0.00    -0.085 C  
HETATM   30  C   UNL     1      -9.592  10.588  62.524  1.00  0.00    -0.241 C  
HETATM   31  C   UNL     1      -7.570  10.105  63.886  1.00  0.00    -0.128 C  
HETATM   32  C   UNL     1      -9.077  10.369  63.947  1.00  0.00    -0.272 C  
ENDBRANCH  28  29
BRANCH  28  33
HETATM   33  N   UNL     1     -11.306  13.082  64.627  1.00  0.00    -0.314 N  
HETATM   34  C   UNL     1     -12.316  13.090  63.708  1.00  0.00    -0.397 C  
HETATM   35  O   UNL     1     -12.880  12.100  63.268  1.00  0.00    -0.735 OA 
HETATM   36  H   UNL     1     -10.881  13.971  64.893  1.00  0.00     0.000 HD 
ENDBRANCH  28  33
ENDBRANCH  26  28
ENDBRANCH  25  26
ENDBRANCH  12  25
ENDBRANCH  11  12
ENDBRANCH  10  11
ENDBRANCH   9  10
ENDBRANCH   8   9
ENDBRANCH   7   8
ENDBRANCH   6   7
ENDBRANCH   5   6
ENDBRANCH   4   5
ENDBRANCH   3   4
ENDBRANCH   2   3
TORSDOF 22
ENDMDL
MODEL      314
REMARK 921   NORMALIZED FREE ENERGY PREDICTED BY IDOCK:   -3.41 KCAL/MOL
REMARK 922        TOTAL FREE ENERGY PREDICTED BY IDOCK:  -11.41 KCAL/MOL
REMARK 923 INTER-LIGAND FREE ENERGY PREDICTED BY IDOCK:   -8.93 KCAL/MOL
REMARK 924 INTRA-LIGAND FREE ENERGY PREDICTED BY IDOCK:   -2.48 KCAL/MOL
REMARK 927      BINDING AFFINITY PREDICTED BY RF-SCORE:    0.00 PKD
ROOT
HETATM    1  C   UNL     1     -12.031  13.551  69.979  1.00  0.00    -0.410 C  
HETATM    2  C   UNL     1     -12.293  15.031  69.755  1.00  0.00    -0.278 C  
ENDROOT
BRANCH   2   3
HETATM    3  C   UNL     1     -11.569  15.528  68.506  1.00  0.00    -0.379 C  
BRANCH   3   4
HETATM    4  C   UNL     1     -10.209  14.858  68.337  1.00  0.00    -0.231 C  
BRANCH   4   5
HETATM    5  C   UNL     1      -9.846  14.733  66.856  1.00  0.00    -0.248 C  
BRANCH   5   6
HETATM    6  C   UNL     1      -9.736  13.268  66.455  1.00  0.00    -0.279 C  
BRANCH   6   7
HETATM    7  C   UNL     1     -11.017  12.743  65.805  1.00  0.00    -0.306 C  
BRANCH   7   8
HETATM    8  C   UNL     1     -11.610  11.665  66.706  1.00  0.00    -0.220 C  
BRANCH   8   9
HETATM    9  C   UNL     1     -10.589  10.978  67.606  1.00  0.00    -0.255 C  
BRANCH   9  10
HETATM   10  C   UNL     1     -10.563   9.488  67.251  1.00  0.00    -0.317 C  
BRANCH  10  11
HETATM   11  C   UNL     1      -9.809   8.625  68.252  1.00  0.00    -0.186 C  
BRANCH  11  12
HETATM   12  C   UNL     1     -10.659   7.662  69.101  1.00  0.00    -0.186 C  
BRANCH  12  13
HETATM   13  C   UNL     1     -10.861   6.254  68.499  1.00  0.00    -0.394 C  
BRANCH  13  14
HETATM   14  C   UNL     1     -10.226   6.060  67.116  1.00  0.00    -0.202 C  
HETATM   15  O   UNL     1     -10.776   4.913  66.407  1.00  0.00    -0.281 OA 
HETATM   16  O   UNL     1      -9.326   3.211  65.849  1.00  0.00    -0.154 OA 
HETATM   17  C   UNL     1      -8.823   5.391  67.093  1.00  0.00    -0.109 C  
HETATM   18  C   UNL     1      -9.583   4.280  66.347  1.00  0.00    -0.198 C  
BRANCH  17  19
HETATM   19  C   UNL     1      -7.693   6.012  66.279  1.00  0.00    -0.102 C  
BRANCH  19  20
HETATM   20  C   UNL     1      -8.186   6.409  64.891  1.00  0.00    -0.110 C  
BRANCH  20  21
HETATM   21  C   UNL     1      -8.142   7.927  64.694  1.00  0.00    -0.125 C  
BRANCH  21  22
HETATM   22  C   UNL     1      -7.206   8.588  65.708  1.00  0.00    -0.076 C  
BRANCH  22  23
HETATM   23  C   UNL     1      -7.326  10.111  65.683  1.00  0.00    -0.144 C  
HETATM   24  C   UNL     1      -6.782  10.727  66.965  1.00  0.00    -0.090 C  
ENDBRANCH  22  23
ENDBRANCH  21  22
ENDBRANCH  20  21
ENDBRANCH  19  20
ENDBRANCH  17  19
ENDBRANCH  13  14
ENDBRANCH  12  13
BRANCH  12  25
HETATM   25  O   UNL     1     -10.078   7.488  70.414  1.00  0.00    -0.194 OA 
BRANCH  25  26
HETATM   26  C   UNL     1     -10.625   6.537  71.221  1.00  0.00    -0.227 C  
HETATM   27  O   UNL     1     -10.615   5.328  71.018  1.00  0.00    -0.228 OA 
BRANCH  26  28
HETATM   28  C   UNL     1     -11.254   7.169  72.459  1.00  0.00    -0.290 C  
BRANCH  28  29
HETATM   29  C   UNL     1     -11.579   8.656  72.242  1.00  0.00    -0.424 C  
HETATM   30  C   UNL     1     -14.152   8.618  72.435  1.00  0.00    -0.449 C  
HETATM   31  C   UNL     1     -12.991  10.483  71.270  1.00  0.00    -0.532 C  
HETATM   32  C   UNL     1     -12.937   8.984  71.581  1.00  0.00    -0.418 C  
ENDBRANCH  28  29
BRANCH  28  33
HETATM   33  N   UNL     1     -10.378   6.932  73.605  1.00  0.00    -0.332 N  
HETATM   34  C   UNL     1      -9.292   7.715  73.878  1.00  0.00    -0.213 C  
HETATM   35  O   UNL     1      -8.904   8.650  73.195  1.00  0.00    -0.343 OA 
HETATM   36  H   UNL     1     -10.585   6.150  74.226  1.00  0.00     0.000 HD 
ENDBRANCH  28  33
ENDBRANCH  26  28
ENDBRANCH  25  26
ENDBRANCH  12  25
ENDBRANCH  11  12
ENDBRANCH  10  11
ENDBRANCH   9  10
ENDBRANCH   8   9
ENDBRANCH   7   8
ENDBRANCH   6   7
ENDBRANCH   5   6
ENDBRANCH   4   5
ENDBRANCH   3   4
ENDBRANCH   2   3
TORSDOF 22
ENDMDL
MODEL      315
REMARK 921   NORMALIZED FREE ENERGY PREDICTED BY IDOCK:   -3.41 KCAL/MOL
REMARK 922        TOTAL FREE ENERGY PREDICTED BY IDOCK:  -11.41 KCAL/MOL
REMARK 923 INTER-LIGAND FREE ENERGY PREDICTED BY IDOCK:   -9.31 KCAL/MOL
REMARK 924 INTRA-LIGAND FREE ENERGY PREDICTED BY IDOCK:   -2.11 KCAL/MOL
REMARK 927      BINDING AFFINITY PREDICTED BY RF-SCORE:    0.00 PKD
ROOT
HETATM    1  C   UNL     1     -10.865  17.172  66.084  1.00  0.00     0.026 C  
HETATM    2  C   UNL     1     -11.088  16.539  64.721  1.00  0.00    -0.197 C  
ENDROOT
BRANCH   2   3
HETATM    3  C   UNL     1     -11.012  15.018  64.810  1.00  0.00    -0.389 C  
BRANCH   3   4
HETATM    4  C   UNL     1     -12.289  14.357  64.299  1.00  0.00    -0.402 C  
BRANCH   4   5
HETATM    5  C   UNL     1     -12.068  12.861  64.062  1.00  0.00    -0.526 C  
BRANCH   5   6
HETATM    6  C   UNL     1     -10.643  12.467  64.426  1.00  0.00    -0.366 C  
BRANCH   6   7
HETATM    7  C   UNL     1     -10.306  11.037  63.999  1.00  0.00    -0.436 C  
BRANCH   7   8
HETATM    8  C   UNL     1      -9.154  10.533  64.860  1.00  0.00    -0.235 C  
BRANCH   8   9
HETATM    9  C   UNL     1      -9.302  10.853  66.344  1.00  0.00    -0.199 C  
BRANCH   9  10
HETATM   10  C   UNL     1      -8.233  11.883  66.720  1.00  0.00    -0.129 C  
BRANCH  10  11
HETATM   11  C   UNL     1      -8.426  12.503  68.096  1.00  0.00    -0.180 C  
BRANCH  11  12
HETATM   12  C   UNL     1      -8.536  14.038  68.145  1.00  0.00    -0.172 C  
BRANCH  12  13
HETATM   13  C   UNL     1      -7.801  14.789  67.013  1.00  0.00    -0.089 C  
BRANCH  13  14
HETATM   14  C   UNL     1      -7.506  16.262  67.320  1.00  0.00    -0.178 C  
HETATM   15  O   UNL     1      -7.769  17.132  66.181  1.00  0.00    -0.307 OA 
HETATM   16  O   UNL     1      -5.995  18.327  65.321  1.00  0.00    -0.216 OA 
HETATM   17  C   UNL     1      -6.010  16.683  67.285  1.00  0.00    -0.194 C  
HETATM   18  C   UNL     1      -6.484  17.544  66.100  1.00  0.00    -0.231 C  
BRANCH  17  19
HETATM   19  C   UNL     1      -5.415  17.494  68.431  1.00  0.00    -0.147 C  
BRANCH  19  20
HETATM   20  C   UNL     1      -6.070  17.111  69.755  1.00  0.00    -0.229 C  
BRANCH  20  21
HETATM   21  C   UNL     1      -5.358  15.923  70.408  1.00  0.00    -0.161 C  
BRANCH  21  22
HETATM   22  C   UNL     1      -6.245  14.676  70.399  1.00  0.00    -0.168 C  
BRANCH  22  23
HETATM   23  C   UNL     1      -5.740  13.613  71.375  1.00  0.00    -0.160 C  
HETATM   24  C   UNL     1      -5.389  14.228  72.723  1.00  0.00    -0.222 C  
ENDBRANCH  22  23
ENDBRANCH  21  22
ENDBRANCH  20  21
ENDBRANCH  19  20
ENDBRANCH  17  19
ENDBRANCH  13  14
ENDBRANCH  12  13
BRANCH  12  25
HETATM   25  O   UNL     1      -9.921  14.454  68.109  1.00  0.00    -0.213 OA 
BRANCH  25  26
HETATM   26  C   UNL     1     -10.454  14.958  69.257  1.00  0.00    -0.241 C  
HETATM   27  O   UNL     1      -9.905  15.742  70.023  1.00  0.00    -0.237 OA 
BRANCH  26  28
HETATM   28  C   UNL     1     -11.870  14.432  69.475  1.00  0.00    -0.329 C  
BRANCH  28  29
HETATM   29  C   UNL     1     -12.131  14.082  70.949  1.00  0.00    -0.404 C  
HETATM   30  C   UNL     1     -14.290  15.427  71.386  1.00  0.00    -0.500 C  
HETATM   31  C   UNL     1     -12.835  14.708  73.270  1.00  0.00    -0.580 C  
HETATM   32  C   UNL     1     -12.844  15.153  71.805  1.00  0.00    -0.432 C  
ENDBRANCH  28  29
BRANCH  28  33
HETATM   33  N   UNL     1     -12.100  13.310  68.567  1.00  0.00    -0.298 N  
HETATM   34  C   UNL     1     -11.905  12.009  68.936  1.00  0.00    -0.299 C  
HETATM   35  O   UNL     1     -11.484  11.637  70.021  1.00  0.00    -0.264 OA 
HETATM   36  H   UNL     1     -12.419  13.506  67.618  1.00  0.00     0.000 HD 
ENDBRANCH  28  33
ENDBRANCH  26  28
ENDBRANCH  25  26
ENDBRANCH  12  25
ENDBRANCH  11  12
ENDBRANCH  10  11
ENDBRANCH   9  10
ENDBRANCH   8   9
ENDBRANCH   7   8
ENDBRANCH   6   7
ENDBRANCH   5   6
ENDBRANCH   4   5
ENDBRANCH   3   4
ENDBRANCH   2   3
TORSDOF 22
ENDMDL
MODEL      316
REMARK 921   NORMALIZED FREE ENERGY PREDICTED BY IDOCK:   -3.41 KCAL/MOL
REMARK 922        TOTAL FREE ENERGY PREDICTED BY IDOCK:  -11.40 KCAL/MOL
REMARK 923 INTER-LIGAND FREE ENERGY PREDICTED BY IDOCK:   -8.38 KCAL/MOL
REMARK 924 INTRA-LIGAND FREE ENERGY PREDICTED BY IDOCK:   -3.03 KCAL/MOL
REMARK 927      BINDING AFFINITY PREDICTED BY RF-SCORE:    0.00 PKD
ROOT
HETATM    1  C   UNL     1      -8.438   4.681  62.953  1.00  0.00    -0.110 C  
HETATM    2  C   UNL     1      -8.361   3.962  64.290  1.00  0.00    -0.091 C  
ENDROOT
BRANCH   2   3
HETATM    3  C   UNL     1      -7.344   4.632  65.209  1.00  0.00    -0.076 C  
BRANCH   3   4
HETATM    4  C   UNL     1      -6.646   5.803  64.523  1.00  0.00    -0.045 C  
BRANCH   4   5
HETATM    5  C   UNL     1      -6.770   7.076  65.363  1.00  0.00    -0.051 C  
BRANCH   5   6
HETATM    6  C   UNL     1      -5.657   8.055  65.015  1.00  0.00    -0.044 C  
BRANCH   6   7
HETATM    7  C   UNL     1      -6.190   9.448  64.674  1.00  0.00    -0.078 C  
BRANCH   7   8
HETATM    8  C   UNL     1      -7.484   9.290  63.884  1.00  0.00    -0.110 C  
BRANCH   8   9
HETATM    9  C   UNL     1      -8.666  10.056  64.470  1.00  0.00    -0.214 C  
BRANCH   9  10
HETATM   10  C   UNL     1      -8.191  10.777  65.735  1.00  0.00    -0.146 C  
BRANCH  10  11
HETATM   11  C   UNL     1      -9.288  11.537  66.465  1.00  0.00    -0.210 C  
BRANCH  11  12
HETATM   12  C   UNL     1      -8.982  11.954  67.915  1.00  0.00    -0.179 C  
BRANCH  12  13
HETATM   13  C   UNL     1      -9.030  13.474  68.189  1.00  0.00    -0.187 C  
BRANCH  13  14
HETATM   14  C   UNL     1     -10.414  14.107  68.002  1.00  0.00    -0.240 C  
HETATM   15  O   UNL     1     -10.350  15.398  67.332  1.00  0.00    -0.253 OA 
HETATM   16  O   UNL     1     -11.126  17.236  68.485  1.00  0.00    -0.226 OA 
HETATM   17  C   UNL     1     -11.028  14.796  69.253  1.00  0.00    -0.275 C  
HETATM   18  C   UNL     1     -10.886  16.057  68.382  1.00  0.00    -0.310 C  
BRANCH  17  19
HETATM   19  C   UNL     1     -12.465  14.495  69.665  1.00  0.00    -0.208 C  
BRANCH  19  20
HETATM   20  C   UNL     1     -12.493  13.567  70.876  1.00  0.00    -0.448 C  
BRANCH  20  21
HETATM   21  C   UNL     1     -13.816  13.682  71.638  1.00  0.00    -0.256 C  
BRANCH  21  22
HETATM   22  C   UNL     1     -14.042  15.109  72.140  1.00  0.00    -0.654 C  
BRANCH  22  23
HETATM   23  C   UNL     1     -13.158  15.435  73.344  1.00  0.00    -0.633 C  
HETATM   24  C   UNL     1     -12.070  16.433  72.972  1.00  0.00    -0.577 C  
ENDBRANCH  22  23
ENDBRANCH  21  22
ENDBRANCH  20  21
ENDBRANCH  19  20
ENDBRANCH  17  19
ENDBRANCH  13  14
ENDBRANCH  12  13
BRANCH  12  25
HETATM   25  O   UNL     1      -9.902  11.322  68.835  1.00  0.00    -0.198 OA 
BRANCH  25  26
HETATM   26  C   UNL     1      -9.447  10.247  69.536  1.00  0.00    -0.185 C  
HETATM   27  O   UNL     1      -8.378  10.174  70.132  1.00  0.00    -0.125 OA 
BRANCH  26  28
HETATM   28  C   UNL     1     -10.467   9.112  69.513  1.00  0.00    -0.219 C  
BRANCH  28  29
HETATM   29  C   UNL     1     -10.571   8.463  68.123  1.00  0.00    -0.175 C  
HETATM   30  C   UNL     1     -11.083   6.018  68.772  1.00  0.00    -0.329 C  
HETATM   31  C   UNL     1     -10.142   6.570  66.538  1.00  0.00    -0.144 C  
HETATM   32  C   UNL     1     -10.162   6.976  68.015  1.00  0.00    -0.217 C  
ENDBRANCH  28  29
BRANCH  28  33
HETATM   33  N   UNL     1     -11.746   9.618  70.009  1.00  0.00    -0.443 N  
HETATM   34  C   UNL     1     -12.140   9.480  71.309  1.00  0.00    -0.360 C  
HETATM   35  O   UNL     1     -11.515   8.895  72.180  1.00  0.00    -0.362 OA 
HETATM   36  H   UNL     1     -12.369  10.094  69.356  1.00  0.00     0.000 HD 
ENDBRANCH  28  33
ENDBRANCH  26  28
ENDBRANCH  25  26
ENDBRANCH  12  25
ENDBRANCH  11  12
ENDBRANCH  10  11
ENDBRANCH   9  10
ENDBRANCH   8   9
ENDBRANCH   7   8
ENDBRANCH   6   7
ENDBRANCH   5   6
ENDBRANCH   4   5
ENDBRANCH   3   4
ENDBRANCH   2   3
TORSDOF 22
ENDMDL
MODEL      317
REMARK 921   NORMALIZED FREE ENERGY PREDICTED BY IDOCK:   -3.40 KCAL/MOL
REMARK 922        TOTAL FREE ENERGY PREDICTED BY IDOCK:  -11.38 KCAL/MOL
REMARK 923 INTER-LIGAND FREE ENERGY PREDICTED BY IDOCK:   -9.07 KCAL/MOL
REMARK 924 INTRA-LIGAND FREE ENERGY PREDICTED BY IDOCK:   -2.31 KCAL/MOL
REMARK 927      BINDING AFFINITY PREDICTED BY RF-SCORE:    0.00 PKD
ROOT
HETATM    1  C   UNL     1      -9.919   3.611  74.549  1.00  0.00    -0.197 C  
HETATM    2  C   UNL     1     -10.893   3.550  73.385  1.00  0.00    -0.312 C  
ENDROOT
BRANCH   2   3
HETATM    3  C   UNL     1     -11.511   4.920  73.121  1.00  0.00    -0.362 C  
BRANCH   3   4
HETATM    4  C   UNL     1     -10.860   5.614  71.929  1.00  0.00    -0.302 C  
BRANCH   4   5
HETATM    5  C   UNL     1     -11.713   6.792  71.454  1.00  0.00    -0.371 C  
BRANCH   5   6
HETATM    6  C   UNL     1     -11.445   8.025  72.307  1.00  0.00    -0.419 C  
BRANCH   6   7
HETATM    7  C   UNL     1     -10.538   9.035  71.602  1.00  0.00    -0.434 C  
BRANCH   7   8
HETATM    8  C   UNL     1     -10.522   8.715  70.112  1.00  0.00    -0.228 C  
BRANCH   8   9
HETATM    9  C   UNL     1     -10.772   9.922  69.215  1.00  0.00    -0.247 C  
BRANCH   9  10
HETATM   10  C   UNL     1     -10.775   9.446  67.759  1.00  0.00    -0.290 C  
BRANCH  10  11
HETATM   11  C   UNL     1      -9.678  10.059  66.903  1.00  0.00    -0.237 C  
BRANCH  11  12
HETATM   12  C   UNL     1      -9.569   9.541  65.457  1.00  0.00    -0.279 C  
BRANCH  12  13
HETATM   13  C   UNL     1     -10.017  10.537  64.364  1.00  0.00    -0.410 C  
BRANCH  13  14
HETATM   14  C   UNL     1     -11.150  11.477  64.790  1.00  0.00    -0.233 C  
HETATM   15  O   UNL     1     -12.205  11.568  63.790  1.00  0.00    -0.258 OA 
HETATM   16  O   UNL     1     -12.619  13.638  62.865  1.00  0.00    -0.621 OA 
HETATM   17  C   UNL     1     -10.877  12.998  64.629  1.00  0.00    -0.373 C  
HETATM   18  C   UNL     1     -12.023  12.895  63.606  1.00  0.00    -0.541 C  
BRANCH  17  19
HETATM   19  C   UNL     1     -11.169  13.956  65.779  1.00  0.00    -0.303 C  
BRANCH  19  20
HETATM   20  C   UNL     1     -11.191  13.206  67.108  1.00  0.00    -0.326 C  
BRANCH  20  21
HETATM   21  C   UNL     1     -11.761  14.077  68.232  1.00  0.00    -0.392 C  
BRANCH  21  22
HETATM   22  C   UNL     1     -10.699  15.029  68.785  1.00  0.00    -0.241 C  
BRANCH  22  23
HETATM   23  C   UNL     1     -11.267  16.425  69.043  1.00  0.00    -0.291 C  
HETATM   24  C   UNL     1     -10.318  17.504  68.540  1.00  0.00    -0.380 C  
ENDBRANCH  22  23
ENDBRANCH  21  22
ENDBRANCH  20  21
ENDBRANCH  19  20
ENDBRANCH  17  19
ENDBRANCH  13  14
ENDBRANCH  12  13
BRANCH  12  25
HETATM   25  O   UNL     1      -8.210   9.152  65.153  1.00  0.00    -0.129 OA 
BRANCH  25  26
HETATM   26  C   UNL     1      -7.610   8.261  65.990  1.00  0.00    -0.078 C  
HETATM   27  O   UNL     1      -6.746   8.520  66.821  1.00  0.00    -0.060 OA 
BRANCH  26  28
HETATM   28  C   UNL     1      -8.172   6.857  65.782  1.00  0.00    -0.132 C  
BRANCH  28  29
HETATM   29  C   UNL     1      -8.803   6.296  67.067  1.00  0.00    -0.108 C  
HETATM   30  C   UNL     1      -6.691   5.590  68.371  1.00  0.00    -0.054 C  
HETATM   31  C   UNL     1      -8.908   4.605  68.912  1.00  0.00    -0.128 C  
HETATM   32  C   UNL     1      -8.036   5.161  67.783  1.00  0.00    -0.099 C  
ENDBRANCH  28  29
BRANCH  28  33
HETATM   33  N   UNL     1      -7.116   6.004  65.240  1.00  0.00    -0.063 N  
HETATM   34  C   UNL     1      -7.275   5.267  64.101  1.00  0.00    -0.051 C  
HETATM   35  O   UNL     1      -8.300   5.194  63.442  1.00  0.00    -0.119 OA 
HETATM   36  H   UNL     1      -6.224   5.957  65.732  1.00  0.00     0.000 HD 
ENDBRANCH  28  33
ENDBRANCH  26  28
ENDBRANCH  25  26
ENDBRANCH  12  25
ENDBRANCH  11  12
ENDBRANCH  10  11
ENDBRANCH   9  10
ENDBRANCH   8   9
ENDBRANCH   7   8
ENDBRANCH   6   7
ENDBRANCH   5   6
ENDBRANCH   4   5
ENDBRANCH   3   4
ENDBRANCH   2   3
TORSDOF 22
ENDMDL
MODEL      318
REMARK 921   NORMALIZED FREE ENERGY PREDICTED BY IDOCK:   -3.39 KCAL/MOL
REMARK 922        TOTAL FREE ENERGY PREDICTED BY IDOCK:  -11.36 KCAL/MOL
REMARK 923 INTER-LIGAND FREE ENERGY PREDICTED BY IDOCK:   -7.84 KCAL/MOL
REMARK 924 INTRA-LIGAND FREE ENERGY PREDICTED BY IDOCK:   -3.52 KCAL/MOL
REMARK 927      BINDING AFFINITY PREDICTED BY RF-SCORE:    0.00 PKD
ROOT
HETATM    1  C   UNL     1     -11.700  13.003  63.809  1.00  0.00    -0.547 C  
HETATM    2  C   UNL     1     -10.685  13.852  64.557  1.00  0.00    -0.382 C  
ENDROOT
BRANCH   2   3
HETATM    3  C   UNL     1     -11.377  14.975  65.324  1.00  0.00    -0.349 C  
BRANCH   3   4
HETATM    4  C   UNL     1     -11.233  14.803  66.833  1.00  0.00    -0.347 C  
BRANCH   4   5
HETATM    5  C   UNL     1     -10.796  16.115  67.489  1.00  0.00    -0.284 C  
BRANCH   5   6
HETATM    6  C   UNL     1      -9.422  15.961  68.128  1.00  0.00    -0.203 C  
BRANCH   6   7
HETATM    7  C   UNL     1      -8.291  16.016  67.099  1.00  0.00    -0.228 C  
BRANCH   7   8
HETATM    8  C   UNL     1      -7.478  14.731  67.206  1.00  0.00    -0.173 C  
BRANCH   8   9
HETATM    9  C   UNL     1      -7.520  14.082  68.585  1.00  0.00    -0.125 C  
BRANCH   9  10
HETATM   10  C   UNL     1      -7.693  12.571  68.400  1.00  0.00    -0.136 C  
BRANCH  10  11
HETATM   11  C   UNL     1      -8.617  12.190  67.254  1.00  0.00    -0.180 C  
BRANCH  11  12
HETATM   12  C   UNL     1      -9.626  11.062  67.535  1.00  0.00    -0.164 C  
BRANCH  12  13
HETATM   13  C   UNL     1     -11.095  11.387  67.185  1.00  0.00    -0.366 C  
BRANCH  13  14
HETATM   14  C   UNL     1     -12.029  11.480  68.398  1.00  0.00    -0.198 C  
HETATM   15  O   UNL     1     -12.393  12.854  68.717  1.00  0.00    -0.086 OA 
HETATM   16  O   UNL     1     -11.787  13.663  70.788  1.00  0.00    -0.256 OA 
HETATM   17  C   UNL     1     -11.358  11.343  69.793  1.00  0.00    -0.332 C  
HETATM   18  C   UNL     1     -11.833  12.799  69.946  1.00  0.00    -0.301 C  
BRANCH  17  19
HETATM   19  C   UNL     1     -11.943  10.396  70.835  1.00  0.00    -0.478 C  
BRANCH  19  20
HETATM   20  C   UNL     1     -10.977   9.250  71.122  1.00  0.00    -0.409 C  
BRANCH  20  21
HETATM   21  C   UNL     1     -11.602   7.893  70.785  1.00  0.00    -0.258 C  
BRANCH  21  22
HETATM   22  C   UNL     1     -11.993   7.136  72.056  1.00  0.00    -0.332 C  
BRANCH  22  23
HETATM   23  C   UNL     1     -10.768   6.730  72.875  1.00  0.00    -0.291 C  
HETATM   24  C   UNL     1     -10.630   5.215  72.941  1.00  0.00    -0.280 C  
ENDBRANCH  22  23
ENDBRANCH  21  22
ENDBRANCH  20  21
ENDBRANCH  19  20
ENDBRANCH  17  19
ENDBRANCH  13  14
ENDBRANCH  12  13
BRANCH  12  25
HETATM   25  O   UNL     1      -9.269   9.861  66.813  1.00  0.00    -0.144 OA 
BRANCH  25  26
HETATM   26  C   UNL     1      -9.862   8.697  67.198  1.00  0.00    -0.207 C  
HETATM   27  O   UNL     1     -10.934   8.265  66.790  1.00  0.00    -0.047 OA 
BRANCH  26  28
HETATM   28  C   UNL     1      -8.998   7.957  68.215  1.00  0.00    -0.132 C  
BRANCH  28  29
HETATM   29  C   UNL     1      -7.906   8.863  68.808  1.00  0.00    -0.101 C  
HETATM   30  C   UNL     1      -7.364   7.596  70.990  1.00  0.00    -0.070 C  
HETATM   31  C   UNL     1      -6.806  10.007  70.746  1.00  0.00     0.016 C  
HETATM   32  C   UNL     1      -7.803   8.914  70.349  1.00  0.00    -0.104 C  
ENDBRANCH  28  29
BRANCH  28  33
HETATM   33  N   UNL     1      -8.465   6.748  67.588  1.00  0.00    -0.122 N  
HETATM   34  C   UNL     1      -8.797   5.491  68.007  1.00  0.00    -0.105 C  
HETATM   35  O   UNL     1      -9.520   5.230  68.956  1.00  0.00    -0.120 OA 
HETATM   36  H   UNL     1      -7.818   6.848  66.805  1.00  0.00     0.000 HD 
ENDBRANCH  28  33
ENDBRANCH  26  28
ENDBRANCH  25  26
ENDBRANCH  12  25
ENDBRANCH  11  12
ENDBRANCH  10  11
ENDBRANCH   9  10
ENDBRANCH   8   9
ENDBRANCH   7   8
ENDBRANCH   6   7
ENDBRANCH   5   6
ENDBRANCH   4   5
ENDBRANCH   3   4
ENDBRANCH   2   3
TORSDOF 22
ENDMDL
MODEL      319
REMARK 921   NORMALIZED FREE ENERGY PREDICTED BY IDOCK:   -3.38 KCAL/MOL
REMARK 922        TOTAL FREE ENERGY PREDICTED BY IDOCK:  -11.34 KCAL/MOL
REMARK 923 INTER-LIGAND FREE ENERGY PREDICTED BY IDOCK:   -8.57 KCAL/MOL
REMARK 924 INTRA-LIGAND FREE ENERGY PREDICTED BY IDOCK:   -2.76 KCAL/MOL
REMARK 927      BINDING AFFINITY PREDICTED BY RF-SCORE:    0.00 PKD
ROOT
HETATM    1  C   UNL     1     -10.283  19.900  68.446  1.00  0.00    -0.557 C  
HETATM    2  C   UNL     1     -10.833  19.703  67.043  1.00  0.00    -0.518 C  
ENDROOT
BRANCH   2   3
HETATM    3  C   UNL     1      -9.845  18.929  66.176  1.00  0.00    -0.346 C  
BRANCH   3   4
HETATM    4  C   UNL     1      -9.413  17.624  66.837  1.00  0.00    -0.278 C  
BRANCH   4   5
HETATM    5  C   UNL     1     -10.452  16.526  66.598  1.00  0.00    -0.266 C  
BRANCH   5   6
HETATM    6  C   UNL     1     -11.099  16.108  67.912  1.00  0.00    -0.293 C  
BRANCH   6   7
HETATM    7  C   UNL     1     -10.781  14.658  68.284  1.00  0.00    -0.240 C  
BRANCH   7   8
HETATM    8  C   UNL     1     -11.785  13.748  67.586  1.00  0.00    -0.402 C  
BRANCH   8   9
HETATM    9  C   UNL     1     -11.162  12.513  66.944  1.00  0.00    -0.354 C  
BRANCH   9  10
HETATM   10  C   UNL     1     -11.381  11.322  67.883  1.00  0.00    -0.367 C  
BRANCH  10  11
HETATM   11  C   UNL     1     -10.202  10.364  67.956  1.00  0.00    -0.199 C  
BRANCH  11  12
HETATM   12  C   UNL     1      -8.881  10.857  67.337  1.00  0.00    -0.133 C  
BRANCH  12  13
HETATM   13  C   UNL     1      -7.753  11.163  68.347  1.00  0.00    -0.125 C  
BRANCH  13  14
HETATM   14  C   UNL     1      -7.956  10.537  69.731  1.00  0.00     0.002 C  
HETATM   15  O   UNL     1      -6.775  10.656  70.575  1.00  0.00    -0.312 OA 
HETATM   16  O   UNL     1      -5.781   8.707  71.299  1.00  0.00    -0.034 OA 
HETATM   17  C   UNL     1      -7.843   8.988  69.807  1.00  0.00    -0.086 C  
HETATM   18  C   UNL     1      -6.624   9.318  70.687  1.00  0.00    -0.079 C  
BRANCH  17  19
HETATM   19  C   UNL     1      -8.915   8.176  70.526  1.00  0.00    -0.145 C  
BRANCH  19  20
HETATM   20  C   UNL     1      -9.878   9.098  71.269  1.00  0.00    -0.363 C  
BRANCH  20  21
HETATM   21  C   UNL     1     -10.850   8.302  72.145  1.00  0.00    -0.390 C  
BRANCH  21  22
HETATM   22  C   UNL     1     -10.496   6.814  72.151  1.00  0.00    -0.231 C  
BRANCH  22  23
HETATM   23  C   UNL     1     -11.696   5.946  72.528  1.00  0.00    -0.288 C  
HETATM   24  C   UNL     1     -11.253   4.679  73.247  1.00  0.00    -0.411 C  
ENDBRANCH  22  23
ENDBRANCH  21  22
ENDBRANCH  20  21
ENDBRANCH  19  20
ENDBRANCH  17  19
ENDBRANCH  13  14
ENDBRANCH  12  13
BRANCH  12  25
HETATM   25  O   UNL     1      -8.364   9.890  66.394  1.00  0.00    -0.123 OA 
BRANCH  25  26
HETATM   26  C   UNL     1      -9.258   9.279  65.568  1.00  0.00    -0.231 C  
HETATM   27  O   UNL     1     -10.091   9.842  64.866  1.00  0.00    -0.268 OA 
BRANCH  26  28
HETATM   28  C   UNL     1      -9.084   7.764  65.603  1.00  0.00     0.064 C  
BRANCH  28  29
HETATM   29  C   UNL     1      -9.421   7.179  66.983  1.00  0.00    -0.192 C  
HETATM   30  C   UNL     1     -10.659   5.019  66.299  1.00  0.00    -0.332 C  
HETATM   31  C   UNL     1     -10.979   6.008  68.558  1.00  0.00    -0.350 C  
HETATM   32  C   UNL     1     -10.710   6.331  67.085  1.00  0.00    -0.432 C  
ENDBRANCH  28  29
BRANCH  28  33
HETATM   33  N   UNL     1      -7.731   7.436  65.154  1.00  0.00    -0.104 N  
HETATM   34  C   UNL     1      -7.414   7.252  63.838  1.00  0.00    -0.100 C  
HETATM   35  O   UNL     1      -8.204   7.292  62.907  1.00  0.00    -0.093 OA 
HETATM   36  H   UNL     1      -6.994   7.341  65.853  1.00  0.00     0.000 HD 
ENDBRANCH  28  33
ENDBRANCH  26  28
ENDBRANCH  25  26
ENDBRANCH  12  25
ENDBRANCH  11  12
ENDBRANCH  10  11
ENDBRANCH   9  10
ENDBRANCH   8   9
ENDBRANCH   7   8
ENDBRANCH   6   7
ENDBRANCH   5   6
ENDBRANCH   4   5
ENDBRANCH   3   4
ENDBRANCH   2   3
TORSDOF 22
ENDMDL
MODEL      320
REMARK 921   NORMALIZED FREE ENERGY PREDICTED BY IDOCK:   -3.37 KCAL/MOL
REMARK 922        TOTAL FREE ENERGY PREDICTED BY IDOCK:  -11.32 KCAL/MOL
REMARK 923 INTER-LIGAND FREE ENERGY PREDICTED BY IDOCK:   -7.96 KCAL/MOL
REMARK 924 INTRA-LIGAND FREE ENERGY PREDICTED BY IDOCK:   -3.36 KCAL/MOL
REMARK 927      BINDING AFFINITY PREDICTED BY RF-SCORE:    0.00 PKD
ROOT
HETATM    1  C   UNL     1     -10.465   5.168  67.760  1.00  0.00    -0.112 C  
HETATM    2  C   UNL     1      -9.444   4.108  67.381  1.00  0.00    -0.223 C  
ENDROOT
BRANCH   2   3
HETATM    3  C   UNL     1      -8.560   3.754  68.574  1.00  0.00    -0.120 C  
BRANCH   3   4
HETATM    4  C   UNL     1      -9.166   4.234  69.889  1.00  0.00    -0.208 C  
BRANCH   4   5
HETATM    5  C   UNL     1      -8.185   5.137  70.640  1.00  0.00    -0.107 C  
BRANCH   5   6
HETATM    6  C   UNL     1      -6.837   5.168  69.932  1.00  0.00    -0.052 C  
BRANCH   6   7
HETATM    7  C   UNL     1      -6.471   6.568  69.437  1.00  0.00    -0.043 C  
BRANCH   7   8
HETATM    8  C   UNL     1      -7.756   7.363  69.237  1.00  0.00    -0.107 C  
BRANCH   8   9
HETATM    9  C   UNL     1      -7.882   8.003  67.858  1.00  0.00    -0.126 C  
BRANCH   9  10
HETATM   10  C   UNL     1      -9.319   8.508  67.694  1.00  0.00    -0.157 C  
BRANCH  10  11
HETATM   11  C   UNL     1      -9.424   9.999  67.416  1.00  0.00    -0.176 C  
BRANCH  11  12
HETATM   12  C   UNL     1      -9.189  10.936  68.615  1.00  0.00    -0.187 C  
BRANCH  12  13
HETATM   13  C   UNL     1      -7.886  11.764  68.561  1.00  0.00    -0.144 C  
BRANCH  13  14
HETATM   14  C   UNL     1      -8.020  13.107  67.831  1.00  0.00    -0.158 C  
HETATM   15  O   UNL     1      -6.784  13.509  67.174  1.00  0.00    -0.165 OA 
HETATM   16  O   UNL     1      -5.808  15.482  67.856  1.00  0.00    -0.127 OA 
HETATM   17  C   UNL     1      -7.951  14.380  68.720  1.00  0.00    -0.133 C  
HETATM   18  C   UNL     1      -6.668  14.637  67.909  1.00  0.00    -0.162 C  
BRANCH  17  19
HETATM   19  C   UNL     1      -9.000  15.477  68.569  1.00  0.00    -0.191 C  
BRANCH  19  20
HETATM   20  C   UNL     1      -9.427  15.614  67.110  1.00  0.00    -0.226 C  
BRANCH  20  21
HETATM   21  C   UNL     1     -10.371  16.803  66.913  1.00  0.00    -0.294 C  
BRANCH  21  22
HETATM   22  C   UNL     1     -10.466  17.649  68.184  1.00  0.00    -0.386 C  
BRANCH  22  23
HETATM   23  C   UNL     1      -9.692  18.961  68.051  1.00  0.00    -0.386 C  
HETATM   24  C   UNL     1     -10.373  19.903  67.068  1.00  0.00    -0.592 C  
ENDBRANCH  22  23
ENDBRANCH  21  22
ENDBRANCH  20  21
ENDBRANCH  19  20
ENDBRANCH  17  19
ENDBRANCH  13  14
ENDBRANCH  12  13
BRANCH  12  25
HETATM   25  O   UNL     1     -10.285  11.869  68.759  1.00  0.00    -0.207 OA 
BRANCH  25  26
HETATM   26  C   UNL     1     -11.521  11.351  69.003  1.00  0.00    -0.300 C  
HETATM   27  O   UNL     1     -12.344  11.019  68.157  1.00  0.00    -0.402 OA 
BRANCH  26  28
HETATM   28  C   UNL     1     -11.764  11.207  70.503  1.00  0.00    -0.293 C  
BRANCH  28  29
HETATM   29  C   UNL     1     -12.139   9.768  70.888  1.00  0.00    -0.407 C  
HETATM   30  C   UNL     1      -9.833   8.843  71.588  1.00  0.00    -0.387 C  
HETATM   31  C   UNL     1     -11.673   7.306  70.928  1.00  0.00    -0.348 C  
HETATM   32  C   UNL     1     -11.055   8.685  70.681  1.00  0.00    -0.282 C  
ENDBRANCH  28  29
BRANCH  28  33
HETATM   33  N   UNL     1     -12.764  12.192  70.914  1.00  0.00    -0.249 N  
HETATM   34  C   UNL     1     -12.513  13.534  70.935  1.00  0.00    -0.369 C  
HETATM   35  O   UNL     1     -11.443  14.059  70.668  1.00  0.00    -0.135 OA 
HETATM   36  H   UNL     1     -13.688  11.862  71.195  1.00  0.00     0.000 HD 
ENDBRANCH  28  33
ENDBRANCH  26  28
ENDBRANCH  25  26
ENDBRANCH  12  25
ENDBRANCH  11  12
ENDBRANCH  10  11
ENDBRANCH   9  10
ENDBRANCH   8   9
ENDBRANCH   7   8
ENDBRANCH   6   7
ENDBRANCH   5   6
ENDBRANCH   4   5
ENDBRANCH   3   4
ENDBRANCH   2   3
TORSDOF 22
ENDMDL
MODEL      321
REMARK 921   NORMALIZED FREE ENERGY PREDICTED BY IDOCK:   -3.36 KCAL/MOL
REMARK 922        TOTAL FREE ENERGY PREDICTED BY IDOCK:  -11.31 KCAL/MOL
REMARK 923 INTER-LIGAND FREE ENERGY PREDICTED BY IDOCK:   -8.63 KCAL/MOL
REMARK 924 INTRA-LIGAND FREE ENERGY PREDICTED BY IDOCK:   -2.67 KCAL/MOL
REMARK 927      BINDING AFFINITY PREDICTED BY RF-SCORE:    0.00 PKD
ROOT
HETATM    1  C   UNL     1      -8.717  18.239  68.416  1.00  0.00    -0.325 C  
HETATM    2  C   UNL     1      -9.421  17.262  67.489  1.00  0.00    -0.245 C  
ENDROOT
BRANCH   2   3
HETATM    3  C   UNL     1     -10.201  18.006  66.408  1.00  0.00    -0.393 C  
BRANCH   3   4
HETATM    4  C   UNL     1     -10.729  17.056  65.336  1.00  0.00    -0.126 C  
BRANCH   4   5
HETATM    5  C   UNL     1     -10.647  15.604  65.811  1.00  0.00    -0.374 C  
BRANCH   5   6
HETATM    6  C   UNL     1     -11.481  14.701  64.912  1.00  0.00    -0.401 C  
BRANCH   6   7
HETATM    7  C   UNL     1     -12.605  13.996  65.674  1.00  0.00    -0.542 C  
BRANCH   7   8
HETATM    8  C   UNL     1     -12.077  13.581  67.042  1.00  0.00    -0.401 C  
BRANCH   8   9
HETATM    9  C   UNL     1     -11.315  12.260  67.038  1.00  0.00    -0.395 C  
BRANCH   9  10
HETATM   10  C   UNL     1     -10.915  11.933  68.480  1.00  0.00    -0.277 C  
BRANCH  10  11
HETATM   11  C   UNL     1      -9.487  11.430  68.629  1.00  0.00    -0.168 C  
BRANCH  11  12
HETATM   12  C   UNL     1      -9.320   9.964  69.066  1.00  0.00    -0.174 C  
BRANCH  12  13
HETATM   13  C   UNL     1     -10.610   9.114  69.033  1.00  0.00    -0.219 C  
BRANCH  13  14
HETATM   14  C   UNL     1     -10.639   7.967  70.049  1.00  0.00    -0.242 C  
HETATM   15  O   UNL     1     -11.771   7.073  69.849  1.00  0.00    -0.189 OA 
HETATM   16  O   UNL     1     -13.289   6.875  71.571  1.00  0.00    -0.329 OA 
HETATM   17  C   UNL     1     -11.176   8.317  71.465  1.00  0.00    -0.316 C  
HETATM   18  C   UNL     1     -12.289   7.329  71.071  1.00  0.00    -0.297 C  
BRANCH  17  19
HETATM   19  C   UNL     1     -10.397   7.897  72.706  1.00  0.00    -0.399 C  
BRANCH  19  20
HETATM   20  C   UNL     1      -9.419   6.775  72.371  1.00  0.00    -0.153 C  
BRANCH  20  21
HETATM   21  C   UNL     1      -7.981   7.294  72.281  1.00  0.00    -0.103 C  
BRANCH  21  22
HETATM   22  C   UNL     1      -7.184   6.528  71.224  1.00  0.00    -0.079 C  
BRANCH  22  23
HETATM   23  C   UNL     1      -7.963   5.329  70.682  1.00  0.00    -0.103 C  
HETATM   24  C   UNL     1      -8.091   5.398  69.166  1.00  0.00    -0.094 C  
ENDBRANCH  22  23
ENDBRANCH  21  22
ENDBRANCH  20  21
ENDBRANCH  19  20
ENDBRANCH  17  19
ENDBRANCH  13  14
ENDBRANCH  12  13
BRANCH  12  25
HETATM   25  O   UNL     1      -8.341   9.291  68.241  1.00  0.00    -0.118 OA 
BRANCH  25  26
HETATM   26  C   UNL     1      -8.000   9.884  67.063  1.00  0.00    -0.109 C  
HETATM   27  O   UNL     1      -7.356  10.921  66.939  1.00  0.00    -0.113 OA 
BRANCH  26  28
HETATM   28  C   UNL     1      -8.508   9.071  65.877  1.00  0.00    -0.140 C  
BRANCH  28  29
HETATM   29  C   UNL     1      -9.726   9.730  65.209  1.00  0.00    -0.371 C  
HETATM   30  C   UNL     1      -8.849  10.034  62.802  1.00  0.00    -0.242 C  
HETATM   31  C   UNL     1     -10.745  11.402  63.646  1.00  0.00    -0.470 C  
HETATM   32  C   UNL     1      -9.441  10.703  64.043  1.00  0.00    -0.329 C  
ENDBRANCH  28  29
BRANCH  28  33
HETATM   33  N   UNL     1      -8.766   7.702  66.321  1.00  0.00    -0.146 N  
HETATM   34  C   UNL     1      -8.412   6.608  65.584  1.00  0.00    -0.144 C  
HETATM   35  O   UNL     1      -7.894   6.636  64.478  1.00  0.00    -0.107 OA 
HETATM   36  H   UNL     1      -9.230   7.558  67.218  1.00  0.00     0.000 HD 
ENDBRANCH  28  33
ENDBRANCH  26  28
ENDBRANCH  25  26
ENDBRANCH  12  25
ENDBRANCH  11  12
ENDBRANCH  10  11
ENDBRANCH   9  10
ENDBRANCH   8   9
ENDBRANCH   7   8
ENDBRANCH   6   7
ENDBRANCH   5   6
ENDBRANCH   4   5
ENDBRANCH   3   4
ENDBRANCH   2   3
TORSDOF 22
ENDMDL
MODEL      322
REMARK 921   NORMALIZED FREE ENERGY PREDICTED BY IDOCK:   -3.36 KCAL/MOL
REMARK 922        TOTAL FREE ENERGY PREDICTED BY IDOCK:  -11.30 KCAL/MOL
REMARK 923 INTER-LIGAND FREE ENERGY PREDICTED BY IDOCK:   -8.40 KCAL/MOL
REMARK 924 INTRA-LIGAND FREE ENERGY PREDICTED BY IDOCK:   -2.90 KCAL/MOL
REMARK 927      BINDING AFFINITY PREDICTED BY RF-SCORE:    0.00 PKD
ROOT
HETATM    1  C   UNL     1      -9.608   4.665  70.316  1.00  0.00    -0.270 C  
HETATM    2  C   UNL     1      -8.337   5.292  70.864  1.00  0.00    -0.116 C  
ENDROOT
BRANCH   2   3
HETATM    3  C   UNL     1      -8.537   5.753  72.305  1.00  0.00    -0.125 C  
BRANCH   3   4
HETATM    4  C   UNL     1      -8.519   7.274  72.420  1.00  0.00    -0.127 C  
BRANCH   4   5
HETATM    5  C   UNL     1      -7.413   7.872  71.548  1.00  0.00    -0.073 C  
BRANCH   5   6
HETATM    6  C   UNL     1      -7.844   9.220  70.987  1.00  0.00    -0.109 C  
BRANCH   6   7
HETATM    7  C   UNL     1      -6.653  10.118  70.646  1.00  0.00    -0.068 C  
BRANCH   7   8
HETATM    8  C   UNL     1      -6.438  10.085  69.137  1.00  0.00    -0.048 C  
BRANCH   8   9
HETATM    9  C   UNL     1      -5.524  11.189  68.616  1.00  0.00    -0.043 C  
BRANCH   9  10
HETATM   10  C   UNL     1      -6.090  12.536  69.075  1.00  0.00    -0.081 C  
BRANCH  10  11
HETATM   11  C   UNL     1      -6.246  13.556  67.957  1.00  0.00    -0.136 C  
BRANCH  11  12
HETATM   12  C   UNL     1      -7.679  14.040  67.668  1.00  0.00    -0.177 C  
BRANCH  12  13
HETATM   13  C   UNL     1      -8.777  13.424  68.562  1.00  0.00    -0.071 C  
BRANCH  13  14
HETATM   14  C   UNL     1      -9.452  12.181  67.971  1.00  0.00    -0.201 C  
HETATM   15  O   UNL     1      -9.555  12.241  66.519  1.00  0.00    -0.226 OA 
HETATM   16  O   UNL     1     -11.668  12.199  65.599  1.00  0.00    -0.375 OA 
HETATM   17  C   UNL     1     -11.002  12.129  68.070  1.00  0.00    -0.271 C  
HETATM   18  C   UNL     1     -10.906  12.191  66.535  1.00  0.00    -0.270 C  
BRANCH  17  19
HETATM   19  C   UNL     1     -11.695  10.873  68.589  1.00  0.00    -0.334 C  
BRANCH  19  20
HETATM   20  C   UNL     1     -12.053  11.028  70.064  1.00  0.00    -0.441 C  
BRANCH  20  21
HETATM   21  C   UNL     1     -11.346   9.977  70.925  1.00  0.00    -0.439 C  
BRANCH  21  22
HETATM   22  C   UNL     1     -12.350   9.187  71.766  1.00  0.00    -0.444 C  
BRANCH  22  23
HETATM   23  C   UNL     1     -12.306   7.692  71.447  1.00  0.00    -0.358 C  
HETATM   24  C   UNL     1     -11.407   7.413  70.251  1.00  0.00    -0.244 C  
ENDBRANCH  22  23
ENDBRANCH  21  22
ENDBRANCH  20  21
ENDBRANCH  19  20
ENDBRANCH  17  19
ENDBRANCH  13  14
ENDBRANCH  12  13
BRANCH  12  25
HETATM   25  O   UNL     1      -7.772  15.477  67.801  1.00  0.00    -0.123 OA 
BRANCH  25  26
HETATM   26  C   UNL     1      -8.807  16.100  67.171  1.00  0.00    -0.198 C  
HETATM   27  O   UNL     1      -9.180  15.893  66.022  1.00  0.00    -0.322 OA 
BRANCH  26  28
HETATM   28  C   UNL     1      -9.485  17.102  68.101  1.00  0.00    -0.269 C  
BRANCH  28  29
HETATM   29  C   UNL     1      -8.678  18.404  68.227  1.00  0.00    -0.321 C  
HETATM   30  C   UNL     1      -9.888  19.889  66.497  1.00  0.00    -0.567 C  
HETATM   31  C   UNL     1      -7.569  20.415  67.223  1.00  0.00    -0.371 C  
HETATM   32  C   UNL     1      -8.563  19.280  66.958  1.00  0.00    -0.307 C  
ENDBRANCH  28  29
BRANCH  28  33
HETATM   33  N   UNL     1      -9.737  16.455  69.387  1.00  0.00    -0.205 N  
HETATM   34  C   UNL     1     -10.955  15.940  69.728  1.00  0.00    -0.328 C  
HETATM   35  O   UNL     1     -11.964  15.996  69.043  1.00  0.00    -0.342 OA 
HETATM   36  H   UNL     1      -8.971  16.384  70.058  1.00  0.00     0.000 HD 
ENDBRANCH  28  33
ENDBRANCH  26  28
ENDBRANCH  25  26
ENDBRANCH  12  25
ENDBRANCH  11  12
ENDBRANCH  10  11
ENDBRANCH   9  10
ENDBRANCH   8   9
ENDBRANCH   7   8
ENDBRANCH   6   7
ENDBRANCH   5   6
ENDBRANCH   4   5
ENDBRANCH   3   4
ENDBRANCH   2   3
TORSDOF 22
ENDMDL
MODEL      323
REMARK 921   NORMALIZED FREE ENERGY PREDICTED BY IDOCK:   -3.36 KCAL/MOL
REMARK 922        TOTAL FREE ENERGY PREDICTED BY IDOCK:  -11.29 KCAL/MOL
REMARK 923 INTER-LIGAND FREE ENERGY PREDICTED BY IDOCK:   -7.33 KCAL/MOL
REMARK 924 INTRA-LIGAND FREE ENERGY PREDICTED BY IDOCK:   -3.96 KCAL/MOL
REMARK 927      BINDING AFFINITY PREDICTED BY RF-SCORE:    0.00 PKD
ROOT
HETATM    1  C   UNL     1     -12.078  14.179  69.788  1.00  0.00    -0.409 C  
HETATM    2  C   UNL     1     -11.960  15.596  69.252  1.00  0.00    -0.338 C  
ENDROOT
BRANCH   2   3
HETATM    3  C   UNL     1     -11.238  15.609  67.908  1.00  0.00    -0.328 C  
BRANCH   3   4
HETATM    4  C   UNL     1      -9.996  14.722  67.923  1.00  0.00    -0.213 C  
BRANCH   4   5
HETATM    5  C   UNL     1      -9.817  14.016  66.578  1.00  0.00    -0.298 C  
BRANCH   5   6
HETATM    6  C   UNL     1      -9.588  12.525  66.784  1.00  0.00    -0.231 C  
BRANCH   6   7
HETATM    7  C   UNL     1     -10.873  11.710  66.627  1.00  0.00    -0.327 C  
BRANCH   7   8
HETATM    8  C   UNL     1     -11.068  10.867  67.882  1.00  0.00    -0.362 C  
BRANCH   8   9
HETATM    9  C   UNL     1     -10.058   9.734  68.033  1.00  0.00    -0.204 C  
BRANCH   9  10
HETATM   10  C   UNL     1     -10.583   8.518  67.265  1.00  0.00    -0.315 C  
BRANCH  10  11
HETATM   11  C   UNL     1      -9.831   7.228  67.556  1.00  0.00    -0.198 C  
BRANCH  11  12
HETATM   12  C   UNL     1     -10.691   5.972  67.786  1.00  0.00    -0.289 C  
BRANCH  12  13
HETATM   13  C   UNL     1     -10.510   4.848  66.743  1.00  0.00    -0.237 C  
BRANCH  13  14
HETATM   14  C   UNL     1      -9.334   5.060  65.782  1.00  0.00    -0.160 C  
HETATM   15  O   UNL     1      -9.373   4.151  64.645  1.00  0.00    -0.148 OA 
HETATM   16  O   UNL     1      -7.605   2.696  64.383  1.00  0.00    -0.072 OA 
HETATM   17  C   UNL     1      -7.974   4.445  66.216  1.00  0.00    -0.099 C  
HETATM   18  C   UNL     1      -8.191   3.578  64.963  1.00  0.00    -0.094 C  
BRANCH  17  19
HETATM   19  C   UNL     1      -6.702   5.286  66.165  1.00  0.00    -0.057 C  
BRANCH  19  20
HETATM   20  C   UNL     1      -6.545   5.939  64.795  1.00  0.00    -0.042 C  
BRANCH  20  21
HETATM   21  C   UNL     1      -6.594   7.466  64.895  1.00  0.00    -0.043 C  
BRANCH  21  22
HETATM   22  C   UNL     1      -7.830   8.026  64.187  1.00  0.00    -0.141 C  
BRANCH  22  23
HETATM   23  C   UNL     1      -8.173   9.435  64.672  1.00  0.00    -0.148 C  
HETATM   24  C   UNL     1      -7.105   9.964  65.620  1.00  0.00    -0.112 C  
ENDBRANCH  22  23
ENDBRANCH  21  22
ENDBRANCH  20  21
ENDBRANCH  19  20
ENDBRANCH  17  19
ENDBRANCH  13  14
ENDBRANCH  12  13
BRANCH  12  25
HETATM   25  O   UNL     1     -10.423   5.398  69.087  1.00  0.00    -0.235 OA 
BRANCH  25  26
HETATM   26  C   UNL     1     -11.009   5.989  70.166  1.00  0.00    -0.359 C  
HETATM   27  O   UNL     1     -12.056   6.627  70.157  1.00  0.00    -0.323 OA 
BRANCH  26  28
HETATM   28  C   UNL     1     -10.196   5.738  71.432  1.00  0.00    -0.216 C  
BRANCH  28  29
HETATM   29  C   UNL     1      -8.955   6.642  71.506  1.00  0.00    -0.139 C  
HETATM   30  C   UNL     1     -10.052   8.921  72.021  1.00  0.00    -0.351 C  
HETATM   31  C   UNL     1      -7.771   8.800  71.038  1.00  0.00    -0.137 C  
HETATM   32  C   UNL     1      -9.142   8.119  71.088  1.00  0.00    -0.183 C  
ENDBRANCH  28  29
BRANCH  28  33
HETATM   33  N   UNL     1      -9.875   4.313  71.510  1.00  0.00    -0.184 N  
HETATM   34  C   UNL     1     -10.332   3.507  72.513  1.00  0.00    -0.122 C  
HETATM   35  O   UNL     1     -11.005   3.874  73.464  1.00  0.00    -0.215 OA 
HETATM   36  H   UNL     1      -9.285   3.904  70.784  1.00  0.00     0.000 HD 
ENDBRANCH  28  33
ENDBRANCH  26  28
ENDBRANCH  25  26
ENDBRANCH  12  25
ENDBRANCH  11  12
ENDBRANCH  10  11
ENDBRANCH   9  10
ENDBRANCH   8   9
ENDBRANCH   7   8
ENDBRANCH   6   7
ENDBRANCH   5   6
ENDBRANCH   4   5
ENDBRANCH   3   4
ENDBRANCH   2   3
TORSDOF 22
ENDMDL
MODEL      324
REMARK 921   NORMALIZED FREE ENERGY PREDICTED BY IDOCK:   -3.35 KCAL/MOL
REMARK 922        TOTAL FREE ENERGY PREDICTED BY IDOCK:  -11.27 KCAL/MOL
REMARK 923 INTER-LIGAND FREE ENERGY PREDICTED BY IDOCK:   -6.90 KCAL/MOL
REMARK 924 INTRA-LIGAND FREE ENERGY PREDICTED BY IDOCK:   -4.37 KCAL/MOL
REMARK 927      BINDING AFFINITY PREDICTED BY RF-SCORE:    0.00 PKD
ROOT
HETATM    1  C   UNL     1     -10.886  13.938  65.448  1.00  0.00    -0.321 C  
HETATM    2  C   UNL     1     -10.238  12.746  66.133  1.00  0.00    -0.286 C  
ENDROOT
BRANCH   2   3
HETATM    3  C   UNL     1     -11.293  11.848  66.772  1.00  0.00    -0.393 C  
BRANCH   3   4
HETATM    4  C   UNL     1     -10.861  11.360  68.151  1.00  0.00    -0.259 C  
BRANCH   4   5
HETATM    5  C   UNL     1     -11.043   9.846  68.273  1.00  0.00    -0.207 C  
BRANCH   5   6
HETATM    6  C   UNL     1     -10.367   9.131  67.110  1.00  0.00    -0.337 C  
BRANCH   6   7
HETATM    7  C   UNL     1     -10.679   7.634  67.084  1.00  0.00    -0.361 C  
BRANCH   7   8
HETATM    8  C   UNL     1      -9.376   6.870  66.880  1.00  0.00    -0.177 C  
BRANCH   8   9
HETATM    9  C   UNL     1      -8.124   7.685  67.188  1.00  0.00    -0.118 C  
BRANCH   9  10
HETATM   10  C   UNL     1      -7.273   6.896  68.188  1.00  0.00    -0.091 C  
BRANCH  10  11
HETATM   11  C   UNL     1      -6.215   7.730  68.894  1.00  0.00    -0.036 C  
BRANCH  11  12
HETATM   12  C   UNL     1      -6.658   8.451  70.180  1.00  0.00    -0.039 C  
BRANCH  12  13
HETATM   13  C   UNL     1      -7.430   9.772  69.964  1.00  0.00    -0.158 C  
BRANCH  13  14
HETATM   14  C   UNL     1      -6.686  10.807  69.112  1.00  0.00    -0.074 C  
HETATM   15  O   UNL     1      -6.729  12.141  69.693  1.00  0.00    -0.075 OA 
HETATM   16  O   UNL     1      -7.740  13.807  68.463  1.00  0.00    -0.131 OA 
HETATM   17  C   UNL     1      -7.442  11.337  67.861  1.00  0.00    -0.094 C  
HETATM   18  C   UNL     1      -7.381  12.667  68.633  1.00  0.00    -0.101 C  
BRANCH  17  19
HETATM   19  C   UNL     1      -6.743  11.383  66.506  1.00  0.00    -0.070 C  
BRANCH  19  20
HETATM   20  C   UNL     1      -6.645   9.984  65.905  1.00  0.00    -0.098 C  
BRANCH  20  21
HETATM   21  C   UNL     1      -6.911  10.003  64.397  1.00  0.00    -0.129 C  
BRANCH  21  22
HETATM   22  C   UNL     1      -8.402   9.831  64.098  1.00  0.00    -0.169 C  
BRANCH  22  23
HETATM   23  C   UNL     1      -8.820  10.595  62.841  1.00  0.00    -0.252 C  
HETATM   24  C   UNL     1     -10.194  11.228  63.016  1.00  0.00    -0.293 C  
ENDBRANCH  22  23
ENDBRANCH  21  22
ENDBRANCH  20  21
ENDBRANCH  19  20
ENDBRANCH  17  19
ENDBRANCH  13  14
ENDBRANCH  12  13
BRANCH  12  25
HETATM   25  O   UNL     1      -7.496   7.591  70.987  1.00  0.00    -0.071 OA 
BRANCH  25  26
HETATM   26  C   UNL     1      -8.191   8.170  72.006  1.00  0.00    -0.149 C  
HETATM   27  O   UNL     1      -7.710   8.818  72.929  1.00  0.00    -0.373 OA 
BRANCH  26  28
HETATM   28  C   UNL     1      -9.689   7.927  71.850  1.00  0.00    -0.177 C  
BRANCH  28  29
HETATM   29  C   UNL     1      -9.994   6.929  70.721  1.00  0.00    -0.201 C  
HETATM   30  C   UNL     1     -10.873   4.920  72.082  1.00  0.00    -0.136 C  
HETATM   31  C   UNL     1     -10.001   4.609  69.774  1.00  0.00    -0.295 C  
HETATM   32  C   UNL     1      -9.853   5.428  71.061  1.00  0.00    -0.246 C  
ENDBRANCH  28  29
BRANCH  28  33
HETATM   33  N   UNL     1     -10.358   9.215  71.675  1.00  0.00    -0.348 N  
HETATM   34  C   UNL     1     -11.702   9.380  71.854  1.00  0.00    -0.306 C  
HETATM   35  O   UNL     1     -12.494   8.490  72.127  1.00  0.00    -0.336 OA 
HETATM   36  H   UNL     1      -9.798  10.025  71.409  1.00  0.00     0.000 HD 
ENDBRANCH  28  33
ENDBRANCH  26  28
ENDBRANCH  25  26
ENDBRANCH  12  25
ENDBRANCH  11  12
ENDBRANCH  10  11
ENDBRANCH   9  10
ENDBRANCH   8   9
ENDBRANCH   7   8
ENDBRANCH   6   7
ENDBRANCH   5   6
ENDBRANCH   4   5
ENDBRANCH   3   4
ENDBRANCH   2   3
TORSDOF 22
ENDMDL
MODEL      325
REMARK 921   NORMALIZED FREE ENERGY PREDICTED BY IDOCK:   -3.33 KCAL/MOL
REMARK 922        TOTAL FREE ENERGY PREDICTED BY IDOCK:  -11.24 KCAL/MOL
REMARK 923 INTER-LIGAND FREE ENERGY PREDICTED BY IDOCK:   -7.83 KCAL/MOL
REMARK 924 INTRA-LIGAND FREE ENERGY PREDICTED BY IDOCK:   -3.41 KCAL/MOL
REMARK 927      BINDING AFFINITY PREDICTED BY RF-SCORE:    0.00 PKD
ROOT
HETATM    1  C   UNL     1      -7.364   4.973  72.201  1.00  0.00    -0.090 C  
HETATM    2  C   UNL     1      -8.764   5.074  71.620  1.00  0.00    -0.141 C  
ENDROOT
BRANCH   2   3
HETATM    3  C   UNL     1      -9.811   5.115  72.730  1.00  0.00    -0.186 C  
BRANCH   3   4
HETATM    4  C   UNL     1     -10.812   6.248  72.522  1.00  0.00    -0.273 C  
BRANCH   4   5
HETATM    5  C   UNL     1     -11.452   6.158  71.136  1.00  0.00    -0.314 C  
BRANCH   5   6
HETATM    6  C   UNL     1     -12.264   7.413  70.840  1.00  0.00    -0.265 C  
BRANCH   6   7
HETATM    7  C   UNL     1     -12.264   8.397  72.011  1.00  0.00    -0.419 C  
BRANCH   7   8
HETATM    8  C   UNL     1     -11.614   9.697  71.552  1.00  0.00    -0.451 C  
BRANCH   8   9
HETATM    9  C   UNL     1     -12.438  10.477  70.533  1.00  0.00    -0.433 C  
BRANCH   9  10
HETATM   10  C   UNL     1     -11.475  11.128  69.535  1.00  0.00    -0.374 C  
BRANCH  10  11
HETATM   11  C   UNL     1     -11.035  10.208  68.407  1.00  0.00    -0.293 C  
BRANCH  11  12
HETATM   12  C   UNL     1      -9.550   9.802  68.395  1.00  0.00    -0.148 C  
BRANCH  12  13
HETATM   13  C   UNL     1      -8.556  10.922  68.778  1.00  0.00    -0.159 C  
BRANCH  13  14
HETATM   14  C   UNL     1      -8.182  11.858  67.622  1.00  0.00    -0.148 C  
HETATM   15  O   UNL     1      -6.744  11.922  67.402  1.00  0.00    -0.099 OA 
HETATM   16  O   UNL     1      -5.721  13.973  67.645  1.00  0.00    -0.298 OA 
HETATM   17  C   UNL     1      -8.194  13.379  67.941  1.00  0.00    -0.162 C  
HETATM   18  C   UNL     1      -6.685  13.248  67.661  1.00  0.00    -0.166 C  
BRANCH  17  19
HETATM   19  C   UNL     1      -8.906  14.351  67.007  1.00  0.00    -0.256 C  
BRANCH  19  20
HETATM   20  C   UNL     1     -10.380  13.980  66.869  1.00  0.00    -0.269 C  
BRANCH  20  21
HETATM   21  C   UNL     1     -10.598  12.964  65.744  1.00  0.00    -0.293 C  
BRANCH  21  22
HETATM   22  C   UNL     1     -12.015  12.390  65.786  1.00  0.00    -0.437 C  
BRANCH  22  23
HETATM   23  C   UNL     1     -12.773  12.651  64.484  1.00  0.00    -0.439 C  
HETATM   24  C   UNL     1     -12.072  11.999  63.301  1.00  0.00    -0.509 C  
ENDBRANCH  22  23
ENDBRANCH  21  22
ENDBRANCH  20  21
ENDBRANCH  19  20
ENDBRANCH  17  19
ENDBRANCH  13  14
ENDBRANCH  12  13
BRANCH  12  25
HETATM   25  O   UNL     1      -9.314   8.693  69.293  1.00  0.00    -0.152 OA 
BRANCH  25  26
HETATM   26  C   UNL     1      -8.087   8.104  69.253  1.00  0.00    -0.117 C  
HETATM   27  O   UNL     1      -7.237   8.147  70.136  1.00  0.00    -0.054 OA 
BRANCH  26  28
HETATM   28  C   UNL     1      -7.893   7.340  67.947  1.00  0.00    -0.118 C  
BRANCH  28  29
HETATM   29  C   UNL     1      -8.281   5.859  68.085  1.00  0.00    -0.109 C  
HETATM   30  C   UNL     1      -8.547   5.199  65.604  1.00  0.00    -0.139 C  
HETATM   31  C   UNL     1      -9.629   3.861  67.399  1.00  0.00    -0.218 C  
HETATM   32  C   UNL     1      -9.197   5.272  66.987  1.00  0.00    -0.116 C  
ENDBRANCH  28  29
BRANCH  28  33
HETATM   33  N   UNL     1      -6.518   7.534  67.488  1.00  0.00    -0.056 N  
HETATM   34  C   UNL     1      -6.206   8.283  66.389  1.00  0.00    -0.049 C  
HETATM   35  O   UNL     1      -7.012   8.827  65.650  1.00  0.00    -0.077 OA 
HETATM   36  H   UNL     1      -5.761   7.092  68.010  1.00  0.00     0.000 HD 
ENDBRANCH  28  33
ENDBRANCH  26  28
ENDBRANCH  25  26
ENDBRANCH  12  25
ENDBRANCH  11  12
ENDBRANCH  10  11
ENDBRANCH   9  10
ENDBRANCH   8   9
ENDBRANCH   7   8
ENDBRANCH   6   7
ENDBRANCH   5   6
ENDBRANCH   4   5
ENDBRANCH   3   4
ENDBRANCH   2   3
TORSDOF 22
ENDMDL
MODEL      326
REMARK 921   NORMALIZED FREE ENERGY PREDICTED BY IDOCK:   -3.33 KCAL/MOL
REMARK 922        TOTAL FREE ENERGY PREDICTED BY IDOCK:  -11.23 KCAL/MOL
REMARK 923 INTER-LIGAND FREE ENERGY PREDICTED BY IDOCK:   -8.08 KCAL/MOL
REMARK 924 INTRA-LIGAND FREE ENERGY PREDICTED BY IDOCK:   -3.15 KCAL/MOL
REMARK 927      BINDING AFFINITY PREDICTED BY RF-SCORE:    0.00 PKD
ROOT
HETATM    1  C   UNL     1      -7.946   6.447  68.495  1.00  0.00    -0.106 C  
HETATM    2  C   UNL     1      -7.201   7.006  67.294  1.00  0.00    -0.089 C  
ENDROOT
BRANCH   2   3
HETATM    3  C   UNL     1      -5.944   7.751  67.733  1.00  0.00    -0.041 C  
BRANCH   3   4
HETATM    4  C   UNL     1      -6.181   8.564  69.002  1.00  0.00    -0.044 C  
BRANCH   4   5
HETATM    5  C   UNL     1      -5.498   9.930  68.907  1.00  0.00    -0.035 C  
BRANCH   5   6
HETATM    6  C   UNL     1      -6.525  11.050  69.014  1.00  0.00    -0.056 C  
BRANCH   6   7
HETATM    7  C   UNL     1      -7.146  11.403  67.661  1.00  0.00    -0.092 C  
BRANCH   7   8
HETATM    8  C   UNL     1      -6.874  12.875  67.373  1.00  0.00    -0.133 C  
BRANCH   8   9
HETATM    9  C   UNL     1      -6.361  13.659  68.577  1.00  0.00    -0.092 C  
BRANCH   9  10
HETATM   10  C   UNL     1      -7.264  14.880  68.775  1.00  0.00    -0.123 C  
BRANCH  10  11
HETATM   11  C   UNL     1      -8.749  14.552  68.824  1.00  0.00    -0.147 C  
BRANCH  11  12
HETATM   12  C   UNL     1      -9.702  15.607  68.235  1.00  0.00    -0.201 C  
BRANCH  12  13
HETATM   13  C   UNL     1     -10.827  16.082  69.182  1.00  0.00    -0.281 C  
BRANCH  13  14
HETATM   14  C   UNL     1     -12.023  15.127  69.272  1.00  0.00    -0.292 C  
HETATM   15  O   UNL     1     -13.154  15.716  69.975  1.00  0.00    -0.129 OA 
HETATM   16  O   UNL     1     -13.869  14.677  71.904  1.00  0.00    -0.374 OA 
HETATM   17  C   UNL     1     -11.936  14.019  70.358  1.00  0.00    -0.398 C  
HETATM   18  C   UNL     1     -13.138  14.779  70.948  1.00  0.00    -0.363 C  
BRANCH  17  19
HETATM   19  C   UNL     1     -12.245  12.569  70.000  1.00  0.00    -0.262 C  
BRANCH  19  20
HETATM   20  C   UNL     1     -11.857  12.279  68.554  1.00  0.00    -0.359 C  
BRANCH  20  21
HETATM   21  C   UNL     1     -10.586  11.429  68.475  1.00  0.00    -0.225 C  
BRANCH  21  22
HETATM   22  C   UNL     1     -10.902  10.007  68.005  1.00  0.00    -0.311 C  
BRANCH  22  23
HETATM   23  C   UNL     1     -10.567   8.968  69.075  1.00  0.00    -0.209 C  
HETATM   24  C   UNL     1      -9.578   9.525  70.090  1.00  0.00    -0.290 C  
ENDBRANCH  22  23
ENDBRANCH  21  22
ENDBRANCH  20  21
ENDBRANCH  19  20
ENDBRANCH  17  19
ENDBRANCH  13  14
ENDBRANCH  12  13
BRANCH  12  25
HETATM   25  O   UNL     1      -8.970  16.782  67.815  1.00  0.00    -0.212 OA 
BRANCH  25  26
HETATM   26  C   UNL     1      -8.907  17.037  66.478  1.00  0.00    -0.264 C  
HETATM   27  O   UNL     1      -9.226  16.263  65.582  1.00  0.00    -0.444 OA 
BRANCH  26  28
HETATM   28  C   UNL     1      -8.397  18.451  66.218  1.00  0.00    -0.207 C  
BRANCH  28  29
HETATM   29  C   UNL     1      -6.964  18.649  66.735  1.00  0.00    -0.218 C  
HETATM   30  C   UNL     1      -7.425  19.289  69.192  1.00  0.00    -0.324 C  
HETATM   31  C   UNL     1      -5.267  19.881  68.107  1.00  0.00    -0.194 C  
HETATM   32  C   UNL     1      -6.767  19.682  67.868  1.00  0.00    -0.275 C  
ENDBRANCH  28  29
BRANCH  28  33
HETATM   33  N   UNL     1      -9.350  19.406  66.782  1.00  0.00    -0.316 N  
HETATM   34  C   UNL     1     -10.533  19.716  66.174  1.00  0.00    -0.524 C  
HETATM   35  O   UNL     1     -10.908  19.285  65.095  1.00  0.00    -0.445 OA 
HETATM   36  H   UNL     1      -9.122  19.859  67.668  1.00  0.00     0.000 HD 
ENDBRANCH  28  33
ENDBRANCH  26  28
ENDBRANCH  25  26
ENDBRANCH  12  25
ENDBRANCH  11  12
ENDBRANCH  10  11
ENDBRANCH   9  10
ENDBRANCH   8   9
ENDBRANCH   7   8
ENDBRANCH   6   7
ENDBRANCH   5   6
ENDBRANCH   4   5
ENDBRANCH   3   4
ENDBRANCH   2   3
TORSDOF 22
ENDMDL
MODEL      327
REMARK 921   NORMALIZED FREE ENERGY PREDICTED BY IDOCK:   -3.33 KCAL/MOL
REMARK 922        TOTAL FREE ENERGY PREDICTED BY IDOCK:  -11.23 KCAL/MOL
REMARK 923 INTER-LIGAND FREE ENERGY PREDICTED BY IDOCK:   -8.93 KCAL/MOL
REMARK 924 INTRA-LIGAND FREE ENERGY PREDICTED BY IDOCK:   -2.30 KCAL/MOL
REMARK 927      BINDING AFFINITY PREDICTED BY RF-SCORE:    0.00 PKD
ROOT
HETATM    1  C   UNL     1      -5.308  19.073  71.559  1.00  0.00    -0.308 C  
HETATM    2  C   UNL     1      -6.198  20.142  70.946  1.00  0.00    -0.251 C  
ENDROOT
BRANCH   2   3
HETATM    3  C   UNL     1      -5.522  20.783  69.737  1.00  0.00    -0.406 C  
BRANCH   3   4
HETATM    4  C   UNL     1      -6.342  20.594  68.464  1.00  0.00    -0.322 C  
BRANCH   4   5
HETATM    5  C   UNL     1      -7.371  19.476  68.643  1.00  0.00    -0.381 C  
BRANCH   5   6
HETATM    6  C   UNL     1      -6.887  18.193  67.980  1.00  0.00    -0.208 C  
BRANCH   6   7
HETATM    7  C   UNL     1      -7.309  18.099  66.513  1.00  0.00    -0.267 C  
BRANCH   7   8
HETATM    8  C   UNL     1      -8.793  18.434  66.413  1.00  0.00    -0.262 C  
BRANCH   8   9
HETATM    9  C   UNL     1      -9.667  17.259  65.986  1.00  0.00    -0.190 C  
BRANCH   9  10
HETATM   10  C   UNL     1      -8.837  15.977  66.104  1.00  0.00    -0.366 C  
BRANCH  10  11
HETATM   11  C   UNL     1      -9.605  14.708  65.764  1.00  0.00    -0.266 C  
BRANCH  11  12
HETATM   12  C   UNL     1      -9.674  13.635  66.866  1.00  0.00    -0.262 C  
BRANCH  12  13
HETATM   13  C   UNL     1      -8.322  12.988  67.243  1.00  0.00    -0.186 C  
BRANCH  13  14
HETATM   14  C   UNL     1      -8.380  11.468  67.434  1.00  0.00    -0.148 C  
HETATM   15  O   UNL     1      -9.349  10.832  66.553  1.00  0.00    -0.163 OA 
HETATM   16  O   UNL     1     -11.095   9.692  67.534  1.00  0.00    -0.206 OA 
HETATM   17  C   UNL     1      -9.181  10.962  68.666  1.00  0.00    -0.187 C  
HETATM   18  C   UNL     1     -10.088  10.356  67.579  1.00  0.00    -0.192 C  
BRANCH  17  19
HETATM   19  C   UNL     1      -8.572   9.924  69.603  1.00  0.00    -0.207 C  
BRANCH  19  20
HETATM   20  C   UNL     1      -7.324   9.306  68.980  1.00  0.00    -0.072 C  
BRANCH  20  21
HETATM   21  C   UNL     1      -7.620   7.927  68.385  1.00  0.00    -0.108 C  
BRANCH  21  22
HETATM   22  C   UNL     1      -7.032   7.794  66.979  1.00  0.00    -0.077 C  
BRANCH  22  23
HETATM   23  C   UNL     1      -7.743   6.713  66.166  1.00  0.00    -0.095 C  
HETATM   24  C   UNL     1      -7.398   5.323  66.681  1.00  0.00    -0.086 C  
ENDBRANCH  22  23
ENDBRANCH  21  22
ENDBRANCH  20  21
ENDBRANCH  19  20
ENDBRANCH  17  19
ENDBRANCH  13  14
ENDBRANCH  12  13
BRANCH  12  25
HETATM   25  O   UNL     1     -10.241  14.181  68.079  1.00  0.00    -0.224 OA 
BRANCH  25  26
HETATM   26  C   UNL     1     -11.599  14.205  68.181  1.00  0.00    -0.331 C  
HETATM   27  O   UNL     1     -12.383  14.510  67.289  1.00  0.00    -0.276 OA 
BRANCH  26  28
HETATM   28  C   UNL     1     -12.048  13.772  69.574  1.00  0.00    -0.334 C  
BRANCH  28  29
HETATM   29  C   UNL     1     -12.348  12.266  69.638  1.00  0.00    -0.050 C  
HETATM   30  C   UNL     1     -13.189  12.048  72.068  1.00  0.00    -0.481 C  
HETATM   31  C   UNL     1     -12.329  10.066  70.837  1.00  0.00    -0.438 C  
HETATM   32  C   UNL     1     -12.184  11.581  71.014  1.00  0.00    -0.368 C  
ENDBRANCH  28  29
BRANCH  28  33
HETATM   33  N   UNL     1     -13.181  14.602  69.981  1.00  0.00    -0.389 N  
HETATM   34  C   UNL     1     -13.084  15.559  70.951  1.00  0.00    -0.448 C  
HETATM   35  O   UNL     1     -12.085  15.801  71.610  1.00  0.00    -0.371 OA 
HETATM   36  H   UNL     1     -14.081  14.461  69.522  1.00  0.00     0.000 HD 
ENDBRANCH  28  33
ENDBRANCH  26  28
ENDBRANCH  25  26
ENDBRANCH  12  25
ENDBRANCH  11  12
ENDBRANCH  10  11
ENDBRANCH   9  10
ENDBRANCH   8   9
ENDBRANCH   7   8
ENDBRANCH   6   7
ENDBRANCH   5   6
ENDBRANCH   4   5
ENDBRANCH   3   4
ENDBRANCH   2   3
TORSDOF 22
ENDMDL
MODEL      328
REMARK 921   NORMALIZED FREE ENERGY PREDICTED BY IDOCK:   -3.32 KCAL/MOL
REMARK 922        TOTAL FREE ENERGY PREDICTED BY IDOCK:  -11.21 KCAL/MOL
REMARK 923 INTER-LIGAND FREE ENERGY PREDICTED BY IDOCK:   -8.96 KCAL/MOL
REMARK 924 INTRA-LIGAND FREE ENERGY PREDICTED BY IDOCK:   -2.25 KCAL/MOL
REMARK 927      BINDING AFFINITY PREDICTED BY RF-SCORE:    0.00 PKD
ROOT
HETATM    1  C   UNL     1      -6.151  15.208  68.043  1.00  0.00    -0.159 C  
HETATM    2  C   UNL     1      -6.761  16.183  67.049  1.00  0.00    -0.183 C  
ENDROOT
BRANCH   2   3
HETATM    3  C   UNL     1      -8.286  16.132  67.105  1.00  0.00    -0.225 C  
BRANCH   3   4
HETATM    4  C   UNL     1      -8.868  17.356  67.804  1.00  0.00    -0.232 C  
BRANCH   4   5
HETATM    5  C   UNL     1     -10.321  17.107  68.214  1.00  0.00    -0.354 C  
BRANCH   5   6
HETATM    6  C   UNL     1     -10.594  15.613  68.335  1.00  0.00    -0.252 C  
BRANCH   6   7
HETATM    7  C   UNL     1     -11.767  15.308  69.268  1.00  0.00    -0.359 C  
BRANCH   7   8
HETATM    8  C   UNL     1     -12.288  13.911  68.951  1.00  0.00    -0.089 C  
BRANCH   8   9
HETATM    9  C   UNL     1     -12.159  12.924  70.106  1.00  0.00    -0.373 C  
BRANCH   9  10
HETATM   10  C   UNL     1     -12.030  11.514  69.520  1.00  0.00    -0.402 C  
BRANCH  10  11
HETATM   11  C   UNL     1     -10.751  10.793  69.914  1.00  0.00    -0.202 C  
BRANCH  11  12
HETATM   12  C   UNL     1     -10.502   9.428  69.248  1.00  0.00    -0.218 C  
BRANCH  12  13
HETATM   13  C   UNL     1      -9.071   9.206  68.710  1.00  0.00    -0.136 C  
BRANCH  13  14
HETATM   14  C   UNL     1      -8.751   9.979  67.425  1.00  0.00    -0.125 C  
HETATM   15  O   UNL     1      -7.425   9.674  66.908  1.00  0.00    -0.091 OA 
HETATM   16  O   UNL     1      -5.916  11.409  66.754  1.00  0.00    -0.114 OA 
HETATM   17  C   UNL     1      -8.330  11.464  67.605  1.00  0.00    -0.129 C  
HETATM   18  C   UNL     1      -6.997  10.950  67.032  1.00  0.00    -0.105 C  
BRANCH  17  19
HETATM   19  C   UNL     1      -8.980  12.553  66.758  1.00  0.00    -0.198 C  
BRANCH  19  20
HETATM   20  C   UNL     1     -10.437  12.206  66.465  1.00  0.00    -0.254 C  
BRANCH  20  21
HETATM   21  C   UNL     1     -10.714  12.180  64.959  1.00  0.00    -0.338 C  
BRANCH  21  22
HETATM   22  C   UNL     1     -12.136  12.651  64.651  1.00  0.00    -0.484 C  
BRANCH  22  23
HETATM   23  C   UNL     1     -12.462  13.971  65.350  1.00  0.00    -0.520 C  
HETATM   24  C   UNL     1     -11.698  15.129  64.722  1.00  0.00    -0.331 C  
ENDBRANCH  22  23
ENDBRANCH  21  22
ENDBRANCH  20  21
ENDBRANCH  19  20
ENDBRANCH  17  19
ENDBRANCH  13  14
ENDBRANCH  12  13
BRANCH  12  25
HETATM   25  O   UNL     1     -10.787   8.348  70.167  1.00  0.00    -0.239 OA 
BRANCH  25  26
HETATM   26  C   UNL     1     -10.331   8.475  71.444  1.00  0.00    -0.239 C  
HETATM   27  O   UNL     1      -9.185   8.762  71.775  1.00  0.00    -0.248 OA 
BRANCH  26  28
HETATM   28  C   UNL     1     -11.452   8.233  72.450  1.00  0.00    -0.394 C  
BRANCH  28  29
HETATM   29  C   UNL     1     -11.842   6.748  72.528  1.00  0.00    -0.145 C  
HETATM   30  C   UNL     1     -10.381   5.971  74.508  1.00  0.00    -0.241 C  
HETATM   31  C   UNL     1     -11.263   4.333  72.859  1.00  0.00    -0.109 C  
HETATM   32  C   UNL     1     -10.761   5.768  73.040  1.00  0.00    -0.290 C  
ENDBRANCH  28  29
BRANCH  28  33
HETATM   33  N   UNL     1     -12.577   9.107  72.120  1.00  0.00    -0.381 N  
HETATM   34  C   UNL     1     -13.782   8.629  71.690  1.00  0.00    -0.384 C  
HETATM   35  O   UNL     1     -14.047   7.453  71.490  1.00  0.00    -0.422 OA 
HETATM   36  H   UNL     1     -12.456  10.116  72.214  1.00  0.00     0.000 HD 
ENDBRANCH  28  33
ENDBRANCH  26  28
ENDBRANCH  25  26
ENDBRANCH  12  25
ENDBRANCH  11  12
ENDBRANCH  10  11
ENDBRANCH   9  10
ENDBRANCH   8   9
ENDBRANCH   7   8
ENDBRANCH   6   7
ENDBRANCH   5   6
ENDBRANCH   4   5
ENDBRANCH   3   4
ENDBRANCH   2   3
TORSDOF 22
ENDMDL
MODEL      329
REMARK 921   NORMALIZED FREE ENERGY PREDICTED BY IDOCK:   -3.32 KCAL/MOL
REMARK 922        TOTAL FREE ENERGY PREDICTED BY IDOCK:  -11.21 KCAL/MOL
REMARK 923 INTER-LIGAND FREE ENERGY PREDICTED BY IDOCK:   -8.77 KCAL/MOL
REMARK 924 INTRA-LIGAND FREE ENERGY PREDICTED BY IDOCK:   -2.44 KCAL/MOL
REMARK 927      BINDING AFFINITY PREDICTED BY RF-SCORE:    0.00 PKD
ROOT
HETATM    1  C   UNL     1      -8.342   7.457  68.641  1.00  0.00    -0.129 C  
HETATM    2  C   UNL     1      -7.837   8.187  67.407  1.00  0.00    -0.106 C  
ENDROOT
BRANCH   2   3
HETATM    3  C   UNL     1      -6.522   8.903  67.700  1.00  0.00    -0.061 C  
BRANCH   3   4
HETATM    4  C   UNL     1      -6.526   9.552  69.081  1.00  0.00    -0.045 C  
BRANCH   4   5
HETATM    5  C   UNL     1      -5.649  10.806  69.093  1.00  0.00    -0.040 C  
BRANCH   5   6
HETATM    6  C   UNL     1      -6.491  12.044  69.374  1.00  0.00    -0.115 C  
BRANCH   6   7
HETATM    7  C   UNL     1      -7.202  12.562  68.123  1.00  0.00    -0.106 C  
BRANCH   7   8
HETATM    8  C   UNL     1      -6.802  14.016  67.906  1.00  0.00    -0.172 C  
BRANCH   8   9
HETATM    9  C   UNL     1      -6.493  14.774  69.193  1.00  0.00    -0.109 C  
BRANCH   9  10
HETATM   10  C   UNL     1      -7.542  15.878  69.363  1.00  0.00    -0.210 C  
BRANCH  10  11
HETATM   11  C   UNL     1      -8.941  15.362  69.663  1.00  0.00    -0.156 C  
BRANCH  11  12
HETATM   12  C   UNL     1     -10.110  16.184  69.089  1.00  0.00    -0.252 C  
BRANCH  12  13
HETATM   13  C   UNL     1     -11.237  16.519  70.091  1.00  0.00    -0.151 C  
BRANCH  13  14
HETATM   14  C   UNL     1     -12.329  15.448  70.197  1.00  0.00    -0.361 C  
HETATM   15  O   UNL     1     -13.343  15.783  71.188  1.00  0.00    -0.564 OA 
HETATM   16  O   UNL     1     -13.609  14.342  72.967  1.00  0.00    -0.619 OA 
HETATM   17  C   UNL     1     -11.965  14.175  71.011  1.00  0.00    -0.351 C  
HETATM   18  C   UNL     1     -13.081  14.690  71.939  1.00  0.00    -0.333 C  
BRANCH  17  19
HETATM   19  C   UNL     1     -12.241  12.791  70.433  1.00  0.00    -0.371 C  
BRANCH  19  20
HETATM   20  C   UNL     1     -11.949  12.768  68.936  1.00  0.00    -0.286 C  
BRANCH  20  21
HETATM   21  C   UNL     1     -10.589  12.130  68.640  1.00  0.00    -0.248 C  
BRANCH  21  22
HETATM   22  C   UNL     1     -10.669  10.603  68.704  1.00  0.00    -0.239 C  
BRANCH  22  23
HETATM   23  C   UNL     1     -10.663   9.976  67.310  1.00  0.00    -0.309 C  
HETATM   24  C   UNL     1      -9.869  10.827  66.328  1.00  0.00    -0.262 C  
ENDBRANCH  22  23
ENDBRANCH  21  22
ENDBRANCH  20  21
ENDBRANCH  19  20
ENDBRANCH  17  19
ENDBRANCH  13  14
ENDBRANCH  12  13
BRANCH  12  25
HETATM   25  O   UNL     1      -9.636  17.436  68.541  1.00  0.00    -0.277 OA 
BRANCH  25  26
HETATM   26  C   UNL     1     -10.357  17.989  67.526  1.00  0.00    -0.385 C  
HETATM   27  O   UNL     1     -11.311  18.749  67.651  1.00  0.00    -0.005 OA 
BRANCH  26  28
HETATM   28  C   UNL     1      -9.808  17.556  66.170  1.00  0.00    -0.242 C  
BRANCH  28  29
HETATM   29  C   UNL     1     -10.880  16.867  65.311  1.00  0.00    -0.113 C  
HETATM   30  C   UNL     1     -11.273  14.710  66.672  1.00  0.00    -0.349 C  
HETATM   31  C   UNL     1     -11.888  14.825  64.265  1.00  0.00    -0.335 C  
HETATM   32  C   UNL     1     -10.895  15.322  65.321  1.00  0.00    -0.417 C  
ENDBRANCH  28  29
BRANCH  28  33
HETATM   33  N   UNL     1      -8.623  16.728  66.386  1.00  0.00    -0.279 N  
HETATM   34  C   UNL     1      -7.360  17.151  66.081  1.00  0.00    -0.246 C  
HETATM   35  O   UNL     1      -7.078  18.220  65.565  1.00  0.00    -0.523 OA 
HETATM   36  H   UNL     1      -8.744  15.794  66.780  1.00  0.00     0.000 HD 
ENDBRANCH  28  33
ENDBRANCH  26  28
ENDBRANCH  25  26
ENDBRANCH  12  25
ENDBRANCH  11  12
ENDBRANCH  10  11
ENDBRANCH   9  10
ENDBRANCH   8   9
ENDBRANCH   7   8
ENDBRANCH   6   7
ENDBRANCH   5   6
ENDBRANCH   4   5
ENDBRANCH   3   4
ENDBRANCH   2   3
TORSDOF 22
ENDMDL
MODEL      330
REMARK 921   NORMALIZED FREE ENERGY PREDICTED BY IDOCK:   -3.31 KCAL/MOL
REMARK 922        TOTAL FREE ENERGY PREDICTED BY IDOCK:  -11.19 KCAL/MOL
REMARK 923 INTER-LIGAND FREE ENERGY PREDICTED BY IDOCK:   -8.62 KCAL/MOL
REMARK 924 INTRA-LIGAND FREE ENERGY PREDICTED BY IDOCK:   -2.58 KCAL/MOL
REMARK 927      BINDING AFFINITY PREDICTED BY RF-SCORE:    0.00 PKD
ROOT
HETATM    1  C   UNL     1      -9.427  17.632  68.465  1.00  0.00    -0.298 C  
HETATM    2  C   UNL     1      -9.676  16.854  67.183  1.00  0.00    -0.253 C  
ENDROOT
BRANCH   2   3
HETATM    3  C   UNL     1     -10.399  17.721  66.155  1.00  0.00    -0.340 C  
BRANCH   3   4
HETATM    4  C   UNL     1     -11.025  16.880  65.047  1.00  0.00    -0.055 C  
BRANCH   4   5
HETATM    5  C   UNL     1     -10.746  15.392  65.271  1.00  0.00    -0.439 C  
BRANCH   5   6
HETATM    6  C   UNL     1     -11.908  14.548  64.763  1.00  0.00    -0.446 C  
BRANCH   6   7
HETATM    7  C   UNL     1     -12.751  13.970  65.901  1.00  0.00    -0.436 C  
BRANCH   7   8
HETATM    8  C   UNL     1     -11.833  13.671  67.080  1.00  0.00    -0.435 C  
BRANCH   8   9
HETATM    9  C   UNL     1     -11.528  12.188  67.268  1.00  0.00    -0.413 C  
BRANCH   9  10
HETATM   10  C   UNL     1     -10.806  12.013  68.608  1.00  0.00    -0.273 C  
BRANCH  10  11
HETATM   11  C   UNL     1      -9.519  11.207  68.518  1.00  0.00    -0.193 C  
BRANCH  11  12
HETATM   12  C   UNL     1      -9.522   9.836  69.218  1.00  0.00    -0.194 C  
BRANCH  12  13
HETATM   13  C   UNL     1     -10.847   9.451  69.913  1.00  0.00    -0.259 C  
BRANCH  13  14
HETATM   14  C   UNL     1     -10.845   8.057  70.552  1.00  0.00    -0.241 C  
HETATM   15  O   UNL     1     -11.624   8.007  71.781  1.00  0.00    -0.262 OA 
HETATM   16  O   UNL     1     -10.515   7.449  73.723  1.00  0.00    -0.346 OA 
HETATM   17  C   UNL     1      -9.571   7.672  71.354  1.00  0.00    -0.178 C  
HETATM   18  C   UNL     1     -10.557   7.664  72.536  1.00  0.00    -0.281 C  
BRANCH  17  19
HETATM   19  C   UNL     1      -8.892   6.328  71.114  1.00  0.00    -0.142 C  
BRANCH  19  20
HETATM   20  C   UNL     1      -9.429   5.674  69.844  1.00  0.00    -0.197 C  
BRANCH  20  21
HETATM   21  C   UNL     1      -9.678   4.177  70.048  1.00  0.00    -0.282 C  
BRANCH  21  22
HETATM   22  C   UNL     1      -9.180   3.716  71.419  1.00  0.00    -0.196 C  
BRANCH  22  23
HETATM   23  C   UNL     1     -10.324   3.209  72.297  1.00  0.00    -0.107 C  
HETATM   24  C   UNL     1     -10.260   3.820  73.690  1.00  0.00    -0.212 C  
ENDBRANCH  22  23
ENDBRANCH  21  22
ENDBRANCH  20  21
ENDBRANCH  19  20
ENDBRANCH  17  19
ENDBRANCH  13  14
ENDBRANCH  12  13
BRANCH  12  25
HETATM   25  O   UNL     1      -9.207   8.781  68.279  1.00  0.00    -0.140 OA 
BRANCH  25  26
HETATM   26  C   UNL     1      -9.965   8.700  67.150  1.00  0.00    -0.231 C  
HETATM   27  O   UNL     1     -11.148   8.384  67.097  1.00  0.00     0.027 OA 
BRANCH  26  28
HETATM   28  C   UNL     1      -9.148   9.081  65.919  1.00  0.00    -0.212 C  
BRANCH  28  29
HETATM   29  C   UNL     1      -9.920  10.032  64.990  1.00  0.00    -0.320 C  
HETATM   30  C   UNL     1      -8.329  10.115  62.959  1.00  0.00    -0.169 C  
HETATM   31  C   UNL     1      -9.999  11.916  63.340  1.00  0.00    -0.435 C  
HETATM   32  C   UNL     1      -9.079  10.906  64.032  1.00  0.00    -0.163 C  
ENDBRANCH  28  29
BRANCH  28  33
HETATM   33  N   UNL     1      -8.705   7.858  65.252  1.00  0.00    -0.360 N  
HETATM   34  C   UNL     1      -7.435   7.370  65.371  1.00  0.00    -0.090 C  
HETATM   35  O   UNL     1      -6.528   7.902  65.992  1.00  0.00    -0.045 OA 
HETATM   36  H   UNL     1      -9.372   7.347  64.672  1.00  0.00     0.000 HD 
ENDBRANCH  28  33
ENDBRANCH  26  28
ENDBRANCH  25  26
ENDBRANCH  12  25
ENDBRANCH  11  12
ENDBRANCH  10  11
ENDBRANCH   9  10
ENDBRANCH   8   9
ENDBRANCH   7   8
ENDBRANCH   6   7
ENDBRANCH   5   6
ENDBRANCH   4   5
ENDBRANCH   3   4
ENDBRANCH   2   3
TORSDOF 22
ENDMDL
MODEL      331
REMARK 921   NORMALIZED FREE ENERGY PREDICTED BY IDOCK:   -3.30 KCAL/MOL
REMARK 922        TOTAL FREE ENERGY PREDICTED BY IDOCK:  -11.16 KCAL/MOL
REMARK 923 INTER-LIGAND FREE ENERGY PREDICTED BY IDOCK:   -8.07 KCAL/MOL
REMARK 924 INTRA-LIGAND FREE ENERGY PREDICTED BY IDOCK:   -3.09 KCAL/MOL
REMARK 927      BINDING AFFINITY PREDICTED BY RF-SCORE:    0.00 PKD
ROOT
HETATM    1  C   UNL     1      -6.035   5.788  67.054  1.00  0.00    -0.018 C  
HETATM    2  C   UNL     1      -6.021   7.011  67.956  1.00  0.00    -0.029 C  
ENDROOT
BRANCH   2   3
HETATM    3  C   UNL     1      -7.307   7.099  68.772  1.00  0.00    -0.096 C  
BRANCH   3   4
HETATM    4  C   UNL     1      -7.039   7.550  70.205  1.00  0.00    -0.060 C  
BRANCH   4   5
HETATM    5  C   UNL     1      -6.074   8.738  70.228  1.00  0.00    -0.030 C  
BRANCH   5   6
HETATM    6  C   UNL     1      -6.793  10.001  70.684  1.00  0.00    -0.056 C  
BRANCH   6   7
HETATM    7  C   UNL     1      -6.259  11.257  69.994  1.00  0.00    -0.149 C  
BRANCH   7   8
HETATM    8  C   UNL     1      -6.214  11.002  68.492  1.00  0.00    -0.042 C  
BRANCH   8   9
HETATM    9  C   UNL     1      -7.309  11.717  67.708  1.00  0.00    -0.106 C  
BRANCH   9  10
HETATM   10  C   UNL     1      -7.077  13.227  67.826  1.00  0.00    -0.149 C  
BRANCH  10  11
HETATM   11  C   UNL     1      -8.345  14.060  67.724  1.00  0.00    -0.176 C  
BRANCH  11  12
HETATM   12  C   UNL     1      -8.554  14.828  66.406  1.00  0.00     0.077 C  
BRANCH  12  13
HETATM   13  C   UNL     1      -9.939  14.646  65.747  1.00  0.00    -0.365 C  
BRANCH  13  14
HETATM   14  C   UNL     1     -10.478  13.211  65.796  1.00  0.00    -0.283 C  
HETATM   15  O   UNL     1     -11.073  12.797  64.533  1.00  0.00    -0.300 OA 
HETATM   16  O   UNL     1     -13.307  12.228  64.544  1.00  0.00    -0.769 OA 
HETATM   17  C   UNL     1     -11.852  13.018  66.497  1.00  0.00    -0.464 C  
HETATM   18  C   UNL     1     -12.293  12.603  65.082  1.00  0.00    -0.484 C  
BRANCH  17  19
HETATM   19  C   UNL     1     -12.032  11.921  67.540  1.00  0.00    -0.102 C  
BRANCH  19  20
HETATM   20  C   UNL     1     -11.817  12.476  68.945  1.00  0.00    -0.346 C  
BRANCH  20  21
HETATM   21  C   UNL     1     -11.541  11.356  69.953  1.00  0.00    -0.402 C  
BRANCH  21  22
HETATM   22  C   UNL     1     -10.398  10.456  69.479  1.00  0.00    -0.264 C  
BRANCH  22  23
HETATM   23  C   UNL     1     -10.753   8.974  69.604  1.00  0.00    -0.228 C  
HETATM   24  C   UNL     1     -11.103   8.613  71.042  1.00  0.00    -0.316 C  
ENDBRANCH  22  23
ENDBRANCH  21  22
ENDBRANCH  20  21
ENDBRANCH  19  20
ENDBRANCH  17  19
ENDBRANCH  13  14
ENDBRANCH  12  13
BRANCH  12  25
HETATM   25  O   UNL     1      -8.356  16.248  66.604  1.00  0.00    -0.220 OA 
BRANCH  25  26
HETATM   26  C   UNL     1      -7.218  16.640  67.241  1.00  0.00    -0.166 C  
HETATM   27  O   UNL     1      -6.072  16.464  66.843  1.00  0.00    -0.286 OA 
BRANCH  26  28
HETATM   28  C   UNL     1      -7.546  17.366  68.543  1.00  0.00    -0.254 C  
BRANCH  28  29
HETATM   29  C   UNL     1      -8.987  17.901  68.554  1.00  0.00    -0.291 C  
HETATM   30  C   UNL     1      -8.888  19.586  66.601  1.00  0.00    -0.388 C  
HETATM   31  C   UNL     1     -10.644  19.769  68.351  1.00  0.00    -0.247 C  
HETATM   32  C   UNL     1      -9.193  19.359  68.083  1.00  0.00    -0.395 C  
ENDBRANCH  28  29
BRANCH  28  33
HETATM   33  N   UNL     1      -6.544  18.406  68.766  1.00  0.00    -0.239 N  
HETATM   34  C   UNL     1      -5.524  18.269  69.664  1.00  0.00    -0.207 C  
HETATM   35  O   UNL     1      -5.355  17.311  70.403  1.00  0.00    -0.225 OA 
HETATM   36  H   UNL     1      -6.608  19.271  68.228  1.00  0.00     0.000 HD 
ENDBRANCH  28  33
ENDBRANCH  26  28
ENDBRANCH  25  26
ENDBRANCH  12  25
ENDBRANCH  11  12
ENDBRANCH  10  11
ENDBRANCH   9  10
ENDBRANCH   8   9
ENDBRANCH   7   8
ENDBRANCH   6   7
ENDBRANCH   5   6
ENDBRANCH   4   5
ENDBRANCH   3   4
ENDBRANCH   2   3
TORSDOF 22
ENDMDL
MODEL      332
REMARK 921   NORMALIZED FREE ENERGY PREDICTED BY IDOCK:   -3.28 KCAL/MOL
REMARK 922        TOTAL FREE ENERGY PREDICTED BY IDOCK:  -11.11 KCAL/MOL
REMARK 923 INTER-LIGAND FREE ENERGY PREDICTED BY IDOCK:   -8.80 KCAL/MOL
REMARK 924 INTRA-LIGAND FREE ENERGY PREDICTED BY IDOCK:   -2.31 KCAL/MOL
REMARK 927      BINDING AFFINITY PREDICTED BY RF-SCORE:    0.00 PKD
ROOT
HETATM    1  C   UNL     1      -9.725  17.173  68.581  1.00  0.00    -0.293 C  
HETATM    2  C   UNL     1     -10.728  16.430  67.713  1.00  0.00    -0.328 C  
ENDROOT
BRANCH   2   3
HETATM    3  C   UNL     1     -10.417  16.631  66.232  1.00  0.00    -0.272 C  
BRANCH   3   4
HETATM    4  C   UNL     1      -9.418  15.599  65.719  1.00  0.00    -0.338 C  
BRANCH   4   5
HETATM    5  C   UNL     1      -9.687  14.227  66.341  1.00  0.00    -0.315 C  
BRANCH   5   6
HETATM    6  C   UNL     1     -10.658  13.430  65.480  1.00  0.00    -0.294 C  
BRANCH   6   7
HETATM    7  C   UNL     1     -11.852  12.905  66.279  1.00  0.00    -0.477 C  
BRANCH   7   8
HETATM    8  C   UNL     1     -11.359  11.818  67.227  1.00  0.00    -0.379 C  
BRANCH   8   9
HETATM    9  C   UNL     1     -11.770  12.029  68.680  1.00  0.00    -0.380 C  
BRANCH   9  10
HETATM   10  C   UNL     1     -11.107  10.940  69.529  1.00  0.00    -0.326 C  
BRANCH  10  11
HETATM   11  C   UNL     1     -10.669   9.717  68.738  1.00  0.00    -0.234 C  
BRANCH  11  12
HETATM   12  C   UNL     1      -9.998   8.587  69.540  1.00  0.00    -0.193 C  
BRANCH  12  13
HETATM   13  C   UNL     1     -10.704   7.215  69.464  1.00  0.00    -0.255 C  
BRANCH  13  14
HETATM   14  C   UNL     1     -11.417   6.798  70.756  1.00  0.00    -0.342 C  
HETATM   15  O   UNL     1     -12.779   7.308  70.830  1.00  0.00    -0.276 OA 
HETATM   16  O   UNL     1     -13.292   8.729  72.570  1.00  0.00    -0.399 OA 
HETATM   17  C   UNL     1     -11.054   7.608  72.032  1.00  0.00    -0.300 C  
HETATM   18  C   UNL     1     -12.531   8.031  71.945  1.00  0.00    -0.330 C  
BRANCH  17  19
HETATM   19  C   UNL     1     -10.700   6.882  73.326  1.00  0.00    -0.349 C  
BRANCH  19  20
HETATM   20  C   UNL     1     -11.198   5.440  73.285  1.00  0.00    -0.322 C  
BRANCH  20  21
HETATM   21  C   UNL     1     -10.068   4.450  73.581  1.00  0.00    -0.201 C  
BRANCH  21  22
HETATM   22  C   UNL     1      -9.431   3.936  72.288  1.00  0.00    -0.185 C  
BRANCH  22  23
HETATM   23  C   UNL     1      -9.873   2.509  71.965  1.00  0.00    -0.226 C  
HETATM   24  C   UNL     1      -9.211   2.005  70.690  1.00  0.00    -0.182 C  
ENDBRANCH  22  23
ENDBRANCH  21  22
ENDBRANCH  20  21
ENDBRANCH  19  20
ENDBRANCH  17  19
ENDBRANCH  13  14
ENDBRANCH  12  13
BRANCH  12  25
HETATM   25  O   UNL     1      -8.632   8.392  69.106  1.00  0.00    -0.131 OA 
BRANCH  25  26
HETATM   26  C   UNL     1      -8.227   7.114  68.865  1.00  0.00    -0.125 C  
HETATM   27  O   UNL     1      -7.888   6.294  69.711  1.00  0.00    -0.105 OA 
BRANCH  26  28
HETATM   28  C   UNL     1      -8.267   6.804  67.372  1.00  0.00    -0.122 C  
BRANCH  28  29
HETATM   29  C   UNL     1      -8.152   5.296  67.096  1.00  0.00    -0.101 C  
HETATM   30  C   UNL     1     -10.436   4.834  65.988  1.00  0.00    -0.332 C  
HETATM   31  C   UNL     1      -9.127   2.989  67.019  1.00  0.00    -0.196 C  
HETATM   32  C   UNL     1      -9.465   4.480  67.115  1.00  0.00    -0.182 C  
ENDBRANCH  28  29
BRANCH  28  33
HETATM   33  N   UNL     1      -7.236   7.593  66.700  1.00  0.00    -0.085 N  
HETATM   34  C   UNL     1      -7.523   8.691  65.940  1.00  0.00    -0.085 C  
HETATM   35  O   UNL     1      -8.645   9.109  65.697  1.00  0.00    -0.139 OA 
HETATM   36  H   UNL     1      -6.260   7.311  66.803  1.00  0.00     0.000 HD 
ENDBRANCH  28  33
ENDBRANCH  26  28
ENDBRANCH  25  26
ENDBRANCH  12  25
ENDBRANCH  11  12
ENDBRANCH  10  11
ENDBRANCH   9  10
ENDBRANCH   8   9
ENDBRANCH   7   8
ENDBRANCH   6   7
ENDBRANCH   5   6
ENDBRANCH   4   5
ENDBRANCH   3   4
ENDBRANCH   2   3
TORSDOF 22
ENDMDL
MODEL      333
REMARK 921   NORMALIZED FREE ENERGY PREDICTED BY IDOCK:   -3.28 KCAL/MOL
REMARK 922        TOTAL FREE ENERGY PREDICTED BY IDOCK:  -11.11 KCAL/MOL
REMARK 923 INTER-LIGAND FREE ENERGY PREDICTED BY IDOCK:   -8.80 KCAL/MOL
REMARK 924 INTRA-LIGAND FREE ENERGY PREDICTED BY IDOCK:   -2.31 KCAL/MOL
REMARK 927      BINDING AFFINITY PREDICTED BY RF-SCORE:    0.00 PKD
ROOT
HETATM    1  C   UNL     1      -5.465   5.258  67.181  1.00  0.00    -0.012 C  
HETATM    2  C   UNL     1      -5.550   6.747  67.472  1.00  0.00    -0.016 C  
ENDROOT
BRANCH   2   3
HETATM    3  C   UNL     1      -6.856   7.088  68.185  1.00  0.00    -0.074 C  
BRANCH   3   4
HETATM    4  C   UNL     1      -6.702   7.040  69.702  1.00  0.00    -0.049 C  
BRANCH   4   5
HETATM    5  C   UNL     1      -6.023   8.310  70.219  1.00  0.00    -0.028 C  
BRANCH   5   6
HETATM    6  C   UNL     1      -7.053   9.405  70.462  1.00  0.00    -0.113 C  
BRANCH   6   7
HETATM    7  C   UNL     1      -6.510  10.798  70.137  1.00  0.00    -0.155 C  
BRANCH   7   8
HETATM    8  C   UNL     1      -5.808  10.741  68.785  1.00  0.00    -0.040 C  
BRANCH   8   9
HETATM    9  C   UNL     1      -6.759  10.703  67.593  1.00  0.00    -0.072 C  
BRANCH   9  10
HETATM   10  C   UNL     1      -7.052  12.145  67.167  1.00  0.00    -0.120 C  
BRANCH  10  11
HETATM   11  C   UNL     1      -8.448  12.628  67.530  1.00  0.00    -0.176 C  
BRANCH  11  12
HETATM   12  C   UNL     1      -8.750  14.113  67.261  1.00  0.00    -0.218 C  
BRANCH  12  13
HETATM   13  C   UNL     1      -9.810  14.384  66.170  1.00  0.00    -0.340 C  
BRANCH  13  14
HETATM   14  C   UNL     1     -10.201  13.150  65.348  1.00  0.00    -0.290 C  
HETATM   15  O   UNL     1     -11.145  13.466  64.285  1.00  0.00    -0.374 OA 
HETATM   16  O   UNL     1     -13.207  12.438  64.350  1.00  0.00    -0.816 OA 
HETATM   17  C   UNL     1     -11.254  12.204  65.990  1.00  0.00    -0.382 C  
HETATM   18  C   UNL     1     -12.102  12.655  64.787  1.00  0.00    -0.436 C  
BRANCH  17  19
HETATM   19  C   UNL     1     -11.006  10.700  66.034  1.00  0.00     0.050 C  
BRANCH  19  20
HETATM   20  C   UNL     1     -11.094  10.184  67.468  1.00  0.00    -0.251 C  
BRANCH  20  21
HETATM   21  C   UNL     1     -10.060   9.086  67.731  1.00  0.00    -0.260 C  
BRANCH  21  22
HETATM   22  C   UNL     1     -10.212   7.935  66.734  1.00  0.00    -0.358 C  
BRANCH  22  23
HETATM   23  C   UNL     1     -11.001   6.768  67.330  1.00  0.00    -0.433 C  
HETATM   24  C   UNL     1     -10.232   5.461  67.196  1.00  0.00    -0.266 C  
ENDBRANCH  22  23
ENDBRANCH  21  22
ENDBRANCH  20  21
ENDBRANCH  19  20
ENDBRANCH  17  19
ENDBRANCH  13  14
ENDBRANCH  12  13
BRANCH  12  25
HETATM   25  O   UNL     1      -9.198  14.772  68.468  1.00  0.00    -0.183 OA 
BRANCH  25  26
HETATM   26  C   UNL     1     -10.515  14.653  68.796  1.00  0.00    -0.246 C  
HETATM   27  O   UNL     1     -11.096  13.610  69.075  1.00  0.00    -0.251 OA 
BRANCH  26  28
HETATM   28  C   UNL     1     -11.201  16.016  68.796  1.00  0.00    -0.360 C  
BRANCH  28  29
HETATM   29  C   UNL     1     -10.261  17.131  69.281  1.00  0.00    -0.231 C  
HETATM   30  C   UNL     1     -10.658  18.918  67.461  1.00  0.00    -0.524 C  
HETATM   31  C   UNL     1      -8.593  18.950  68.846  1.00  0.00    -0.264 C  
HETATM   32  C   UNL     1      -9.641  18.042  68.196  1.00  0.00    -0.303 C  
ENDBRANCH  28  29
BRANCH  28  33
HETATM   33  N   UNL     1     -12.433  15.922  69.578  1.00  0.00    -0.428 N  
HETATM   34  C   UNL     1     -12.437  15.739  70.932  1.00  0.00    -0.402 C  
HETATM   35  O   UNL     1     -11.445  15.589  71.628  1.00  0.00    -0.374 OA 
HETATM   36  H   UNL     1     -13.327  15.996  69.092  1.00  0.00     0.000 HD 
ENDBRANCH  28  33
ENDBRANCH  26  28
ENDBRANCH  25  26
ENDBRANCH  12  25
ENDBRANCH  11  12
ENDBRANCH  10  11
ENDBRANCH   9  10
ENDBRANCH   8   9
ENDBRANCH   7   8
ENDBRANCH   6   7
ENDBRANCH   5   6
ENDBRANCH   4   5
ENDBRANCH   3   4
ENDBRANCH   2   3
TORSDOF 22
ENDMDL
MODEL      334
REMARK 921   NORMALIZED FREE ENERGY PREDICTED BY IDOCK:   -3.26 KCAL/MOL
REMARK 922        TOTAL FREE ENERGY PREDICTED BY IDOCK:  -11.07 KCAL/MOL
REMARK 923 INTER-LIGAND FREE ENERGY PREDICTED BY IDOCK:   -7.95 KCAL/MOL
REMARK 924 INTRA-LIGAND FREE ENERGY PREDICTED BY IDOCK:   -3.12 KCAL/MOL
REMARK 927      BINDING AFFINITY PREDICTED BY RF-SCORE:    0.00 PKD
ROOT
HETATM    1  C   UNL     1     -10.766   3.906  73.548  1.00  0.00    -0.305 C  
HETATM    2  C   UNL     1     -10.396   5.339  73.205  1.00  0.00    -0.229 C  
ENDROOT
BRANCH   2   3
HETATM    3  C   UNL     1     -11.022   5.758  71.877  1.00  0.00    -0.318 C  
BRANCH   3   4
HETATM    4  C   UNL     1     -12.390   6.405  72.076  1.00  0.00    -0.268 C  
BRANCH   4   5
HETATM    5  C   UNL     1     -12.395   7.838  71.538  1.00  0.00    -0.345 C  
BRANCH   5   6
HETATM    6  C   UNL     1     -11.329   8.673  72.234  1.00  0.00    -0.411 C  
BRANCH   6   7
HETATM    7  C   UNL     1     -10.543   9.548  71.255  1.00  0.00    -0.358 C  
BRANCH   7   8
HETATM    8  C   UNL     1     -11.080   9.305  69.849  1.00  0.00    -0.200 C  
BRANCH   8   9
HETATM    9  C   UNL     1     -10.016   8.876  68.844  1.00  0.00    -0.199 C  
BRANCH   9  10
HETATM   10  C   UNL     1     -10.540   9.171  67.436  1.00  0.00    -0.315 C  
BRANCH  10  11
HETATM   11  C   UNL     1     -10.924  10.626  67.209  1.00  0.00    -0.348 C  
BRANCH  11  12
HETATM   12  C   UNL     1      -9.808  11.557  66.703  1.00  0.00    -0.202 C  
BRANCH  12  13
HETATM   13  C   UNL     1      -9.221  11.194  65.321  1.00  0.00    -0.218 C  
BRANCH  13  14
HETATM   14  C   UNL     1      -8.113  10.135  65.362  1.00  0.00    -0.149 C  
HETATM   15  O   UNL     1      -6.824  10.661  64.936  1.00  0.00    -0.025 OA 
HETATM   16  O   UNL     1      -5.843   9.706  63.082  1.00  0.00    -0.091 OA 
HETATM   17  C   UNL     1      -8.084   9.127  64.179  1.00  0.00    -0.149 C  
HETATM   18  C   UNL     1      -6.732   9.807  63.893  1.00  0.00    -0.120 C  
BRANCH  17  19
HETATM   19  C   UNL     1      -7.970   7.630  64.450  1.00  0.00    -0.123 C  
BRANCH  19  20
HETATM   20  C   UNL     1      -7.568   7.377  65.900  1.00  0.00    -0.089 C  
BRANCH  20  21
HETATM   21  C   UNL     1      -8.165   6.068  66.425  1.00  0.00    -0.112 C  
BRANCH  21  22
HETATM   22  C   UNL     1      -7.942   5.925  67.932  1.00  0.00    -0.105 C  
BRANCH  22  23
HETATM   23  C   UNL     1      -9.217   5.496  68.657  1.00  0.00    -0.140 C  
HETATM   24  C   UNL     1      -9.948   4.407  67.884  1.00  0.00    -0.087 C  
ENDBRANCH  22  23
ENDBRANCH  21  22
ENDBRANCH  20  21
ENDBRANCH  19  20
ENDBRANCH  17  19
ENDBRANCH  13  14
ENDBRANCH  12  13
BRANCH  12  25
HETATM   25  O   UNL     1     -10.276  12.923  66.626  1.00  0.00    -0.240 OA 
BRANCH  25  26
HETATM   26  C   UNL     1      -9.600  13.860  67.348  1.00  0.00    -0.235 C  
HETATM   27  O   UNL     1      -8.401  14.106  67.266  1.00  0.00    -0.188 OA 
BRANCH  26  28
HETATM   28  C   UNL     1     -10.542  14.606  68.287  1.00  0.00    -0.235 C  
BRANCH  28  29
HETATM   29  C   UNL     1     -11.476  13.649  69.044  1.00  0.00    -0.346 C  
HETATM   30  C   UNL     1     -12.507  15.256  70.781  1.00  0.00    -0.457 C  
HETATM   31  C   UNL     1     -12.515  12.799  71.160  1.00  0.00    -0.335 C  
HETATM   32  C   UNL     1     -11.733  13.959  70.536  1.00  0.00    -0.231 C  
ENDBRANCH  28  29
BRANCH  28  33
HETATM   33  N   UNL     1     -11.259  15.625  67.522  1.00  0.00    -0.290 N  
HETATM   34  C   UNL     1     -11.023  16.962  67.669  1.00  0.00    -0.165 C  
HETATM   35  O   UNL     1     -10.242  17.459  68.465  1.00  0.00    -0.324 OA 
HETATM   36  H   UNL     1     -11.966  15.324  66.849  1.00  0.00     0.000 HD 
ENDBRANCH  28  33
ENDBRANCH  26  28
ENDBRANCH  25  26
ENDBRANCH  12  25
ENDBRANCH  11  12
ENDBRANCH  10  11
ENDBRANCH   9  10
ENDBRANCH   8   9
ENDBRANCH   7   8
ENDBRANCH   6   7
ENDBRANCH   5   6
ENDBRANCH   4   5
ENDBRANCH   3   4
ENDBRANCH   2   3
TORSDOF 22
ENDMDL
MODEL      335
REMARK 921   NORMALIZED FREE ENERGY PREDICTED BY IDOCK:   -3.26 KCAL/MOL
REMARK 922        TOTAL FREE ENERGY PREDICTED BY IDOCK:  -11.06 KCAL/MOL
REMARK 923 INTER-LIGAND FREE ENERGY PREDICTED BY IDOCK:   -7.55 KCAL/MOL
REMARK 924 INTRA-LIGAND FREE ENERGY PREDICTED BY IDOCK:   -3.51 KCAL/MOL
REMARK 927      BINDING AFFINITY PREDICTED BY RF-SCORE:    0.00 PKD
ROOT
HETATM    1  C   UNL     1      -9.963   4.265  71.525  1.00  0.00    -0.243 C  
HETATM    2  C   UNL     1     -10.329   5.092  70.304  1.00  0.00    -0.331 C  
ENDROOT
BRANCH   2   3
HETATM    3  C   UNL     1     -11.152   6.314  70.702  1.00  0.00    -0.389 C  
BRANCH   3   4
HETATM    4  C   UNL     1     -10.308   7.585  70.718  1.00  0.00    -0.205 C  
BRANCH   4   5
HETATM    5  C   UNL     1      -9.005   7.380  69.942  1.00  0.00    -0.141 C  
BRANCH   5   6
HETATM    6  C   UNL     1      -7.814   7.368  70.892  1.00  0.00    -0.096 C  
BRANCH   6   7
HETATM    7  C   UNL     1      -7.670   8.681  71.663  1.00  0.00    -0.146 C  
BRANCH   7   8
HETATM    8  C   UNL     1      -6.260   9.219  71.444  1.00  0.00    -0.066 C  
BRANCH   8   9
HETATM    9  C   UNL     1      -6.187  10.389  70.468  1.00  0.00    -0.113 C  
BRANCH   9  10
HETATM   10  C   UNL     1      -5.834   9.837  69.083  1.00  0.00    -0.034 C  
BRANCH  10  11
HETATM   11  C   UNL     1      -6.999   9.825  68.105  1.00  0.00    -0.077 C  
BRANCH  11  12
HETATM   12  C   UNL     1      -7.063  10.993  67.105  1.00  0.00    -0.104 C  
BRANCH  12  13
HETATM   13  C   UNL     1      -5.827  11.920  67.091  1.00  0.00    -0.144 C  
BRANCH  13  14
HETATM   14  C   UNL     1      -6.120  13.370  67.495  1.00  0.00    -0.063 C  
HETATM   15  O   UNL     1      -5.222  13.850  68.536  1.00  0.00    -0.081 OA 
HETATM   16  O   UNL     1      -6.163  14.498  70.538  1.00  0.00    -0.178 OA 
HETATM   17  C   UNL     1      -7.328  13.587  68.448  1.00  0.00    -0.115 C  
HETATM   18  C   UNL     1      -6.228  14.068  69.412  1.00  0.00    -0.108 C  
BRANCH  17  19
HETATM   19  C   UNL     1      -8.372  14.652  68.131  1.00  0.00    -0.144 C  
BRANCH  19  20
HETATM   20  C   UNL     1      -9.579  14.511  69.054  1.00  0.00    -0.105 C  
BRANCH  20  21
HETATM   21  C   UNL     1     -10.556  15.678  68.879  1.00  0.00    -0.228 C  
BRANCH  21  22
HETATM   22  C   UNL     1     -11.023  16.214  70.234  1.00  0.00    -0.345 C  
BRANCH  22  23
HETATM   23  C   UNL     1     -11.558  15.100  71.133  1.00  0.00    -0.405 C  
HETATM   24  C   UNL     1     -12.516  14.193  70.373  1.00  0.00    -0.424 C  
ENDBRANCH  22  23
ENDBRANCH  21  22
ENDBRANCH  20  21
ENDBRANCH  19  20
ENDBRANCH  17  19
ENDBRANCH  13  14
ENDBRANCH  12  13
BRANCH  12  25
HETATM   25  O   UNL     1      -7.247  10.504  65.756  1.00  0.00    -0.141 OA 
BRANCH  25  26
HETATM   26  C   UNL     1      -8.373   9.781  65.499  1.00  0.00    -0.136 C  
HETATM   27  O   UNL     1      -8.427   8.569  65.326  1.00  0.00    -0.160 OA 
BRANCH  26  28
HETATM   28  C   UNL     1      -9.604  10.683  65.473  1.00  0.00    -0.221 C  
BRANCH  28  29
HETATM   29  C   UNL     1     -10.540  10.412  66.662  1.00  0.00    -0.245 C  
HETATM   30  C   UNL     1     -11.871  12.621  66.738  1.00  0.00    -0.440 C  
HETATM   31  C   UNL     1     -11.735  11.149  68.737  1.00  0.00    -0.394 C  
HETATM   32  C   UNL     1     -10.980  11.636  67.497  1.00  0.00    -0.312 C  
ENDBRANCH  28  29
BRANCH  28  33
HETATM   33  N   UNL     1     -10.264  10.539  64.177  1.00  0.00    -0.407 N  
HETATM   34  C   UNL     1     -10.488  11.596  63.341  1.00  0.00    -0.426 C  
HETATM   35  O   UNL     1     -10.215  12.761  63.584  1.00  0.00    -0.384 OA 
HETATM   36  H   UNL     1     -10.571   9.611  63.884  1.00  0.00     0.000 HD 
ENDBRANCH  28  33
ENDBRANCH  26  28
ENDBRANCH  25  26
ENDBRANCH  12  25
ENDBRANCH  11  12
ENDBRANCH  10  11
ENDBRANCH   9  10
ENDBRANCH   8   9
ENDBRANCH   7   8
ENDBRANCH   6   7
ENDBRANCH   5   6
ENDBRANCH   4   5
ENDBRANCH   3   4
ENDBRANCH   2   3
TORSDOF 22
ENDMDL
MODEL      336
REMARK 921   NORMALIZED FREE ENERGY PREDICTED BY IDOCK:   -3.26 KCAL/MOL
REMARK 922        TOTAL FREE ENERGY PREDICTED BY IDOCK:  -11.06 KCAL/MOL
REMARK 923 INTER-LIGAND FREE ENERGY PREDICTED BY IDOCK:   -8.03 KCAL/MOL
REMARK 924 INTRA-LIGAND FREE ENERGY PREDICTED BY IDOCK:   -3.03 KCAL/MOL
REMARK 927      BINDING AFFINITY PREDICTED BY RF-SCORE:    0.00 PKD
ROOT
HETATM    1  C   UNL     1     -12.117  14.054  66.082  1.00  0.00    -0.471 C  
HETATM    2  C   UNL     1     -12.167  12.554  65.841  1.00  0.00    -0.310 C  
ENDROOT
BRANCH   2   3
HETATM    3  C   UNL     1     -12.071  12.240  64.351  1.00  0.00    -0.481 C  
BRANCH   3   4
HETATM    4  C   UNL     1     -10.665  12.487  63.810  1.00  0.00    -0.483 C  
BRANCH   4   5
HETATM    5  C   UNL     1      -9.892  11.173  63.688  1.00  0.00    -0.387 C  
BRANCH   5   6
HETATM    6  C   UNL     1      -9.205  11.081  62.332  1.00  0.00    -0.284 C  
BRANCH   6   7
HETATM    7  C   UNL     1      -8.019  10.114  62.343  1.00  0.00    -0.153 C  
BRANCH   7   8
HETATM    8  C   UNL     1      -8.213   9.123  63.485  1.00  0.00    -0.178 C  
BRANCH   8   9
HETATM    9  C   UNL     1      -6.922   8.743  64.203  1.00  0.00    -0.089 C  
BRANCH   9  10
HETATM   10  C   UNL     1      -7.272   7.775  65.338  1.00  0.00    -0.068 C  
BRANCH  10  11
HETATM   11  C   UNL     1      -6.221   7.701  66.435  1.00  0.00    -0.045 C  
BRANCH  11  12
HETATM   12  C   UNL     1      -6.689   8.065  67.856  1.00  0.00    -0.068 C  
BRANCH  12  13
HETATM   13  C   UNL     1      -6.882   9.575  68.121  1.00  0.00    -0.070 C  
BRANCH  13  14
HETATM   14  C   UNL     1      -8.266  10.113  67.736  1.00  0.00    -0.110 C  
HETATM   15  O   UNL     1      -8.223  10.968  66.558  1.00  0.00    -0.150 OA 
HETATM   16  O   UNL     1      -8.902  13.156  66.805  1.00  0.00    -0.207 OA 
HETATM   17  C   UNL     1      -8.793  11.310  68.576  1.00  0.00    -0.159 C  
HETATM   18  C   UNL     1      -8.686  12.046  67.228  1.00  0.00    -0.175 C  
BRANCH  17  19
HETATM   19  C   UNL     1     -10.208  11.281  69.146  1.00  0.00    -0.123 C  
BRANCH  19  20
HETATM   20  C   UNL     1     -10.605   9.857  69.525  1.00  0.00    -0.264 C  
BRANCH  20  21
HETATM   21  C   UNL     1     -11.221   9.802  70.925  1.00  0.00    -0.429 C  
BRANCH  21  22
HETATM   22  C   UNL     1     -12.614  10.434  70.941  1.00  0.00    -0.478 C  
BRANCH  22  23
HETATM   23  C   UNL     1     -13.395  10.055  72.199  1.00  0.00    -0.469 C  
HETATM   24  C   UNL     1     -14.134   8.737  72.010  1.00  0.00    -0.508 C  
ENDBRANCH  22  23
ENDBRANCH  21  22
ENDBRANCH  20  21
ENDBRANCH  19  20
ENDBRANCH  17  19
ENDBRANCH  13  14
ENDBRANCH  12  13
BRANCH  12  25
HETATM   25  O   UNL     1      -7.941   7.411  68.168  1.00  0.00    -0.119 OA 
BRANCH  25  26
HETATM   26  C   UNL     1      -7.886   6.280  68.925  1.00  0.00    -0.105 C  
HETATM   27  O   UNL     1      -6.871   5.774  69.391  1.00  0.00    -0.057 OA 
BRANCH  26  28
HETATM   28  C   UNL     1      -9.282   5.709  69.151  1.00  0.00    -0.115 C  
BRANCH  28  29
HETATM   29  C   UNL     1      -9.437   5.112  70.559  1.00  0.00    -0.229 C  
HETATM   30  C   UNL     1     -11.556   6.341  71.371  1.00  0.00    -0.338 C  
HETATM   31  C   UNL     1      -9.971   5.329  72.997  1.00  0.00    -0.188 C  
HETATM   32  C   UNL     1     -10.085   6.016  71.632  1.00  0.00    -0.227 C  
ENDBRANCH  28  29
BRANCH  28  33
HETATM   33  N   UNL     1      -9.578   4.753  68.084  1.00  0.00    -0.141 N  
HETATM   34  C   UNL     1     -10.495   5.000  67.104  1.00  0.00    -0.117 C  
HETATM   35  O   UNL     1     -11.195   5.998  67.024  1.00  0.00    -0.238 OA 
HETATM   36  H   UNL     1      -9.077   3.863  68.073  1.00  0.00     0.000 HD 
ENDBRANCH  28  33
ENDBRANCH  26  28
ENDBRANCH  25  26
ENDBRANCH  12  25
ENDBRANCH  11  12
ENDBRANCH  10  11
ENDBRANCH   9  10
ENDBRANCH   8   9
ENDBRANCH   7   8
ENDBRANCH   6   7
ENDBRANCH   5   6
ENDBRANCH   4   5
ENDBRANCH   3   4
ENDBRANCH   2   3
TORSDOF 22
ENDMDL
MODEL      337
REMARK 921   NORMALIZED FREE ENERGY PREDICTED BY IDOCK:   -3.24 KCAL/MOL
REMARK 922        TOTAL FREE ENERGY PREDICTED BY IDOCK:  -11.04 KCAL/MOL
REMARK 923 INTER-LIGAND FREE ENERGY PREDICTED BY IDOCK:   -7.07 KCAL/MOL
REMARK 924 INTRA-LIGAND FREE ENERGY PREDICTED BY IDOCK:   -3.96 KCAL/MOL
REMARK 927      BINDING AFFINITY PREDICTED BY RF-SCORE:    0.00 PKD
ROOT
HETATM    1  C   UNL     1     -10.822  14.024  64.802  1.00  0.00    -0.430 C  
HETATM    2  C   UNL     1     -10.120  12.717  65.134  1.00  0.00    -0.246 C  
ENDROOT
BRANCH   2   3
HETATM    3  C   UNL     1     -11.106  11.702  65.708  1.00  0.00    -0.313 C  
BRANCH   3   4
HETATM    4  C   UNL     1     -11.158  11.763  67.231  1.00  0.00    -0.342 C  
BRANCH   4   5
HETATM    5  C   UNL     1     -11.007  10.366  67.836  1.00  0.00    -0.354 C  
BRANCH   5   6
HETATM    6  C   UNL     1     -10.400   9.407  66.820  1.00  0.00    -0.303 C  
BRANCH   6   7
HETATM    7  C   UNL     1     -10.346   7.968  67.336  1.00  0.00    -0.354 C  
BRANCH   7   8
HETATM    8  C   UNL     1      -9.147   7.271  66.704  1.00  0.00    -0.181 C  
BRANCH   8   9
HETATM    9  C   UNL     1      -8.151   8.222  66.049  1.00  0.00    -0.110 C  
BRANCH   9  10
HETATM   10  C   UNL     1      -6.771   7.970  66.666  1.00  0.00    -0.063 C  
BRANCH  10  11
HETATM   11  C   UNL     1      -6.165   9.186  67.350  1.00  0.00    -0.058 C  
BRANCH  11  12
HETATM   12  C   UNL     1      -6.619   9.454  68.796  1.00  0.00    -0.052 C  
BRANCH  12  13
HETATM   13  C   UNL     1      -7.596  10.637  68.974  1.00  0.00    -0.122 C  
BRANCH  13  14
HETATM   14  C   UNL     1      -7.015  12.001  68.584  1.00  0.00    -0.096 C  
HETATM   15  O   UNL     1      -5.753  12.281  69.254  1.00  0.00    -0.066 OA 
HETATM   16  O   UNL     1      -5.666  14.122  70.638  1.00  0.00    -0.143 OA 
HETATM   17  C   UNL     1      -7.648  13.240  69.277  1.00  0.00     0.347 C  
HETATM   18  C   UNL     1      -6.239  13.374  69.883  1.00  0.00    -0.102 C  
BRANCH  17  19
HETATM   19  C   UNL     1      -8.074  14.447  68.448  1.00  0.00    -0.143 C  
BRANCH  19  20
HETATM   20  C   UNL     1      -9.589  14.625  68.499  1.00  0.00    -0.221 C  
BRANCH  20  21
HETATM   21  C   UNL     1      -9.992  15.704  69.507  1.00  0.00    -0.285 C  
BRANCH  21  22
HETATM   22  C   UNL     1     -11.472  15.588  69.878  1.00  0.00    -0.338 C  
BRANCH  22  23
HETATM   23  C   UNL     1     -11.667  14.905  71.231  1.00  0.00    -0.382 C  
HETATM   24  C   UNL     1     -12.019  15.918  72.312  1.00  0.00    -0.617 C  
ENDBRANCH  22  23
ENDBRANCH  21  22
ENDBRANCH  20  21
ENDBRANCH  19  20
ENDBRANCH  17  19
ENDBRANCH  13  14
ENDBRANCH  12  13
BRANCH  12  25
HETATM   25  O   UNL     1      -7.256   8.283  69.359  1.00  0.00    -0.057 OA 
BRANCH  25  26
HETATM   26  C   UNL     1      -7.295   8.182  70.717  1.00  0.00    -0.058 C  
HETATM   27  O   UNL     1      -6.445   8.600  71.495  1.00  0.00    -0.057 OA 
BRANCH  26  28
HETATM   28  C   UNL     1      -8.573   7.485  71.173  1.00  0.00    -0.121 C  
BRANCH  28  29
HETATM   29  C   UNL     1      -9.621   8.485  71.687  1.00  0.00    -0.319 C  
HETATM   30  C   UNL     1     -11.800   7.327  70.932  1.00  0.00    -0.351 C  
HETATM   31  C   UNL     1     -11.760   9.764  71.424  1.00  0.00    -0.475 C  
HETATM   32  C   UNL     1     -10.938   8.590  70.884  1.00  0.00    -0.292 C  
ENDBRANCH  28  29
BRANCH  28  33
HETATM   33  N   UNL     1      -8.224   6.461  72.157  1.00  0.00    -0.108 N  
HETATM   34  C   UNL     1      -8.573   5.149  72.014  1.00  0.00    -0.130 C  
HETATM   35  O   UNL     1      -9.240   4.690  71.098  1.00  0.00    -0.128 OA 
HETATM   36  H   UNL     1      -7.697   6.739  72.986  1.00  0.00     0.000 HD 
ENDBRANCH  28  33
ENDBRANCH  26  28
ENDBRANCH  25  26
ENDBRANCH  12  25
ENDBRANCH  11  12
ENDBRANCH  10  11
ENDBRANCH   9  10
ENDBRANCH   8   9
ENDBRANCH   7   8
ENDBRANCH   6   7
ENDBRANCH   5   6
ENDBRANCH   4   5
ENDBRANCH   3   4
ENDBRANCH   2   3
TORSDOF 22
ENDMDL
MODEL      338
REMARK 921   NORMALIZED FREE ENERGY PREDICTED BY IDOCK:   -3.24 KCAL/MOL
REMARK 922        TOTAL FREE ENERGY PREDICTED BY IDOCK:  -11.02 KCAL/MOL
REMARK 923 INTER-LIGAND FREE ENERGY PREDICTED BY IDOCK:   -8.33 KCAL/MOL
REMARK 924 INTRA-LIGAND FREE ENERGY PREDICTED BY IDOCK:   -2.69 KCAL/MOL
REMARK 927      BINDING AFFINITY PREDICTED BY RF-SCORE:    0.00 PKD
ROOT
HETATM    1  C   UNL     1     -13.916   9.018  72.238  1.00  0.00    -0.522 C  
HETATM    2  C   UNL     1     -12.671   8.310  71.730  1.00  0.00    -0.364 C  
ENDROOT
BRANCH   2   3
HETATM    3  C   UNL     1     -11.480   9.264  71.695  1.00  0.00    -0.468 C  
BRANCH   3   4
HETATM    4  C   UNL     1     -10.153   8.512  71.676  1.00  0.00    -0.338 C  
BRANCH   4   5
HETATM    5  C   UNL     1      -9.748   8.091  73.090  1.00  0.00    -0.341 C  
BRANCH   5   6
HETATM    6  C   UNL     1      -9.339   6.624  73.114  1.00  0.00    -0.147 C  
BRANCH   6   7
HETATM    7  C   UNL     1     -10.272   5.745  72.279  1.00  0.00    -0.233 C  
BRANCH   7   8
HETATM    8  C   UNL     1      -9.439   4.666  71.596  1.00  0.00    -0.210 C  
BRANCH   8   9
HETATM    9  C   UNL     1      -9.889   4.341  70.175  1.00  0.00    -0.271 C  
BRANCH   9  10
HETATM   10  C   UNL     1     -10.667   5.543  69.632  1.00  0.00    -0.349 C  
BRANCH  10  11
HETATM   11  C   UNL     1     -10.664   5.649  68.115  1.00  0.00    -0.231 C  
BRANCH  11  12
HETATM   12  C   UNL     1      -9.501   6.438  67.486  1.00  0.00    -0.117 C  
BRANCH  12  13
HETATM   13  C   UNL     1      -9.019   7.661  68.296  1.00  0.00    -0.127 C  
BRANCH  13  14
HETATM   14  C   UNL     1      -9.319   9.014  67.638  1.00  0.00    -0.136 C  
HETATM   15  O   UNL     1      -8.140   9.864  67.550  1.00  0.00    -0.109 OA 
HETATM   16  O   UNL     1      -8.198  11.884  68.657  1.00  0.00    -0.140 OA 
HETATM   17  C   UNL     1     -10.008  10.077  68.539  1.00  0.00    -0.177 C  
HETATM   18  C   UNL     1      -8.683  10.831  68.322  1.00  0.00    -0.136 C  
BRANCH  17  19
HETATM   19  C   UNL     1     -11.232  10.833  68.032  1.00  0.00    -0.372 C  
BRANCH  19  20
HETATM   20  C   UNL     1     -11.546  12.016  68.943  1.00  0.00    -0.377 C  
BRANCH  20  21
HETATM   21  C   UNL     1     -12.015  13.231  68.138  1.00  0.00    -0.340 C  
BRANCH  21  22
HETATM   22  C   UNL     1     -12.000  12.939  66.637  1.00  0.00    -0.436 C  
BRANCH  22  23
HETATM   23  C   UNL     1     -12.340  14.181  65.812  1.00  0.00    -0.481 C  
HETATM   24  C   UNL     1     -11.938  13.999  64.355  1.00  0.00    -0.480 C  
ENDBRANCH  22  23
ENDBRANCH  21  22
ENDBRANCH  20  21
ENDBRANCH  19  20
ENDBRANCH  17  19
ENDBRANCH  13  14
ENDBRANCH  12  13
BRANCH  12  25
HETATM   25  O   UNL     1      -8.354   5.581  67.279  1.00  0.00    -0.105 OA 
BRANCH  25  26
HETATM   26  C   UNL     1      -8.514   4.506  66.458  1.00  0.00    -0.109 C  
HETATM   27  O   UNL     1      -8.569   3.333  66.809  1.00  0.00    -0.105 OA 
BRANCH  26  28
HETATM   28  C   UNL     1      -8.643   4.948  65.003  1.00  0.00    -0.147 C  
BRANCH  28  29
HETATM   29  C   UNL     1      -8.234   6.417  64.811  1.00  0.00    -0.092 C  
HETATM   30  C   UNL     1      -6.670   6.217  62.768  1.00  0.00    -0.040 C  
HETATM   31  C   UNL     1      -6.532   8.180  64.288  1.00  0.00    -0.066 C  
HETATM   32  C   UNL     1      -6.831   6.679  64.217  1.00  0.00    -0.049 C  
ENDBRANCH  28  29
BRANCH  28  33
HETATM   33  N   UNL     1     -10.002   4.663  64.544  1.00  0.00    -0.382 N  
HETATM   34  C   UNL     1     -10.315   3.560  63.803  1.00  0.00    -0.241 C  
HETATM   35  O   UNL     1      -9.518   2.724  63.405  1.00  0.00    -0.095 OA 
HETATM   36  H   UNL     1     -10.747   5.317  64.788  1.00  0.00     0.000 HD 
ENDBRANCH  28  33
ENDBRANCH  26  28
ENDBRANCH  25  26
ENDBRANCH  12  25
ENDBRANCH  11  12
ENDBRANCH  10  11
ENDBRANCH   9  10
ENDBRANCH   8   9
ENDBRANCH   7   8
ENDBRANCH   6   7
ENDBRANCH   5   6
ENDBRANCH   4   5
ENDBRANCH   3   4
ENDBRANCH   2   3
TORSDOF 22
ENDMDL
MODEL      339
REMARK 921   NORMALIZED FREE ENERGY PREDICTED BY IDOCK:   -3.24 KCAL/MOL
REMARK 922        TOTAL FREE ENERGY PREDICTED BY IDOCK:  -11.02 KCAL/MOL
REMARK 923 INTER-LIGAND FREE ENERGY PREDICTED BY IDOCK:   -8.61 KCAL/MOL
REMARK 924 INTRA-LIGAND FREE ENERGY PREDICTED BY IDOCK:   -2.41 KCAL/MOL
REMARK 927      BINDING AFFINITY PREDICTED BY RF-SCORE:    0.00 PKD
ROOT
HETATM    1  C   UNL     1     -12.071  14.120  69.991  1.00  0.00    -0.409 C  
HETATM    2  C   UNL     1     -11.980  15.531  69.434  1.00  0.00    -0.358 C  
ENDROOT
BRANCH   2   3
HETATM    3  C   UNL     1     -10.958  15.604  68.304  1.00  0.00    -0.315 C  
BRANCH   3   4
HETATM    4  C   UNL     1      -9.574  15.154  68.762  1.00  0.00    -0.219 C  
BRANCH   4   5
HETATM    5  C   UNL     1      -8.858  14.382  67.652  1.00  0.00    -0.193 C  
BRANCH   5   6
HETATM    6  C   UNL     1      -9.321  12.932  67.626  1.00  0.00    -0.195 C  
BRANCH   6   7
HETATM    7  C   UNL     1      -9.784  12.492  66.236  1.00  0.00    -0.259 C  
BRANCH   7   8
HETATM    8  C   UNL     1     -11.091  11.722  66.381  1.00  0.00    -0.360 C  
BRANCH   8   9
HETATM    9  C   UNL     1     -11.120  10.766  67.570  1.00  0.00    -0.374 C  
BRANCH   9  10
HETATM   10  C   UNL     1     -10.401   9.475  67.164  1.00  0.00    -0.320 C  
BRANCH  10  11
HETATM   11  C   UNL     1      -9.674   8.785  68.308  1.00  0.00    -0.175 C  
BRANCH  11  12
HETATM   12  C   UNL     1     -10.500   7.786  69.139  1.00  0.00    -0.211 C  
BRANCH  12  13
HETATM   13  C   UNL     1     -10.846   6.460  68.426  1.00  0.00    -0.383 C  
BRANCH  13  14
HETATM   14  C   UNL     1      -9.695   5.863  67.608  1.00  0.00    -0.115 C  
HETATM   15  O   UNL     1     -10.032   5.713  66.200  1.00  0.00    -0.138 OA 
HETATM   16  O   UNL     1     -10.007   3.583  65.319  1.00  0.00    -0.111 OA 
HETATM   17  C   UNL     1      -9.503   4.324  67.718  1.00  0.00    -0.215 C  
HETATM   18  C   UNL     1      -9.875   4.371  66.224  1.00  0.00    -0.231 C  
BRANCH  17  19
HETATM   19  C   UNL     1      -8.119   3.742  67.986  1.00  0.00    -0.085 C  
BRANCH  19  20
HETATM   20  C   UNL     1      -7.032   4.727  67.565  1.00  0.00    -0.061 C  
BRANCH  20  21
HETATM   21  C   UNL     1      -6.107   5.072  68.735  1.00  0.00    -0.030 C  
BRANCH  21  22
HETATM   22  C   UNL     1      -6.512   6.396  69.387  1.00  0.00    -0.040 C  
BRANCH  22  23
HETATM   23  C   UNL     1      -6.496   6.306  70.913  1.00  0.00    -0.048 C  
HETATM   24  C   UNL     1      -6.980   4.942  71.387  1.00  0.00    -0.047 C  
ENDBRANCH  22  23
ENDBRANCH  21  22
ENDBRANCH  20  21
ENDBRANCH  19  20
ENDBRANCH  17  19
ENDBRANCH  13  14
ENDBRANCH  12  13
BRANCH  12  25
HETATM   25  O   UNL     1      -9.811   7.447  70.365  1.00  0.00    -0.183 OA 
BRANCH  25  26
HETATM   26  C   UNL     1     -10.451   6.616  71.235  1.00  0.00    -0.215 C  
HETATM   27  O   UNL     1     -10.590   5.405  71.103  1.00  0.00    -0.238 OA 
BRANCH  26  28
HETATM   28  C   UNL     1     -10.972   7.390  72.442  1.00  0.00    -0.275 C  
BRANCH  28  29
HETATM   29  C   UNL     1     -11.232   8.867  72.109  1.00  0.00    -0.362 C  
HETATM   30  C   UNL     1     -13.793   8.983  72.402  1.00  0.00    -0.540 C  
HETATM   31  C   UNL     1     -12.592  10.678  71.036  1.00  0.00    -0.516 C  
HETATM   32  C   UNL     1     -12.599   9.210  71.474  1.00  0.00    -0.413 C  
ENDBRANCH  28  29
BRANCH  28  33
HETATM   33  N   UNL     1     -10.043   7.205  73.556  1.00  0.00    -0.294 N  
HETATM   34  C   UNL     1      -8.885   7.918  73.677  1.00  0.00    -0.274 C  
HETATM   35  O   UNL     1      -8.471   8.738  72.872  1.00  0.00    -0.409 OA 
HETATM   36  H   UNL     1     -10.270   6.515  74.273  1.00  0.00     0.000 HD 
ENDBRANCH  28  33
ENDBRANCH  26  28
ENDBRANCH  25  26
ENDBRANCH  12  25
ENDBRANCH  11  12
ENDBRANCH  10  11
ENDBRANCH   9  10
ENDBRANCH   8   9
ENDBRANCH   7   8
ENDBRANCH   6   7
ENDBRANCH   5   6
ENDBRANCH   4   5
ENDBRANCH   3   4
ENDBRANCH   2   3
TORSDOF 22
ENDMDL
MODEL      340
REMARK 921   NORMALIZED FREE ENERGY PREDICTED BY IDOCK:   -3.23 KCAL/MOL
REMARK 922        TOTAL FREE ENERGY PREDICTED BY IDOCK:  -11.00 KCAL/MOL
REMARK 923 INTER-LIGAND FREE ENERGY PREDICTED BY IDOCK:   -7.90 KCAL/MOL
REMARK 924 INTRA-LIGAND FREE ENERGY PREDICTED BY IDOCK:   -3.11 KCAL/MOL
REMARK 927      BINDING AFFINITY PREDICTED BY RF-SCORE:    0.00 PKD
ROOT
HETATM    1  C   UNL     1     -13.215  12.778  71.909  1.00  0.00    -0.511 C  
HETATM    2  C   UNL     1     -13.348  11.273  72.076  1.00  0.00    -0.386 C  
ENDROOT
BRANCH   2   3
HETATM    3  C   UNL     1     -12.800  10.541  70.854  1.00  0.00    -0.485 C  
BRANCH   3   4
HETATM    4  C   UNL     1     -11.424   9.940  71.123  1.00  0.00    -0.459 C  
BRANCH   4   5
HETATM    5  C   UNL     1     -11.517   8.809  72.150  1.00  0.00    -0.421 C  
BRANCH   5   6
HETATM    6  C   UNL     1     -10.227   8.001  72.173  1.00  0.00    -0.308 C  
BRANCH   6   7
HETATM    7  C   UNL     1     -10.427   6.567  71.677  1.00  0.00    -0.241 C  
BRANCH   7   8
HETATM    8  C   UNL     1     -10.084   6.517  70.192  1.00  0.00    -0.204 C  
BRANCH   8   9
HETATM    9  C   UNL     1     -11.294   6.338  69.281  1.00  0.00    -0.411 C  
BRANCH   9  10
HETATM   10  C   UNL     1     -10.940   6.895  67.899  1.00  0.00    -0.260 C  
BRANCH  10  11
HETATM   11  C   UNL     1     -10.335   8.290  67.930  1.00  0.00    -0.278 C  
BRANCH  11  12
HETATM   12  C   UNL     1      -8.894   8.423  67.404  1.00  0.00    -0.134 C  
BRANCH  12  13
HETATM   13  C   UNL     1      -8.604   7.684  66.079  1.00  0.00    -0.165 C  
BRANCH  13  14
HETATM   14  C   UNL     1      -7.847   6.361  66.244  1.00  0.00    -0.101 C  
HETATM   15  O   UNL     1      -6.712   6.253  65.339  1.00  0.00    -0.045 OA 
HETATM   16  O   UNL     1      -6.727   4.525  63.813  1.00  0.00    -0.041 OA 
HETATM   17  C   UNL     1      -8.490   5.115  65.574  1.00  0.00    -0.138 C  
HETATM   18  C   UNL     1      -7.211   5.161  64.718  1.00  0.00    -0.062 C  
BRANCH  17  19
HETATM   19  C   UNL     1      -8.651   3.819  66.362  1.00  0.00    -0.113 C  
BRANCH  19  20
HETATM   20  C   UNL     1      -8.524   4.083  67.860  1.00  0.00    -0.103 C  
BRANCH  20  21
HETATM   21  C   UNL     1      -9.461   3.181  68.668  1.00  0.00    -0.195 C  
BRANCH  21  22
HETATM   22  C   UNL     1      -8.788   2.695  69.953  1.00  0.00    -0.145 C  
BRANCH  22  23
HETATM   23  C   UNL     1      -9.597   3.069  71.195  1.00  0.00    -0.229 C  
HETATM   24  C   UNL     1      -9.959   1.833  72.007  1.00  0.00    -0.215 C  
ENDBRANCH  22  23
ENDBRANCH  21  22
ENDBRANCH  20  21
ENDBRANCH  19  20
ENDBRANCH  17  19
ENDBRANCH  13  14
ENDBRANCH  12  13
BRANCH  12  25
HETATM   25  O   UNL     1      -8.546   9.813  67.206  1.00  0.00    -0.127 OA 
BRANCH  25  26
HETATM   26  C   UNL     1      -8.759  10.667  68.246  1.00  0.00    -0.135 C  
HETATM   27  O   UNL     1      -8.492  10.450  69.422  1.00  0.00    -0.161 OA 
BRANCH  26  28
HETATM   28  C   UNL     1      -9.371  11.977  67.757  1.00  0.00    -0.190 C  
BRANCH  28  29
HETATM   29  C   UNL     1      -8.304  12.938  67.209  1.00  0.00    -0.185 C  
HETATM   30  C   UNL     1      -6.784  13.199  69.278  1.00  0.00    -0.061 C  
HETATM   31  C   UNL     1      -6.767  14.900  67.465  1.00  0.00    -0.167 C  
HETATM   32  C   UNL     1      -7.643  13.899  68.223  1.00  0.00    -0.130 C  
ENDBRANCH  28  29
BRANCH  28  33
HETATM   33  N   UNL     1     -10.167  12.556  68.838  1.00  0.00    -0.425 N  
HETATM   34  C   UNL     1     -11.417  13.068  68.641  1.00  0.00    -0.307 C  
HETATM   35  O   UNL     1     -11.989  13.147  67.565  1.00  0.00    -0.358 OA 
HETATM   36  H   UNL     1      -9.772  12.578  69.779  1.00  0.00     0.000 HD 
ENDBRANCH  28  33
ENDBRANCH  26  28
ENDBRANCH  25  26
ENDBRANCH  12  25
ENDBRANCH  11  12
ENDBRANCH  10  11
ENDBRANCH   9  10
ENDBRANCH   8   9
ENDBRANCH   7   8
ENDBRANCH   6   7
ENDBRANCH   5   6
ENDBRANCH   4   5
ENDBRANCH   3   4
ENDBRANCH   2   3
TORSDOF 22
ENDMDL
MODEL      341
REMARK 921   NORMALIZED FREE ENERGY PREDICTED BY IDOCK:   -3.23 KCAL/MOL
REMARK 922        TOTAL FREE ENERGY PREDICTED BY IDOCK:  -11.00 KCAL/MOL
REMARK 923 INTER-LIGAND FREE ENERGY PREDICTED BY IDOCK:   -7.78 KCAL/MOL
REMARK 924 INTRA-LIGAND FREE ENERGY PREDICTED BY IDOCK:   -3.21 KCAL/MOL
REMARK 927      BINDING AFFINITY PREDICTED BY RF-SCORE:    0.00 PKD
ROOT
HETATM    1  C   UNL     1     -12.096   9.133  71.856  1.00  0.00    -0.448 C  
HETATM    2  C   UNL     1     -12.930   8.093  71.128  1.00  0.00    -0.082 C  
ENDROOT
BRANCH   2   3
HETATM    3  C   UNL     1     -12.054   6.951  70.623  1.00  0.00    -0.363 C  
BRANCH   3   4
HETATM    4  C   UNL     1     -11.503   6.109  71.770  1.00  0.00    -0.342 C  
BRANCH   4   5
HETATM    5  C   UNL     1     -10.045   5.724  71.510  1.00  0.00    -0.246 C  
BRANCH   5   6
HETATM    6  C   UNL     1      -9.666   6.014  70.064  1.00  0.00    -0.202 C  
BRANCH   6   7
HETATM    7  C   UNL     1      -8.458   6.948  69.953  1.00  0.00    -0.140 C  
BRANCH   7   8
HETATM    8  C   UNL     1      -8.569   8.013  71.038  1.00  0.00    -0.142 C  
BRANCH   8   9
HETATM    9  C   UNL     1      -8.868   9.411  70.508  1.00  0.00    -0.287 C  
BRANCH   9  10
HETATM   10  C   UNL     1      -8.156   9.575  69.161  1.00  0.00    -0.103 C  
BRANCH  10  11
HETATM   11  C   UNL     1      -7.789  11.012  68.824  1.00  0.00    -0.138 C  
BRANCH  11  12
HETATM   12  C   UNL     1      -8.772  11.774  67.917  1.00  0.00    -0.164 C  
BRANCH  12  13
HETATM   13  C   UNL     1      -9.499  10.913  66.860  1.00  0.00    -0.198 C  
BRANCH  13  14
HETATM   14  C   UNL     1      -9.435  11.473  65.435  1.00  0.00    -0.198 C  
HETATM   15  O   UNL     1     -10.428  12.512  65.200  1.00  0.00    -0.280 OA 
HETATM   16  O   UNL     1     -12.003  12.129  63.561  1.00  0.00    -0.479 OA 
HETATM   17  C   UNL     1     -10.093  10.605  64.326  1.00  0.00    -0.411 C  
HETATM   18  C   UNL     1     -11.043  11.812  64.221  1.00  0.00    -0.355 C  
BRANCH  17  19
HETATM   19  C   UNL     1      -9.337  10.308  63.035  1.00  0.00    -0.338 C  
BRANCH  19  20
HETATM   20  C   UNL     1      -8.048   9.548  63.332  1.00  0.00    -0.149 C  
BRANCH  20  21
HETATM   21  C   UNL     1      -8.330   8.227  64.053  1.00  0.00    -0.038 C  
BRANCH  21  22
HETATM   22  C   UNL     1      -7.480   8.096  65.318  1.00  0.00    -0.080 C  
BRANCH  22  23
HETATM   23  C   UNL     1      -8.137   7.182  66.353  1.00  0.00    -0.116 C  
HETATM   24  C   UNL     1      -9.617   7.505  66.507  1.00  0.00    -0.239 C  
ENDBRANCH  22  23
ENDBRANCH  21  22
ENDBRANCH  20  21
ENDBRANCH  19  20
ENDBRANCH  17  19
ENDBRANCH  13  14
ENDBRANCH  12  13
BRANCH  12  25
HETATM   25  O   UNL     1      -9.789  12.436  68.705  1.00  0.00    -0.178 OA 
BRANCH  25  26
HETATM   26  C   UNL     1      -9.624  13.765  68.951  1.00  0.00     0.063 C  
HETATM   27  O   UNL     1      -8.553  14.359  69.015  1.00  0.00    -0.111 OA 
BRANCH  26  28
HETATM   28  C   UNL     1     -10.973  14.457  69.124  1.00  0.00    -0.265 C  
BRANCH  28  29
HETATM   29  C   UNL     1     -10.887  15.964  68.830  1.00  0.00    -0.284 C  
HETATM   30  C   UNL     1     -10.928  15.952  66.250  1.00  0.00    -0.112 C  
HETATM   31  C   UNL     1     -10.023  17.902  67.498  1.00  0.00    -0.322 C  
HETATM   32  C   UNL     1     -10.185  16.379  67.517  1.00  0.00    -0.273 C  
ENDBRANCH  28  29
BRANCH  28  33
HETATM   33  N   UNL     1     -11.486  14.160  70.461  1.00  0.00    -0.506 N  
HETATM   34  C   UNL     1     -12.222  13.044  70.738  1.00  0.00    -0.272 C  
HETATM   35  O   UNL     1     -12.571  12.206  69.921  1.00  0.00     0.015 OA 
HETATM   36  H   UNL     1     -11.286  14.815  71.218  1.00  0.00     0.000 HD 
ENDBRANCH  28  33
ENDBRANCH  26  28
ENDBRANCH  25  26
ENDBRANCH  12  25
ENDBRANCH  11  12
ENDBRANCH  10  11
ENDBRANCH   9  10
ENDBRANCH   8   9
ENDBRANCH   7   8
ENDBRANCH   6   7
ENDBRANCH   5   6
ENDBRANCH   4   5
ENDBRANCH   3   4
ENDBRANCH   2   3
TORSDOF 22
ENDMDL
MODEL      342
REMARK 921   NORMALIZED FREE ENERGY PREDICTED BY IDOCK:   -3.22 KCAL/MOL
REMARK 922        TOTAL FREE ENERGY PREDICTED BY IDOCK:  -10.98 KCAL/MOL
REMARK 923 INTER-LIGAND FREE ENERGY PREDICTED BY IDOCK:   -8.02 KCAL/MOL
REMARK 924 INTRA-LIGAND FREE ENERGY PREDICTED BY IDOCK:   -2.96 KCAL/MOL
REMARK 927      BINDING AFFINITY PREDICTED BY RF-SCORE:    0.00 PKD
ROOT
HETATM    1  C   UNL     1      -7.638   8.034  73.134  1.00  0.00    -0.188 C  
HETATM    2  C   UNL     1      -6.882   7.167  72.140  1.00  0.00    -0.056 C  
ENDROOT
BRANCH   2   3
HETATM    3  C   UNL     1      -6.185   8.027  71.090  1.00  0.00    -0.034 C  
BRANCH   3   4
HETATM    4  C   UNL     1      -5.630   7.184  69.946  1.00  0.00    -0.023 C  
BRANCH   4   5
HETATM    5  C   UNL     1      -6.559   7.238  68.732  1.00  0.00    -0.048 C  
BRANCH   5   6
HETATM    6  C   UNL     1      -7.576   8.360  68.886  1.00  0.00    -0.096 C  
BRANCH   6   7
HETATM    7  C   UNL     1      -7.095   9.673  68.265  1.00  0.00    -0.078 C  
BRANCH   7   8
HETATM    8  C   UNL     1      -6.918   9.464  66.766  1.00  0.00    -0.081 C  
BRANCH   8   9
HETATM    9  C   UNL     1      -8.160   8.925  66.064  1.00  0.00    -0.111 C  
BRANCH   9  10
HETATM   10  C   UNL     1      -9.133  10.089  65.851  1.00  0.00    -0.195 C  
BRANCH  10  11
HETATM   11  C   UNL     1     -10.487   9.896  66.516  1.00  0.00    -0.213 C  
BRANCH  11  12
HETATM   12  C   UNL     1     -10.959  11.027  67.447  1.00  0.00    -0.291 C  
BRANCH  12  13
HETATM   13  C   UNL     1     -10.764  10.764  68.957  1.00  0.00    -0.265 C  
BRANCH  13  14
HETATM   14  C   UNL     1     -12.018  10.256  69.678  1.00  0.00    -0.060 C  
HETATM   15  O   UNL     1     -12.870  11.340  70.146  1.00  0.00    -0.107 OA 
HETATM   16  O   UNL     1     -13.242  11.500  72.415  1.00  0.00    -0.268 OA 
HETATM   17  C   UNL     1     -11.822   9.788  71.147  1.00  0.00    -0.466 C  
HETATM   18  C   UNL     1     -12.747  10.983  71.443  1.00  0.00    -0.429 C  
BRANCH  17  19
HETATM   19  C   UNL     1     -12.388   8.448  71.606  1.00  0.00    -0.359 C  
BRANCH  19  20
HETATM   20  C   UNL     1     -11.480   7.813  72.656  1.00  0.00    -0.430 C  
BRANCH  20  21
HETATM   21  C   UNL     1     -11.219   6.336  72.350  1.00  0.00    -0.320 C  
BRANCH  21  22
HETATM   22  C   UNL     1     -10.492   5.652  73.509  1.00  0.00    -0.280 C  
BRANCH  22  23
HETATM   23  C   UNL     1     -10.065   4.228  73.151  1.00  0.00    -0.203 C  
HETATM   24  C   UNL     1     -11.247   3.270  73.207  1.00  0.00    -0.190 C  
ENDBRANCH  22  23
ENDBRANCH  21  22
ENDBRANCH  20  21
ENDBRANCH  19  20
ENDBRANCH  17  19
ENDBRANCH  13  14
ENDBRANCH  12  13
BRANCH  12  25
HETATM   25  O   UNL     1     -10.280  12.265  67.135  1.00  0.00    -0.210 OA 
BRANCH  25  26
HETATM   26  C   UNL     1     -11.039  13.297  66.673  1.00  0.00    -0.291 C  
HETATM   27  O   UNL     1     -11.742  13.281  65.668  1.00  0.00    -0.329 OA 
BRANCH  26  28
HETATM   28  C   UNL     1     -10.925  14.510  67.592  1.00  0.00    -0.288 C  
BRANCH  28  29
HETATM   29  C   UNL     1     -12.163  14.668  68.489  1.00  0.00    -0.135 C  
HETATM   30  C   UNL     1     -11.183  16.082  70.413  1.00  0.00    -0.401 C  
HETATM   31  C   UNL     1     -13.253  14.744  70.744  1.00  0.00    -0.355 C  
HETATM   32  C   UNL     1     -11.910  14.798  70.009  1.00  0.00    -0.362 C  
ENDBRANCH  28  29
BRANCH  28  33
HETATM   33  N   UNL     1     -10.651  15.693  66.777  1.00  0.00    -0.306 N  
HETATM   34  C   UNL     1      -9.397  16.017  66.344  1.00  0.00    -0.298 C  
HETATM   35  O   UNL     1      -8.375  15.406  66.614  1.00  0.00    -0.258 OA 
HETATM   36  H   UNL     1     -11.429  16.302  66.521  1.00  0.00     0.000 HD 
ENDBRANCH  28  33
ENDBRANCH  26  28
ENDBRANCH  25  26
ENDBRANCH  12  25
ENDBRANCH  11  12
ENDBRANCH  10  11
ENDBRANCH   9  10
ENDBRANCH   8   9
ENDBRANCH   7   8
ENDBRANCH   6   7
ENDBRANCH   5   6
ENDBRANCH   4   5
ENDBRANCH   3   4
ENDBRANCH   2   3
TORSDOF 22
ENDMDL
MODEL      343
REMARK 921   NORMALIZED FREE ENERGY PREDICTED BY IDOCK:   -3.22 KCAL/MOL
REMARK 922        TOTAL FREE ENERGY PREDICTED BY IDOCK:  -10.98 KCAL/MOL
REMARK 923 INTER-LIGAND FREE ENERGY PREDICTED BY IDOCK:   -8.21 KCAL/MOL
REMARK 924 INTRA-LIGAND FREE ENERGY PREDICTED BY IDOCK:   -2.77 KCAL/MOL
REMARK 927      BINDING AFFINITY PREDICTED BY RF-SCORE:    0.00 PKD
ROOT
HETATM    1  C   UNL     1     -11.610  13.167  68.992  1.00  0.00    -0.360 C  
HETATM    2  C   UNL     1     -11.422  14.642  69.309  1.00  0.00    -0.322 C  
ENDROOT
BRANCH   2   3
HETATM    3  C   UNL     1     -11.280  15.459  68.028  1.00  0.00    -0.326 C  
BRANCH   3   4
HETATM    4  C   UNL     1      -9.876  15.351  67.441  1.00  0.00    -0.216 C  
BRANCH   4   5
HETATM    5  C   UNL     1      -9.714  16.295  66.248  1.00  0.00    -0.329 C  
BRANCH   5   6
HETATM    6  C   UNL     1     -10.812  16.053  65.221  1.00  0.00    -0.376 C  
BRANCH   6   7
HETATM    7  C   UNL     1     -10.739  14.654  64.607  1.00  0.00    -0.309 C  
BRANCH   7   8
HETATM    8  C   UNL     1     -12.159  14.136  64.410  1.00  0.00    -0.486 C  
BRANCH   8   9
HETATM    9  C   UNL     1     -12.259  12.616  64.331  1.00  0.00    -0.518 C  
BRANCH   9  10
HETATM   10  C   UNL     1     -11.143  12.016  65.191  1.00  0.00    -0.369 C  
BRANCH  10  11
HETATM   11  C   UNL     1     -10.332  10.937  64.490  1.00  0.00    -0.417 C  
BRANCH  11  12
HETATM   12  C   UNL     1      -9.493  10.016  65.394  1.00  0.00    -0.250 C  
BRANCH  12  13
HETATM   13  C   UNL     1     -10.294   9.213  66.443  1.00  0.00    -0.235 C  
BRANCH  13  14
HETATM   14  C   UNL     1     -10.375   9.878  67.823  1.00  0.00    -0.221 C  
HETATM   15  O   UNL     1      -9.153  10.591  68.169  1.00  0.00    -0.136 OA 
HETATM   16  O   UNL     1      -8.005   9.889  70.041  1.00  0.00    -0.167 OA 
HETATM   17  C   UNL     1     -10.167   8.944  69.047  1.00  0.00    -0.217 C  
HETATM   18  C   UNL     1      -8.918   9.819  69.253  1.00  0.00    -0.173 C  
BRANCH  17  19
HETATM   19  C   UNL     1     -11.144   8.987  70.218  1.00  0.00    -0.263 C  
BRANCH  19  20
HETATM   20  C   UNL     1     -11.537   7.574  70.640  1.00  0.00    -0.272 C  
BRANCH  20  21
HETATM   21  C   UNL     1     -12.094   7.552  72.067  1.00  0.00    -0.326 C  
BRANCH  21  22
HETATM   22  C   UNL     1     -11.044   8.019  73.077  1.00  0.00    -0.301 C  
BRANCH  22  23
HETATM   23  C   UNL     1      -9.714   7.289  72.891  1.00  0.00    -0.212 C  
HETATM   24  C   UNL     1      -8.549   8.139  73.379  1.00  0.00    -0.313 C  
ENDBRANCH  22  23
ENDBRANCH  21  22
ENDBRANCH  20  21
ENDBRANCH  19  20
ENDBRANCH  17  19
ENDBRANCH  13  14
ENDBRANCH  12  13
BRANCH  12  25
HETATM   25  O   UNL     1      -8.745   9.063  64.603  1.00  0.00    -0.179 OA 
BRANCH  25  26
HETATM   26  C   UNL     1      -7.688   8.446  65.200  1.00  0.00    -0.097 C  
HETATM   27  O   UNL     1      -6.841   8.986  65.903  1.00  0.00    -0.077 OA 
BRANCH  26  28
HETATM   28  C   UNL     1      -7.691   6.950  64.899  1.00  0.00    -0.113 C  
BRANCH  28  29
HETATM   29  C   UNL     1      -8.764   6.204  65.707  1.00  0.00    -0.151 C  
HETATM   30  C   UNL     1      -7.935   6.629  68.114  1.00  0.00    -0.110 C  
HETATM   31  C   UNL     1      -9.462   4.732  67.611  1.00  0.00    -0.176 C  
HETATM   32  C   UNL     1      -8.323   5.593  67.057  1.00  0.00    -0.107 C  
ENDBRANCH  28  29
BRANCH  28  33
HETATM   33  N   UNL     1      -6.343   6.425  65.111  1.00  0.00    -0.034 N  
HETATM   34  C   UNL     1      -5.419   6.335  64.108  1.00  0.00    -0.018 C  
HETATM   35  O   UNL     1      -5.613   6.628  62.939  1.00  0.00    -0.029 OA 
HETATM   36  H   UNL     1      -6.081   6.113  66.046  1.00  0.00     0.000 HD 
ENDBRANCH  28  33
ENDBRANCH  26  28
ENDBRANCH  25  26
ENDBRANCH  12  25
ENDBRANCH  11  12
ENDBRANCH  10  11
ENDBRANCH   9  10
ENDBRANCH   8   9
ENDBRANCH   7   8
ENDBRANCH   6   7
ENDBRANCH   5   6
ENDBRANCH   4   5
ENDBRANCH   3   4
ENDBRANCH   2   3
TORSDOF 22
ENDMDL
MODEL      344
REMARK 921   NORMALIZED FREE ENERGY PREDICTED BY IDOCK:   -3.22 KCAL/MOL
REMARK 922        TOTAL FREE ENERGY PREDICTED BY IDOCK:  -10.97 KCAL/MOL
REMARK 923 INTER-LIGAND FREE ENERGY PREDICTED BY IDOCK:   -7.38 KCAL/MOL
REMARK 924 INTRA-LIGAND FREE ENERGY PREDICTED BY IDOCK:   -3.59 KCAL/MOL
REMARK 927      BINDING AFFINITY PREDICTED BY RF-SCORE:    0.00 PKD
ROOT
HETATM    1  C   UNL     1      -6.759   6.823  62.429  1.00  0.00    -0.043 C  
HETATM    2  C   UNL     1      -7.734   7.788  63.084  1.00  0.00    -0.135 C  
ENDROOT
BRANCH   2   3
HETATM    3  C   UNL     1      -8.177   7.269  64.449  1.00  0.00     0.007 C  
BRANCH   3   4
HETATM    4  C   UNL     1      -6.991   6.819  65.295  1.00  0.00    -0.055 C  
BRANCH   4   5
HETATM    5  C   UNL     1      -7.352   5.584  66.123  1.00  0.00    -0.078 C  
BRANCH   5   6
HETATM    6  C   UNL     1      -8.660   4.976  65.634  1.00  0.00    -0.135 C  
BRANCH   6   7
HETATM    7  C   UNL     1      -9.470   4.344  66.767  1.00  0.00    -0.194 C  
BRANCH   7   8
HETATM    8  C   UNL     1     -10.086   5.460  67.603  1.00  0.00    -0.217 C  
BRANCH   8   9
HETATM    9  C   UNL     1     -10.298   5.093  69.068  1.00  0.00    -0.205 C  
BRANCH   9  10
HETATM   10  C   UNL     1     -11.083   6.226  69.737  1.00  0.00    -0.473 C  
BRANCH  10  11
HETATM   11  C   UNL     1     -11.357   6.001  71.216  1.00  0.00    -0.296 C  
BRANCH  11  12
HETATM   12  C   UNL     1     -11.649   7.258  72.056  1.00  0.00    -0.274 C  
BRANCH  12  13
HETATM   13  C   UNL     1     -10.420   7.892  72.745  1.00  0.00    -0.412 C  
BRANCH  13  14
HETATM   14  C   UNL     1      -9.407   6.878  73.290  1.00  0.00    -0.145 C  
HETATM   15  O   UNL     1      -8.533   7.453  74.303  1.00  0.00    -0.179 OA 
HETATM   16  O   UNL     1      -6.271   7.485  73.867  1.00  0.00    -0.073 OA 
HETATM   17  C   UNL     1      -8.168   6.597  72.394  1.00  0.00    -0.103 C  
HETATM   18  C   UNL     1      -7.415   7.231  73.578  1.00  0.00    -0.089 C  
BRANCH  17  19
HETATM   19  C   UNL     1      -7.746   5.162  72.098  1.00  0.00    -0.099 C  
BRANCH  19  20
HETATM   20  C   UNL     1      -6.807   5.116  70.896  1.00  0.00    -0.047 C  
BRANCH  20  21
HETATM   21  C   UNL     1      -7.276   6.056  69.783  1.00  0.00    -0.074 C  
BRANCH  21  22
HETATM   22  C   UNL     1      -6.308   7.228  69.606  1.00  0.00    -0.035 C  
BRANCH  22  23
HETATM   23  C   UNL     1      -7.046   8.534  69.309  1.00  0.00    -0.059 C  
HETATM   24  C   UNL     1      -8.349   8.272  68.567  1.00  0.00    -0.129 C  
ENDBRANCH  22  23
ENDBRANCH  21  22
ENDBRANCH  20  21
ENDBRANCH  19  20
ENDBRANCH  17  19
ENDBRANCH  13  14
ENDBRANCH  12  13
BRANCH  12  25
HETATM   25  O   UNL     1     -12.264   8.286  71.245  1.00  0.00    -0.293 OA 
BRANCH  25  26
HETATM   26  C   UNL     1     -12.874   9.316  71.894  1.00  0.00    -0.404 C  
HETATM   27  O   UNL     1     -13.588   9.220  72.887  1.00  0.00    -0.314 OA 
BRANCH  26  28
HETATM   28  C   UNL     1     -12.538  10.650  71.235  1.00  0.00    -0.427 C  
BRANCH  28  29
HETATM   29  C   UNL     1     -13.516  11.760  71.654  1.00  0.00    -0.071 C  
HETATM   30  C   UNL     1     -12.360  13.828  70.631  1.00  0.00    -0.445 C  
HETATM   31  C   UNL     1     -13.996  14.073  72.488  1.00  0.00    -0.553 C  
HETATM   32  C   UNL     1     -12.916  13.164  71.892  1.00  0.00    -0.414 C  
ENDBRANCH  28  29
BRANCH  28  33
HETATM   33  N   UNL     1     -12.475  10.455  69.787  1.00  0.00    -0.545 N  
HETATM   34  C   UNL     1     -11.362  10.746  69.051  1.00  0.00    -0.284 C  
HETATM   35  O   UNL     1     -10.331  11.233  69.489  1.00  0.00    -0.088 OA 
HETATM   36  H   UNL     1     -13.296  10.087  69.306  1.00  0.00     0.000 HD 
ENDBRANCH  28  33
ENDBRANCH  26  28
ENDBRANCH  25  26
ENDBRANCH  12  25
ENDBRANCH  11  12
ENDBRANCH  10  11
ENDBRANCH   9  10
ENDBRANCH   8   9
ENDBRANCH   7   8
ENDBRANCH   6   7
ENDBRANCH   5   6
ENDBRANCH   4   5
ENDBRANCH   3   4
ENDBRANCH   2   3
TORSDOF 22
ENDMDL
MODEL      345
REMARK 921   NORMALIZED FREE ENERGY PREDICTED BY IDOCK:   -3.21 KCAL/MOL
REMARK 922        TOTAL FREE ENERGY PREDICTED BY IDOCK:  -10.96 KCAL/MOL
REMARK 923 INTER-LIGAND FREE ENERGY PREDICTED BY IDOCK:   -8.86 KCAL/MOL
REMARK 924 INTRA-LIGAND FREE ENERGY PREDICTED BY IDOCK:   -2.10 KCAL/MOL
REMARK 927      BINDING AFFINITY PREDICTED BY RF-SCORE:    0.00 PKD
ROOT
HETATM    1  C   UNL     1     -10.297   2.221  63.458  1.00  0.00    -0.158 C  
HETATM    2  C   UNL     1     -10.834   3.625  63.686  1.00  0.00    -0.207 C  
ENDROOT
BRANCH   2   3
HETATM    3  C   UNL     1     -10.211   4.249  64.931  1.00  0.00    -0.193 C  
BRANCH   3   4
HETATM    4  C   UNL     1      -8.983   3.474  65.398  1.00  0.00    -0.139 C  
BRANCH   4   5
HETATM    5  C   UNL     1      -7.700   4.245  65.078  1.00  0.00    -0.085 C  
BRANCH   5   6
HETATM    6  C   UNL     1      -7.944   5.746  65.166  1.00  0.00    -0.119 C  
BRANCH   6   7
HETATM    7  C   UNL     1      -7.586   6.316  66.540  1.00  0.00    -0.094 C  
BRANCH   7   8
HETATM    8  C   UNL     1      -8.442   7.552  66.789  1.00  0.00    -0.124 C  
BRANCH   8   9
HETATM    9  C   UNL     1      -8.687   8.399  65.545  1.00  0.00    -0.196 C  
BRANCH   9  10
HETATM   10  C   UNL     1      -9.874   9.326  65.822  1.00  0.00    -0.302 C  
BRANCH  10  11
HETATM   11  C   UNL     1      -9.482  10.769  66.102  1.00  0.00    -0.221 C  
BRANCH  11  12
HETATM   12  C   UNL     1     -10.539  11.640  66.805  1.00  0.00    -0.244 C  
BRANCH  12  13
HETATM   13  C   UNL     1     -11.383  10.918  67.879  1.00  0.00    -0.380 C  
BRANCH  13  14
HETATM   14  C   UNL     1     -10.721  10.846  69.260  1.00  0.00    -0.231 C  
HETATM   15  O   UNL     1      -9.296  10.557  69.180  1.00  0.00    -0.194 OA 
HETATM   16  O   UNL     1      -8.544   8.622  70.182  1.00  0.00    -0.126 OA 
HETATM   17  C   UNL     1     -10.936   9.528  70.055  1.00  0.00    -0.284 C  
HETATM   18  C   UNL     1      -9.412   9.402  69.873  1.00  0.00    -0.213 C  
BRANCH  17  19
HETATM   19  C   UNL     1     -11.375   9.576  71.515  1.00  0.00    -0.456 C  
BRANCH  19  20
HETATM   20  C   UNL     1     -12.418   8.499  71.797  1.00  0.00    -0.388 C  
BRANCH  20  21
HETATM   21  C   UNL     1     -11.825   7.345  72.611  1.00  0.00    -0.174 C  
BRANCH  21  22
HETATM   22  C   UNL     1     -10.450   7.715  73.172  1.00  0.00    -0.433 C  
BRANCH  22  23
HETATM   23  C   UNL     1      -9.446   6.574  73.012  1.00  0.00    -0.152 C  
HETATM   24  C   UNL     1      -9.822   5.671  71.846  1.00  0.00    -0.203 C  
ENDBRANCH  22  23
ENDBRANCH  21  22
ENDBRANCH  20  21
ENDBRANCH  19  20
ENDBRANCH  17  19
ENDBRANCH  13  14
ENDBRANCH  12  13
BRANCH  12  25
HETATM   25  O   UNL     1      -9.920  12.783  67.441  1.00  0.00    -0.208 OA 
BRANCH  25  26
HETATM   26  C   UNL     1      -9.904  13.954  66.747  1.00  0.00    -0.274 C  
HETATM   27  O   UNL     1      -8.961  14.393  66.096  1.00  0.00    -0.106 OA 
BRANCH  26  28
HETATM   28  C   UNL     1     -11.245  14.673  66.859  1.00  0.00    -0.343 C  
BRANCH  28  29
HETATM   29  C   UNL     1     -11.660  14.887  68.323  1.00  0.00    -0.356 C  
HETATM   30  C   UNL     1     -10.434  17.096  68.851  1.00  0.00    -0.346 C  
HETATM   31  C   UNL     1     -11.152  15.572  70.679  1.00  0.00    -0.378 C  
HETATM   32  C   UNL     1     -10.655  15.631  69.232  1.00  0.00    -0.238 C  
ENDBRANCH  28  29
BRANCH  28  33
HETATM   33  N   UNL     1     -12.240  13.935  66.081  1.00  0.00    -0.449 N  
HETATM   34  C   UNL     1     -12.583  14.280  64.805  1.00  0.00    -0.291 C  
HETATM   35  O   UNL     1     -12.150  15.243  64.191  1.00  0.00    -0.554 OA 
HETATM   36  H   UNL     1     -12.696  13.129  66.509  1.00  0.00     0.000 HD 
ENDBRANCH  28  33
ENDBRANCH  26  28
ENDBRANCH  25  26
ENDBRANCH  12  25
ENDBRANCH  11  12
ENDBRANCH  10  11
ENDBRANCH   9  10
ENDBRANCH   8   9
ENDBRANCH   7   8
ENDBRANCH   6   7
ENDBRANCH   5   6
ENDBRANCH   4   5
ENDBRANCH   3   4
ENDBRANCH   2   3
TORSDOF 22
ENDMDL
MODEL      346
REMARK 921   NORMALIZED FREE ENERGY PREDICTED BY IDOCK:   -3.21 KCAL/MOL
REMARK 922        TOTAL FREE ENERGY PREDICTED BY IDOCK:  -10.95 KCAL/MOL
REMARK 923 INTER-LIGAND FREE ENERGY PREDICTED BY IDOCK:   -9.15 KCAL/MOL
REMARK 924 INTRA-LIGAND FREE ENERGY PREDICTED BY IDOCK:   -1.81 KCAL/MOL
REMARK 927      BINDING AFFINITY PREDICTED BY RF-SCORE:    0.00 PKD
ROOT
HETATM    1  C   UNL     1     -10.121   2.514  74.065  1.00  0.00    -0.164 C  
HETATM    2  C   UNL     1     -11.310   3.310  73.554  1.00  0.00    -0.227 C  
ENDROOT
BRANCH   2   3
HETATM    3  C   UNL     1     -10.967   4.794  73.456  1.00  0.00    -0.398 C  
BRANCH   3   4
HETATM    4  C   UNL     1     -10.540   5.185  72.045  1.00  0.00    -0.266 C  
BRANCH   4   5
HETATM    5  C   UNL     1      -9.540   6.342  72.081  1.00  0.00    -0.158 C  
BRANCH   5   6
HETATM    6  C   UNL     1      -8.112   5.816  72.037  1.00  0.00    -0.112 C  
BRANCH   6   7
HETATM    7  C   UNL     1      -7.418   6.120  70.708  1.00  0.00    -0.091 C  
BRANCH   7   8
HETATM    8  C   UNL     1      -8.142   7.284  70.039  1.00  0.00    -0.130 C  
BRANCH   8   9
HETATM    9  C   UNL     1      -7.232   8.451  69.672  1.00  0.00    -0.057 C  
BRANCH   9  10
HETATM   10  C   UNL     1      -8.097   9.708  69.532  1.00  0.00    -0.129 C  
BRANCH  10  11
HETATM   11  C   UNL     1      -8.240  10.207  68.103  1.00  0.00    -0.113 C  
BRANCH  11  12
HETATM   12  C   UNL     1      -9.675  10.450  67.603  1.00  0.00    -0.168 C  
BRANCH  12  13
HETATM   13  C   UNL     1      -9.877  11.737  66.774  1.00  0.00    -0.218 C  
BRANCH  13  14
HETATM   14  C   UNL     1     -11.129  12.540  67.146  1.00  0.00    -0.276 C  
HETATM   15  O   UNL     1     -12.241  12.290  66.240  1.00  0.00    -0.628 OA 
HETATM   16  O   UNL     1     -13.064  14.079  65.043  1.00  0.00    -0.742 OA 
HETATM   17  C   UNL     1     -11.135  14.036  66.726  1.00  0.00    -0.311 C  
HETATM   18  C   UNL     1     -12.304  13.578  65.836  1.00  0.00    -0.456 C  
BRANCH  17  19
HETATM   19  C   UNL     1     -11.520  15.114  67.735  1.00  0.00    -0.329 C  
BRANCH  19  20
HETATM   20  C   UNL     1     -12.114  14.485  68.991  1.00  0.00    -0.286 C  
BRANCH  20  21
HETATM   21  C   UNL     1     -11.261  14.788  70.226  1.00  0.00    -0.239 C  
BRANCH  21  22
HETATM   22  C   UNL     1     -11.648  16.130  70.849  1.00  0.00    -0.406 C  
BRANCH  22  23
HETATM   23  C   UNL     1     -12.111  15.973  72.297  1.00  0.00    -0.617 C  
HETATM   24  C   UNL     1     -13.593  15.629  72.364  1.00  0.00    -0.616 C  
ENDBRANCH  22  23
ENDBRANCH  21  22
ENDBRANCH  20  21
ENDBRANCH  19  20
ENDBRANCH  17  19
ENDBRANCH  13  14
ENDBRANCH  12  13
BRANCH  12  25
HETATM   25  O   UNL     1     -10.130   9.341  66.793  1.00  0.00    -0.225 OA 
BRANCH  25  26
HETATM   26  C   UNL     1      -9.211   8.727  65.998  1.00  0.00    -0.222 C  
HETATM   27  O   UNL     1      -8.719   9.189  64.974  1.00  0.00    -0.173 OA 
BRANCH  26  28
HETATM   28  C   UNL     1      -8.835   7.359  66.559  1.00  0.00    -0.148 C  
BRANCH  28  29
HETATM   29  C   UNL     1      -7.403   6.954  66.172  1.00  0.00    -0.076 C  
HETATM   30  C   UNL     1      -7.783   6.081  63.773  1.00  0.00    -0.101 C  
HETATM   31  C   UNL     1      -5.775   5.399  65.071  1.00  0.00    -0.017 C  
HETATM   32  C   UNL     1      -7.255   5.780  65.177  1.00  0.00    -0.070 C  
ENDBRANCH  28  29
BRANCH  28  33
HETATM   33  N   UNL     1      -9.842   6.385  66.138  1.00  0.00    -0.395 N  
HETATM   34  C   UNL     1     -10.769   5.865  66.996  1.00  0.00    -0.318 C  
HETATM   35  O   UNL     1     -10.841   6.105  68.191  1.00  0.00    -0.268 OA 
HETATM   36  H   UNL     1      -9.852   6.082  65.164  1.00  0.00     0.000 HD 
ENDBRANCH  28  33
ENDBRANCH  26  28
ENDBRANCH  25  26
ENDBRANCH  12  25
ENDBRANCH  11  12
ENDBRANCH  10  11
ENDBRANCH   9  10
ENDBRANCH   8   9
ENDBRANCH   7   8
ENDBRANCH   6   7
ENDBRANCH   5   6
ENDBRANCH   4   5
ENDBRANCH   3   4
ENDBRANCH   2   3
TORSDOF 22
ENDMDL
MODEL      347
REMARK 921   NORMALIZED FREE ENERGY PREDICTED BY IDOCK:   -3.19 KCAL/MOL
REMARK 922        TOTAL FREE ENERGY PREDICTED BY IDOCK:  -10.90 KCAL/MOL
REMARK 923 INTER-LIGAND FREE ENERGY PREDICTED BY IDOCK:   -7.74 KCAL/MOL
REMARK 924 INTRA-LIGAND FREE ENERGY PREDICTED BY IDOCK:   -3.17 KCAL/MOL
REMARK 927      BINDING AFFINITY PREDICTED BY RF-SCORE:    0.00 PKD
ROOT
HETATM    1  C   UNL     1     -13.901   9.014  72.181  1.00  0.00    -0.526 C  
HETATM    2  C   UNL     1     -12.677   8.310  71.620  1.00  0.00    -0.351 C  
ENDROOT
BRANCH   2   3
HETATM    3  C   UNL     1     -11.523   9.291  71.436  1.00  0.00    -0.439 C  
BRANCH   3   4
HETATM    4  C   UNL     1     -10.175   8.577  71.393  1.00  0.00    -0.303 C  
BRANCH   4   5
HETATM    5  C   UNL     1      -9.661   8.301  72.807  1.00  0.00    -0.336 C  
BRANCH   5   6
HETATM    6  C   UNL     1      -9.240   6.844  72.948  1.00  0.00    -0.154 C  
BRANCH   6   7
HETATM    7  C   UNL     1     -10.173   5.892  72.198  1.00  0.00    -0.231 C  
BRANCH   7   8
HETATM    8  C   UNL     1      -9.355   4.708  71.696  1.00  0.00    -0.195 C  
BRANCH   8   9
HETATM    9  C   UNL     1      -9.761   4.216  70.310  1.00  0.00    -0.277 C  
BRANCH   9  10
HETATM   10  C   UNL     1     -10.467   5.363  69.582  1.00  0.00    -0.361 C  
BRANCH  10  11
HETATM   11  C   UNL     1     -10.359   5.295  68.066  1.00  0.00    -0.183 C  
BRANCH  11  12
HETATM   12  C   UNL     1      -9.168   6.036  67.432  1.00  0.00    -0.109 C  
BRANCH  12  13
HETATM   13  C   UNL     1      -8.818   7.397  68.074  1.00  0.00    -0.126 C  
BRANCH  13  14
HETATM   14  C   UNL     1      -9.223   8.615  67.236  1.00  0.00    -0.140 C  
HETATM   15  O   UNL     1      -8.074   9.384  66.780  1.00  0.00    -0.107 OA 
HETATM   16  O   UNL     1      -7.914  11.575  67.477  1.00  0.00    -0.122 OA 
HETATM   17  C   UNL     1      -9.728   9.854  68.027  1.00  0.00    -0.160 C  
HETATM   18  C   UNL     1      -8.460  10.499  67.439  1.00  0.00    -0.122 C  
BRANCH  17  19
HETATM   19  C   UNL     1     -11.018  10.554  67.613  1.00  0.00    -0.375 C  
BRANCH  19  20
HETATM   20  C   UNL     1     -11.084  11.956  68.211  1.00  0.00    -0.289 C  
BRANCH  20  21
HETATM   21  C   UNL     1     -11.907  12.901  67.331  1.00  0.00    -0.418 C  
BRANCH  21  22
HETATM   22  C   UNL     1     -11.909  12.438  65.873  1.00  0.00    -0.467 C  
BRANCH  22  23
HETATM   23  C   UNL     1     -10.687  12.953  65.113  1.00  0.00    -0.326 C  
HETATM   24  C   UNL     1     -10.645  12.393  63.697  1.00  0.00    -0.481 C  
ENDBRANCH  22  23
ENDBRANCH  21  22
ENDBRANCH  20  21
ENDBRANCH  19  20
ENDBRANCH  17  19
ENDBRANCH  13  14
ENDBRANCH  12  13
BRANCH  12  25
HETATM   25  O   UNL     1      -7.975   5.220  67.476  1.00  0.00    -0.099 OA 
BRANCH  25  26
HETATM   26  C   UNL     1      -8.017   4.013  66.848  1.00  0.00    -0.096 C  
HETATM   27  O   UNL     1      -7.996   2.915  67.394  1.00  0.00    -0.075 OA 
BRANCH  26  28
HETATM   28  C   UNL     1      -8.118   4.190  65.335  1.00  0.00    -0.101 C  
BRANCH  28  29
HETATM   29  C   UNL     1      -9.012   3.118  64.691  1.00  0.00    -0.124 C  
HETATM   30  C   UNL     1      -9.408   4.160  62.363  1.00  0.00    -0.119 C  
HETATM   31  C   UNL     1     -10.957   2.438  63.266  1.00  0.00    -0.222 C  
HETATM   32  C   UNL     1     -10.038   3.604  63.642  1.00  0.00    -0.199 C  
ENDBRANCH  28  29
BRANCH  28  33
HETATM   33  N   UNL     1      -6.768   4.227  64.775  1.00  0.00    -0.044 N  
HETATM   34  C   UNL     1      -6.121   5.394  64.485  1.00  0.00    -0.022 C  
HETATM   35  O   UNL     1      -6.591   6.514  64.611  1.00  0.00    -0.037 OA 
HETATM   36  H   UNL     1      -6.290   3.344  64.592  1.00  0.00     0.000 HD 
ENDBRANCH  28  33
ENDBRANCH  26  28
ENDBRANCH  25  26
ENDBRANCH  12  25
ENDBRANCH  11  12
ENDBRANCH  10  11
ENDBRANCH   9  10
ENDBRANCH   8   9
ENDBRANCH   7   8
ENDBRANCH   6   7
ENDBRANCH   5   6
ENDBRANCH   4   5
ENDBRANCH   3   4
ENDBRANCH   2   3
TORSDOF 22
ENDMDL
MODEL      348
REMARK 921   NORMALIZED FREE ENERGY PREDICTED BY IDOCK:   -3.18 KCAL/MOL
REMARK 922        TOTAL FREE ENERGY PREDICTED BY IDOCK:  -10.89 KCAL/MOL
REMARK 923 INTER-LIGAND FREE ENERGY PREDICTED BY IDOCK:   -7.56 KCAL/MOL
REMARK 924 INTRA-LIGAND FREE ENERGY PREDICTED BY IDOCK:   -3.33 KCAL/MOL
REMARK 927      BINDING AFFINITY PREDICTED BY RF-SCORE:    0.00 PKD
ROOT
HETATM    1  C   UNL     1     -14.346   8.077  71.478  1.00  0.00    -0.546 C  
HETATM    2  C   UNL     1     -12.886   7.725  71.247  1.00  0.00    -0.265 C  
ENDROOT
BRANCH   2   3
HETATM    3  C   UNL     1     -11.972   8.630  72.067  1.00  0.00    -0.442 C  
BRANCH   3   4
HETATM    4  C   UNL     1     -10.645   8.887  71.360  1.00  0.00    -0.374 C  
BRANCH   4   5
HETATM    5  C   UNL     1      -9.468   8.511  72.261  1.00  0.00    -0.365 C  
BRANCH   5   6
HETATM    6  C   UNL     1      -8.774   7.259  71.740  1.00  0.00    -0.123 C  
BRANCH   6   7
HETATM    7  C   UNL     1      -9.763   6.229  71.193  1.00  0.00    -0.194 C  
BRANCH   7   8
HETATM    8  C   UNL     1      -8.974   5.098  70.542  1.00  0.00    -0.165 C  
BRANCH   8   9
HETATM    9  C   UNL     1      -9.648   4.500  69.311  1.00  0.00    -0.258 C  
BRANCH   9  10
HETATM   10  C   UNL     1     -10.712   5.486  68.820  1.00  0.00    -0.195 C  
BRANCH  10  11
HETATM   11  C   UNL     1     -10.682   5.733  67.319  1.00  0.00    -0.345 C  
BRANCH  11  12
HETATM   12  C   UNL     1     -10.450   7.187  66.870  1.00  0.00    -0.294 C  
BRANCH  12  13
HETATM   13  C   UNL     1     -10.298   8.215  68.013  1.00  0.00    -0.267 C  
BRANCH  13  14
HETATM   14  C   UNL     1     -10.644   9.656  67.619  1.00  0.00    -0.275 C  
HETATM   15  O   UNL     1     -10.043  10.046  66.351  1.00  0.00    -0.227 OA 
HETATM   16  O   UNL     1      -8.562  11.812  66.374  1.00  0.00    -0.179 OA 
HETATM   17  C   UNL     1      -9.840  10.776  68.336  1.00  0.00    -0.177 C  
HETATM   18  C   UNL     1      -9.321  11.042  66.912  1.00  0.00    -0.173 C  
BRANCH  17  19
HETATM   19  C   UNL     1     -10.567  11.965  68.954  1.00  0.00    -0.205 C  
BRANCH  19  20
HETATM   20  C   UNL     1     -10.914  12.997  67.885  1.00  0.00    -0.264 C  
BRANCH  20  21
HETATM   21  C   UNL     1     -12.116  13.850  68.299  1.00  0.00    -0.322 C  
BRANCH  21  22
HETATM   22  C   UNL     1     -11.761  15.338  68.308  1.00  0.00    -0.320 C  
BRANCH  22  23
HETATM   23  C   UNL     1     -11.151  15.768  69.642  1.00  0.00    -0.307 C  
HETATM   24  C   UNL     1     -12.172  15.675  70.768  1.00  0.00    -0.463 C  
ENDBRANCH  22  23
ENDBRANCH  21  22
ENDBRANCH  20  21
ENDBRANCH  19  20
ENDBRANCH  17  19
ENDBRANCH  13  14
ENDBRANCH  12  13
BRANCH  12  25
HETATM   25  O   UNL     1      -9.267   7.286  66.043  1.00  0.00    -0.133 OA 
BRANCH  25  26
HETATM   26  C   UNL     1      -8.554   6.145  65.831  1.00  0.00    -0.147 C  
HETATM   27  O   UNL     1      -8.757   5.323  64.943  1.00  0.00    -0.150 OA 
BRANCH  26  28
HETATM   28  C   UNL     1      -7.423   6.014  66.846  1.00  0.00    -0.084 C  
BRANCH  28  29
HETATM   29  C   UNL     1      -6.882   7.384  67.283  1.00  0.00    -0.078 C  
HETATM   30  C   UNL     1      -5.786   6.770  69.538  1.00  0.00    -0.015 C  
HETATM   31  C   UNL     1      -6.434   9.118  69.036  1.00  0.00    -0.047 C  
HETATM   32  C   UNL     1      -6.801   7.649  68.804  1.00  0.00    -0.065 C  
ENDBRANCH  28  29
BRANCH  28  33
HETATM   33  N   UNL     1      -6.391   5.139  66.289  1.00  0.00    -0.038 N  
HETATM   34  C   UNL     1      -6.009   3.973  66.889  1.00  0.00    -0.024 C  
HETATM   35  O   UNL     1      -6.434   3.553  67.954  1.00  0.00    -0.036 OA 
HETATM   36  H   UNL     1      -5.938   5.411  65.416  1.00  0.00     0.000 HD 
ENDBRANCH  28  33
ENDBRANCH  26  28
ENDBRANCH  25  26
ENDBRANCH  12  25
ENDBRANCH  11  12
ENDBRANCH  10  11
ENDBRANCH   9  10
ENDBRANCH   8   9
ENDBRANCH   7   8
ENDBRANCH   6   7
ENDBRANCH   5   6
ENDBRANCH   4   5
ENDBRANCH   3   4
ENDBRANCH   2   3
TORSDOF 22
ENDMDL
MODEL      349
REMARK 921   NORMALIZED FREE ENERGY PREDICTED BY IDOCK:   -3.17 KCAL/MOL
REMARK 922        TOTAL FREE ENERGY PREDICTED BY IDOCK:  -10.87 KCAL/MOL
REMARK 923 INTER-LIGAND FREE ENERGY PREDICTED BY IDOCK:   -8.73 KCAL/MOL
REMARK 924 INTRA-LIGAND FREE ENERGY PREDICTED BY IDOCK:   -2.14 KCAL/MOL
REMARK 927      BINDING AFFINITY PREDICTED BY RF-SCORE:    0.00 PKD
ROOT
HETATM    1  C   UNL     1      -6.367  16.118  69.749  1.00  0.00    -0.175 C  
HETATM    2  C   UNL     1      -6.972  16.314  68.369  1.00  0.00    -0.135 C  
ENDROOT
BRANCH   2   3
HETATM    3  C   UNL     1      -8.274  15.530  68.230  1.00  0.00    -0.142 C  
BRANCH   3   4
HETATM    4  C   UNL     1      -9.486  16.377  68.603  1.00  0.00    -0.239 C  
BRANCH   4   5
HETATM    5  C   UNL     1     -10.776  15.737  68.084  1.00  0.00    -0.285 C  
BRANCH   5   6
HETATM    6  C   UNL     1     -10.661  14.219  68.094  1.00  0.00    -0.246 C  
BRANCH   6   7
HETATM    7  C   UNL     1     -12.016  13.532  68.273  1.00  0.00    -0.377 C  
BRANCH   7   8
HETATM    8  C   UNL     1     -11.786  12.031  68.397  1.00  0.00    -0.360 C  
BRANCH   8   9
HETATM    9  C   UNL     1     -11.935  11.496  69.818  1.00  0.00    -0.415 C  
BRANCH   9  10
HETATM   10  C   UNL     1     -11.411  10.057  69.846  1.00  0.00    -0.306 C  
BRANCH  10  11
HETATM   11  C   UNL     1      -9.910   9.948  70.063  1.00  0.00    -0.291 C  
BRANCH  11  12
HETATM   12  C   UNL     1      -9.222   8.702  69.476  1.00  0.00    -0.150 C  
BRANCH  12  13
HETATM   13  C   UNL     1      -8.197   8.980  68.355  1.00  0.00    -0.116 C  
BRANCH  13  14
HETATM   14  C   UNL     1      -8.821   9.344  67.003  1.00  0.00    -0.127 C  
HETATM   15  O   UNL     1      -8.360   8.479  65.926  1.00  0.00    -0.123 OA 
HETATM   16  O   UNL     1      -7.231   9.466  64.175  1.00  0.00    -0.099 OA 
HETATM   17  C   UNL     1      -8.206  10.569  66.271  1.00  0.00    -0.147 C  
HETATM   18  C   UNL     1      -7.809   9.501  65.235  1.00  0.00    -0.111 C  
BRANCH  17  19
HETATM   19  C   UNL     1      -9.111  11.660  65.709  1.00  0.00    -0.128 C  
BRANCH  19  20
HETATM   20  C   UNL     1     -10.353  11.048  65.067  1.00  0.00    -0.360 C  
BRANCH  20  21
HETATM   21  C   UNL     1     -10.610  11.635  63.676  1.00  0.00    -0.493 C  
BRANCH  21  22
HETATM   22  C   UNL     1     -12.089  11.977  63.486  1.00  0.00    -0.628 C  
BRANCH  22  23
HETATM   23  C   UNL     1     -12.622  12.849  64.623  1.00  0.00    -0.459 C  
HETATM   24  C   UNL     1     -11.974  14.227  64.607  1.00  0.00    -0.468 C  
ENDBRANCH  22  23
ENDBRANCH  21  22
ENDBRANCH  20  21
ENDBRANCH  19  20
ENDBRANCH  17  19
ENDBRANCH  13  14
ENDBRANCH  12  13
BRANCH  12  25
HETATM   25  O   UNL     1      -8.536   7.960  70.511  1.00  0.00    -0.128 OA 
BRANCH  25  26
HETATM   26  C   UNL     1      -9.247   7.638  71.628  1.00  0.00    -0.134 C  
HETATM   27  O   UNL     1      -9.443   8.368  72.593  1.00  0.00    -0.269 OA 
BRANCH  26  28
HETATM   28  C   UNL     1      -9.808   6.222  71.526  1.00  0.00    -0.173 C  
BRANCH  28  29
HETATM   29  C   UNL     1     -10.081   5.816  70.069  1.00  0.00    -0.279 C  
HETATM   30  C   UNL     1      -8.934   3.506  69.991  1.00  0.00    -0.171 C  
HETATM   31  C   UNL     1      -9.372   4.780  67.901  1.00  0.00    -0.164 C  
HETATM   32  C   UNL     1      -9.031   4.909  69.389  1.00  0.00    -0.133 C  
ENDBRANCH  28  29
BRANCH  28  33
HETATM   33  N   UNL     1     -10.988   6.122  72.383  1.00  0.00    -0.245 N  
HETATM   34  C   UNL     1     -12.237   6.487  71.966  1.00  0.00    -0.295 C  
HETATM   35  O   UNL     1     -12.506   6.970  70.877  1.00  0.00    -0.366 OA 
HETATM   36  H   UNL     1     -10.875   5.764  73.332  1.00  0.00     0.000 HD 
ENDBRANCH  28  33
ENDBRANCH  26  28
ENDBRANCH  25  26
ENDBRANCH  12  25
ENDBRANCH  11  12
ENDBRANCH  10  11
ENDBRANCH   9  10
ENDBRANCH   8   9
ENDBRANCH   7   8
ENDBRANCH   6   7
ENDBRANCH   5   6
ENDBRANCH   4   5
ENDBRANCH   3   4
ENDBRANCH   2   3
TORSDOF 22
ENDMDL
MODEL      350
REMARK 921   NORMALIZED FREE ENERGY PREDICTED BY IDOCK:   -3.16 KCAL/MOL
REMARK 922        TOTAL FREE ENERGY PREDICTED BY IDOCK:  -10.84 KCAL/MOL
REMARK 923 INTER-LIGAND FREE ENERGY PREDICTED BY IDOCK:   -9.11 KCAL/MOL
REMARK 924 INTRA-LIGAND FREE ENERGY PREDICTED BY IDOCK:   -1.73 KCAL/MOL
REMARK 927      BINDING AFFINITY PREDICTED BY RF-SCORE:    0.00 PKD
ROOT
HETATM    1  C   UNL     1      -9.485   4.726  68.804  1.00  0.00    -0.209 C  
HETATM    2  C   UNL     1      -9.611   5.189  67.362  1.00  0.00    -0.154 C  
ENDROOT
BRANCH   2   3
HETATM    3  C   UNL     1      -8.358   5.939  66.921  1.00  0.00    -0.108 C  
BRANCH   3   4
HETATM    4  C   UNL     1      -8.391   6.271  65.432  1.00  0.00    -0.148 C  
BRANCH   4   5
HETATM    5  C   UNL     1      -8.334   7.784  65.212  1.00  0.00    -0.128 C  
BRANCH   5   6
HETATM    6  C   UNL     1      -7.144   8.387  65.947  1.00  0.00    -0.072 C  
BRANCH   6   7
HETATM    7  C   UNL     1      -7.509   9.673  66.691  1.00  0.00    -0.094 C  
BRANCH   7   8
HETATM    8  C   UNL     1      -9.024   9.723  66.857  1.00  0.00    -0.154 C  
BRANCH   8   9
HETATM    9  C   UNL     1      -9.639  11.079  66.526  1.00  0.00    -0.223 C  
BRANCH   9  10
HETATM   10  C   UNL     1      -8.536  12.139  66.605  1.00  0.00    -0.122 C  
BRANCH  10  11
HETATM   11  C   UNL     1      -8.518  12.919  67.910  1.00  0.00    -0.181 C  
BRANCH  11  12
HETATM   12  C   UNL     1      -9.254  14.271  67.909  1.00  0.00    -0.194 C  
BRANCH  12  13
HETATM   13  C   UNL     1      -8.867  15.232  66.763  1.00  0.00    -0.302 C  
BRANCH  13  14
HETATM   14  C   UNL     1      -8.145  16.505  67.222  1.00  0.00    -0.168 C  
HETATM   15  O   UNL     1      -9.063  17.609  67.466  1.00  0.00    -0.237 OA 
HETATM   16  O   UNL     1      -8.806  19.511  66.191  1.00  0.00    -0.356 OA 
HETATM   17  C   UNL     1      -7.452  17.339  66.108  1.00  0.00    -0.321 C  
HETATM   18  C   UNL     1      -8.502  18.389  66.516  1.00  0.00    -0.270 C  
BRANCH  17  19
HETATM   19  C   UNL     1      -6.013  17.811  66.288  1.00  0.00    -0.245 C  
BRANCH  19  20
HETATM   20  C   UNL     1      -5.955  19.333  66.383  1.00  0.00    -0.178 C  
BRANCH  20  21
HETATM   21  C   UNL     1      -5.328  19.787  67.704  1.00  0.00    -0.189 C  
BRANCH  21  22
HETATM   22  C   UNL     1      -6.359  20.484  68.594  1.00  0.00    -0.327 C  
BRANCH  22  23
HETATM   23  C   UNL     1      -6.572  19.736  69.910  1.00  0.00    -0.325 C  
HETATM   24  C   UNL     1      -5.425  18.774  70.186  1.00  0.00    -0.234 C  
ENDBRANCH  22  23
ENDBRANCH  21  22
ENDBRANCH  20  21
ENDBRANCH  19  20
ENDBRANCH  17  19
ENDBRANCH  13  14
ENDBRANCH  12  13
BRANCH  12  25
HETATM   25  O   UNL     1     -10.686  14.076  67.840  1.00  0.00    -0.236 OA 
BRANCH  25  26
HETATM   26  C   UNL     1     -11.464  14.858  68.639  1.00  0.00    -0.306 C  
HETATM   27  O   UNL     1     -11.469  16.084  68.663  1.00  0.00    -0.370 OA 
BRANCH  26  28
HETATM   28  C   UNL     1     -12.377  14.003  69.514  1.00  0.00    -0.229 C  
BRANCH  28  29
HETATM   29  C   UNL     1     -13.183  14.856  70.506  1.00  0.00    -0.232 C  
HETATM   30  C   UNL     1     -11.302  15.681  72.069  1.00  0.00    -0.404 C  
HETATM   31  C   UNL     1     -13.670  15.664  72.827  1.00  0.00    -0.662 C  
HETATM   32  C   UNL     1     -12.639  14.947  71.951  1.00  0.00    -0.400 C  
ENDBRANCH  28  29
BRANCH  28  33
HETATM   33  N   UNL     1     -11.571  12.971  70.164  1.00  0.00    -0.536 N  
HETATM   34  C   UNL     1     -11.649  11.650  69.824  1.00  0.00    -0.315 C  
HETATM   35  O   UNL     1     -12.410  11.177  68.994  1.00  0.00    -0.479 OA 
HETATM   36  H   UNL     1     -10.924  13.248  70.903  1.00  0.00     0.000 HD 
ENDBRANCH  28  33
ENDBRANCH  26  28
ENDBRANCH  25  26
ENDBRANCH  12  25
ENDBRANCH  11  12
ENDBRANCH  10  11
ENDBRANCH   9  10
ENDBRANCH   8   9
ENDBRANCH   7   8
ENDBRANCH   6   7
ENDBRANCH   5   6
ENDBRANCH   4   5
ENDBRANCH   3   4
ENDBRANCH   2   3
TORSDOF 22
ENDMDL
MODEL      351
REMARK 921   NORMALIZED FREE ENERGY PREDICTED BY IDOCK:   -3.16 KCAL/MOL
REMARK 922        TOTAL FREE ENERGY PREDICTED BY IDOCK:  -10.83 KCAL/MOL
REMARK 923 INTER-LIGAND FREE ENERGY PREDICTED BY IDOCK:   -8.60 KCAL/MOL
REMARK 924 INTRA-LIGAND FREE ENERGY PREDICTED BY IDOCK:   -2.24 KCAL/MOL
REMARK 927      BINDING AFFINITY PREDICTED BY RF-SCORE:    0.00 PKD
ROOT
HETATM    1  C   UNL     1      -6.098  17.494  69.924  1.00  0.00    -0.181 C  
HETATM    2  C   UNL     1      -5.995  17.789  68.437  1.00  0.00    -0.172 C  
ENDROOT
BRANCH   2   3
HETATM    3  C   UNL     1      -6.537  19.180  68.121  1.00  0.00    -0.253 C  
BRANCH   3   4
HETATM    4  C   UNL     1      -7.794  19.115  67.258  1.00  0.00    -0.274 C  
BRANCH   4   5
HETATM    5  C   UNL     1      -9.051  19.117  68.130  1.00  0.00    -0.371 C  
BRANCH   5   6
HETATM    6  C   UNL     1     -10.193  18.400  67.422  1.00  0.00    -0.393 C  
BRANCH   6   7
HETATM    7  C   UNL     1      -9.957  16.892  67.312  1.00  0.00    -0.277 C  
BRANCH   7   8
HETATM    8  C   UNL     1      -9.742  16.333  68.714  1.00  0.00    -0.240 C  
BRANCH   8   9
HETATM    9  C   UNL     1      -8.861  15.089  68.757  1.00  0.00    -0.192 C  
BRANCH   9  10
HETATM   10  C   UNL     1      -9.347  14.119  67.675  1.00  0.00    -0.209 C  
BRANCH  10  11
HETATM   11  C   UNL     1      -8.811  12.704  67.825  1.00  0.00    -0.179 C  
BRANCH  11  12
HETATM   12  C   UNL     1      -9.791  11.658  68.388  1.00  0.00    -0.202 C  
BRANCH  12  13
HETATM   13  C   UNL     1      -9.134  10.461  69.111  1.00  0.00    -0.197 C  
BRANCH  13  14
HETATM   14  C   UNL     1      -8.899   9.235  68.220  1.00  0.00    -0.129 C  
HETATM   15  O   UNL     1      -9.911   9.099  67.182  1.00  0.00    -0.185 OA 
HETATM   16  O   UNL     1     -11.204   7.190  67.197  1.00  0.00    -0.276 OA 
HETATM   17  C   UNL     1      -9.333   7.864  68.811  1.00  0.00    -0.146 C  
HETATM   18  C   UNL     1     -10.332   7.899  67.640  1.00  0.00    -0.241 C  
BRANCH  17  19
HETATM   19  C   UNL     1      -8.380   6.674  68.766  1.00  0.00    -0.120 C  
BRANCH  19  20
HETATM   20  C   UNL     1      -9.160   5.364  68.721  1.00  0.00    -0.135 C  
BRANCH  20  21
HETATM   21  C   UNL     1      -8.479   4.339  67.809  1.00  0.00    -0.102 C  
BRANCH  21  22
HETATM   22  C   UNL     1      -8.794   4.614  66.338  1.00  0.00    -0.112 C  
BRANCH  22  23
HETATM   23  C   UNL     1      -9.506   3.433  65.678  1.00  0.00    -0.119 C  
HETATM   24  C   UNL     1      -9.804   3.720  64.213  1.00  0.00    -0.186 C  
ENDBRANCH  22  23
ENDBRANCH  21  22
ENDBRANCH  20  21
ENDBRANCH  19  20
ENDBRANCH  17  19
ENDBRANCH  13  14
ENDBRANCH  12  13
BRANCH  12  25
HETATM   25  O   UNL     1     -10.714  12.268  69.319  1.00  0.00    -0.112 OA 
BRANCH  25  26
HETATM   26  C   UNL     1     -11.909  11.644  69.517  1.00  0.00    -0.348 C  
HETATM   27  O   UNL     1     -12.522  10.982  68.687  1.00  0.00    -0.462 OA 
BRANCH  26  28
HETATM   28  C   UNL     1     -12.402  11.855  70.945  1.00  0.00    -0.300 C  
BRANCH  28  29
HETATM   29  C   UNL     1     -13.064  10.591  71.517  1.00  0.00    -0.532 C  
HETATM   30  C   UNL     1     -11.007   9.059  71.801  1.00  0.00    -0.443 C  
HETATM   31  C   UNL     1     -13.296   8.101  71.662  1.00  0.00    -0.358 C  
HETATM   32  C   UNL     1     -12.393   9.240  71.181  1.00  0.00    -0.363 C  
ENDBRANCH  28  29
BRANCH  28  33
HETATM   33  N   UNL     1     -13.278  13.026  70.972  1.00  0.00    -0.013 N  
HETATM   34  C   UNL     1     -13.463  13.785  72.092  1.00  0.00    -0.502 C  
HETATM   35  O   UNL     1     -12.972  13.560  73.188  1.00  0.00    -0.272 OA 
HETATM   36  H   UNL     1     -13.772  13.287  70.118  1.00  0.00     0.000 HD 
ENDBRANCH  28  33
ENDBRANCH  26  28
ENDBRANCH  25  26
ENDBRANCH  12  25
ENDBRANCH  11  12
ENDBRANCH  10  11
ENDBRANCH   9  10
ENDBRANCH   8   9
ENDBRANCH   7   8
ENDBRANCH   6   7
ENDBRANCH   5   6
ENDBRANCH   4   5
ENDBRANCH   3   4
ENDBRANCH   2   3
TORSDOF 22
ENDMDL
MODEL      352
REMARK 921   NORMALIZED FREE ENERGY PREDICTED BY IDOCK:   -3.15 KCAL/MOL
REMARK 922        TOTAL FREE ENERGY PREDICTED BY IDOCK:  -10.82 KCAL/MOL
REMARK 923 INTER-LIGAND FREE ENERGY PREDICTED BY IDOCK:   -7.72 KCAL/MOL
REMARK 924 INTRA-LIGAND FREE ENERGY PREDICTED BY IDOCK:   -3.09 KCAL/MOL
REMARK 927      BINDING AFFINITY PREDICTED BY RF-SCORE:    0.00 PKD
ROOT
HETATM    1  C   UNL     1      -8.320   7.982  73.170  1.00  0.00    -0.253 C  
HETATM    2  C   UNL     1      -7.411   7.422  72.089  1.00  0.00    -0.072 C  
ENDROOT
BRANCH   2   3
HETATM    3  C   UNL     1      -6.776   8.547  71.277  1.00  0.00    -0.066 C  
BRANCH   3   4
HETATM    4  C   UNL     1      -5.776   8.014  70.256  1.00  0.00    -0.022 C  
BRANCH   4   5
HETATM    5  C   UNL     1      -6.297   8.212  68.831  1.00  0.00    -0.040 C  
BRANCH   5   6
HETATM    6  C   UNL     1      -7.391   9.271  68.805  1.00  0.00    -0.075 C  
BRANCH   6   7
HETATM    7  C   UNL     1      -6.863  10.646  68.388  1.00  0.00    -0.064 C  
BRANCH   7   8
HETATM    8  C   UNL     1      -6.429  10.576  66.929  1.00  0.00    -0.080 C  
BRANCH   8   9
HETATM    9  C   UNL     1      -7.544  10.176  65.968  1.00  0.00    -0.118 C  
BRANCH   9  10
HETATM   10  C   UNL     1      -8.596  11.289  65.964  1.00  0.00    -0.130 C  
BRANCH  10  11
HETATM   11  C   UNL     1     -10.014  10.802  66.220  1.00  0.00    -0.272 C  
BRANCH  11  12
HETATM   12  C   UNL     1     -10.793  11.521  67.337  1.00  0.00    -0.246 C  
BRANCH  12  13
HETATM   13  C   UNL     1     -10.592  10.947  68.756  1.00  0.00    -0.231 C  
BRANCH  13  14
HETATM   14  C   UNL     1     -11.823  10.234  69.330  1.00  0.00    -0.038 C  
HETATM   15  O   UNL     1     -12.723  11.146  70.022  1.00  0.00    -0.192 OA 
HETATM   16  O   UNL     1     -13.103  10.771  72.264  1.00  0.00    -0.383 OA 
HETATM   17  C   UNL     1     -11.607   9.454  70.657  1.00  0.00    -0.330 C  
HETATM   18  C   UNL     1     -12.584  10.509  71.206  1.00  0.00    -0.426 C  
BRANCH  17  19
HETATM   19  C   UNL     1     -12.113   8.022  70.795  1.00  0.00    -0.088 C  
BRANCH  19  20
HETATM   20  C   UNL     1     -11.619   7.401  72.098  1.00  0.00    -0.331 C  
BRANCH  20  21
HETATM   21  C   UNL     1     -11.418   5.890  71.958  1.00  0.00    -0.311 C  
BRANCH  21  22
HETATM   22  C   UNL     1     -10.683   5.315  73.170  1.00  0.00    -0.314 C  
BRANCH  22  23
HETATM   23  C   UNL     1     -10.199   3.888  72.916  1.00  0.00    -0.229 C  
HETATM   24  C   UNL     1      -8.681   3.834  72.802  1.00  0.00    -0.101 C  
ENDBRANCH  22  23
ENDBRANCH  21  22
ENDBRANCH  20  21
ENDBRANCH  19  20
ENDBRANCH  17  19
ENDBRANCH  13  14
ENDBRANCH  12  13
BRANCH  12  25
HETATM   25  O   UNL     1     -10.440  12.923  67.387  1.00  0.00    -0.231 OA 
BRANCH  25  26
HETATM   26  C   UNL     1     -11.425  13.827  67.124  1.00  0.00    -0.340 C  
HETATM   27  O   UNL     1     -12.445  13.993  67.783  1.00  0.00    -0.130 OA 
BRANCH  26  28
HETATM   28  C   UNL     1     -11.090  14.651  65.884  1.00  0.00    -0.338 C  
BRANCH  28  29
HETATM   29  C   UNL     1     -10.850  16.130  66.225  1.00  0.00    -0.135 C  
HETATM   30  C   UNL     1      -8.283  16.152  66.488  1.00  0.00    -0.343 C  
HETATM   31  C   UNL     1      -9.682  17.931  67.517  1.00  0.00    -0.278 C  
HETATM   32  C   UNL     1      -9.639  16.450  67.131  1.00  0.00    -0.239 C  
ENDBRANCH  28  29
BRANCH  28  33
HETATM   33  N   UNL     1     -12.143  14.453  64.889  1.00  0.00    -0.420 N  
HETATM   34  C   UNL     1     -12.099  13.458  63.954  1.00  0.00    -0.455 C  
HETATM   35  O   UNL     1     -11.181  12.665  63.808  1.00  0.00    -0.403 OA 
HETATM   36  H   UNL     1     -12.945  15.085  64.894  1.00  0.00     0.000 HD 
ENDBRANCH  28  33
ENDBRANCH  26  28
ENDBRANCH  25  26
ENDBRANCH  12  25
ENDBRANCH  11  12
ENDBRANCH  10  11
ENDBRANCH   9  10
ENDBRANCH   8   9
ENDBRANCH   7   8
ENDBRANCH   6   7
ENDBRANCH   5   6
ENDBRANCH   4   5
ENDBRANCH   3   4
ENDBRANCH   2   3
TORSDOF 22
ENDMDL
MODEL      353
REMARK 921   NORMALIZED FREE ENERGY PREDICTED BY IDOCK:   -3.15 KCAL/MOL
REMARK 922        TOTAL FREE ENERGY PREDICTED BY IDOCK:  -10.82 KCAL/MOL
REMARK 923 INTER-LIGAND FREE ENERGY PREDICTED BY IDOCK:   -8.81 KCAL/MOL
REMARK 924 INTRA-LIGAND FREE ENERGY PREDICTED BY IDOCK:   -2.01 KCAL/MOL
REMARK 927      BINDING AFFINITY PREDICTED BY RF-SCORE:    0.00 PKD
ROOT
HETATM    1  C   UNL     1     -10.128   4.616  66.219  1.00  0.00    -0.292 C  
HETATM    2  C   UNL     1      -9.518   5.974  66.529  1.00  0.00    -0.177 C  
ENDROOT
BRANCH   2   3
HETATM    3  C   UNL     1      -8.122   6.092  65.924  1.00  0.00    -0.119 C  
BRANCH   3   4
HETATM    4  C   UNL     1      -8.175   6.294  64.413  1.00  0.00    -0.040 C  
BRANCH   4   5
HETATM    5  C   UNL     1      -7.005   7.160  63.940  1.00  0.00    -0.057 C  
BRANCH   5   6
HETATM    6  C   UNL     1      -7.511   8.484  63.383  1.00  0.00    -0.112 C  
BRANCH   6   7
HETATM    7  C   UNL     1      -8.733   9.007  64.140  1.00  0.00    -0.126 C  
BRANCH   7   8
HETATM    8  C   UNL     1      -8.256   9.953  65.235  1.00  0.00    -0.145 C  
BRANCH   8   9
HETATM    9  C   UNL     1      -8.833   9.648  66.614  1.00  0.00    -0.153 C  
BRANCH   9  10
HETATM   10  C   UNL     1      -9.262  10.970  67.258  1.00  0.00    -0.156 C  
BRANCH  10  11
HETATM   11  C   UNL     1      -9.420  12.117  66.272  1.00  0.00    -0.238 C  
BRANCH  11  12
HETATM   12  C   UNL     1     -10.133  13.376  66.797  1.00  0.00    -0.260 C  
BRANCH  12  13
HETATM   13  C   UNL     1     -10.273  13.465  68.333  1.00  0.00    -0.251 C  
BRANCH  13  14
HETATM   14  C   UNL     1     -11.654  13.065  68.866  1.00  0.00    -0.311 C  
HETATM   15  O   UNL     1     -12.339  14.170  69.522  1.00  0.00    -0.328 OA 
HETATM   16  O   UNL     1     -12.870  13.922  71.751  1.00  0.00    -0.328 OA 
HETATM   17  C   UNL     1     -11.670  12.273  70.203  1.00  0.00    -0.280 C  
HETATM   18  C   UNL     1     -12.392  13.533  70.713  1.00  0.00    -0.363 C  
BRANCH  17  19
HETATM   19  C   UNL     1     -12.500  11.000  70.329  1.00  0.00    -0.365 C  
BRANCH  19  20
HETATM   20  C   UNL     1     -12.419  10.445  71.749  1.00  0.00    -0.400 C  
BRANCH  20  21
HETATM   21  C   UNL     1     -13.573   9.481  72.039  1.00  0.00    -0.492 C  
BRANCH  21  22
HETATM   22  C   UNL     1     -13.424   8.185  71.240  1.00  0.00    -0.163 C  
BRANCH  22  23
HETATM   23  C   UNL     1     -12.280   7.320  71.770  1.00  0.00    -0.368 C  
HETATM   24  C   UNL     1     -11.492   6.693  70.628  1.00  0.00    -0.420 C  
ENDBRANCH  22  23
ENDBRANCH  21  22
ENDBRANCH  20  21
ENDBRANCH  19  20
ENDBRANCH  17  19
ENDBRANCH  13  14
ENDBRANCH  12  13
BRANCH  12  25
HETATM   25  O   UNL     1      -9.449  14.573  66.358  1.00  0.00    -0.276 OA 
BRANCH  25  26
HETATM   26  C   UNL     1      -8.385  14.994  67.098  1.00  0.00    -0.217 C  
HETATM   27  O   UNL     1      -7.416  14.314  67.416  1.00  0.00    -0.182 OA 
BRANCH  26  28
HETATM   28  C   UNL     1      -8.534  16.464  67.478  1.00  0.00    -0.169 C  
BRANCH  28  29
HETATM   29  C   UNL     1      -7.668  16.833  68.693  1.00  0.00    -0.232 C  
HETATM   30  C   UNL     1      -7.337  19.362  68.296  1.00  0.00    -0.343 C  
HETATM   31  C   UNL     1      -5.772  18.087  69.746  1.00  0.00    -0.238 C  
HETATM   32  C   UNL     1      -6.672  18.001  68.510  1.00  0.00    -0.225 C  
ENDBRANCH  28  29
BRANCH  28  33
HETATM   33  N   UNL     1      -9.953  16.758  67.672  1.00  0.00    -0.256 N  
HETATM   34  C   UNL     1     -10.625  17.685  66.927  1.00  0.00    -0.235 C  
HETATM   35  O   UNL     1     -10.129  18.394  66.065  1.00  0.00    -0.491 OA 
HETATM   36  H   UNL     1     -10.464  16.249  68.395  1.00  0.00     0.000 HD 
ENDBRANCH  28  33
ENDBRANCH  26  28
ENDBRANCH  25  26
ENDBRANCH  12  25
ENDBRANCH  11  12
ENDBRANCH  10  11
ENDBRANCH   9  10
ENDBRANCH   8   9
ENDBRANCH   7   8
ENDBRANCH   6   7
ENDBRANCH   5   6
ENDBRANCH   4   5
ENDBRANCH   3   4
ENDBRANCH   2   3
TORSDOF 22
ENDMDL
MODEL      354
REMARK 921   NORMALIZED FREE ENERGY PREDICTED BY IDOCK:   -3.14 KCAL/MOL
REMARK 922        TOTAL FREE ENERGY PREDICTED BY IDOCK:  -10.80 KCAL/MOL
REMARK 923 INTER-LIGAND FREE ENERGY PREDICTED BY IDOCK:   -6.70 KCAL/MOL
REMARK 924 INTRA-LIGAND FREE ENERGY PREDICTED BY IDOCK:   -4.10 KCAL/MOL
REMARK 927      BINDING AFFINITY PREDICTED BY RF-SCORE:    0.00 PKD
ROOT
HETATM    1  C   UNL     1     -13.992   9.189  72.288  1.00  0.00    -0.489 C  
HETATM    2  C   UNL     1     -12.825   9.853  71.577  1.00  0.00    -0.522 C  
ENDROOT
BRANCH   2   3
HETATM    3  C   UNL     1     -11.709   8.848  71.309  1.00  0.00    -0.370 C  
BRANCH   3   4
HETATM    4  C   UNL     1     -11.174   8.239  72.602  1.00  0.00    -0.410 C  
BRANCH   4   5
HETATM    5  C   UNL     1     -11.162   6.711  72.519  1.00  0.00    -0.302 C  
BRANCH   5   6
HETATM    6  C   UNL     1     -11.429   6.252  71.092  1.00  0.00    -0.362 C  
BRANCH   6   7
HETATM    7  C   UNL     1     -10.405   5.224  70.608  1.00  0.00    -0.324 C  
BRANCH   7   8
HETATM    8  C   UNL     1      -9.947   5.618  69.208  1.00  0.00    -0.251 C  
BRANCH   8   9
HETATM    9  C   UNL     1     -10.952   6.474  68.445  1.00  0.00    -0.358 C  
BRANCH   9  10
HETATM   10  C   UNL     1     -10.257   7.773  68.028  1.00  0.00    -0.249 C  
BRANCH  10  11
HETATM   11  C   UNL     1     -10.106   7.941  66.524  1.00  0.00    -0.246 C  
BRANCH  11  12
HETATM   12  C   UNL     1      -8.761   7.501  65.918  1.00  0.00    -0.147 C  
BRANCH  12  13
HETATM   13  C   UNL     1      -7.507   8.115  66.579  1.00  0.00    -0.088 C  
BRANCH  13  14
HETATM   14  C   UNL     1      -7.772   9.404  67.364  1.00  0.00    -0.095 C  
HETATM   15  O   UNL     1      -7.070  10.551  66.806  1.00  0.00    -0.098 OA 
HETATM   16  O   UNL     1      -5.531  11.616  68.150  1.00  0.00    -0.043 OA 
HETATM   17  C   UNL     1      -6.979   9.575  68.690  1.00  0.00    -0.064 C  
HETATM   18  C   UNL     1      -6.353  10.759  67.932  1.00  0.00    -0.061 C  
BRANCH  17  19
HETATM   19  C   UNL     1      -7.704   9.982  69.969  1.00  0.00    -0.181 C  
BRANCH  19  20
HETATM   20  C   UNL     1      -8.204   8.750  70.718  1.00  0.00    -0.178 C  
BRANCH  20  21
HETATM   21  C   UNL     1      -7.290   8.402  71.896  1.00  0.00    -0.118 C  
BRANCH  21  22
HETATM   22  C   UNL     1      -6.227   7.381  71.486  1.00  0.00    -0.036 C  
BRANCH  22  23
HETATM   23  C   UNL     1      -6.842   6.170  70.784  1.00  0.00    -0.062 C  
HETATM   24  C   UNL     1      -6.182   5.923  69.435  1.00  0.00    -0.033 C  
ENDBRANCH  22  23
ENDBRANCH  21  22
ENDBRANCH  20  21
ENDBRANCH  19  20
ENDBRANCH  17  19
ENDBRANCH  13  14
ENDBRANCH  12  13
BRANCH  12  25
HETATM   25  O   UNL     1      -8.618   6.063  65.977  1.00  0.00    -0.136 OA 
BRANCH  25  26
HETATM   26  C   UNL     1      -8.696   5.376  64.804  1.00  0.00    -0.074 C  
HETATM   27  O   UNL     1      -8.078   5.632  63.776  1.00  0.00    -0.119 OA 
BRANCH  26  28
HETATM   28  C   UNL     1      -9.657   4.198  64.926  1.00  0.00    -0.178 C  
BRANCH  28  29
HETATM   29  C   UNL     1      -9.816   3.735  66.383  1.00  0.00    -0.072 C  
HETATM   30  C   UNL     1      -7.427   2.899  66.885  1.00  0.00    -0.070 C  
HETATM   31  C   UNL     1      -9.357   2.122  68.245  1.00  0.00    -0.260 C  
HETATM   32  C   UNL     1      -8.919   2.565  66.846  1.00  0.00    -0.155 C  
ENDBRANCH  28  29
BRANCH  28  33
HETATM   33  N   UNL     1      -9.211   3.132  64.030  1.00  0.00    -0.106 N  
HETATM   34  C   UNL     1     -10.080   2.352  63.321  1.00  0.00    -0.125 C  
HETATM   35  O   UNL     1     -11.298   2.414  63.381  1.00  0.00    -0.321 OA 
HETATM   36  H   UNL     1      -8.210   2.964  63.929  1.00  0.00     0.000 HD 
ENDBRANCH  28  33
ENDBRANCH  26  28
ENDBRANCH  25  26
ENDBRANCH  12  25
ENDBRANCH  11  12
ENDBRANCH  10  11
ENDBRANCH   9  10
ENDBRANCH   8   9
ENDBRANCH   7   8
ENDBRANCH   6   7
ENDBRANCH   5   6
ENDBRANCH   4   5
ENDBRANCH   3   4
ENDBRANCH   2   3
TORSDOF 22
ENDMDL
MODEL      355
REMARK 921   NORMALIZED FREE ENERGY PREDICTED BY IDOCK:   -3.14 KCAL/MOL
REMARK 922        TOTAL FREE ENERGY PREDICTED BY IDOCK:  -10.80 KCAL/MOL
REMARK 923 INTER-LIGAND FREE ENERGY PREDICTED BY IDOCK:   -7.65 KCAL/MOL
REMARK 924 INTRA-LIGAND FREE ENERGY PREDICTED BY IDOCK:   -3.15 KCAL/MOL
REMARK 927      BINDING AFFINITY PREDICTED BY RF-SCORE:    0.00 PKD
ROOT
HETATM    1  C   UNL     1     -11.688  14.166  69.296  1.00  0.00    -0.368 C  
HETATM    2  C   UNL     1     -11.994  14.506  67.847  1.00  0.00    -0.322 C  
ENDROOT
BRANCH   2   3
HETATM    3  C   UNL     1     -10.816  15.227  67.198  1.00  0.00    -0.322 C  
BRANCH   3   4
HETATM    4  C   UNL     1      -9.506  14.938  67.925  1.00  0.00    -0.200 C  
BRANCH   4   5
HETATM    5  C   UNL     1      -8.583  14.079  67.058  1.00  0.00    -0.193 C  
BRANCH   5   6
HETATM    6  C   UNL     1      -8.864  12.599  67.283  1.00  0.00    -0.196 C  
BRANCH   6   7
HETATM    7  C   UNL     1      -9.613  11.963  66.110  1.00  0.00    -0.250 C  
BRANCH   7   8
HETATM    8  C   UNL     1     -10.892  11.326  66.641  1.00  0.00    -0.325 C  
BRANCH   8   9
HETATM    9  C   UNL     1     -10.699  10.520  67.921  1.00  0.00    -0.305 C  
BRANCH   9  10
HETATM   10  C   UNL     1     -10.506   9.050  67.538  1.00  0.00    -0.338 C  
BRANCH  10  11
HETATM   11  C   UNL     1     -10.490   8.097  68.723  1.00  0.00    -0.198 C  
BRANCH  11  12
HETATM   12  C   UNL     1     -10.972   6.660  68.452  1.00  0.00    -0.239 C  
BRANCH  12  13
HETATM   13  C   UNL     1      -9.871   5.664  68.025  1.00  0.00    -0.162 C  
BRANCH  13  14
HETATM   14  C   UNL     1      -9.663   5.563  66.509  1.00  0.00    -0.162 C  
HETATM   15  O   UNL     1     -10.612   4.658  65.876  1.00  0.00    -0.304 OA 
HETATM   16  O   UNL     1      -9.761   2.816  64.782  1.00  0.00    -0.125 OA 
HETATM   17  C   UNL     1      -8.494   4.654  66.037  1.00  0.00    -0.115 C  
HETATM   18  C   UNL     1      -9.643   3.829  65.429  1.00  0.00    -0.174 C  
BRANCH  17  19
HETATM   19  C   UNL     1      -7.496   5.166  65.003  1.00  0.00    -0.073 C  
BRANCH  19  20
HETATM   20  C   UNL     1      -7.952   6.506  64.434  1.00  0.00    -0.103 C  
BRANCH  20  21
HETATM   21  C   UNL     1      -6.920   7.606  64.699  1.00  0.00    -0.052 C  
BRANCH  21  22
HETATM   22  C   UNL     1      -7.603   8.931  65.045  1.00  0.00    -0.100 C  
BRANCH  22  23
HETATM   23  C   UNL     1      -8.741   9.254  64.076  1.00  0.00    -0.198 C  
HETATM   24  C   UNL     1      -8.303  10.278  63.038  1.00  0.00    -0.170 C  
ENDBRANCH  22  23
ENDBRANCH  21  22
ENDBRANCH  20  21
ENDBRANCH  19  20
ENDBRANCH  17  19
ENDBRANCH  13  14
ENDBRANCH  12  13
BRANCH  12  25
HETATM   25  O   UNL     1     -11.621   6.108  69.621  1.00  0.00    -0.407 OA 
BRANCH  25  26
HETATM   26  C   UNL     1     -11.561   6.833  70.773  1.00  0.00    -0.366 C  
HETATM   27  O   UNL     1     -12.312   7.749  71.088  1.00  0.00    -0.304 OA 
BRANCH  26  28
HETATM   28  C   UNL     1     -10.424   6.343  71.665  1.00  0.00    -0.217 C  
BRANCH  28  29
HETATM   29  C   UNL     1     -10.490   4.825  71.896  1.00  0.00    -0.201 C  
HETATM   30  C   UNL     1      -7.977   4.248  72.010  1.00  0.00    -0.090 C  
HETATM   31  C   UNL     1      -9.661   2.496  71.484  1.00  0.00    -0.222 C  
HETATM   32  C   UNL     1      -9.323   3.982  71.333  1.00  0.00    -0.212 C  
ENDBRANCH  28  29
BRANCH  28  33
HETATM   33  N   UNL     1     -10.435   7.115  72.907  1.00  0.00    -0.239 N  
HETATM   34  C   UNL     1      -9.365   7.852  73.328  1.00  0.00    -0.286 C  
HETATM   35  O   UNL     1      -8.285   7.919  72.762  1.00  0.00    -0.118 OA 
HETATM   36  H   UNL     1     -11.277   7.103  73.483  1.00  0.00     0.000 HD 
ENDBRANCH  28  33
ENDBRANCH  26  28
ENDBRANCH  25  26
ENDBRANCH  12  25
ENDBRANCH  11  12
ENDBRANCH  10  11
ENDBRANCH   9  10
ENDBRANCH   8   9
ENDBRANCH   7   8
ENDBRANCH   6   7
ENDBRANCH   5   6
ENDBRANCH   4   5
ENDBRANCH   3   4
ENDBRANCH   2   3
TORSDOF 22
ENDMDL
MODEL      356
REMARK 921   NORMALIZED FREE ENERGY PREDICTED BY IDOCK:   -3.14 KCAL/MOL
REMARK 922        TOTAL FREE ENERGY PREDICTED BY IDOCK:  -10.79 KCAL/MOL
REMARK 923 INTER-LIGAND FREE ENERGY PREDICTED BY IDOCK:   -8.82 KCAL/MOL
REMARK 924 INTRA-LIGAND FREE ENERGY PREDICTED BY IDOCK:   -1.97 KCAL/MOL
REMARK 927      BINDING AFFINITY PREDICTED BY RF-SCORE:    0.00 PKD
ROOT
HETATM    1  C   UNL     1     -10.524  19.484  66.004  1.00  0.00    -0.611 C  
HETATM    2  C   UNL     1      -9.894  20.105  67.240  1.00  0.00    -0.580 C  
ENDROOT
BRANCH   2   3
HETATM    3  C   UNL     1     -10.051  19.187  68.448  1.00  0.00    -0.498 C  
BRANCH   3   4
HETATM    4  C   UNL     1     -10.061  17.716  68.044  1.00  0.00    -0.343 C  
BRANCH   4   5
HETATM    5  C   UNL     1     -10.610  16.845  69.177  1.00  0.00    -0.330 C  
BRANCH   5   6
HETATM    6  C   UNL     1     -11.607  15.830  68.635  1.00  0.00    -0.392 C  
BRANCH   6   7
HETATM    7  C   UNL     1     -12.189  14.940  69.735  1.00  0.00    -0.328 C  
BRANCH   7   8
HETATM    8  C   UNL     1     -12.153  13.493  69.257  1.00  0.00    -0.335 C  
BRANCH   8   9
HETATM    9  C   UNL     1     -12.056  12.469  70.383  1.00  0.00    -0.380 C  
BRANCH   9  10
HETATM   10  C   UNL     1     -12.057  11.070  69.761  1.00  0.00    -0.424 C  
BRANCH  10  11
HETATM   11  C   UNL     1     -11.136  10.080  70.457  1.00  0.00    -0.400 C  
BRANCH  11  12
HETATM   12  C   UNL     1      -9.757   9.857  69.811  1.00  0.00    -0.236 C  
BRANCH  12  13
HETATM   13  C   UNL     1      -8.666   9.305  70.755  1.00  0.00    -0.272 C  
BRANCH  13  14
HETATM   14  C   UNL     1      -9.201   8.441  71.903  1.00  0.00    -0.238 C  
HETATM   15  O   UNL     1      -8.401   8.566  73.114  1.00  0.00    -0.369 OA 
HETATM   16  O   UNL     1      -7.381   6.662  73.917  1.00  0.00    -0.084 OA 
HETATM   17  C   UNL     1      -8.856   6.927  71.841  1.00  0.00    -0.126 C  
HETATM   18  C   UNL     1      -8.068   7.257  73.122  1.00  0.00    -0.102 C  
BRANCH  17  19
HETATM   19  C   UNL     1      -9.949   5.883  72.046  1.00  0.00    -0.204 C  
BRANCH  19  20
HETATM   20  C   UNL     1      -9.451   4.499  71.640  1.00  0.00    -0.210 C  
BRANCH  20  21
HETATM   21  C   UNL     1      -9.946   4.115  70.243  1.00  0.00    -0.153 C  
BRANCH  21  22
HETATM   22  C   UNL     1      -8.801   4.128  69.229  1.00  0.00    -0.142 C  
BRANCH  22  23
HETATM   23  C   UNL     1      -8.913   5.306  68.260  1.00  0.00    -0.116 C  
HETATM   24  C   UNL     1     -10.367   5.703  68.045  1.00  0.00    -0.258 C  
ENDBRANCH  22  23
ENDBRANCH  21  22
ENDBRANCH  20  21
ENDBRANCH  19  20
ENDBRANCH  17  19
ENDBRANCH  13  14
ENDBRANCH  12  13
BRANCH  12  25
HETATM   25  O   UNL     1      -9.856   8.947  68.691  1.00  0.00    -0.159 OA 
BRANCH  25  26
HETATM   26  C   UNL     1      -9.959   9.492  67.447  1.00  0.00    -0.189 C  
HETATM   27  O   UNL     1     -10.969   9.521  66.753  1.00  0.00    -0.041 OA 
BRANCH  26  28
HETATM   28  C   UNL     1      -8.630  10.103  67.010  1.00  0.00    -0.129 C  
BRANCH  28  29
HETATM   29  C   UNL     1      -8.748  11.615  66.761  1.00  0.00    -0.189 C  
HETATM   30  C   UNL     1      -6.324  12.368  67.225  1.00  0.00    -0.142 C  
HETATM   31  C   UNL     1      -8.203  13.991  67.339  1.00  0.00    -0.203 C  
HETATM   32  C   UNL     1      -7.804  12.531  67.573  1.00  0.00    -0.168 C  
ENDBRANCH  28  29
BRANCH  28  33
HETATM   33  N   UNL     1      -8.133   9.366  65.849  1.00  0.00    -0.113 N  
HETATM   34  C   UNL     1      -8.364   9.768  64.565  1.00  0.00    -0.165 C  
HETATM   35  O   UNL     1      -9.032  10.736  64.235  1.00  0.00    -0.190 OA 
HETATM   36  H   UNL     1      -7.591   8.515  66.006  1.00  0.00     0.000 HD 
ENDBRANCH  28  33
ENDBRANCH  26  28
ENDBRANCH  25  26
ENDBRANCH  12  25
ENDBRANCH  11  12
ENDBRANCH  10  11
ENDBRANCH   9  10
ENDBRANCH   8   9
ENDBRANCH   7   8
ENDBRANCH   6   7
ENDBRANCH   5   6
ENDBRANCH   4   5
ENDBRANCH   3   4
ENDBRANCH   2   3
TORSDOF 22
ENDMDL
MODEL      357
REMARK 921   NORMALIZED FREE ENERGY PREDICTED BY IDOCK:   -3.11 KCAL/MOL
REMARK 922        TOTAL FREE ENERGY PREDICTED BY IDOCK:  -10.73 KCAL/MOL
REMARK 923 INTER-LIGAND FREE ENERGY PREDICTED BY IDOCK:   -7.97 KCAL/MOL
REMARK 924 INTRA-LIGAND FREE ENERGY PREDICTED BY IDOCK:   -2.76 KCAL/MOL
REMARK 927      BINDING AFFINITY PREDICTED BY RF-SCORE:    0.00 PKD
ROOT
HETATM    1  C   UNL     1      -7.983   8.300  64.364  1.00  0.00    -0.144 C  
HETATM    2  C   UNL     1      -7.355   9.653  64.072  1.00  0.00    -0.121 C  
ENDROOT
BRANCH   2   3
HETATM    3  C   UNL     1      -7.813  10.182  62.716  1.00  0.00    -0.150 C  
BRANCH   3   4
HETATM    4  C   UNL     1      -9.334  10.174  62.589  1.00  0.00    -0.322 C  
BRANCH   4   5
HETATM    5  C   UNL     1      -9.933  11.459  63.163  1.00  0.00    -0.402 C  
BRANCH   5   6
HETATM    6  C   UNL     1     -10.758  11.156  64.407  1.00  0.00    -0.388 C  
BRANCH   6   7
HETATM    7  C   UNL     1     -11.684  12.312  64.789  1.00  0.00    -0.419 C  
BRANCH   7   8
HETATM    8  C   UNL     1     -11.112  13.004  66.021  1.00  0.00    -0.301 C  
BRANCH   8   9
HETATM    9  C   UNL     1     -11.865  12.697  67.311  1.00  0.00    -0.395 C  
BRANCH   9  10
HETATM   10  C   UNL     1     -11.321  11.385  67.884  1.00  0.00    -0.371 C  
BRANCH  10  11
HETATM   11  C   UNL     1     -10.047  11.545  68.699  1.00  0.00    -0.214 C  
BRANCH  11  12
HETATM   12  C   UNL     1      -8.721  11.355  67.940  1.00  0.00    -0.145 C  
BRANCH  12  13
HETATM   13  C   UNL     1      -7.602  12.355  68.306  1.00  0.00    -0.131 C  
BRANCH  13  14
HETATM   14  C   UNL     1      -7.888  13.804  67.895  1.00  0.00    -0.159 C  
HETATM   15  O   UNL     1      -6.821  14.374  67.084  1.00  0.00    -0.190 OA 
HETATM   16  O   UNL     1      -5.722  16.221  67.915  1.00  0.00    -0.110 OA 
HETATM   17  C   UNL     1      -7.632  14.888  68.979  1.00  0.00    -0.151 C  
HETATM   18  C   UNL     1      -6.551  15.346  67.983  1.00  0.00    -0.147 C  
BRANCH  17  19
HETATM   19  C   UNL     1      -8.689  15.949  69.266  1.00  0.00    -0.250 C  
BRANCH  19  20
HETATM   20  C   UNL     1      -9.954  15.679  68.457  1.00  0.00    -0.211 C  
BRANCH  20  21
HETATM   21  C   UNL     1     -11.182  16.318  69.110  1.00  0.00    -0.309 C  
BRANCH  21  22
HETATM   22  C   UNL     1     -12.077  15.260  69.758  1.00  0.00    -0.357 C  
BRANCH  22  23
HETATM   23  C   UNL     1     -11.630  14.933  71.183  1.00  0.00    -0.347 C  
HETATM   24  C   UNL     1     -12.095  16.002  72.163  1.00  0.00    -0.611 C  
ENDBRANCH  22  23
ENDBRANCH  21  22
ENDBRANCH  20  21
ENDBRANCH  19  20
ENDBRANCH  17  19
ENDBRANCH  13  14
ENDBRANCH  12  13
BRANCH  12  25
HETATM   25  O   UNL     1      -8.195  10.024  68.151  1.00  0.00    -0.107 OA 
BRANCH  25  26
HETATM   26  C   UNL     1      -8.555   9.382  69.297  1.00  0.00    -0.143 C  
HETATM   27  O   UNL     1      -8.400   9.803  70.438  1.00  0.00    -0.185 OA 
BRANCH  26  28
HETATM   28  C   UNL     1      -9.216   8.043  68.985  1.00  0.00    -0.148 C  
BRANCH  28  29
HETATM   29  C   UNL     1      -8.360   6.857  69.457  1.00  0.00    -0.133 C  
HETATM   30  C   UNL     1      -6.466   6.905  67.705  1.00  0.00    -0.050 C  
HETATM   31  C   UNL     1      -6.950   4.837  68.998  1.00  0.00    -0.052 C  
HETATM   32  C   UNL     1      -7.574   6.088  68.371  1.00  0.00    -0.091 C  
ENDBRANCH  28  29
BRANCH  28  33
HETATM   33  N   UNL     1      -9.530   7.995  67.558  1.00  0.00    -0.142 N  
HETATM   34  C   UNL     1     -10.607   7.319  67.061  1.00  0.00    -0.344 C  
HETATM   35  O   UNL     1     -11.391   6.654  67.721  1.00  0.00    -0.227 OA 
HETATM   36  H   UNL     1      -8.918   8.486  66.906  1.00  0.00     0.000 HD 
ENDBRANCH  28  33
ENDBRANCH  26  28
ENDBRANCH  25  26
ENDBRANCH  12  25
ENDBRANCH  11  12
ENDBRANCH  10  11
ENDBRANCH   9  10
ENDBRANCH   8   9
ENDBRANCH   7   8
ENDBRANCH   6   7
ENDBRANCH   5   6
ENDBRANCH   4   5
ENDBRANCH   3   4
ENDBRANCH   2   3
TORSDOF 22
ENDMDL
MODEL      358
REMARK 921   NORMALIZED FREE ENERGY PREDICTED BY IDOCK:   -3.11 KCAL/MOL
REMARK 922        TOTAL FREE ENERGY PREDICTED BY IDOCK:  -10.73 KCAL/MOL
REMARK 923 INTER-LIGAND FREE ENERGY PREDICTED BY IDOCK:   -7.96 KCAL/MOL
REMARK 924 INTRA-LIGAND FREE ENERGY PREDICTED BY IDOCK:   -2.77 KCAL/MOL
REMARK 927      BINDING AFFINITY PREDICTED BY RF-SCORE:    0.00 PKD
ROOT
HETATM    1  C   UNL     1      -8.732  15.732  66.549  1.00  0.00    -0.354 C  
HETATM    2  C   UNL     1      -9.888  15.036  65.850  1.00  0.00    -0.369 C  
ENDROOT
BRANCH   2   3
HETATM    3  C   UNL     1     -10.928  14.561  66.862  1.00  0.00    -0.316 C  
BRANCH   3   4
HETATM    4  C   UNL     1     -11.844  13.494  66.273  1.00  0.00    -0.431 C  
BRANCH   4   5
HETATM    5  C   UNL     1     -11.653  12.157  66.993  1.00  0.00    -0.406 C  
BRANCH   5   6
HETATM    6  C   UNL     1     -10.436  12.211  67.906  1.00  0.00    -0.224 C  
BRANCH   6   7
HETATM    7  C   UNL     1     -10.738  11.692  69.313  1.00  0.00    -0.144 C  
BRANCH   7   8
HETATM    8  C   UNL     1     -12.225  11.368  69.400  1.00  0.00    -0.288 C  
BRANCH   8   9
HETATM    9  C   UNL     1     -12.618  10.587  70.650  1.00  0.00    -0.457 C  
BRANCH   9  10
HETATM   10  C   UNL     1     -11.399   9.785  71.117  1.00  0.00    -0.459 C  
BRANCH  10  11
HETATM   11  C   UNL     1     -11.637   8.285  71.199  1.00  0.00    -0.310 C  
BRANCH  11  12
HETATM   12  C   UNL     1     -11.152   7.449  70.000  1.00  0.00    -0.220 C  
BRANCH  12  13
HETATM   13  C   UNL     1     -10.130   8.150  69.077  1.00  0.00    -0.211 C  
BRANCH  13  14
HETATM   14  C   UNL     1     -10.405   7.972  67.579  1.00  0.00    -0.261 C  
HETATM   15  O   UNL     1     -10.187   6.603  67.132  1.00  0.00    -0.169 OA 
HETATM   16  O   UNL     1      -8.570   6.252  65.527  1.00  0.00    -0.150 OA 
HETATM   17  C   UNL     1      -9.287   8.456  66.614  1.00  0.00    -0.245 C  
HETATM   18  C   UNL     1      -9.211   6.959  66.268  1.00  0.00    -0.120 C  
BRANCH  17  19
HETATM   19  C   UNL     1      -9.635   9.343  65.423  1.00  0.00    -0.296 C  
BRANCH  19  20
HETATM   20  C   UNL     1      -8.575  10.424  65.231  1.00  0.00    -0.184 C  
BRANCH  20  21
HETATM   21  C   UNL     1      -7.728  10.162  63.983  1.00  0.00    -0.136 C  
BRANCH  21  22
HETATM   22  C   UNL     1      -6.591   9.183  64.283  1.00  0.00    -0.084 C  
BRANCH  22  23
HETATM   23  C   UNL     1      -6.645   7.955  63.375  1.00  0.00    -0.067 C  
HETATM   24  C   UNL     1      -7.965   7.888  62.618  1.00  0.00    -0.147 C  
ENDBRANCH  22  23
ENDBRANCH  21  22
ENDBRANCH  20  21
ENDBRANCH  19  20
ENDBRANCH  17  19
ENDBRANCH  13  14
ENDBRANCH  12  13
BRANCH  12  25
HETATM   25  O   UNL     1     -10.548   6.213  70.448  1.00  0.00    -0.221 OA 
BRANCH  25  26
HETATM   26  C   UNL     1      -9.437   6.305  71.230  1.00  0.00    -0.159 C  
HETATM   27  O   UNL     1      -8.472   7.035  71.029  1.00  0.00    -0.130 OA 
BRANCH  26  28
HETATM   28  C   UNL     1      -9.544   5.380  72.439  1.00  0.00    -0.150 C  
BRANCH  28  29
HETATM   29  C   UNL     1      -9.842   3.930  72.027  1.00  0.00    -0.245 C  
HETATM   30  C   UNL     1      -7.450   2.970  71.887  1.00  0.00    -0.048 C  
HETATM   31  C   UNL     1      -9.333   1.870  70.693  1.00  0.00    -0.187 C  
HETATM   32  C   UNL     1      -8.775   3.216  71.164  1.00  0.00    -0.123 C  
ENDBRANCH  28  29
BRANCH  28  33
HETATM   33  N   UNL     1     -10.533   5.929  73.365  1.00  0.00    -0.230 N  
HETATM   34  C   UNL     1     -10.244   6.936  74.242  1.00  0.00    -0.207 C  
HETATM   35  O   UNL     1      -9.148   7.454  74.389  1.00  0.00    -0.211 OA 
HETATM   36  H   UNL     1     -11.478   5.544  73.357  1.00  0.00     0.000 HD 
ENDBRANCH  28  33
ENDBRANCH  26  28
ENDBRANCH  25  26
ENDBRANCH  12  25
ENDBRANCH  11  12
ENDBRANCH  10  11
ENDBRANCH   9  10
ENDBRANCH   8   9
ENDBRANCH   7   8
ENDBRANCH   6   7
ENDBRANCH   5   6
ENDBRANCH   4   5
ENDBRANCH   3   4
ENDBRANCH   2   3
TORSDOF 22
ENDMDL
MODEL      359
REMARK 921   NORMALIZED FREE ENERGY PREDICTED BY IDOCK:   -3.11 KCAL/MOL
REMARK 922        TOTAL FREE ENERGY PREDICTED BY IDOCK:  -10.72 KCAL/MOL
REMARK 923 INTER-LIGAND FREE ENERGY PREDICTED BY IDOCK:   -7.15 KCAL/MOL
REMARK 924 INTRA-LIGAND FREE ENERGY PREDICTED BY IDOCK:   -3.57 KCAL/MOL
REMARK 927      BINDING AFFINITY PREDICTED BY RF-SCORE:    0.00 PKD
ROOT
HETATM    1  C   UNL     1     -11.699  14.784  65.466  1.00  0.00    -0.274 C  
HETATM    2  C   UNL     1     -10.395  15.518  65.199  1.00  0.00    -0.388 C  
ENDROOT
BRANCH   2   3
HETATM    3  C   UNL     1     -10.274  16.750  66.091  1.00  0.00    -0.363 C  
BRANCH   3   4
HETATM    4  C   UNL     1      -9.967  16.372  67.538  1.00  0.00    -0.250 C  
BRANCH   4   5
HETATM    5  C   UNL     1      -8.477  16.070  67.715  1.00  0.00    -0.168 C  
BRANCH   5   6
HETATM    6  C   UNL     1      -8.273  14.622  68.141  1.00  0.00    -0.142 C  
BRANCH   6   7
HETATM    7  C   UNL     1      -6.883  14.097  67.775  1.00  0.00    -0.188 C  
BRANCH   7   8
HETATM    8  C   UNL     1      -6.953  12.578  67.665  1.00  0.00    -0.139 C  
BRANCH   8   9
HETATM    9  C   UNL     1      -6.789  11.851  68.995  1.00  0.00    -0.105 C  
BRANCH   9  10
HETATM   10  C   UNL     1      -6.352  10.412  68.704  1.00  0.00    -0.051 C  
BRANCH  10  11
HETATM   11  C   UNL     1      -6.653   9.947  67.288  1.00  0.00    -0.070 C  
BRANCH  11  12
HETATM   12  C   UNL     1      -7.900   9.063  67.108  1.00  0.00    -0.099 C  
BRANCH  12  13
HETATM   13  C   UNL     1      -8.428   8.953  65.661  1.00  0.00    -0.171 C  
BRANCH  13  14
HETATM   14  C   UNL     1      -9.722   9.733  65.398  1.00  0.00    -0.313 C  
HETATM   15  O   UNL     1      -9.806  10.228  64.031  1.00  0.00    -0.311 OA 
HETATM   16  O   UNL     1      -9.932  12.509  63.730  1.00  0.00    -0.337 OA 
HETATM   17  C   UNL     1      -9.759  11.196  65.921  1.00  0.00    -0.268 C  
HETATM   18  C   UNL     1      -9.849  11.521  64.419  1.00  0.00    -0.241 C  
BRANCH  17  19
HETATM   19  C   UNL     1     -10.956  11.691  66.727  1.00  0.00    -0.341 C  
BRANCH  19  20
HETATM   20  C   UNL     1     -10.644  11.666  68.220  1.00  0.00    -0.232 C  
BRANCH  20  21
HETATM   21  C   UNL     1     -11.305  10.469  68.910  1.00  0.00    -0.313 C  
BRANCH  21  22
HETATM   22  C   UNL     1     -11.075  10.508  70.422  1.00  0.00    -0.321 C  
BRANCH  22  23
HETATM   23  C   UNL     1     -10.684   9.136  70.973  1.00  0.00    -0.363 C  
HETATM   24  C   UNL     1      -9.179   9.035  71.175  1.00  0.00    -0.326 C  
ENDBRANCH  22  23
ENDBRANCH  21  22
ENDBRANCH  20  21
ENDBRANCH  19  20
ENDBRANCH  17  19
ENDBRANCH  13  14
ENDBRANCH  12  13
BRANCH  12  25
HETATM   25  O   UNL     1      -7.648   7.718  67.577  1.00  0.00    -0.104 OA 
BRANCH  25  26
HETATM   26  C   UNL     1      -8.713   7.004  68.035  1.00  0.00    -0.126 C  
HETATM   27  O   UNL     1      -9.872   7.399  68.098  1.00  0.00    -0.148 OA 
BRANCH  26  28
HETATM   28  C   UNL     1      -8.287   5.600  68.454  1.00  0.00    -0.106 C  
BRANCH  28  29
HETATM   29  C   UNL     1      -8.293   5.431  69.981  1.00  0.00    -0.107 C  
HETATM   30  C   UNL     1      -9.117   2.994  70.191  1.00  0.00    -0.189 C  
HETATM   31  C   UNL     1      -9.323   4.575  72.099  1.00  0.00    -0.175 C  
HETATM   32  C   UNL     1      -9.340   4.459  70.572  1.00  0.00    -0.213 C  
ENDBRANCH  28  29
BRANCH  28  33
HETATM   33  N   UNL     1      -6.991   5.301  67.846  1.00  0.00    -0.064 N  
HETATM   34  C   UNL     1      -6.868   4.680  66.636  1.00  0.00    -0.052 C  
HETATM   35  O   UNL     1      -7.794   4.268  65.955  1.00  0.00    -0.093 OA 
HETATM   36  H   UNL     1      -6.143   5.569  68.347  1.00  0.00     0.000 HD 
ENDBRANCH  28  33
ENDBRANCH  26  28
ENDBRANCH  25  26
ENDBRANCH  12  25
ENDBRANCH  11  12
ENDBRANCH  10  11
ENDBRANCH   9  10
ENDBRANCH   8   9
ENDBRANCH   7   8
ENDBRANCH   6   7
ENDBRANCH   5   6
ENDBRANCH   4   5
ENDBRANCH   3   4
ENDBRANCH   2   3
TORSDOF 22
ENDMDL
MODEL      360
REMARK 921   NORMALIZED FREE ENERGY PREDICTED BY IDOCK:   -3.11 KCAL/MOL
REMARK 922        TOTAL FREE ENERGY PREDICTED BY IDOCK:  -10.72 KCAL/MOL
REMARK 923 INTER-LIGAND FREE ENERGY PREDICTED BY IDOCK:   -8.46 KCAL/MOL
REMARK 924 INTRA-LIGAND FREE ENERGY PREDICTED BY IDOCK:   -2.26 KCAL/MOL
REMARK 927      BINDING AFFINITY PREDICTED BY RF-SCORE:    0.00 PKD
ROOT
HETATM    1  C   UNL     1     -12.641  14.346  70.915  1.00  0.00    -0.422 C  
HETATM    2  C   UNL     1     -11.731  14.072  69.729  1.00  0.00    -0.375 C  
ENDROOT
BRANCH   2   3
HETATM    3  C   UNL     1     -11.919  12.645  69.220  1.00  0.00    -0.301 C  
BRANCH   3   4
HETATM    4  C   UNL     1     -11.797  12.566  67.701  1.00  0.00    -0.381 C  
BRANCH   4   5
HETATM    5  C   UNL     1     -11.180  13.848  67.138  1.00  0.00    -0.328 C  
BRANCH   5   6
HETATM    6  C   UNL     1     -10.447  13.561  65.835  1.00  0.00    -0.292 C  
BRANCH   6   7
HETATM    7  C   UNL     1     -11.358  12.930  64.780  1.00  0.00    -0.349 C  
BRANCH   7   8
HETATM    8  C   UNL     1     -10.803  11.557  64.419  1.00  0.00    -0.405 C  
BRANCH   8   9
HETATM    9  C   UNL     1      -9.518  11.194  65.157  1.00  0.00    -0.257 C  
BRANCH   9  10
HETATM   10  C   UNL     1      -9.877  10.249  66.309  1.00  0.00    -0.276 C  
BRANCH  10  11
HETATM   11  C   UNL     1      -8.695   9.469  66.863  1.00  0.00    -0.136 C  
BRANCH  11  12
HETATM   12  C   UNL     1      -7.863  10.170  67.952  1.00  0.00    -0.101 C  
BRANCH  12  13
HETATM   13  C   UNL     1      -8.389  11.553  68.397  1.00  0.00    -0.154 C  
BRANCH  13  14
HETATM   14  C   UNL     1      -7.412  12.709  68.156  1.00  0.00    -0.122 C  
HETATM   15  O   UNL     1      -6.342  12.749  69.143  1.00  0.00    -0.093 OA 
HETATM   16  O   UNL     1      -6.177  14.632  70.461  1.00  0.00    -0.174 OA 
HETATM   17  C   UNL     1      -7.883  14.114  68.624  1.00  0.00    -0.137 C  
HETATM   18  C   UNL     1      -6.695  13.973  69.592  1.00  0.00    -0.064 C  
BRANCH  17  19
HETATM   19  C   UNL     1      -7.770  15.312  67.687  1.00  0.00    -0.185 C  
BRANCH  19  20
HETATM   20  C   UNL     1      -8.176  16.596  68.405  1.00  0.00    -0.206 C  
BRANCH  20  21
HETATM   21  C   UNL     1      -9.541  17.097  67.925  1.00  0.00    -0.266 C  
BRANCH  21  22
HETATM   22  C   UNL     1      -9.822  18.511  68.437  1.00  0.00    -0.404 C  
BRANCH  22  23
HETATM   23  C   UNL     1     -10.880  19.222  67.594  1.00  0.00    -0.484 C  
HETATM   24  C   UNL     1     -10.238  20.193  66.613  1.00  0.00    -0.556 C  
ENDBRANCH  22  23
ENDBRANCH  21  22
ENDBRANCH  20  21
ENDBRANCH  19  20
ENDBRANCH  17  19
ENDBRANCH  13  14
ENDBRANCH  12  13
BRANCH  12  25
HETATM   25  O   UNL     1      -7.769   9.345  69.136  1.00  0.00    -0.075 OA 
BRANCH  25  26
HETATM   26  C   UNL     1      -8.923   9.076  69.806  1.00  0.00    -0.154 C  
HETATM   27  O   UNL     1      -9.966   9.716  69.731  1.00  0.00    -0.198 OA 
BRANCH  26  28
HETATM   28  C   UNL     1      -8.771   7.830  70.674  1.00  0.00    -0.139 C  
BRANCH  28  29
HETATM   29  C   UNL     1     -10.066   7.005  70.727  1.00  0.00    -0.205 C  
HETATM   30  C   UNL     1     -11.445   8.384  72.417  1.00  0.00    -0.451 C  
HETATM   31  C   UNL     1     -11.986   5.997  71.983  1.00  0.00    -0.237 C  
HETATM   32  C   UNL     1     -10.850   7.021  72.059  1.00  0.00    -0.253 C  
ENDBRANCH  28  29
BRANCH  28  33
HETATM   33  N   UNL     1      -8.291   8.234  71.995  1.00  0.00    -0.151 N  
HETATM   34  C   UNL     1      -7.103   7.804  72.513  1.00  0.00    -0.082 C  
HETATM   35  O   UNL     1      -6.339   7.018  71.974  1.00  0.00    -0.044 OA 
HETATM   36  H   UNL     1      -8.869   8.863  72.554  1.00  0.00     0.000 HD 
ENDBRANCH  28  33
ENDBRANCH  26  28
ENDBRANCH  25  26
ENDBRANCH  12  25
ENDBRANCH  11  12
ENDBRANCH  10  11
ENDBRANCH   9  10
ENDBRANCH   8   9
ENDBRANCH   7   8
ENDBRANCH   6   7
ENDBRANCH   5   6
ENDBRANCH   4   5
ENDBRANCH   3   4
ENDBRANCH   2   3
TORSDOF 22
ENDMDL
MODEL      361
REMARK 921   NORMALIZED FREE ENERGY PREDICTED BY IDOCK:   -3.10 KCAL/MOL
REMARK 922        TOTAL FREE ENERGY PREDICTED BY IDOCK:  -10.71 KCAL/MOL
REMARK 923 INTER-LIGAND FREE ENERGY PREDICTED BY IDOCK:   -8.35 KCAL/MOL
REMARK 924 INTRA-LIGAND FREE ENERGY PREDICTED BY IDOCK:   -2.37 KCAL/MOL
REMARK 927      BINDING AFFINITY PREDICTED BY RF-SCORE:    0.00 PKD
ROOT
HETATM    1  C   UNL     1      -9.851   2.477  63.069  1.00  0.00    -0.096 C  
HETATM    2  C   UNL     1     -10.703   3.550  63.727  1.00  0.00    -0.263 C  
ENDROOT
BRANCH   2   3
HETATM    3  C   UNL     1      -9.992   4.136  64.944  1.00  0.00    -0.208 C  
BRANCH   3   4
HETATM    4  C   UNL     1      -8.831   3.257  65.398  1.00  0.00    -0.134 C  
BRANCH   4   5
HETATM    5  C   UNL     1      -9.123   2.635  66.765  1.00  0.00    -0.149 C  
BRANCH   5   6
HETATM    6  C   UNL     1      -8.694   3.575  67.884  1.00  0.00    -0.130 C  
BRANCH   6   7
HETATM    7  C   UNL     1      -7.226   3.990  67.766  1.00  0.00    -0.063 C  
BRANCH   7   8
HETATM    8  C   UNL     1      -7.149   5.512  67.803  1.00  0.00    -0.071 C  
BRANCH   8   9
HETATM    9  C   UNL     1      -8.364   6.180  68.437  1.00  0.00    -0.114 C  
BRANCH   9  10
HETATM   10  C   UNL     1      -8.679   7.454  67.647  1.00  0.00    -0.125 C  
BRANCH  10  11
HETATM   11  C   UNL     1      -8.521   8.736  68.449  1.00  0.00    -0.130 C  
BRANCH  11  12
HETATM   12  C   UNL     1      -9.821   9.460  68.843  1.00  0.00    -0.171 C  
BRANCH  12  13
HETATM   13  C   UNL     1     -10.126   9.492  70.358  1.00  0.00    -0.329 C  
BRANCH  13  14
HETATM   14  C   UNL     1     -10.270   8.108  71.003  1.00  0.00    -0.188 C  
HETATM   15  O   UNL     1     -11.299   7.300  70.364  1.00  0.00    -0.281 OA 
HETATM   16  O   UNL     1     -13.083   6.628  71.659  1.00  0.00    -0.273 OA 
HETATM   17  C   UNL     1     -11.066   8.053  72.336  1.00  0.00    -0.416 C  
HETATM   18  C   UNL     1     -12.037   7.207  71.492  1.00  0.00    -0.342 C  
BRANCH  17  19
HETATM   19  C   UNL     1     -10.495   7.310  73.540  1.00  0.00    -0.421 C  
BRANCH  19  20
HETATM   20  C   UNL     1     -10.644   5.802  73.359  1.00  0.00    -0.283 C  
BRANCH  20  21
HETATM   21  C   UNL     1      -9.298   5.140  73.054  1.00  0.00    -0.142 C  
BRANCH  21  22
HETATM   22  C   UNL     1      -9.348   4.368  71.734  1.00  0.00    -0.195 C  
BRANCH  22  23
HETATM   23  C   UNL     1      -8.957   2.902  71.918  1.00  0.00    -0.134 C  
HETATM   24  C   UNL     1      -9.837   1.989  71.075  1.00  0.00    -0.089 C  
ENDBRANCH  22  23
ENDBRANCH  21  22
ENDBRANCH  20  21
ENDBRANCH  19  20
ENDBRANCH  17  19
ENDBRANCH  13  14
ENDBRANCH  12  13
BRANCH  12  25
HETATM   25  O   UNL     1      -9.806  10.830  68.380  1.00  0.00    -0.157 OA 
BRANCH  25  26
HETATM   26  C   UNL     1     -10.875  11.257  67.652  1.00  0.00    -0.238 C  
HETATM   27  O   UNL     1     -12.050  11.206  67.998  1.00  0.00    -0.635 OA 
BRANCH  26  28
HETATM   28  C   UNL     1     -10.425  11.847  66.318  1.00  0.00    -0.239 C  
BRANCH  28  29
HETATM   29  C   UNL     1     -11.171  13.148  65.985  1.00  0.00    -0.316 C  
HETATM   30  C   UNL     1     -12.585  12.386  63.965  1.00  0.00    -0.510 C  
HETATM   31  C   UNL     1     -12.100  14.795  64.340  1.00  0.00    -0.457 C  
HETATM   32  C   UNL     1     -11.550  13.375  64.503  1.00  0.00    -0.405 C  
ENDBRANCH  28  29
BRANCH  28  33
HETATM   33  N   UNL     1     -10.560  10.824  65.283  1.00  0.00    -0.212 N  
HETATM   34  C   UNL     1      -9.530  10.006  64.913  1.00  0.00    -0.293 C  
HETATM   35  O   UNL     1      -8.392  10.057  65.355  1.00  0.00    -0.138 OA 
HETATM   36  H   UNL     1     -11.461  10.716  64.816  1.00  0.00     0.000 HD 
ENDBRANCH  28  33
ENDBRANCH  26  28
ENDBRANCH  25  26
ENDBRANCH  12  25
ENDBRANCH  11  12
ENDBRANCH  10  11
ENDBRANCH   9  10
ENDBRANCH   8   9
ENDBRANCH   7   8
ENDBRANCH   6   7
ENDBRANCH   5   6
ENDBRANCH   4   5
ENDBRANCH   3   4
ENDBRANCH   2   3
TORSDOF 22
ENDMDL
MODEL      362
REMARK 921   NORMALIZED FREE ENERGY PREDICTED BY IDOCK:   -3.10 KCAL/MOL
REMARK 922        TOTAL FREE ENERGY PREDICTED BY IDOCK:  -10.71 KCAL/MOL
REMARK 923 INTER-LIGAND FREE ENERGY PREDICTED BY IDOCK:   -8.01 KCAL/MOL
REMARK 924 INTRA-LIGAND FREE ENERGY PREDICTED BY IDOCK:   -2.70 KCAL/MOL
REMARK 927      BINDING AFFINITY PREDICTED BY RF-SCORE:    0.00 PKD
ROOT
HETATM    1  C   UNL     1     -13.203  13.054  71.784  1.00  0.00    -0.486 C  
HETATM    2  C   UNL     1     -13.342  11.572  72.087  1.00  0.00    -0.284 C  
ENDROOT
BRANCH   2   3
HETATM    3  C   UNL     1     -13.125  10.738  70.828  1.00  0.00    -0.245 C  
BRANCH   3   4
HETATM    4  C   UNL     1     -11.662  10.339  70.658  1.00  0.00    -0.438 C  
BRANCH   4   5
HETATM    5  C   UNL     1     -11.261   9.292  71.698  1.00  0.00    -0.449 C  
BRANCH   5   6
HETATM    6  C   UNL     1      -9.843   8.799  71.440  1.00  0.00    -0.353 C  
BRANCH   6   7
HETATM    7  C   UNL     1      -9.799   7.311  71.085  1.00  0.00    -0.182 C  
BRANCH   7   8
HETATM    8  C   UNL     1      -9.662   7.179  69.572  1.00  0.00    -0.157 C  
BRANCH   8   9
HETATM    9  C   UNL     1     -10.830   6.460  68.904  1.00  0.00    -0.382 C  
BRANCH   9  10
HETATM   10  C   UNL     1     -10.901   6.915  67.444  1.00  0.00    -0.396 C  
BRANCH  10  11
HETATM   11  C   UNL     1     -10.814   8.422  67.259  1.00  0.00    -0.088 C  
BRANCH  11  12
HETATM   12  C   UNL     1      -9.453   8.979  66.805  1.00  0.00    -0.182 C  
BRANCH  12  13
HETATM   13  C   UNL     1      -8.761   8.189  65.672  1.00  0.00    -0.176 C  
BRANCH  13  14
HETATM   14  C   UNL     1      -7.546   7.369  66.123  1.00  0.00    -0.088 C  
HETATM   15  O   UNL     1      -6.304   7.841  65.527  1.00  0.00    -0.041 OA 
HETATM   16  O   UNL     1      -5.137   6.369  64.191  1.00  0.00    -0.020 OA 
HETATM   17  C   UNL     1      -7.349   5.994  65.425  1.00  0.00    -0.076 C  
HETATM   18  C   UNL     1      -6.069   6.668  64.898  1.00  0.00    -0.035 C  
BRANCH  17  19
HETATM   19  C   UNL     1      -7.084   4.744  66.258  1.00  0.00    -0.075 C  
BRANCH  19  20
HETATM   20  C   UNL     1      -7.527   4.957  67.702  1.00  0.00    -0.079 C  
BRANCH  20  21
HETATM   21  C   UNL     1      -7.993   3.647  68.343  1.00  0.00    -0.072 C  
BRANCH  21  22
HETATM   22  C   UNL     1      -7.607   3.588  69.822  1.00  0.00    -0.048 C  
BRANCH  22  23
HETATM   23  C   UNL     1      -8.800   3.227  70.707  1.00  0.00    -0.143 C  
HETATM   24  C   UNL     1      -8.528   1.959  71.505  1.00  0.00    -0.075 C  
ENDBRANCH  22  23
ENDBRANCH  21  22
ENDBRANCH  20  21
ENDBRANCH  19  20
ENDBRANCH  17  19
ENDBRANCH  13  14
ENDBRANCH  12  13
BRANCH  12  25
HETATM   25  O   UNL     1      -9.582  10.348  66.356  1.00  0.00    -0.167 OA 
BRANCH  25  26
HETATM   26  C   UNL     1      -9.762  11.306  67.308  1.00  0.00    -0.174 C  
HETATM   27  O   UNL     1      -9.336  11.268  68.457  1.00  0.00    -0.176 OA 
BRANCH  26  28
HETATM   28  C   UNL     1     -10.563  12.480  66.754  1.00  0.00    -0.233 C  
BRANCH  28  29
HETATM   29  C   UNL     1     -11.695  12.014  65.825  1.00  0.00    -0.313 C  
HETATM   30  C   UNL     1     -10.405  11.710  63.611  1.00  0.00    -0.466 C  
HETATM   31  C   UNL     1     -12.871  12.019  63.612  1.00  0.00    -0.472 C  
HETATM   32  C   UNL     1     -11.571  12.390  64.331  1.00  0.00    -0.418 C  
ENDBRANCH  28  29
BRANCH  28  33
HETATM   33  N   UNL     1      -9.642  13.417  66.114  1.00  0.00    -0.425 N  
HETATM   34  C   UNL     1      -9.762  14.772  66.239  1.00  0.00    -0.303 C  
HETATM   35  O   UNL     1     -10.651  15.351  66.843  1.00  0.00    -0.297 OA 
HETATM   36  H   UNL     1      -8.877  13.044  65.550  1.00  0.00     0.000 HD 
ENDBRANCH  28  33
ENDBRANCH  26  28
ENDBRANCH  25  26
ENDBRANCH  12  25
ENDBRANCH  11  12
ENDBRANCH  10  11
ENDBRANCH   9  10
ENDBRANCH   8   9
ENDBRANCH   7   8
ENDBRANCH   6   7
ENDBRANCH   5   6
ENDBRANCH   4   5
ENDBRANCH   3   4
ENDBRANCH   2   3
TORSDOF 22
ENDMDL
MODEL      363
REMARK 921   NORMALIZED FREE ENERGY PREDICTED BY IDOCK:   -3.10 KCAL/MOL
REMARK 922        TOTAL FREE ENERGY PREDICTED BY IDOCK:  -10.71 KCAL/MOL
REMARK 923 INTER-LIGAND FREE ENERGY PREDICTED BY IDOCK:   -8.15 KCAL/MOL
REMARK 924 INTRA-LIGAND FREE ENERGY PREDICTED BY IDOCK:   -2.56 KCAL/MOL
REMARK 927      BINDING AFFINITY PREDICTED BY RF-SCORE:    0.00 PKD
ROOT
HETATM    1  C   UNL     1     -10.170  15.328  65.508  1.00  0.00    -0.417 C  
HETATM    2  C   UNL     1     -11.510  15.397  64.793  1.00  0.00    -0.337 C  
ENDROOT
BRANCH   2   3
HETATM    3  C   UNL     1     -11.931  14.017  64.295  1.00  0.00    -0.463 C  
BRANCH   3   4
HETATM    4  C   UNL     1     -10.754  13.046  64.256  1.00  0.00    -0.430 C  
BRANCH   4   5
HETATM    5  C   UNL     1     -11.194  11.681  63.724  1.00  0.00    -0.498 C  
BRANCH   5   6
HETATM    6  C   UNL     1      -9.982  10.818  63.398  1.00  0.00    -0.385 C  
BRANCH   6   7
HETATM    7  C   UNL     1      -9.080  10.596  64.613  1.00  0.00    -0.238 C  
BRANCH   7   8
HETATM    8  C   UNL     1      -9.654   9.451  65.440  1.00  0.00    -0.296 C  
BRANCH   8   9
HETATM    9  C   UNL     1      -9.829   9.781  66.918  1.00  0.00    -0.256 C  
BRANCH   9  10
HETATM   10  C   UNL     1     -10.505   8.586  67.599  1.00  0.00    -0.308 C  
BRANCH  10  11
HETATM   11  C   UNL     1      -9.569   7.754  68.462  1.00  0.00    -0.151 C  
BRANCH  11  12
HETATM   12  C   UNL     1     -10.145   6.443  69.028  1.00  0.00    -0.165 C  
BRANCH  12  13
HETATM   13  C   UNL     1     -11.620   6.513  69.484  1.00  0.00    -0.298 C  
BRANCH  13  14
HETATM   14  C   UNL     1     -11.810   6.558  71.005  1.00  0.00    -0.330 C  
HETATM   15  O   UNL     1     -13.096   7.126  71.388  1.00  0.00    -0.388 OA 
HETATM   16  O   UNL     1     -13.075   9.046  72.663  1.00  0.00    -0.426 OA 
HETATM   17  C   UNL     1     -11.087   7.713  71.752  1.00  0.00    -0.281 C  
HETATM   18  C   UNL     1     -12.530   8.152  72.062  1.00  0.00    -0.336 C  
BRANCH  17  19
HETATM   19  C   UNL     1     -10.257   7.418  72.998  1.00  0.00    -0.335 C  
BRANCH  19  20
HETATM   20  C   UNL     1      -9.057   8.357  73.078  1.00  0.00    -0.258 C  
BRANCH  20  21
HETATM   21  C   UNL     1      -8.133   8.188  71.869  1.00  0.00    -0.170 C  
BRANCH  21  22
HETATM   22  C   UNL     1      -6.730   7.761  72.302  1.00  0.00    -0.060 C  
BRANCH  22  23
HETATM   23  C   UNL     1      -6.630   6.248  72.495  1.00  0.00    -0.064 C  
HETATM   24  C   UNL     1      -7.453   5.506  71.450  1.00  0.00    -0.098 C  
ENDBRANCH  22  23
ENDBRANCH  21  22
ENDBRANCH  20  21
ENDBRANCH  19  20
ENDBRANCH  17  19
ENDBRANCH  13  14
ENDBRANCH  12  13
BRANCH  12  25
HETATM   25  O   UNL     1     -10.046   5.377  68.056  1.00  0.00    -0.161 OA 
BRANCH  25  26
HETATM   26  C   UNL     1      -9.316   4.280  68.400  1.00  0.00    -0.153 C  
HETATM   27  O   UNL     1      -9.593   3.480  69.287  1.00  0.00    -0.180 OA 
BRANCH  26  28
HETATM   28  C   UNL     1      -8.084   4.146  67.511  1.00  0.00    -0.095 C  
BRANCH  28  29
HETATM   29  C   UNL     1      -8.163   5.060  66.278  1.00  0.00    -0.108 C  
HETATM   30  C   UNL     1      -5.708   5.012  65.486  1.00  0.00    -0.018 C  
HETATM   31  C   UNL     1      -7.228   6.858  64.805  1.00  0.00    -0.075 C  
HETATM   32  C   UNL     1      -6.895   5.870  65.927  1.00  0.00    -0.060 C  
ENDBRANCH  28  29
BRANCH  28  33
HETATM   33  N   UNL     1      -7.901   2.735  67.171  1.00  0.00    -0.073 N  
HETATM   34  C   UNL     1      -8.524   2.145  66.108  1.00  0.00    -0.102 C  
HETATM   35  O   UNL     1      -9.321   2.692  65.362  1.00  0.00    -0.139 OA 
HETATM   36  H   UNL     1      -7.283   2.168  67.752  1.00  0.00     0.000 HD 
ENDBRANCH  28  33
ENDBRANCH  26  28
ENDBRANCH  25  26
ENDBRANCH  12  25
ENDBRANCH  11  12
ENDBRANCH  10  11
ENDBRANCH   9  10
ENDBRANCH   8   9
ENDBRANCH   7   8
ENDBRANCH   6   7
ENDBRANCH   5   6
ENDBRANCH   4   5
ENDBRANCH   3   4
ENDBRANCH   2   3
TORSDOF 22
ENDMDL
MODEL      364
REMARK 921   NORMALIZED FREE ENERGY PREDICTED BY IDOCK:   -3.10 KCAL/MOL
REMARK 922        TOTAL FREE ENERGY PREDICTED BY IDOCK:  -10.70 KCAL/MOL
REMARK 923 INTER-LIGAND FREE ENERGY PREDICTED BY IDOCK:   -7.75 KCAL/MOL
REMARK 924 INTRA-LIGAND FREE ENERGY PREDICTED BY IDOCK:   -2.96 KCAL/MOL
REMARK 927      BINDING AFFINITY PREDICTED BY RF-SCORE:    0.00 PKD
ROOT
HETATM    1  C   UNL     1      -5.992   5.807  67.025  1.00  0.00    -0.018 C  
HETATM    2  C   UNL     1      -6.123   7.144  67.737  1.00  0.00    -0.034 C  
ENDROOT
BRANCH   2   3
HETATM    3  C   UNL     1      -7.362   7.165  68.628  1.00  0.00    -0.097 C  
BRANCH   3   4
HETATM    4  C   UNL     1      -7.042   7.677  70.029  1.00  0.00    -0.059 C  
BRANCH   4   5
HETATM    5  C   UNL     1      -6.074   8.861  69.967  1.00  0.00    -0.037 C  
BRANCH   5   6
HETATM    6  C   UNL     1      -6.728  10.116  70.527  1.00  0.00    -0.100 C  
BRANCH   6   7
HETATM    7  C   UNL     1      -6.148  11.396  69.922  1.00  0.00    -0.134 C  
BRANCH   7   8
HETATM    8  C   UNL     1      -6.058  11.219  68.411  1.00  0.00    -0.045 C  
BRANCH   8   9
HETATM    9  C   UNL     1      -7.174  11.914  67.637  1.00  0.00    -0.112 C  
BRANCH   9  10
HETATM   10  C   UNL     1      -7.090  13.417  67.921  1.00  0.00    -0.137 C  
BRANCH  10  11
HETATM   11  C   UNL     1      -8.424  14.142  67.820  1.00  0.00    -0.178 C  
BRANCH  11  12
HETATM   12  C   UNL     1      -8.516  15.259  66.764  1.00  0.00    -0.255 C  
BRANCH  12  13
HETATM   13  C   UNL     1      -9.775  15.219  65.870  1.00  0.00    -0.390 C  
BRANCH  13  14
HETATM   14  C   UNL     1     -10.440  13.840  65.774  1.00  0.00    -0.299 C  
HETATM   15  O   UNL     1     -11.126  13.640  64.505  1.00  0.00    -0.364 OA 
HETATM   16  O   UNL     1     -13.399  13.265  64.570  1.00  0.00    -0.225 OA 
HETATM   17  C   UNL     1     -11.793  13.678  66.521  1.00  0.00    -0.441 C  
HETATM   18  C   UNL     1     -12.333  13.483  65.093  1.00  0.00    -0.449 C  
BRANCH  17  19
HETATM   19  C   UNL     1     -12.026  12.478  67.433  1.00  0.00    -0.283 C  
BRANCH  19  20
HETATM   20  C   UNL     1     -11.665  12.821  68.875  1.00  0.00    -0.370 C  
BRANCH  20  21
HETATM   21  C   UNL     1     -11.196  11.583  69.644  1.00  0.00    -0.276 C  
BRANCH  21  22
HETATM   22  C   UNL     1     -10.028  10.900  68.931  1.00  0.00    -0.208 C  
BRANCH  22  23
HETATM   23  C   UNL     1     -10.223   9.386  68.844  1.00  0.00    -0.215 C  
HETATM   24  C   UNL     1     -10.361   8.770  70.230  1.00  0.00    -0.227 C  
ENDBRANCH  22  23
ENDBRANCH  21  22
ENDBRANCH  20  21
ENDBRANCH  19  20
ENDBRANCH  17  19
ENDBRANCH  13  14
ENDBRANCH  12  13
BRANCH  12  25
HETATM   25  O   UNL     1      -8.476  16.561  67.391  1.00  0.00    -0.172 OA 
BRANCH  25  26
HETATM   26  C   UNL     1      -8.309  17.643  66.580  1.00  0.00    -0.268 C  
HETATM   27  O   UNL     1      -9.178  18.169  65.892  1.00  0.00    -0.514 OA 
BRANCH  26  28
HETATM   28  C   UNL     1      -6.873  18.155  66.644  1.00  0.00    -0.203 C  
BRANCH  28  29
HETATM   29  C   UNL     1      -6.267  17.990  68.046  1.00  0.00    -0.175 C  
HETATM   30  C   UNL     1      -7.772  19.582  69.410  1.00  0.00    -0.089 C  
HETATM   31  C   UNL     1      -5.526  18.925  70.250  1.00  0.00    -0.237 C  
HETATM   32  C   UNL     1      -6.349  19.211  68.990  1.00  0.00    -0.297 C  
ENDBRANCH  28  29
BRANCH  28  33
HETATM   33  N   UNL     1      -6.845  19.535  66.163  1.00  0.00    -0.222 N  
HETATM   34  C   UNL     1      -6.329  19.883  64.947  1.00  0.00    -0.283 C  
HETATM   35  O   UNL     1      -5.803  19.116  64.155  1.00  0.00    -0.334 OA 
HETATM   36  H   UNL     1      -7.226  20.269  66.760  1.00  0.00     0.000 HD 
ENDBRANCH  28  33
ENDBRANCH  26  28
ENDBRANCH  25  26
ENDBRANCH  12  25
ENDBRANCH  11  12
ENDBRANCH  10  11
ENDBRANCH   9  10
ENDBRANCH   8   9
ENDBRANCH   7   8
ENDBRANCH   6   7
ENDBRANCH   5   6
ENDBRANCH   4   5
ENDBRANCH   3   4
ENDBRANCH   2   3
TORSDOF 22
ENDMDL
MODEL      365
REMARK 921   NORMALIZED FREE ENERGY PREDICTED BY IDOCK:   -3.07 KCAL/MOL
REMARK 922        TOTAL FREE ENERGY PREDICTED BY IDOCK:  -10.65 KCAL/MOL
REMARK 923 INTER-LIGAND FREE ENERGY PREDICTED BY IDOCK:   -8.50 KCAL/MOL
REMARK 924 INTRA-LIGAND FREE ENERGY PREDICTED BY IDOCK:   -2.14 KCAL/MOL
REMARK 927      BINDING AFFINITY PREDICTED BY RF-SCORE:    0.00 PKD
ROOT
HETATM    1  C   UNL     1      -6.053   4.986  71.824  1.00  0.00    -0.029 C  
HETATM    2  C   UNL     1      -7.335   5.445  71.148  1.00  0.00    -0.083 C  
ENDROOT
BRANCH   2   3
HETATM    3  C   UNL     1      -8.513   5.381  72.116  1.00  0.00    -0.126 C  
BRANCH   3   4
HETATM    4  C   UNL     1      -9.485   6.536  71.901  1.00  0.00    -0.153 C  
BRANCH   4   5
HETATM    5  C   UNL     1     -10.677   6.092  71.050  1.00  0.00    -0.325 C  
BRANCH   5   6
HETATM    6  C   UNL     1     -11.579   7.277  70.733  1.00  0.00    -0.334 C  
BRANCH   6   7
HETATM    7  C   UNL     1     -12.156   7.925  71.993  1.00  0.00    -0.363 C  
BRANCH   7   8
HETATM    8  C   UNL     1     -11.847   9.417  71.954  1.00  0.00    -0.402 C  
BRANCH   8   9
HETATM    9  C   UNL     1     -12.799  10.226  71.080  1.00  0.00    -0.490 C  
BRANCH   9  10
HETATM   10  C   UNL     1     -11.968  11.195  70.233  1.00  0.00    -0.460 C  
BRANCH  10  11
HETATM   11  C   UNL     1     -12.152  11.024  68.734  1.00  0.00    -0.184 C  
BRANCH  11  12
HETATM   12  C   UNL     1     -10.869  10.849  67.902  1.00  0.00    -0.247 C  
BRANCH  12  13
HETATM   13  C   UNL     1      -9.623  11.582  68.447  1.00  0.00    -0.195 C  
BRANCH  13  14
HETATM   14  C   UNL     1      -9.390  12.971  67.841  1.00  0.00    -0.212 C  
HETATM   15  O   UNL     1      -8.084  13.516  68.183  1.00  0.00    -0.135 OA 
HETATM   16  O   UNL     1      -8.031  15.485  69.379  1.00  0.00    -0.219 OA 
HETATM   17  C   UNL     1     -10.070  14.162  68.573  1.00  0.00    -0.243 C  
HETATM   18  C   UNL     1      -8.610  14.580  68.829  1.00  0.00    -0.145 C  
BRANCH  17  19
HETATM   19  C   UNL     1     -10.871  15.191  67.782  1.00  0.00    -0.292 C  
BRANCH  19  20
HETATM   20  C   UNL     1     -11.914  14.501  66.907  1.00  0.00    -0.371 C  
BRANCH  20  21
HETATM   21  C   UNL     1     -11.489  14.489  65.436  1.00  0.00    -0.348 C  
BRANCH  21  22
HETATM   22  C   UNL     1     -10.986  13.105  65.019  1.00  0.00    -0.322 C  
BRANCH  22  23
HETATM   23  C   UNL     1     -11.442  12.737  63.607  1.00  0.00    -0.544 C  
HETATM   24  C   UNL     1     -12.632  11.788  63.644  1.00  0.00    -0.458 C  
ENDBRANCH  22  23
ENDBRANCH  21  22
ENDBRANCH  20  21
ENDBRANCH  19  20
ENDBRANCH  17  19
ENDBRANCH  13  14
ENDBRANCH  12  13
BRANCH  12  25
HETATM   25  O   UNL     1     -10.524   9.449  67.780  1.00  0.00    -0.227 OA 
BRANCH  25  26
HETATM   26  C   UNL     1      -9.352   9.041  68.340  1.00  0.00    -0.139 C  
HETATM   27  O   UNL     1      -9.040   9.152  69.521  1.00  0.00    -0.144 OA 
BRANCH  26  28
HETATM   28  C   UNL     1      -8.449   8.389  67.297  1.00  0.00    -0.124 C  
BRANCH  28  29
HETATM   29  C   UNL     1      -8.980   8.594  65.869  1.00  0.00    -0.245 C  
HETATM   30  C   UNL     1      -6.850   9.438  64.681  1.00  0.00    -0.096 C  
HETATM   31  C   UNL     1      -9.101   9.891  63.729  1.00  0.00    -0.293 C  
HETATM   32  C   UNL     1      -8.314   9.708  65.030  1.00  0.00    -0.146 C  
ENDBRANCH  28  29
BRANCH  28  33
HETATM   33  N   UNL     1      -8.267   6.981  67.647  1.00  0.00    -0.116 N  
HETATM   34  C   UNL     1      -9.243   6.043  67.465  1.00  0.00    -0.111 C  
HETATM   35  O   UNL     1     -10.368   6.264  67.044  1.00  0.00    -0.183 OA 
HETATM   36  H   UNL     1      -7.374   6.687  68.044  1.00  0.00     0.000 HD 
ENDBRANCH  28  33
ENDBRANCH  26  28
ENDBRANCH  25  26
ENDBRANCH  12  25
ENDBRANCH  11  12
ENDBRANCH  10  11
ENDBRANCH   9  10
ENDBRANCH   8   9
ENDBRANCH   7   8
ENDBRANCH   6   7
ENDBRANCH   5   6
ENDBRANCH   4   5
ENDBRANCH   3   4
ENDBRANCH   2   3
TORSDOF 22
ENDMDL
MODEL      366
REMARK 921   NORMALIZED FREE ENERGY PREDICTED BY IDOCK:   -3.07 KCAL/MOL
REMARK 922        TOTAL FREE ENERGY PREDICTED BY IDOCK:  -10.64 KCAL/MOL
REMARK 923 INTER-LIGAND FREE ENERGY PREDICTED BY IDOCK:   -8.87 KCAL/MOL
REMARK 924 INTRA-LIGAND FREE ENERGY PREDICTED BY IDOCK:   -1.77 KCAL/MOL
REMARK 927      BINDING AFFINITY PREDICTED BY RF-SCORE:    0.00 PKD
ROOT
HETATM    1  C   UNL     1     -12.116  14.971  69.956  1.00  0.00    -0.382 C  
HETATM    2  C   UNL     1     -11.107  16.027  70.377  1.00  0.00    -0.376 C  
ENDROOT
BRANCH   2   3
HETATM    3  C   UNL     1     -10.317  16.533  69.173  1.00  0.00    -0.316 C  
BRANCH   3   4
HETATM    4  C   UNL     1      -9.000  15.781  69.003  1.00  0.00    -0.246 C  
BRANCH   4   5
HETATM    5  C   UNL     1      -8.513  15.860  67.555  1.00  0.00    -0.181 C  
BRANCH   5   6
HETATM    6  C   UNL     1      -9.623  15.454  66.595  1.00  0.00    -0.276 C  
BRANCH   6   7
HETATM    7  C   UNL     1      -9.952  13.962  66.679  1.00  0.00    -0.279 C  
BRANCH   7   8
HETATM    8  C   UNL     1     -11.449  13.783  66.461  1.00  0.00    -0.364 C  
BRANCH   8   9
HETATM    9  C   UNL     1     -11.906  12.327  66.455  1.00  0.00    -0.378 C  
BRANCH   9  10
HETATM   10  C   UNL     1     -10.724  11.453  66.887  1.00  0.00    -0.308 C  
BRANCH  10  11
HETATM   11  C   UNL     1     -10.579  10.168  66.087  1.00  0.00    -0.099 C  
BRANCH  11  12
HETATM   12  C   UNL     1      -9.638   9.100  66.673  1.00  0.00    -0.203 C  
BRANCH  12  13
HETATM   13  C   UNL     1     -10.307   7.753  67.028  1.00  0.00    -0.405 C  
BRANCH  13  14
HETATM   14  C   UNL     1     -10.124   7.322  68.489  1.00  0.00    -0.172 C  
HETATM   15  O   UNL     1      -9.117   6.282  68.640  1.00  0.00    -0.127 OA 
HETATM   16  O   UNL     1      -9.797   4.260  69.513  1.00  0.00    -0.208 OA 
HETATM   17  C   UNL     1     -11.198   6.354  69.057  1.00  0.00    -0.402 C  
HETATM   18  C   UNL     1      -9.999   5.393  69.147  1.00  0.00    -0.197 C  
BRANCH  17  19
HETATM   19  C   UNL     1     -11.854   6.642  70.404  1.00  0.00    -0.407 C  
BRANCH  19  20
HETATM   20  C   UNL     1     -10.826   7.172  71.398  1.00  0.00    -0.253 C  
BRANCH  20  21
HETATM   21  C   UNL     1     -11.459   8.155  72.387  1.00  0.00    -0.462 C  
BRANCH  21  22
HETATM   22  C   UNL     1     -12.888   8.511  71.973  1.00  0.00    -0.414 C  
BRANCH  22  23
HETATM   23  C   UNL     1     -13.083  10.022  71.844  1.00  0.00    -0.563 C  
HETATM   24  C   UNL     1     -12.108  10.617  70.837  1.00  0.00    -0.489 C  
ENDBRANCH  22  23
ENDBRANCH  21  22
ENDBRANCH  20  21
ENDBRANCH  19  20
ENDBRANCH  17  19
ENDBRANCH  13  14
ENDBRANCH  12  13
BRANCH  12  25
HETATM   25  O   UNL     1      -8.555   8.813  65.757  1.00  0.00    -0.144 OA 
BRANCH  25  26
HETATM   26  C   UNL     1      -7.921   7.615  65.893  1.00  0.00    -0.116 C  
HETATM   27  O   UNL     1      -6.999   7.371  66.664  1.00  0.00    -0.066 OA 
BRANCH  26  28
HETATM   28  C   UNL     1      -8.524   6.571  64.958  1.00  0.00    -0.011 C  
BRANCH  28  29
HETATM   29  C   UNL     1      -8.176   5.139  65.395  1.00  0.00    -0.124 C  
HETATM   30  C   UNL     1     -10.203   3.845  64.459  1.00  0.00    -0.231 C  
HETATM   31  C   UNL     1      -8.824   2.892  66.294  1.00  0.00    -0.146 C  
HETATM   32  C   UNL     1      -9.362   4.192  65.688  1.00  0.00    -0.162 C  
ENDBRANCH  28  29
BRANCH  28  33
HETATM   33  N   UNL     1      -8.110   6.871  63.588  1.00  0.00    -0.301 N  
HETATM   34  C   UNL     1      -6.865   6.573  63.111  1.00  0.00    -0.046 C  
HETATM   35  O   UNL     1      -5.958   6.077  63.761  1.00  0.00    -0.021 OA 
HETATM   36  H   UNL     1      -8.778   7.322  62.963  1.00  0.00     0.000 HD 
ENDBRANCH  28  33
ENDBRANCH  26  28
ENDBRANCH  25  26
ENDBRANCH  12  25
ENDBRANCH  11  12
ENDBRANCH  10  11
ENDBRANCH   9  10
ENDBRANCH   8   9
ENDBRANCH   7   8
ENDBRANCH   6   7
ENDBRANCH   5   6
ENDBRANCH   4   5
ENDBRANCH   3   4
ENDBRANCH   2   3
TORSDOF 22
ENDMDL
MODEL      367
REMARK 921   NORMALIZED FREE ENERGY PREDICTED BY IDOCK:   -3.07 KCAL/MOL
REMARK 922        TOTAL FREE ENERGY PREDICTED BY IDOCK:  -10.64 KCAL/MOL
REMARK 923 INTER-LIGAND FREE ENERGY PREDICTED BY IDOCK:   -9.31 KCAL/MOL
REMARK 924 INTRA-LIGAND FREE ENERGY PREDICTED BY IDOCK:   -1.33 KCAL/MOL
REMARK 927      BINDING AFFINITY PREDICTED BY RF-SCORE:    0.00 PKD
ROOT
HETATM    1  C   UNL     1      -7.619   3.711  65.956  1.00  0.00    -0.081 C  
HETATM    2  C   UNL     1      -7.319   4.588  64.751  1.00  0.00    -0.071 C  
ENDROOT
BRANCH   2   3
HETATM    3  C   UNL     1      -5.913   5.175  64.843  1.00  0.00    -0.022 C  
BRANCH   3   4
HETATM    4  C   UNL     1      -5.509   5.881  63.552  1.00  0.00    -0.017 C  
BRANCH   4   5
HETATM    5  C   UNL     1      -6.516   6.976  63.195  1.00  0.00    -0.044 C  
BRANCH   5   6
HETATM    6  C   UNL     1      -6.065   8.319  63.753  1.00  0.00    -0.071 C  
BRANCH   6   7
HETATM    7  C   UNL     1      -6.835   8.714  65.015  1.00  0.00    -0.072 C  
BRANCH   7   8
HETATM    8  C   UNL     1      -7.519  10.054  64.765  1.00  0.00    -0.143 C  
BRANCH   8   9
HETATM    9  C   UNL     1      -8.620  10.001  63.711  1.00  0.00    -0.202 C  
BRANCH   9  10
HETATM   10  C   UNL     1      -9.931  10.449  64.364  1.00  0.00    -0.388 C  
BRANCH  10  11
HETATM   11  C   UNL     1      -9.875  10.523  65.882  1.00  0.00    -0.291 C  
BRANCH  11  12
HETATM   12  C   UNL     1     -10.931  11.411  66.564  1.00  0.00    -0.272 C  
BRANCH  12  13
HETATM   13  C   UNL     1     -11.927  12.104  65.608  1.00  0.00    -0.280 C  
BRANCH  13  14
HETATM   14  C   UNL     1     -12.263  13.552  65.985  1.00  0.00    -0.445 C  
HETATM   15  O   UNL     1     -12.917  14.273  64.902  1.00  0.00    -0.682 OA 
HETATM   16  O   UNL     1     -11.848  16.135  64.064  1.00  0.00    -0.876 OA 
HETATM   17  C   UNL     1     -11.085  14.564  65.936  1.00  0.00    -0.327 C  
HETATM   18  C   UNL     1     -11.929  15.190  64.811  1.00  0.00    -0.250 C  
BRANCH  17  19
HETATM   19  C   UNL     1     -10.835  15.506  67.110  1.00  0.00    -0.316 C  
BRANCH  19  20
HETATM   20  C   UNL     1     -10.060  16.739  66.652  1.00  0.00    -0.304 C  
BRANCH  20  21
HETATM   21  C   UNL     1      -8.638  16.376  66.216  1.00  0.00    -0.375 C  
BRANCH  21  22
HETATM   22  C   UNL     1      -7.599  17.198  66.981  1.00  0.00    -0.223 C  
BRANCH  22  23
HETATM   23  C   UNL     1      -6.731  18.033  66.041  1.00  0.00    -0.323 C  
HETATM   24  C   UNL     1      -7.240  19.465  65.950  1.00  0.00    -0.310 C  
ENDBRANCH  22  23
ENDBRANCH  21  22
ENDBRANCH  20  21
ENDBRANCH  19  20
ENDBRANCH  17  19
ENDBRANCH  13  14
ENDBRANCH  12  13
BRANCH  12  25
HETATM   25  O   UNL     1     -11.709  10.645  67.513  1.00  0.00    -0.445 OA 
BRANCH  25  26
HETATM   26  C   UNL     1     -11.273  10.618  68.803  1.00  0.00    -0.279 C  
HETATM   27  O   UNL     1     -11.286  11.559  69.588  1.00  0.00    -0.251 OA 
BRANCH  26  28
HETATM   28  C   UNL     1     -10.771   9.227  69.178  1.00  0.00    -0.183 C  
BRANCH  28  29
HETATM   29  C   UNL     1     -11.464   8.686  70.439  1.00  0.00    -0.151 C  
HETATM   30  C   UNL     1     -10.789   6.198  70.329  1.00  0.00    -0.385 C  
HETATM   31  C   UNL     1     -12.764   6.922  71.654  1.00  0.00    -0.396 C  
HETATM   32  C   UNL     1     -11.930   7.213  70.402  1.00  0.00    -0.190 C  
ENDBRANCH  28  29
BRANCH  28  33
HETATM   33  N   UNL     1      -9.314   9.269  69.295  1.00  0.00    -0.155 N  
HETATM   34  C   UNL     1      -8.672   9.356  70.497  1.00  0.00    -0.231 C  
HETATM   35  O   UNL     1      -9.217   9.453  71.585  1.00  0.00    -0.258 OA 
HETATM   36  H   UNL     1      -8.754   9.231  68.442  1.00  0.00     0.000 HD 
ENDBRANCH  28  33
ENDBRANCH  26  28
ENDBRANCH  25  26
ENDBRANCH  12  25
ENDBRANCH  11  12
ENDBRANCH  10  11
ENDBRANCH   9  10
ENDBRANCH   8   9
ENDBRANCH   7   8
ENDBRANCH   6   7
ENDBRANCH   5   6
ENDBRANCH   4   5
ENDBRANCH   3   4
ENDBRANCH   2   3
TORSDOF 22
ENDMDL
MODEL      368
REMARK 921   NORMALIZED FREE ENERGY PREDICTED BY IDOCK:   -3.06 KCAL/MOL
REMARK 922        TOTAL FREE ENERGY PREDICTED BY IDOCK:  -10.61 KCAL/MOL
REMARK 923 INTER-LIGAND FREE ENERGY PREDICTED BY IDOCK:   -8.36 KCAL/MOL
REMARK 924 INTRA-LIGAND FREE ENERGY PREDICTED BY IDOCK:   -2.25 KCAL/MOL
REMARK 927      BINDING AFFINITY PREDICTED BY RF-SCORE:    0.00 PKD
ROOT
HETATM    1  C   UNL     1     -10.327   2.259  63.441  1.00  0.00    -0.160 C  
HETATM    2  C   UNL     1     -10.813   3.680  63.673  1.00  0.00    -0.207 C  
ENDROOT
BRANCH   2   3
HETATM    3  C   UNL     1     -10.177   4.274  64.927  1.00  0.00    -0.193 C  
BRANCH   3   4
HETATM    4  C   UNL     1      -8.970   3.462  65.388  1.00  0.00    -0.142 C  
BRANCH   4   5
HETATM    5  C   UNL     1      -7.670   4.220  65.114  1.00  0.00    -0.085 C  
BRANCH   5   6
HETATM    6  C   UNL     1      -7.871   5.717  65.310  1.00  0.00    -0.100 C  
BRANCH   6   7
HETATM    7  C   UNL     1      -7.504   6.174  66.723  1.00  0.00    -0.087 C  
BRANCH   7   8
HETATM    8  C   UNL     1      -8.369   7.377  67.083  1.00  0.00    -0.118 C  
BRANCH   8   9
HETATM    9  C   UNL     1      -8.633   8.323  65.916  1.00  0.00    -0.170 C  
BRANCH   9  10
HETATM   10  C   UNL     1      -9.846   9.190  66.266  1.00  0.00    -0.359 C  
BRANCH  10  11
HETATM   11  C   UNL     1      -9.489  10.587  66.752  1.00  0.00    -0.190 C  
BRANCH  11  12
HETATM   12  C   UNL     1     -10.569  11.325  67.563  1.00  0.00    -0.218 C  
BRANCH  12  13
HETATM   13  C   UNL     1     -11.463  10.425  68.445  1.00  0.00    -0.227 C  
BRANCH  13  14
HETATM   14  C   UNL     1     -10.900  10.150  69.844  1.00  0.00    -0.299 C  
HETATM   15  O   UNL     1      -9.447  10.050  69.850  1.00  0.00    -0.225 OA 
HETATM   16  O   UNL     1      -8.519   8.053  70.528  1.00  0.00    -0.121 OA 
HETATM   17  C   UNL     1     -10.994   8.681  70.345  1.00  0.00    -0.256 C  
HETATM   18  C   UNL     1      -9.459   8.773  70.291  1.00  0.00    -0.174 C  
BRANCH  17  19
HETATM   19  C   UNL     1     -11.541   8.380  71.736  1.00  0.00    -0.372 C  
BRANCH  19  20
HETATM   20  C   UNL     1     -12.527   7.216  71.685  1.00  0.00    -0.405 C  
BRANCH  20  21
HETATM   21  C   UNL     1     -11.992   5.997  72.441  1.00  0.00    -0.232 C  
BRANCH  21  22
HETATM   22  C   UNL     1     -10.702   6.334  73.192  1.00  0.00    -0.286 C  
BRANCH  22  23
HETATM   23  C   UNL     1     -10.314   5.233  74.178  1.00  0.00    -0.308 C  
HETATM   24  C   UNL     1     -10.910   3.893  73.767  1.00  0.00    -0.326 C  
ENDBRANCH  22  23
ENDBRANCH  21  22
ENDBRANCH  20  21
ENDBRANCH  19  20
ENDBRANCH  17  19
ENDBRANCH  13  14
ENDBRANCH  12  13
BRANCH  12  25
HETATM   25  O   UNL     1      -9.971  12.317  68.430  1.00  0.00    -0.215 OA 
BRANCH  25  26
HETATM   26  C   UNL     1      -9.991  13.612  68.009  1.00  0.00    -0.247 C  
HETATM   27  O   UNL     1      -9.031  14.247  67.585  1.00  0.00    -0.178 OA 
BRANCH  26  28
HETATM   28  C   UNL     1     -11.398  14.194  68.107  1.00  0.00    -0.290 C  
BRANCH  28  29
HETATM   29  C   UNL     1     -11.760  15.034  66.872  1.00  0.00    -0.181 C  
HETATM   30  C   UNL     1     -12.453  13.178  65.217  1.00  0.00    -0.550 C  
HETATM   31  C   UNL     1     -11.763  15.421  64.396  1.00  0.00    -0.261 C  
HETATM   32  C   UNL     1     -11.539  14.374  65.491  1.00  0.00    -0.347 C  
ENDBRANCH  28  29
BRANCH  28  33
HETATM   33  N   UNL     1     -11.512  14.937  69.362  1.00  0.00    -0.281 N  
HETATM   34  C   UNL     1     -12.121  14.424  70.471  1.00  0.00    -0.334 C  
HETATM   35  O   UNL     1     -12.670  13.335  70.538  1.00  0.00    -0.214 OA 
HETATM   36  H   UNL     1     -11.120  15.878  69.410  1.00  0.00     0.000 HD 
ENDBRANCH  28  33
ENDBRANCH  26  28
ENDBRANCH  25  26
ENDBRANCH  12  25
ENDBRANCH  11  12
ENDBRANCH  10  11
ENDBRANCH   9  10
ENDBRANCH   8   9
ENDBRANCH   7   8
ENDBRANCH   6   7
ENDBRANCH   5   6
ENDBRANCH   4   5
ENDBRANCH   3   4
ENDBRANCH   2   3
TORSDOF 22
ENDMDL
MODEL      369
REMARK 921   NORMALIZED FREE ENERGY PREDICTED BY IDOCK:   -3.04 KCAL/MOL
REMARK 922        TOTAL FREE ENERGY PREDICTED BY IDOCK:  -10.58 KCAL/MOL
REMARK 923 INTER-LIGAND FREE ENERGY PREDICTED BY IDOCK:   -7.64 KCAL/MOL
REMARK 924 INTRA-LIGAND FREE ENERGY PREDICTED BY IDOCK:   -2.94 KCAL/MOL
REMARK 927      BINDING AFFINITY PREDICTED BY RF-SCORE:    0.00 PKD
ROOT
HETATM    1  C   UNL     1     -12.117   8.441  72.265  1.00  0.00    -0.456 C  
HETATM    2  C   UNL     1     -13.399   9.247  72.131  1.00  0.00    -0.537 C  
ENDROOT
BRANCH   2   3
HETATM    3  C   UNL     1     -13.093  10.695  71.758  1.00  0.00    -0.571 C  
BRANCH   3   4
HETATM    4  C   UNL     1     -11.925  10.793  70.781  1.00  0.00    -0.464 C  
BRANCH   4   5
HETATM    5  C   UNL     1     -12.400  11.299  69.417  1.00  0.00    -0.216 C  
BRANCH   5   6
HETATM    6  C   UNL     1     -11.343  12.193  68.782  1.00  0.00    -0.339 C  
BRANCH   6   7
HETATM    7  C   UNL     1     -11.817  12.812  67.465  1.00  0.00    -0.402 C  
BRANCH   7   8
HETATM    8  C   UNL     1     -11.241  11.998  66.312  1.00  0.00    -0.394 C  
BRANCH   8   9
HETATM    9  C   UNL     1     -10.205  10.963  66.740  1.00  0.00    -0.277 C  
BRANCH   9  10
HETATM   10  C   UNL     1     -10.029   9.960  65.596  1.00  0.00    -0.353 C  
BRANCH  10  11
HETATM   11  C   UNL     1      -9.255   8.709  65.982  1.00  0.00    -0.276 C  
BRANCH  11  12
HETATM   12  C   UNL     1      -7.780   8.912  66.376  1.00  0.00    -0.095 C  
BRANCH  12  13
HETATM   13  C   UNL     1      -7.459   8.683  67.870  1.00  0.00    -0.097 C  
BRANCH  13  14
HETATM   14  C   UNL     1      -8.693   8.539  68.768  1.00  0.00    -0.139 C  
HETATM   15  O   UNL     1      -8.807   9.621  69.736  1.00  0.00    -0.176 OA 
HETATM   16  O   UNL     1      -8.753   9.062  71.971  1.00  0.00    -0.367 OA 
HETATM   17  C   UNL     1      -8.577   7.519  69.935  1.00  0.00    -0.139 C  
HETATM   18  C   UNL     1      -8.719   8.787  70.796  1.00  0.00    -0.189 C  
BRANCH  17  19
HETATM   19  C   UNL     1      -9.682   6.494  70.169  1.00  0.00    -0.180 C  
BRANCH  19  20
HETATM   20  C   UNL     1      -9.450   5.746  71.479  1.00  0.00    -0.171 C  
BRANCH  20  21
HETATM   21  C   UNL     1     -10.169   4.394  71.485  1.00  0.00    -0.167 C  
BRANCH  21  22
HETATM   22  C   UNL     1      -9.169   3.237  71.525  1.00  0.00    -0.191 C  
BRANCH  22  23
HETATM   23  C   UNL     1      -8.054   3.485  72.541  1.00  0.00    -0.076 C  
HETATM   24  C   UNL     1      -8.291   2.695  73.820  1.00  0.00    -0.071 C  
ENDBRANCH  22  23
ENDBRANCH  21  22
ENDBRANCH  20  21
ENDBRANCH  19  20
ENDBRANCH  17  19
ENDBRANCH  13  14
ENDBRANCH  12  13
BRANCH  12  25
HETATM   25  O   UNL     1      -6.920   8.034  65.613  1.00  0.00    -0.061 OA 
BRANCH  25  26
HETATM   26  C   UNL     1      -6.852   6.730  66.001  1.00  0.00    -0.063 C  
HETATM   27  O   UNL     1      -6.163   6.285  66.912  1.00  0.00    -0.036 OA 
BRANCH  26  28
HETATM   28  C   UNL     1      -7.778   5.862  65.155  1.00  0.00    -0.093 C  
BRANCH  28  29
HETATM   29  C   UNL     1      -8.261   4.621  65.923  1.00  0.00    -0.111 C  
HETATM   30  C   UNL     1     -10.647   5.358  66.574  1.00  0.00    -0.353 C  
HETATM   31  C   UNL     1      -9.490   3.548  67.825  1.00  0.00    -0.230 C  
HETATM   32  C   UNL     1      -9.285   4.857  67.057  1.00  0.00    -0.127 C  
ENDBRANCH  28  29
BRANCH  28  33
HETATM   33  N   UNL     1      -7.101   5.535  63.901  1.00  0.00    -0.047 N  
HETATM   34  C   UNL     1      -7.390   6.159  62.721  1.00  0.00    -0.058 C  
HETATM   35  O   UNL     1      -8.255   7.007  62.562  1.00  0.00    -0.114 OA 
HETATM   36  H   UNL     1      -6.383   4.810  63.908  1.00  0.00     0.000 HD 
ENDBRANCH  28  33
ENDBRANCH  26  28
ENDBRANCH  25  26
ENDBRANCH  12  25
ENDBRANCH  11  12
ENDBRANCH  10  11
ENDBRANCH   9  10
ENDBRANCH   8   9
ENDBRANCH   7   8
ENDBRANCH   6   7
ENDBRANCH   5   6
ENDBRANCH   4   5
ENDBRANCH   3   4
ENDBRANCH   2   3
TORSDOF 22
ENDMDL
MODEL      370
REMARK 921   NORMALIZED FREE ENERGY PREDICTED BY IDOCK:   -3.04 KCAL/MOL
REMARK 922        TOTAL FREE ENERGY PREDICTED BY IDOCK:  -10.57 KCAL/MOL
REMARK 923 INTER-LIGAND FREE ENERGY PREDICTED BY IDOCK:   -7.35 KCAL/MOL
REMARK 924 INTRA-LIGAND FREE ENERGY PREDICTED BY IDOCK:   -3.22 KCAL/MOL
REMARK 927      BINDING AFFINITY PREDICTED BY RF-SCORE:    0.00 PKD
ROOT
HETATM    1  C   UNL     1     -14.405   8.017  71.403  1.00  0.00    -0.490 C  
HETATM    2  C   UNL     1     -13.081   7.303  71.617  1.00  0.00    -0.417 C  
ENDROOT
BRANCH   2   3
HETATM    3  C   UNL     1     -12.043   8.252  72.209  1.00  0.00    -0.439 C  
BRANCH   3   4
HETATM    4  C   UNL     1     -10.902   8.525  71.233  1.00  0.00    -0.312 C  
BRANCH   4   5
HETATM    5  C   UNL     1      -9.580   8.705  71.980  1.00  0.00    -0.385 C  
BRANCH   5   6
HETATM    6  C   UNL     1      -8.586   7.625  71.576  1.00  0.00    -0.126 C  
BRANCH   6   7
HETATM    7  C   UNL     1      -9.240   6.247  71.451  1.00  0.00    -0.153 C  
BRANCH   7   8
HETATM    8  C   UNL     1      -8.165   5.232  71.081  1.00  0.00    -0.118 C  
BRANCH   8   9
HETATM    9  C   UNL     1      -8.622   4.184  70.071  1.00  0.00    -0.100 C  
BRANCH   9  10
HETATM   10  C   UNL     1      -9.804   4.760  69.285  1.00  0.00    -0.269 C  
BRANCH  10  11
HETATM   11  C   UNL     1      -9.920   4.231  67.864  1.00  0.00    -0.055 C  
BRANCH  11  12
HETATM   12  C   UNL     1     -10.533   5.188  66.825  1.00  0.00    -0.251 C  
BRANCH  12  13
HETATM   13  C   UNL     1     -10.807   6.622  67.330  1.00  0.00    -0.456 C  
BRANCH  13  14
HETATM   14  C   UNL     1      -9.734   7.646  66.940  1.00  0.00    -0.213 C  
HETATM   15  O   UNL     1      -9.002   8.152  68.092  1.00  0.00    -0.135 OA 
HETATM   16  O   UNL     1      -9.120  10.413  68.520  1.00  0.00    -0.133 OA 
HETATM   17  C   UNL     1     -10.237   9.085  66.637  1.00  0.00    -0.333 C  
HETATM   18  C   UNL     1      -9.397   9.427  67.882  1.00  0.00    -0.129 C  
BRANCH  17  19
HETATM   19  C   UNL     1      -9.780   9.807  65.374  1.00  0.00    -0.383 C  
BRANCH  19  20
HETATM   20  C   UNL     1     -10.908  10.665  64.809  1.00  0.00     0.105 C  
BRANCH  20  21
HETATM   21  C   UNL     1     -10.370  11.747  63.868  1.00  0.00    -0.428 C  
BRANCH  21  22
HETATM   22  C   UNL     1     -11.483  12.699  63.428  1.00  0.00    -0.499 C  
BRANCH  22  23
HETATM   23  C   UNL     1     -12.202  13.323  64.624  1.00  0.00    -0.460 C  
HETATM   24  C   UNL     1     -11.810  14.784  64.799  1.00  0.00    -0.425 C  
ENDBRANCH  22  23
ENDBRANCH  21  22
ENDBRANCH  20  21
ENDBRANCH  19  20
ENDBRANCH  17  19
ENDBRANCH  13  14
ENDBRANCH  12  13
BRANCH  12  25
HETATM   25  O   UNL     1      -9.680   5.297  65.662  1.00  0.00    -0.117 OA 
BRANCH  25  26
HETATM   26  C   UNL     1      -9.259   4.139  65.083  1.00  0.00    -0.153 C  
HETATM   27  O   UNL     1      -9.957   3.163  64.830  1.00  0.00    -0.086 OA 
BRANCH  26  28
HETATM   28  C   UNL     1      -7.770   4.206  64.753  1.00  0.00    -0.078 C  
BRANCH  28  29
HETATM   29  C   UNL     1      -7.050   5.292  65.568  1.00  0.00    -0.067 C  
HETATM   30  C   UNL     1      -5.543   3.839  67.077  1.00  0.00    -0.021 C  
HETATM   31  C   UNL     1      -6.111   6.173  67.717  1.00  0.00    -0.017 C  
HETATM   32  C   UNL     1      -6.625   4.918  67.006  1.00  0.00    -0.050 C  
ENDBRANCH  28  29
BRANCH  28  33
HETATM   33  N   UNL     1      -7.616   4.373  63.309  1.00  0.00    -0.057 N  
HETATM   34  C   UNL     1      -7.548   3.316  62.446  1.00  0.00    -0.053 C  
HETATM   35  O   UNL     1      -7.560   2.138  62.768  1.00  0.00    -0.047 OA 
HETATM   36  H   UNL     1      -7.556   5.318  62.929  1.00  0.00     0.000 HD 
ENDBRANCH  28  33
ENDBRANCH  26  28
ENDBRANCH  25  26
ENDBRANCH  12  25
ENDBRANCH  11  12
ENDBRANCH  10  11
ENDBRANCH   9  10
ENDBRANCH   8   9
ENDBRANCH   7   8
ENDBRANCH   6   7
ENDBRANCH   5   6
ENDBRANCH   4   5
ENDBRANCH   3   4
ENDBRANCH   2   3
TORSDOF 22
ENDMDL
MODEL      371
REMARK 921   NORMALIZED FREE ENERGY PREDICTED BY IDOCK:   -3.02 KCAL/MOL
REMARK 922        TOTAL FREE ENERGY PREDICTED BY IDOCK:  -10.52 KCAL/MOL
REMARK 923 INTER-LIGAND FREE ENERGY PREDICTED BY IDOCK:   -6.80 KCAL/MOL
REMARK 924 INTRA-LIGAND FREE ENERGY PREDICTED BY IDOCK:   -3.72 KCAL/MOL
REMARK 927      BINDING AFFINITY PREDICTED BY RF-SCORE:    0.00 PKD
ROOT
HETATM    1  C   UNL     1     -12.143   8.061  72.521  1.00  0.00    -0.338 C  
HETATM    2  C   UNL     1     -12.241   6.953  71.485  1.00  0.00    -0.415 C  
ENDROOT
BRANCH   2   3
HETATM    3  C   UNL     1     -11.148   5.910  71.701  1.00  0.00    -0.319 C  
BRANCH   3   4
HETATM    4  C   UNL     1     -10.915   5.633  73.183  1.00  0.00    -0.326 C  
BRANCH   4   5
HETATM    5  C   UNL     1      -9.448   5.858  73.553  1.00  0.00    -0.139 C  
BRANCH   5   6
HETATM    6  C   UNL     1      -8.565   5.775  72.315  1.00  0.00    -0.125 C  
BRANCH   6   7
HETATM    7  C   UNL     1      -7.473   6.846  72.304  1.00  0.00    -0.087 C  
BRANCH   7   8
HETATM    8  C   UNL     1      -8.116   8.196  72.599  1.00  0.00    -0.215 C  
BRANCH   8   9
HETATM    9  C   UNL     1      -8.867   8.797  71.415  1.00  0.00    -0.292 C  
BRANCH   9  10
HETATM   10  C   UNL     1      -8.014   8.604  70.158  1.00  0.00    -0.103 C  
BRANCH  10  11
HETATM   11  C   UNL     1      -7.562   9.904  69.510  1.00  0.00    -0.125 C  
BRANCH  11  12
HETATM   12  C   UNL     1      -7.677   9.980  67.977  1.00  0.00    -0.089 C  
BRANCH  12  13
HETATM   13  C   UNL     1      -8.449   8.817  67.314  1.00  0.00    -0.111 C  
BRANCH  13  14
HETATM   14  C   UNL     1      -7.576   7.877  66.474  1.00  0.00    -0.092 C  
HETATM   15  O   UNL     1      -6.571   8.593  65.700  1.00  0.00    -0.059 OA 
HETATM   16  O   UNL     1      -6.664   8.409  63.405  1.00  0.00    -0.084 OA 
HETATM   17  C   UNL     1      -8.208   7.353  65.153  1.00  0.00    -0.115 C  
HETATM   18  C   UNL     1      -7.067   8.167  64.517  1.00  0.00    -0.077 C  
BRANCH  17  19
HETATM   19  C   UNL     1      -8.159   5.866  64.818  1.00  0.00    -0.132 C  
BRANCH  19  20
HETATM   20  C   UNL     1      -7.261   5.123  65.803  1.00  0.00    -0.069 C  
BRANCH  20  21
HETATM   21  C   UNL     1      -8.038   4.049  66.569  1.00  0.00    -0.097 C  
BRANCH  21  22
HETATM   22  C   UNL     1      -7.719   4.098  68.064  1.00  0.00    -0.071 C  
BRANCH  22  23
HETATM   23  C   UNL     1      -8.470   5.229  68.768  1.00  0.00    -0.092 C  
HETATM   24  C   UNL     1      -9.942   5.235  68.380  1.00  0.00    -0.220 C  
ENDBRANCH  22  23
ENDBRANCH  21  22
ENDBRANCH  20  21
ENDBRANCH  19  20
ENDBRANCH  17  19
ENDBRANCH  13  14
ENDBRANCH  12  13
BRANCH  12  25
HETATM   25  O   UNL     1      -8.323  11.209  67.571  1.00  0.00    -0.119 OA 
BRANCH  25  26
HETATM   26  C   UNL     1      -9.189  11.146  66.522  1.00  0.00    -0.179 C  
HETATM   27  O   UNL     1      -8.884  10.981  65.345  1.00  0.00    -0.192 OA 
BRANCH  26  28
HETATM   28  C   UNL     1     -10.631  11.290  66.997  1.00  0.00    -0.246 C  
BRANCH  28  29
HETATM   29  C   UNL     1     -11.496  12.058  65.985  1.00  0.00    -0.399 C  
HETATM   30  C   UNL     1     -10.711  14.478  66.423  1.00  0.00    -0.309 C  
HETATM   31  C   UNL     1     -12.902  14.028  65.337  1.00  0.00    -0.442 C  
HETATM   32  C   UNL     1     -11.890  13.505  66.361  1.00  0.00    -0.435 C  
ENDBRANCH  28  29
BRANCH  28  33
HETATM   33  N   UNL     1     -10.629  11.894  68.329  1.00  0.00    -0.205 N  
HETATM   34  C   UNL     1     -11.061  11.231  69.442  1.00  0.00    -0.257 C  
HETATM   35  O   UNL     1     -11.531  10.103  69.456  1.00  0.00    -0.229 OA 
HETATM   36  H   UNL     1     -10.291  12.852  68.430  1.00  0.00     0.000 HD 
ENDBRANCH  28  33
ENDBRANCH  26  28
ENDBRANCH  25  26
ENDBRANCH  12  25
ENDBRANCH  11  12
ENDBRANCH  10  11
ENDBRANCH   9  10
ENDBRANCH   8   9
ENDBRANCH   7   8
ENDBRANCH   6   7
ENDBRANCH   5   6
ENDBRANCH   4   5
ENDBRANCH   3   4
ENDBRANCH   2   3
TORSDOF 22
ENDMDL
MODEL      372
REMARK 921   NORMALIZED FREE ENERGY PREDICTED BY IDOCK:   -3.00 KCAL/MOL
REMARK 922        TOTAL FREE ENERGY PREDICTED BY IDOCK:  -10.48 KCAL/MOL
REMARK 923 INTER-LIGAND FREE ENERGY PREDICTED BY IDOCK:   -7.72 KCAL/MOL
REMARK 924 INTRA-LIGAND FREE ENERGY PREDICTED BY IDOCK:   -2.77 KCAL/MOL
REMARK 927      BINDING AFFINITY PREDICTED BY RF-SCORE:    0.00 PKD
ROOT
HETATM    1  C   UNL     1     -12.334  15.841  69.405  1.00  0.00    -0.034 C  
HETATM    2  C   UNL     1     -11.108  15.947  70.298  1.00  0.00    -0.381 C  
ENDROOT
BRANCH   2   3
HETATM    3  C   UNL     1      -9.864  15.442  69.573  1.00  0.00    -0.262 C  
BRANCH   3   4
HETATM    4  C   UNL     1      -9.397  16.421  68.500  1.00  0.00    -0.225 C  
BRANCH   4   5
HETATM    5  C   UNL     1      -9.741  15.901  67.103  1.00  0.00    -0.227 C  
BRANCH   5   6
HETATM    6  C   UNL     1      -8.604  15.050  66.555  1.00  0.00    -0.179 C  
BRANCH   6   7
HETATM    7  C   UNL     1      -8.587  13.642  67.154  1.00  0.00    -0.203 C  
BRANCH   7   8
HETATM    8  C   UNL     1      -7.153  13.298  67.542  1.00  0.00    -0.156 C  
BRANCH   8   9
HETATM    9  C   UNL     1      -6.990  12.866  68.995  1.00  0.00    -0.058 C  
BRANCH   9  10
HETATM   10  C   UNL     1      -6.361  11.470  69.013  1.00  0.00    -0.069 C  
BRANCH  10  11
HETATM   11  C   UNL     1      -7.092  10.449  68.155  1.00  0.00    -0.082 C  
BRANCH  11  12
HETATM   12  C   UNL     1      -8.336   9.793  68.784  1.00  0.00    -0.113 C  
BRANCH  12  13
HETATM   13  C   UNL     1      -8.314   9.677  70.324  1.00  0.00    -0.216 C  
BRANCH  13  14
HETATM   14  C   UNL     1      -8.721   8.299  70.861  1.00  0.00    -0.146 C  
HETATM   15  O   UNL     1      -9.351   7.470  69.844  1.00  0.00    -0.151 OA 
HETATM   16  O   UNL     1     -11.521   6.789  70.219  1.00  0.00    -0.326 OA 
HETATM   17  C   UNL     1     -10.027   8.249  71.700  1.00  0.00    -0.277 C  
HETATM   18  C   UNL     1     -10.514   7.380  70.527  1.00  0.00    -0.218 C  
BRANCH  17  19
HETATM   19  C   UNL     1     -10.047   7.528  73.044  1.00  0.00    -0.342 C  
BRANCH  19  20
HETATM   20  C   UNL     1      -8.668   6.960  73.369  1.00  0.00    -0.148 C  
BRANCH  20  21
HETATM   21  C   UNL     1      -8.767   5.539  73.930  1.00  0.00    -0.121 C  
BRANCH  21  22
HETATM   22  C   UNL     1     -10.226   5.126  74.135  1.00  0.00    -0.280 C  
BRANCH  22  23
HETATM   23  C   UNL     1     -10.505   3.731  73.575  1.00  0.00    -0.259 C  
HETATM   24  C   UNL     1      -9.654   2.679  74.273  1.00  0.00    -0.117 C  
ENDBRANCH  22  23
ENDBRANCH  21  22
ENDBRANCH  20  21
ENDBRANCH  19  20
ENDBRANCH  17  19
ENDBRANCH  13  14
ENDBRANCH  12  13
BRANCH  12  25
HETATM   25  O   UNL     1      -9.535  10.519  68.425  1.00  0.00    -0.147 OA 
BRANCH  25  26
HETATM   26  C   UNL     1     -10.323   9.984  67.451  1.00  0.00    -0.238 C  
HETATM   27  O   UNL     1     -11.008   8.973  67.553  1.00  0.00    -0.152 OA 
BRANCH  26  28
HETATM   28  C   UNL     1     -10.269  10.831  66.183  1.00  0.00    -0.250 C  
BRANCH  28  29
HETATM   29  C   UNL     1     -11.492  11.754  66.056  1.00  0.00    -0.281 C  
HETATM   30  C   UNL     1     -11.081  12.778  63.723  1.00  0.00    -0.475 C  
HETATM   31  C   UNL     1     -12.559  13.914  65.368  1.00  0.00    -0.538 C  
HETATM   32  C   UNL     1     -11.313  13.037  65.213  1.00  0.00    -0.325 C  
ENDBRANCH  28  29
BRANCH  28  33
HETATM   33  N   UNL     1     -10.097   9.944  65.033  1.00  0.00    -0.346 N  
HETATM   34  C   UNL     1      -8.885   9.730  64.441  1.00  0.00    -0.227 C  
HETATM   35  O   UNL     1      -7.836  10.271  64.758  1.00  0.00    -0.149 OA 
HETATM   36  H   UNL     1     -10.916   9.465  64.657  1.00  0.00     0.000 HD 
ENDBRANCH  28  33
ENDBRANCH  26  28
ENDBRANCH  25  26
ENDBRANCH  12  25
ENDBRANCH  11  12
ENDBRANCH  10  11
ENDBRANCH   9  10
ENDBRANCH   8   9
ENDBRANCH   7   8
ENDBRANCH   6   7
ENDBRANCH   5   6
ENDBRANCH   4   5
ENDBRANCH   3   4
ENDBRANCH   2   3
TORSDOF 22
ENDMDL
MODEL      373
REMARK 921   NORMALIZED FREE ENERGY PREDICTED BY IDOCK:   -3.00 KCAL/MOL
REMARK 922        TOTAL FREE ENERGY PREDICTED BY IDOCK:  -10.48 KCAL/MOL
REMARK 923 INTER-LIGAND FREE ENERGY PREDICTED BY IDOCK:   -8.60 KCAL/MOL
REMARK 924 INTRA-LIGAND FREE ENERGY PREDICTED BY IDOCK:   -1.88 KCAL/MOL
REMARK 927      BINDING AFFINITY PREDICTED BY RF-SCORE:    0.00 PKD
ROOT
HETATM    1  C   UNL     1      -5.427   9.101  72.611  1.00  0.00    -0.073 C  
HETATM    2  C   UNL     1      -5.292   8.526  74.011  1.00  0.00    -0.084 C  
ENDROOT
BRANCH   2   3
HETATM    3  C   UNL     1      -6.198   7.310  74.188  1.00  0.00    -0.077 C  
BRANCH   3   4
HETATM    4  C   UNL     1      -7.583   7.545  73.593  1.00  0.00    -0.132 C  
BRANCH   4   5
HETATM    5  C   UNL     1      -8.674   7.055  74.547  1.00  0.00    -0.227 C  
BRANCH   5   6
HETATM    6  C   UNL     1     -10.030   7.054  73.854  1.00  0.00    -0.370 C  
BRANCH   6   7
HETATM    7  C   UNL     1     -10.497   5.644  73.487  1.00  0.00    -0.280 C  
BRANCH   7   8
HETATM    8  C   UNL     1     -11.340   5.727  72.220  1.00  0.00    -0.334 C  
BRANCH   8   9
HETATM    9  C   UNL     1     -10.522   5.829  70.936  1.00  0.00    -0.317 C  
BRANCH   9  10
HETATM   10  C   UNL     1     -11.481   6.127  69.780  1.00  0.00    -0.362 C  
BRANCH  10  11
HETATM   11  C   UNL     1     -10.802   6.697  68.544  1.00  0.00    -0.319 C  
BRANCH  11  12
HETATM   12  C   UNL     1     -10.750   8.233  68.439  1.00  0.00    -0.019 C  
BRANCH  12  13
HETATM   13  C   UNL     1      -9.649   8.915  69.281  1.00  0.00    -0.162 C  
BRANCH  13  14
HETATM   14  C   UNL     1     -10.177   9.876  70.353  1.00  0.00    -0.236 C  
HETATM   15  O   UNL     1     -10.343   9.229  71.647  1.00  0.00    -0.340 OA 
HETATM   16  O   UNL     1     -12.466   9.167  72.543  1.00  0.00    -0.308 OA 
HETATM   17  C   UNL     1     -11.702  10.174  70.316  1.00  0.00    -0.361 C  
HETATM   18  C   UNL     1     -11.674   9.463  71.681  1.00  0.00    -0.398 C  
BRANCH  17  19
HETATM   19  C   UNL     1     -12.203  11.613  70.386  1.00  0.00    -0.434 C  
BRANCH  19  20
HETATM   20  C   UNL     1     -11.634  12.436  69.234  1.00  0.00    -0.379 C  
BRANCH  20  21
HETATM   21  C   UNL     1     -11.627  13.931  69.565  1.00  0.00    -0.358 C  
BRANCH  21  22
HETATM   22  C   UNL     1     -12.026  14.176  71.022  1.00  0.00    -0.351 C  
BRANCH  22  23
HETATM   23  C   UNL     1     -13.322  14.981  71.128  1.00  0.00    -0.510 C  
HETATM   24  C   UNL     1     -14.261  14.375  72.163  1.00  0.00    -0.626 C  
ENDBRANCH  22  23
ENDBRANCH  21  22
ENDBRANCH  20  21
ENDBRANCH  19  20
ENDBRANCH  17  19
ENDBRANCH  13  14
ENDBRANCH  12  13
BRANCH  12  25
HETATM   25  O   UNL     1     -10.559   8.646  67.066  1.00  0.00    -0.294 OA 
BRANCH  25  26
HETATM   26  C   UNL     1      -9.278   8.770  66.621  1.00  0.00    -0.177 C  
HETATM   27  O   UNL     1      -8.672   9.823  66.453  1.00  0.00    -0.129 OA 
BRANCH  26  28
HETATM   28  C   UNL     1      -8.656   7.400  66.366  1.00  0.00    -0.134 C  
BRANCH  28  29
HETATM   29  C   UNL     1      -7.251   7.285  66.978  1.00  0.00    -0.092 C  
HETATM   30  C   UNL     1      -7.403   4.961  68.092  1.00  0.00    -0.070 C  
HETATM   31  C   UNL     1      -5.706   6.619  68.835  1.00  0.00    -0.017 C  
HETATM   32  C   UNL     1      -7.122   6.454  68.275  1.00  0.00    -0.083 C  
ENDBRANCH  28  29
BRANCH  28  33
HETATM   33  N   UNL     1      -8.681   7.133  64.928  1.00  0.00    -0.352 N  
HETATM   34  C   UNL     1      -7.769   7.664  64.062  1.00  0.00    -0.126 C  
HETATM   35  O   UNL     1      -6.875   8.440  64.364  1.00  0.00    -0.068 OA 
HETATM   36  H   UNL     1      -9.411   6.524  64.557  1.00  0.00     0.000 HD 
ENDBRANCH  28  33
ENDBRANCH  26  28
ENDBRANCH  25  26
ENDBRANCH  12  25
ENDBRANCH  11  12
ENDBRANCH  10  11
ENDBRANCH   9  10
ENDBRANCH   8   9
ENDBRANCH   7   8
ENDBRANCH   6   7
ENDBRANCH   5   6
ENDBRANCH   4   5
ENDBRANCH   3   4
ENDBRANCH   2   3
TORSDOF 22
ENDMDL
MODEL      374
REMARK 921   NORMALIZED FREE ENERGY PREDICTED BY IDOCK:   -2.98 KCAL/MOL
REMARK 922        TOTAL FREE ENERGY PREDICTED BY IDOCK:  -10.44 KCAL/MOL
REMARK 923 INTER-LIGAND FREE ENERGY PREDICTED BY IDOCK:   -7.83 KCAL/MOL
REMARK 924 INTRA-LIGAND FREE ENERGY PREDICTED BY IDOCK:   -2.61 KCAL/MOL
REMARK 927      BINDING AFFINITY PREDICTED BY RF-SCORE:    0.00 PKD
ROOT
HETATM    1  C   UNL     1      -9.785   2.226  62.696  1.00  0.00    -0.089 C  
HETATM    2  C   UNL     1     -10.772   3.174  63.357  1.00  0.00    -0.244 C  
ENDROOT
BRANCH   2   3
HETATM    3  C   UNL     1     -10.097   3.970  64.471  1.00  0.00    -0.209 C  
BRANCH   3   4
HETATM    4  C   UNL     1      -8.986   3.170  65.145  1.00  0.00    -0.142 C  
BRANCH   4   5
HETATM    5  C   UNL     1      -9.405   2.738  66.551  1.00  0.00    -0.039 C  
BRANCH   5   6
HETATM    6  C   UNL     1      -8.823   3.680  67.596  1.00  0.00    -0.143 C  
BRANCH   6   7
HETATM    7  C   UNL     1      -7.538   4.359  67.117  1.00  0.00    -0.085 C  
BRANCH   7   8
HETATM    8  C   UNL     1      -7.767   5.865  67.090  1.00  0.00    -0.101 C  
BRANCH   8   9
HETATM    9  C   UNL     1      -8.947   6.329  67.939  1.00  0.00    -0.113 C  
BRANCH   9  10
HETATM   10  C   UNL     1      -9.624   7.500  67.220  1.00  0.00    -0.198 C  
BRANCH  10  11
HETATM   11  C   UNL     1      -8.959   8.846  67.465  1.00  0.00    -0.142 C  
BRANCH  11  12
HETATM   12  C   UNL     1      -9.645   9.772  68.485  1.00  0.00    -0.149 C  
BRANCH  12  13
HETATM   13  C   UNL     1      -9.392   9.423  69.968  1.00  0.00    -0.253 C  
BRANCH  13  14
HETATM   14  C   UNL     1     -10.412   8.450  70.572  1.00  0.00    -0.207 C  
HETATM   15  O   UNL     1     -11.783   8.919  70.428  1.00  0.00    -0.180 OA 
HETATM   16  O   UNL     1     -12.988   9.300  72.355  1.00  0.00    -0.403 OA 
HETATM   17  C   UNL     1     -10.569   8.493  72.118  1.00  0.00    -0.419 C  
HETATM   18  C   UNL     1     -11.988   8.973  71.762  1.00  0.00    -0.368 C  
BRANCH  17  19
HETATM   19  C   UNL     1     -10.546   7.200  72.927  1.00  0.00    -0.317 C  
BRANCH  19  20
HETATM   20  C   UNL     1     -11.350   6.112  72.222  1.00  0.00    -0.346 C  
BRANCH  20  21
HETATM   21  C   UNL     1     -10.458   4.938  71.807  1.00  0.00    -0.214 C  
BRANCH  21  22
HETATM   22  C   UNL     1      -9.068   5.051  72.435  1.00  0.00    -0.146 C  
BRANCH  22  23
HETATM   23  C   UNL     1      -7.966   5.066  71.376  1.00  0.00    -0.111 C  
HETATM   24  C   UNL     1      -7.115   6.324  71.487  1.00  0.00    -0.078 C  
ENDBRANCH  22  23
ENDBRANCH  21  22
ENDBRANCH  20  21
ENDBRANCH  19  20
ENDBRANCH  17  19
ENDBRANCH  13  14
ENDBRANCH  12  13
BRANCH  12  25
HETATM   25  O   UNL     1      -9.232  11.145  68.290  1.00  0.00    -0.155 OA 
BRANCH  25  26
HETATM   26  C   UNL     1     -10.212  12.084  68.174  1.00  0.00    -0.201 C  
HETATM   27  O   UNL     1     -11.216  12.168  68.873  1.00  0.00    -0.236 OA 
BRANCH  26  28
HETATM   28  C   UNL     1      -9.895  13.064  67.048  1.00  0.00    -0.238 C  
BRANCH  28  29
HETATM   29  C   UNL     1     -10.664  14.385  67.204  1.00  0.00    -0.283 C  
HETATM   30  C   UNL     1      -8.769  16.093  66.814  1.00  0.00    -0.273 C  
HETATM   31  C   UNL     1     -10.842  16.748  68.020  1.00  0.00    -0.341 C  
HETATM   32  C   UNL     1      -9.871  15.594  67.751  1.00  0.00    -0.220 C  
ENDBRANCH  28  29
BRANCH  28  33
HETATM   33  N   UNL     1     -10.139  12.404  65.767  1.00  0.00    -0.251 N  
HETATM   34  C   UNL     1     -11.394  12.200  65.268  1.00  0.00    -0.336 C  
HETATM   35  O   UNL     1     -12.436  12.494  65.833  1.00  0.00    -0.596 OA 
HETATM   36  H   UNL     1      -9.338  12.081  65.223  1.00  0.00     0.000 HD 
ENDBRANCH  28  33
ENDBRANCH  26  28
ENDBRANCH  25  26
ENDBRANCH  12  25
ENDBRANCH  11  12
ENDBRANCH  10  11
ENDBRANCH   9  10
ENDBRANCH   8   9
ENDBRANCH   7   8
ENDBRANCH   6   7
ENDBRANCH   5   6
ENDBRANCH   4   5
ENDBRANCH   3   4
ENDBRANCH   2   3
TORSDOF 22
ENDMDL
MODEL      375
REMARK 921   NORMALIZED FREE ENERGY PREDICTED BY IDOCK:   -2.98 KCAL/MOL
REMARK 922        TOTAL FREE ENERGY PREDICTED BY IDOCK:  -10.43 KCAL/MOL
REMARK 923 INTER-LIGAND FREE ENERGY PREDICTED BY IDOCK:   -7.65 KCAL/MOL
REMARK 924 INTRA-LIGAND FREE ENERGY PREDICTED BY IDOCK:   -2.78 KCAL/MOL
REMARK 927      BINDING AFFINITY PREDICTED BY RF-SCORE:    0.00 PKD
ROOT
HETATM    1  C   UNL     1     -11.704   8.483  72.432  1.00  0.00    -0.429 C  
HETATM    2  C   UNL     1     -12.231   7.547  71.356  1.00  0.00    -0.363 C  
ENDROOT
BRANCH   2   3
HETATM    3  C   UNL     1     -11.494   6.211  71.390  1.00  0.00    -0.317 C  
BRANCH   3   4
HETATM    4  C   UNL     1     -11.496   5.599  72.788  1.00  0.00    -0.328 C  
BRANCH   4   5
HETATM    5  C   UNL     1     -10.206   4.815  73.039  1.00  0.00    -0.218 C  
BRANCH   5   6
HETATM    6  C   UNL     1      -9.402   4.683  71.752  1.00  0.00    -0.190 C  
BRANCH   6   7
HETATM    7  C   UNL     1      -7.992   5.260  71.884  1.00  0.00    -0.113 C  
BRANCH   7   8
HETATM    8  C   UNL     1      -7.999   6.311  72.987  1.00  0.00    -0.107 C  
BRANCH   8   9
HETATM    9  C   UNL     1      -8.163   7.741  72.481  1.00  0.00    -0.165 C  
BRANCH   9  10
HETATM   10  C   UNL     1      -7.893   7.749  70.973  1.00  0.00    -0.089 C  
BRANCH  10  11
HETATM   11  C   UNL     1      -7.438   9.096  70.432  1.00  0.00    -0.107 C  
BRANCH  11  12
HETATM   12  C   UNL     1      -8.053   9.537  69.091  1.00  0.00    -0.103 C  
BRANCH  12  13
HETATM   13  C   UNL     1      -8.636   8.399  68.226  1.00  0.00    -0.139 C  
BRANCH  13  14
HETATM   14  C   UNL     1      -7.735   7.960  67.066  1.00  0.00    -0.100 C  
HETATM   15  O   UNL     1      -6.812   9.007  66.651  1.00  0.00    -0.077 OA 
HETATM   16  O   UNL     1      -6.980   9.780  64.486  1.00  0.00    -0.112 OA 
HETATM   17  C   UNL     1      -8.379   7.980  65.651  1.00  0.00    -0.146 C  
HETATM   18  C   UNL     1      -7.322   9.070  65.401  1.00  0.00    -0.085 C  
BRANCH  17  19
HETATM   19  C   UNL     1      -8.242   6.772  64.730  1.00  0.00    -0.052 C  
BRANCH  19  20
HETATM   20  C   UNL     1      -8.783   5.517  65.407  1.00  0.00    -0.148 C  
BRANCH  20  21
HETATM   21  C   UNL     1      -8.934   4.364  64.410  1.00  0.00    -0.151 C  
BRANCH  21  22
HETATM   22  C   UNL     1     -10.402   3.967  64.243  1.00  0.00    -0.245 C  
BRANCH  22  23
HETATM   23  C   UNL     1     -10.556   2.709  63.388  1.00  0.00    -0.217 C  
HETATM   24  C   UNL     1      -9.692   1.574  63.920  1.00  0.00    -0.130 C  
ENDBRANCH  22  23
ENDBRANCH  21  22
ENDBRANCH  20  21
ENDBRANCH  19  20
ENDBRANCH  17  19
ENDBRANCH  13  14
ENDBRANCH  12  13
BRANCH  12  25
HETATM   25  O   UNL     1      -9.111  10.500  69.304  1.00  0.00    -0.189 OA 
BRANCH  25  26
HETATM   26  C   UNL     1      -9.489  11.261  68.240  1.00  0.00    -0.190 C  
HETATM   27  O   UNL     1      -8.757  11.653  67.337  1.00  0.00    -0.146 OA 
BRANCH  26  28
HETATM   28  C   UNL     1     -10.984  11.563  68.292  1.00  0.00    -0.224 C  
BRANCH  28  29
HETATM   29  C   UNL     1     -11.498  12.143  66.965  1.00  0.00    -0.415 C  
HETATM   30  C   UNL     1     -10.910  14.637  67.271  1.00  0.00    -0.305 C  
HETATM   31  C   UNL     1     -12.651  13.933  65.643  1.00  0.00    -0.553 C  
HETATM   32  C   UNL     1     -12.003  13.604  66.991  1.00  0.00    -0.448 C  
ENDBRANCH  28  29
BRANCH  28  33
HETATM   33  N   UNL     1     -11.250  12.429  69.440  1.00  0.00    -0.430 N  
HETATM   34  C   UNL     1     -12.094  12.073  70.453  1.00  0.00    -0.321 C  
HETATM   35  O   UNL     1     -12.747  11.042  70.501  1.00  0.00    -0.302 OA 
HETATM   36  H   UNL     1     -10.784  13.336  69.486  1.00  0.00     0.000 HD 
ENDBRANCH  28  33
ENDBRANCH  26  28
ENDBRANCH  25  26
ENDBRANCH  12  25
ENDBRANCH  11  12
ENDBRANCH  10  11
ENDBRANCH   9  10
ENDBRANCH   8   9
ENDBRANCH   7   8
ENDBRANCH   6   7
ENDBRANCH   5   6
ENDBRANCH   4   5
ENDBRANCH   3   4
ENDBRANCH   2   3
TORSDOF 22
ENDMDL
MODEL      376
REMARK 921   NORMALIZED FREE ENERGY PREDICTED BY IDOCK:   -2.97 KCAL/MOL
REMARK 922        TOTAL FREE ENERGY PREDICTED BY IDOCK:  -10.41 KCAL/MOL
REMARK 923 INTER-LIGAND FREE ENERGY PREDICTED BY IDOCK:   -7.06 KCAL/MOL
REMARK 924 INTRA-LIGAND FREE ENERGY PREDICTED BY IDOCK:   -3.36 KCAL/MOL
REMARK 927      BINDING AFFINITY PREDICTED BY RF-SCORE:    0.00 PKD
ROOT
HETATM    1  C   UNL     1     -12.042   8.859  72.086  1.00  0.00    -0.430 C  
HETATM    2  C   UNL     1     -12.722   7.786  71.251  1.00  0.00    -0.277 C  
ENDROOT
BRANCH   2   3
HETATM    3  C   UNL     1     -11.761   6.637  70.958  1.00  0.00    -0.415 C  
BRANCH   3   4
HETATM    4  C   UNL     1     -11.492   5.793  72.201  1.00  0.00    -0.295 C  
BRANCH   4   5
HETATM    5  C   UNL     1     -10.100   5.162  72.138  1.00  0.00    -0.247 C  
BRANCH   5   6
HETATM    6  C   UNL     1      -9.442   5.452  70.795  1.00  0.00    -0.215 C  
BRANCH   6   7
HETATM    7  C   UNL     1      -8.074   6.121  70.948  1.00  0.00    -0.121 C  
BRANCH   7   8
HETATM    8  C   UNL     1      -8.108   7.017  72.181  1.00  0.00    -0.093 C  
BRANCH   8   9
HETATM    9  C   UNL     1      -8.299   8.498  71.866  1.00  0.00    -0.218 C  
BRANCH   9  10
HETATM   10  C   UNL     1      -7.927   8.728  70.398  1.00  0.00    -0.113 C  
BRANCH  10  11
HETATM   11  C   UNL     1      -7.636  10.180  70.052  1.00  0.00    -0.164 C  
BRANCH  11  12
HETATM   12  C   UNL     1      -8.102  10.660  68.666  1.00  0.00    -0.132 C  
BRANCH  12  13
HETATM   13  C   UNL     1      -8.270   9.549  67.605  1.00  0.00    -0.121 C  
BRANCH  13  14
HETATM   14  C   UNL     1      -6.966   9.132  66.914  1.00  0.00    -0.081 C  
HETATM   15  O   UNL     1      -6.017  10.231  66.804  1.00  0.00    -0.056 OA 
HETATM   16  O   UNL     1      -5.381  10.881  64.687  1.00  0.00    -0.131 OA 
HETATM   17  C   UNL     1      -7.014   9.029  65.364  1.00  0.00    -0.080 C  
HETATM   18  C   UNL     1      -6.008  10.190  65.454  1.00  0.00    -0.101 C  
BRANCH  17  19
HETATM   19  C   UNL     1      -6.461   7.793  64.661  1.00  0.00    -0.044 C  
BRANCH  19  20
HETATM   20  C   UNL     1      -6.740   6.539  65.483  1.00  0.00    -0.047 C  
BRANCH  20  21
HETATM   21  C   UNL     1      -8.226   6.168  65.451  1.00  0.00    -0.145 C  
BRANCH  21  22
HETATM   22  C   UNL     1      -8.769   5.945  66.864  1.00  0.00    -0.111 C  
BRANCH  22  23
HETATM   23  C   UNL     1      -9.965   4.992  66.869  1.00  0.00    -0.238 C  
HETATM   24  C   UNL     1     -10.220   4.425  65.479  1.00  0.00    -0.260 C  
ENDBRANCH  22  23
ENDBRANCH  21  22
ENDBRANCH  20  21
ENDBRANCH  19  20
ENDBRANCH  17  19
ENDBRANCH  13  14
ENDBRANCH  12  13
BRANCH  12  25
HETATM   25  O   UNL     1      -9.366  11.356  68.763  1.00  0.00    -0.179 OA 
BRANCH  25  26
HETATM   26  C   UNL     1      -9.575  12.398  67.910  1.00  0.00    -0.205 C  
HETATM   27  O   UNL     1      -8.724  13.184  67.511  1.00  0.00    -0.178 OA 
BRANCH  26  28
HETATM   28  C   UNL     1     -11.037  12.462  67.478  1.00  0.00    -0.266 C  
BRANCH  28  29
HETATM   29  C   UNL     1     -11.186  12.428  65.949  1.00  0.00    -0.373 C  
HETATM   30  C   UNL     1     -10.504   9.989  65.454  1.00  0.00     0.041 C  
HETATM   31  C   UNL     1     -10.405  11.723  63.675  1.00  0.00    -0.476 C  
HETATM   32  C   UNL     1     -10.248  11.471  65.178  1.00  0.00    -0.322 C  
ENDBRANCH  28  29
BRANCH  28  33
HETATM   33  N   UNL     1     -11.657  13.635  68.091  1.00  0.00    -0.311 N  
HETATM   34  C   UNL     1     -12.100  13.647  69.384  1.00  0.00    -0.314 C  
HETATM   35  O   UNL     1     -12.075  12.695  70.149  1.00  0.00    -0.341 OA 
HETATM   36  H   UNL     1     -11.764  14.481  67.530  1.00  0.00     0.000 HD 
ENDBRANCH  28  33
ENDBRANCH  26  28
ENDBRANCH  25  26
ENDBRANCH  12  25
ENDBRANCH  11  12
ENDBRANCH  10  11
ENDBRANCH   9  10
ENDBRANCH   8   9
ENDBRANCH   7   8
ENDBRANCH   6   7
ENDBRANCH   5   6
ENDBRANCH   4   5
ENDBRANCH   3   4
ENDBRANCH   2   3
TORSDOF 22
ENDMDL
MODEL      377
REMARK 921   NORMALIZED FREE ENERGY PREDICTED BY IDOCK:   -2.97 KCAL/MOL
REMARK 922        TOTAL FREE ENERGY PREDICTED BY IDOCK:  -10.41 KCAL/MOL
REMARK 923 INTER-LIGAND FREE ENERGY PREDICTED BY IDOCK:   -7.44 KCAL/MOL
REMARK 924 INTRA-LIGAND FREE ENERGY PREDICTED BY IDOCK:   -2.96 KCAL/MOL
REMARK 927      BINDING AFFINITY PREDICTED BY RF-SCORE:    0.00 PKD
ROOT
HETATM    1  C   UNL     1     -11.175  16.246  64.770  1.00  0.00    -0.267 C  
HETATM    2  C   UNL     1     -11.856  14.961  64.327  1.00  0.00    -0.312 C  
ENDROOT
BRANCH   2   3
HETATM    3  C   UNL     1     -11.285  13.759  65.073  1.00  0.00    -0.339 C  
BRANCH   3   4
HETATM    4  C   UNL     1     -12.202  12.543  64.974  1.00  0.00    -0.519 C  
BRANCH   4   5
HETATM    5  C   UNL     1     -11.531  11.421  64.179  1.00  0.00    -0.197 C  
BRANCH   5   6
HETATM    6  C   UNL     1     -10.039  11.688  64.031  1.00  0.00    -0.362 C  
BRANCH   6   7
HETATM    7  C   UNL     1      -9.374  10.746  63.026  1.00  0.00    -0.344 C  
BRANCH   7   8
HETATM    8  C   UNL     1      -7.933  10.512  63.462  1.00  0.00    -0.036 C  
BRANCH   8   9
HETATM    9  C   UNL     1      -7.706   9.179  64.168  1.00  0.00    -0.121 C  
BRANCH   9  10
HETATM   10  C   UNL     1      -6.622   9.377  65.232  1.00  0.00    -0.078 C  
BRANCH  10  11
HETATM   11  C   UNL     1      -6.640   8.334  66.338  1.00  0.00    -0.055 C  
BRANCH  11  12
HETATM   12  C   UNL     1      -7.702   8.519  67.436  1.00  0.00    -0.098 C  
BRANCH  12  13
HETATM   13  C   UNL     1      -7.734   9.917  68.094  1.00  0.00    -0.082 C  
BRANCH  13  14
HETATM   14  C   UNL     1      -8.794  10.864  67.518  1.00  0.00    -0.133 C  
HETATM   15  O   UNL     1      -8.208  11.945  66.738  1.00  0.00    -0.170 OA 
HETATM   16  O   UNL     1      -8.582  14.102  67.461  1.00  0.00    -0.167 OA 
HETATM   17  C   UNL     1      -9.390  11.907  68.503  1.00  0.00    -0.142 C  
HETATM   18  C   UNL     1      -8.703  12.904  67.552  1.00  0.00    -0.190 C  
BRANCH  17  19
HETATM   19  C   UNL     1     -10.900  12.095  68.600  1.00  0.00    -0.268 C  
BRANCH  19  20
HETATM   20  C   UNL     1     -11.567  10.822  69.115  1.00  0.00    -0.376 C  
BRANCH  20  21
HETATM   21  C   UNL     1     -12.127  11.016  70.527  1.00  0.00    -0.470 C  
BRANCH  21  22
HETATM   22  C   UNL     1     -12.443  12.488  70.798  1.00  0.00    -0.357 C  
BRANCH  22  23
HETATM   23  C   UNL     1     -13.368  12.658  72.002  1.00  0.00    -0.555 C  
HETATM   24  C   UNL     1     -13.165  14.014  72.665  1.00  0.00    -0.606 C  
ENDBRANCH  22  23
ENDBRANCH  21  22
ENDBRANCH  20  21
ENDBRANCH  19  20
ENDBRANCH  17  19
ENDBRANCH  13  14
ENDBRANCH  12  13
BRANCH  12  25
HETATM   25  O   UNL     1      -9.027   8.259  66.918  1.00  0.00    -0.137 OA 
BRANCH  25  26
HETATM   26  C   UNL     1      -9.847   7.466  67.663  1.00  0.00    -0.154 C  
HETATM   27  O   UNL     1     -11.021   7.697  67.934  1.00  0.00    -0.076 OA 
BRANCH  26  28
HETATM   28  C   UNL     1      -9.118   6.206  68.119  1.00  0.00    -0.111 C  
BRANCH  28  29
HETATM   29  C   UNL     1      -9.280   5.054  67.115  1.00  0.00    -0.124 C  
HETATM   30  C   UNL     1      -6.823   4.319  66.827  1.00  0.00    -0.052 C  
HETATM   31  C   UNL     1      -8.527   3.762  65.105  1.00  0.00    -0.108 C  
HETATM   32  C   UNL     1      -8.104   4.803  66.145  1.00  0.00    -0.107 C  
ENDBRANCH  28  29
BRANCH  28  33
HETATM   33  N   UNL     1      -9.571   5.863  69.467  1.00  0.00    -0.137 N  
HETATM   34  C   UNL     1      -8.730   5.377  70.427  1.00  0.00    -0.129 C  
HETATM   35  O   UNL     1      -7.544   5.132  70.271  1.00  0.00    -0.067 OA 
HETATM   36  H   UNL     1     -10.556   5.992  69.699  1.00  0.00     0.000 HD 
ENDBRANCH  28  33
ENDBRANCH  26  28
ENDBRANCH  25  26
ENDBRANCH  12  25
ENDBRANCH  11  12
ENDBRANCH  10  11
ENDBRANCH   9  10
ENDBRANCH   8   9
ENDBRANCH   7   8
ENDBRANCH   6   7
ENDBRANCH   5   6
ENDBRANCH   4   5
ENDBRANCH   3   4
ENDBRANCH   2   3
TORSDOF 22
ENDMDL
MODEL      378
REMARK 921   NORMALIZED FREE ENERGY PREDICTED BY IDOCK:   -2.97 KCAL/MOL
REMARK 922        TOTAL FREE ENERGY PREDICTED BY IDOCK:  -10.40 KCAL/MOL
REMARK 923 INTER-LIGAND FREE ENERGY PREDICTED BY IDOCK:   -7.69 KCAL/MOL
REMARK 924 INTRA-LIGAND FREE ENERGY PREDICTED BY IDOCK:   -2.70 KCAL/MOL
REMARK 927      BINDING AFFINITY PREDICTED BY RF-SCORE:    0.00 PKD
ROOT
HETATM    1  C   UNL     1      -5.359  16.908  70.604  1.00  0.00    -0.193 C  
HETATM    2  C   UNL     1      -5.161  17.211  69.127  1.00  0.00    -0.145 C  
ENDROOT
BRANCH   2   3
HETATM    3  C   UNL     1      -5.697  18.597  68.781  1.00  0.00    -0.202 C  
BRANCH   3   4
HETATM    4  C   UNL     1      -6.846  18.526  67.780  1.00  0.00    -0.217 C  
BRANCH   4   5
HETATM    5  C   UNL     1      -8.194  18.480  68.503  1.00  0.00    -0.360 C  
BRANCH   5   6
HETATM    6  C   UNL     1      -9.256  17.849  67.612  1.00  0.00    -0.258 C  
BRANCH   6   7
HETATM    7  C   UNL     1      -9.036  16.349  67.413  1.00  0.00    -0.200 C  
BRANCH   7   8
HETATM    8  C   UNL     1      -8.762  15.715  68.772  1.00  0.00    -0.197 C  
BRANCH   8   9
HETATM    9  C   UNL     1      -8.019  14.385  68.698  1.00  0.00    -0.145 C  
BRANCH   9  10
HETATM   10  C   UNL     1      -8.790  13.456  67.754  1.00  0.00    -0.199 C  
BRANCH  10  11
HETATM   11  C   UNL     1      -8.412  11.989  67.883  1.00  0.00    -0.160 C  
BRANCH  11  12
HETATM   12  C   UNL     1      -9.463  11.066  68.526  1.00  0.00    -0.188 C  
BRANCH  12  13
HETATM   13  C   UNL     1      -8.901   9.993  69.485  1.00  0.00    -0.209 C  
BRANCH  13  14
HETATM   14  C   UNL     1      -8.815   8.586  68.880  1.00  0.00    -0.139 C  
HETATM   15  O   UNL     1      -9.958   8.275  68.032  1.00  0.00    -0.170 OA 
HETATM   16  O   UNL     1     -11.285   6.493  68.645  1.00  0.00    -0.289 OA 
HETATM   17  C   UNL     1      -9.203   7.411  69.820  1.00  0.00    -0.140 C  
HETATM   18  C   UNL     1     -10.346   7.235  68.803  1.00  0.00    -0.200 C  
BRANCH  17  19
HETATM   19  C   UNL     1      -8.295   6.191  69.936  1.00  0.00    -0.128 C  
BRANCH  19  20
HETATM   20  C   UNL     1      -9.068   4.996  70.486  1.00  0.00    -0.180 C  
BRANCH  20  21
HETATM   21  C   UNL     1      -8.548   4.580  71.865  1.00  0.00    -0.121 C  
BRANCH  21  22
HETATM   22  C   UNL     1      -8.921   5.613  72.930  1.00  0.00    -0.123 C  
BRANCH  22  23
HETATM   23  C   UNL     1      -7.685   6.182  73.627  1.00  0.00    -0.095 C  
HETATM   24  C   UNL     1      -6.431   5.412  73.235  1.00  0.00    -0.066 C  
ENDBRANCH  22  23
ENDBRANCH  21  22
ENDBRANCH  20  21
ENDBRANCH  19  20
ENDBRANCH  17  19
ENDBRANCH  13  14
ENDBRANCH  12  13
BRANCH  12  25
HETATM   25  O   UNL     1     -10.437  11.836  69.268  1.00  0.00    -0.096 OA 
BRANCH  25  26
HETATM   26  C   UNL     1     -11.670  11.286  69.443  1.00  0.00    -0.339 C  
HETATM   27  O   UNL     1     -12.274  10.596  68.628  1.00  0.00    -0.386 OA 
BRANCH  26  28
HETATM   28  C   UNL     1     -12.224  11.619  70.825  1.00  0.00    -0.344 C  
BRANCH  28  29
HETATM   29  C   UNL     1     -13.147  10.511  71.357  1.00  0.00    -0.509 C  
HETATM   30  C   UNL     1     -11.413   8.860  72.317  1.00  0.00    -0.307 C  
HETATM   31  C   UNL     1     -13.704   8.097  71.727  1.00  0.00    -0.422 C  
HETATM   32  C   UNL     1     -12.583   9.072  71.356  1.00  0.00    -0.370 C  
ENDBRANCH  28  29
BRANCH  28  33
HETATM   33  N   UNL     1     -12.870  12.930  70.769  1.00  0.00    -0.122 N  
HETATM   34  C   UNL     1     -13.120  13.678  71.884  1.00  0.00    -0.387 C  
HETATM   35  O   UNL     1     -12.885  13.337  73.033  1.00  0.00    -0.088 OA 
HETATM   36  H   UNL     1     -13.146  13.300  69.859  1.00  0.00     0.000 HD 
ENDBRANCH  28  33
ENDBRANCH  26  28
ENDBRANCH  25  26
ENDBRANCH  12  25
ENDBRANCH  11  12
ENDBRANCH  10  11
ENDBRANCH   9  10
ENDBRANCH   8   9
ENDBRANCH   7   8
ENDBRANCH   6   7
ENDBRANCH   5   6
ENDBRANCH   4   5
ENDBRANCH   3   4
ENDBRANCH   2   3
TORSDOF 22
ENDMDL
MODEL      379
REMARK 921   NORMALIZED FREE ENERGY PREDICTED BY IDOCK:   -2.95 KCAL/MOL
REMARK 922        TOTAL FREE ENERGY PREDICTED BY IDOCK:  -10.37 KCAL/MOL
REMARK 923 INTER-LIGAND FREE ENERGY PREDICTED BY IDOCK:   -7.10 KCAL/MOL
REMARK 924 INTRA-LIGAND FREE ENERGY PREDICTED BY IDOCK:   -3.27 KCAL/MOL
REMARK 927      BINDING AFFINITY PREDICTED BY RF-SCORE:    0.00 PKD
ROOT
HETATM    1  C   UNL     1      -5.860   6.552  65.235  1.00  0.00    -0.026 C  
HETATM    2  C   UNL     1      -6.285   5.223  65.837  1.00  0.00    -0.034 C  
ENDROOT
BRANCH   2   3
HETATM    3  C   UNL     1      -7.702   4.859  65.402  1.00  0.00    -0.086 C  
BRANCH   3   4
HETATM    4  C   UNL     1      -7.802   3.403  64.957  1.00  0.00    -0.082 C  
BRANCH   4   5
HETATM    5  C   UNL     1      -8.061   2.486  66.155  1.00  0.00    -0.084 C  
BRANCH   5   6
HETATM    6  C   UNL     1      -9.118   3.089  67.071  1.00  0.00    -0.196 C  
BRANCH   6   7
HETATM    7  C   UNL     1      -9.221   2.352  68.407  1.00  0.00    -0.253 C  
BRANCH   7   8
HETATM    8  C   UNL     1      -9.114   3.373  69.533  1.00  0.00    -0.202 C  
BRANCH   8   9
HETATM    9  C   UNL     1      -7.810   4.163  69.533  1.00  0.00    -0.053 C  
BRANCH   9  10
HETATM   10  C   UNL     1      -8.124   5.608  69.934  1.00  0.00    -0.095 C  
BRANCH  10  11
HETATM   11  C   UNL     1      -8.277   6.559  68.757  1.00  0.00    -0.119 C  
BRANCH  11  12
HETATM   12  C   UNL     1      -8.053   8.053  69.052  1.00  0.00    -0.123 C  
BRANCH  12  13
HETATM   13  C   UNL     1      -7.557   8.895  67.855  1.00  0.00    -0.093 C  
BRANCH  13  14
HETATM   14  C   UNL     1      -8.655   9.289  66.860  1.00  0.00    -0.127 C  
HETATM   15  O   UNL     1      -8.910   8.250  65.872  1.00  0.00    -0.151 OA 
HETATM   16  O   UNL     1      -8.554   8.776  63.657  1.00  0.00    -0.152 OA 
HETATM   17  C   UNL     1      -8.233  10.257  65.720  1.00  0.00    -0.147 C  
HETATM   18  C   UNL     1      -8.562   9.042  64.834  1.00  0.00    -0.180 C  
BRANCH  17  19
HETATM   19  C   UNL     1      -9.077  11.489  65.409  1.00  0.00    -0.063 C  
BRANCH  19  20
HETATM   20  C   UNL     1      -9.552  12.153  66.697  1.00  0.00    -0.226 C  
BRANCH  20  21
HETATM   21  C   UNL     1     -10.281  13.470  66.412  1.00  0.00    -0.291 C  
BRANCH  21  22
HETATM   22  C   UNL     1     -11.704  13.446  66.972  1.00  0.00    -0.426 C  
BRANCH  22  23
HETATM   23  C   UNL     1     -12.731  13.900  65.935  1.00  0.00    -0.466 C  
HETATM   24  C   UNL     1     -12.895  12.861  64.834  1.00  0.00    -0.370 C  
ENDBRANCH  22  23
ENDBRANCH  21  22
ENDBRANCH  20  21
ENDBRANCH  19  20
ENDBRANCH  17  19
ENDBRANCH  13  14
ENDBRANCH  12  13
BRANCH  12  25
HETATM   25  O   UNL     1      -9.270   8.669  69.535  1.00  0.00    -0.148 OA 
BRANCH  25  26
HETATM   26  C   UNL     1      -9.297   9.065  70.838  1.00  0.00    -0.264 C  
HETATM   27  O   UNL     1      -8.333   9.127  71.593  1.00  0.00    -0.339 OA 
BRANCH  26  28
HETATM   28  C   UNL     1     -10.711   9.456  71.257  1.00  0.00    -0.350 C  
BRANCH  28  29
HETATM   29  C   UNL     1     -11.426   8.315  71.999  1.00  0.00    -0.399 C  
HETATM   30  C   UNL     1     -11.825   6.658  70.061  1.00  0.00    -0.301 C  
HETATM   31  C   UNL     1     -13.191   6.542  72.136  1.00  0.00     0.110 C  
HETATM   32  C   UNL     1     -12.448   7.487  71.187  1.00  0.00    -0.306 C  
ENDBRANCH  28  29
BRANCH  28  33
HETATM   33  N   UNL     1     -11.440   9.921  70.078  1.00  0.00    -0.343 N  
HETATM   34  C   UNL     1     -12.360  10.929  70.128  1.00  0.00    -0.322 C  
HETATM   35  O   UNL     1     -12.711  11.517  71.139  1.00  0.00    -0.393 OA 
HETATM   36  H   UNL     1     -11.253   9.473  69.180  1.00  0.00     0.000 HD 
ENDBRANCH  28  33
ENDBRANCH  26  28
ENDBRANCH  25  26
ENDBRANCH  12  25
ENDBRANCH  11  12
ENDBRANCH  10  11
ENDBRANCH   9  10
ENDBRANCH   8   9
ENDBRANCH   7   8
ENDBRANCH   6   7
ENDBRANCH   5   6
ENDBRANCH   4   5
ENDBRANCH   3   4
ENDBRANCH   2   3
TORSDOF 22
ENDMDL
MODEL      380
REMARK 921   NORMALIZED FREE ENERGY PREDICTED BY IDOCK:   -2.95 KCAL/MOL
REMARK 922        TOTAL FREE ENERGY PREDICTED BY IDOCK:  -10.37 KCAL/MOL
REMARK 923 INTER-LIGAND FREE ENERGY PREDICTED BY IDOCK:   -8.23 KCAL/MOL
REMARK 924 INTRA-LIGAND FREE ENERGY PREDICTED BY IDOCK:   -2.13 KCAL/MOL
REMARK 927      BINDING AFFINITY PREDICTED BY RF-SCORE:    0.00 PKD
ROOT
HETATM    1  C   UNL     1     -10.604  19.499  65.868  1.00  0.00    -0.572 C  
HETATM    2  C   UNL     1      -9.486  19.781  66.858  1.00  0.00    -0.481 C  
ENDROOT
BRANCH   2   3
HETATM    3  C   UNL     1      -9.511  18.776  68.005  1.00  0.00    -0.349 C  
BRANCH   3   4
HETATM    4  C   UNL     1     -10.655  17.778  67.859  1.00  0.00    -0.389 C  
BRANCH   4   5
HETATM    5  C   UNL     1     -10.597  16.720  68.963  1.00  0.00    -0.343 C  
BRANCH   5   6
HETATM    6  C   UNL     1     -11.461  15.520  68.598  1.00  0.00    -0.367 C  
BRANCH   6   7
HETATM    7  C   UNL     1     -11.855  14.691  69.823  1.00  0.00    -0.366 C  
BRANCH   7   8
HETATM    8  C   UNL     1     -11.571  13.223  69.526  1.00  0.00    -0.349 C  
BRANCH   8   9
HETATM    9  C   UNL     1     -12.226  12.255  70.505  1.00  0.00    -0.387 C  
BRANCH   9  10
HETATM   10  C   UNL     1     -12.406  10.907  69.799  1.00  0.00    -0.326 C  
BRANCH  10  11
HETATM   11  C   UNL     1     -11.246   9.944  69.998  1.00  0.00    -0.327 C  
BRANCH  11  12
HETATM   12  C   UNL     1     -10.028  10.140  69.077  1.00  0.00    -0.208 C  
BRANCH  12  13
HETATM   13  C   UNL     1      -8.735   9.426  69.531  1.00  0.00    -0.162 C  
BRANCH  13  14
HETATM   14  C   UNL     1      -8.783   7.898  69.417  1.00  0.00    -0.138 C  
HETATM   15  O   UNL     1      -8.773   7.242  70.716  1.00  0.00    -0.143 OA 
HETATM   16  O   UNL     1      -7.012   5.829  71.182  1.00  0.00    -0.062 OA 
HETATM   17  C   UNL     1      -7.444   7.195  69.060  1.00  0.00    -0.094 C  
HETATM   18  C   UNL     1      -7.613   6.594  70.467  1.00  0.00    -0.099 C  
BRANCH  17  19
HETATM   19  C   UNL     1      -7.399   6.150  67.950  1.00  0.00    -0.084 C  
BRANCH  19  20
HETATM   20  C   UNL     1      -8.480   5.094  68.163  1.00  0.00    -0.099 C  
BRANCH  20  21
HETATM   21  C   UNL     1      -9.022   4.571  66.830  1.00  0.00    -0.115 C  
BRANCH  21  22
HETATM   22  C   UNL     1      -7.894   4.024  65.952  1.00  0.00    -0.090 C  
BRANCH  22  23
HETATM   23  C   UNL     1      -8.062   4.436  64.490  1.00  0.00    -0.096 C  
HETATM   24  C   UNL     1      -7.823   5.929  64.309  1.00  0.00    -0.116 C  
ENDBRANCH  22  23
ENDBRANCH  21  22
ENDBRANCH  20  21
ENDBRANCH  19  20
ENDBRANCH  17  19
ENDBRANCH  13  14
ENDBRANCH  12  13
BRANCH  12  25
HETATM   25  O   UNL     1     -10.321   9.687  67.735  1.00  0.00    -0.205 OA 
BRANCH  25  26
HETATM   26  C   UNL     1     -10.454  10.636  66.768  1.00  0.00    -0.247 C  
HETATM   27  O   UNL     1     -11.434  11.351  66.590  1.00  0.00    -0.408 OA 
BRANCH  26  28
HETATM   28  C   UNL     1      -9.193  10.723  65.914  1.00  0.00    -0.190 C  
BRANCH  28  29
HETATM   29  C   UNL     1      -7.957  11.090  66.752  1.00  0.00    -0.152 C  
HETATM   30  C   UNL     1      -6.064  10.313  65.180  1.00  0.00    -0.130 C  
HETATM   31  C   UNL     1      -5.657  10.599  67.616  1.00  0.00    -0.043 C  
HETATM   32  C   UNL     1      -6.701  10.208  66.567  1.00  0.00    -0.085 C  
ENDBRANCH  28  29
BRANCH  28  33
HETATM   33  N   UNL     1      -9.435  11.651  64.810  1.00  0.00    -0.408 N  
HETATM   34  C   UNL     1      -9.586  11.237  63.518  1.00  0.00    -0.303 C  
HETATM   35  O   UNL     1      -9.494  10.083  63.128  1.00  0.00    -0.299 OA 
HETATM   36  H   UNL     1      -9.494  12.649  65.014  1.00  0.00     0.000 HD 
ENDBRANCH  28  33
ENDBRANCH  26  28
ENDBRANCH  25  26
ENDBRANCH  12  25
ENDBRANCH  11  12
ENDBRANCH  10  11
ENDBRANCH   9  10
ENDBRANCH   8   9
ENDBRANCH   7   8
ENDBRANCH   6   7
ENDBRANCH   5   6
ENDBRANCH   4   5
ENDBRANCH   3   4
ENDBRANCH   2   3
TORSDOF 22
ENDMDL
MODEL      381
REMARK 921   NORMALIZED FREE ENERGY PREDICTED BY IDOCK:   -2.95 KCAL/MOL
REMARK 922        TOTAL FREE ENERGY PREDICTED BY IDOCK:  -10.36 KCAL/MOL
REMARK 923 INTER-LIGAND FREE ENERGY PREDICTED BY IDOCK:   -7.57 KCAL/MOL
REMARK 924 INTRA-LIGAND FREE ENERGY PREDICTED BY IDOCK:   -2.79 KCAL/MOL
REMARK 927      BINDING AFFINITY PREDICTED BY RF-SCORE:    0.00 PKD
ROOT
HETATM    1  C   UNL     1      -9.080   8.054  65.844  1.00  0.00    -0.159 C  
HETATM    2  C   UNL     1      -8.218   9.224  65.399  1.00  0.00    -0.129 C  
ENDROOT
BRANCH   2   3
HETATM    3  C   UNL     1      -8.681   9.755  64.045  1.00  0.00    -0.235 C  
BRANCH   3   4
HETATM    4  C   UNL     1     -10.051  10.420  64.136  1.00  0.00    -0.262 C  
BRANCH   4   5
HETATM    5  C   UNL     1     -10.052  11.517  65.202  1.00  0.00    -0.313 C  
BRANCH   5   6
HETATM    6  C   UNL     1     -11.188  11.299  66.192  1.00  0.00    -0.133 C  
BRANCH   6   7
HETATM    7  C   UNL     1     -11.782  12.615  66.698  1.00  0.00    -0.464 C  
BRANCH   7   8
HETATM    8  C   UNL     1     -11.421  12.775  68.170  1.00  0.00    -0.357 C  
BRANCH   8   9
HETATM    9  C   UNL     1     -12.259  11.915  69.111  1.00  0.00    -0.141 C  
BRANCH   9  10
HETATM   10  C   UNL     1     -11.657  10.507  69.138  1.00  0.00    -0.295 C  
BRANCH  10  11
HETATM   11  C   UNL     1     -10.295  10.427  69.810  1.00  0.00    -0.252 C  
BRANCH  11  12
HETATM   12  C   UNL     1      -9.145   9.856  68.960  1.00  0.00    -0.164 C  
BRANCH  12  13
HETATM   13  C   UNL     1      -7.827  10.660  69.007  1.00  0.00    -0.137 C  
BRANCH  13  14
HETATM   14  C   UNL     1      -7.750  11.808  67.994  1.00  0.00    -0.123 C  
HETATM   15  O   UNL     1      -6.453  11.884  67.336  1.00  0.00    -0.097 OA 
HETATM   16  O   UNL     1      -5.225  13.814  67.621  1.00  0.00    -0.288 OA 
HETATM   17  C   UNL     1      -7.525  13.229  68.583  1.00  0.00    -0.099 C  
HETATM   18  C   UNL     1      -6.198  13.124  67.810  1.00  0.00    -0.156 C  
BRANCH  17  19
HETATM   19  C   UNL     1      -8.403  14.392  68.134  1.00  0.00    -0.158 C  
BRANCH  19  20
HETATM   20  C   UNL     1      -8.619  14.351  66.624  1.00  0.00    -0.053 C  
BRANCH  20  21
HETATM   21  C   UNL     1      -8.938  15.740  66.067  1.00  0.00    -0.322 C  
BRANCH  21  22
HETATM   22  C   UNL     1     -10.303  16.231  66.555  1.00  0.00    -0.310 C  
BRANCH  22  23
HETATM   23  C   UNL     1     -10.210  17.610  67.208  1.00  0.00    -0.343 C  
HETATM   24  C   UNL     1      -9.378  18.564  66.362  1.00  0.00    -0.285 C  
ENDBRANCH  22  23
ENDBRANCH  21  22
ENDBRANCH  20  21
ENDBRANCH  19  20
ENDBRANCH  17  19
ENDBRANCH  13  14
ENDBRANCH  12  13
BRANCH  12  25
HETATM   25  O   UNL     1      -8.836   8.501  69.360  1.00  0.00    -0.138 OA 
BRANCH  25  26
HETATM   26  C   UNL     1      -9.196   8.120  70.617  1.00  0.00    -0.154 C  
HETATM   27  O   UNL     1      -8.767   8.593  71.664  1.00  0.00    -0.177 OA 
BRANCH  26  28
HETATM   28  C   UNL     1     -10.247   7.014  70.571  1.00  0.00    -0.196 C  
BRANCH  28  29
HETATM   29  C   UNL     1     -10.677   6.572  71.979  1.00  0.00    -0.253 C  
HETATM   30  C   UNL     1      -8.639   5.152  72.679  1.00  0.00    -0.117 C  
HETATM   31  C   UNL     1     -10.841   4.852  73.793  1.00  0.00    -0.376 C  
HETATM   32  C   UNL     1     -10.153   5.203  72.470  1.00  0.00    -0.226 C  
ENDBRANCH  28  29
BRANCH  28  33
HETATM   33  N   UNL     1      -9.736   5.915  69.753  1.00  0.00    -0.155 N  
HETATM   34  C   UNL     1     -10.254   5.603  68.528  1.00  0.00    -0.193 C  
HETATM   35  O   UNL     1     -11.208   6.156  68.001  1.00  0.00    -0.310 OA 
HETATM   36  H   UNL     1      -8.960   5.358  70.112  1.00  0.00     0.000 HD 
ENDBRANCH  28  33
ENDBRANCH  26  28
ENDBRANCH  25  26
ENDBRANCH  12  25
ENDBRANCH  11  12
ENDBRANCH  10  11
ENDBRANCH   9  10
ENDBRANCH   8   9
ENDBRANCH   7   8
ENDBRANCH   6   7
ENDBRANCH   5   6
ENDBRANCH   4   5
ENDBRANCH   3   4
ENDBRANCH   2   3
TORSDOF 22
ENDMDL
MODEL      382
REMARK 921   NORMALIZED FREE ENERGY PREDICTED BY IDOCK:   -2.92 KCAL/MOL
REMARK 922        TOTAL FREE ENERGY PREDICTED BY IDOCK:  -10.30 KCAL/MOL
REMARK 923 INTER-LIGAND FREE ENERGY PREDICTED BY IDOCK:   -8.53 KCAL/MOL
REMARK 924 INTRA-LIGAND FREE ENERGY PREDICTED BY IDOCK:   -1.78 KCAL/MOL
REMARK 927      BINDING AFFINITY PREDICTED BY RF-SCORE:    0.00 PKD
ROOT
HETATM    1  C   UNL     1     -11.026   5.928  69.117  1.00  0.00    -0.382 C  
HETATM    2  C   UNL     1      -9.941   4.873  68.977  1.00  0.00    -0.237 C  
ENDROOT
BRANCH   2   3
HETATM    3  C   UNL     1      -8.714   5.243  69.805  1.00  0.00    -0.116 C  
BRANCH   3   4
HETATM    4  C   UNL     1      -9.092   5.652  71.225  1.00  0.00    -0.156 C  
BRANCH   4   5
HETATM    5  C   UNL     1      -8.364   6.935  71.632  1.00  0.00    -0.109 C  
BRANCH   5   6
HETATM    6  C   UNL     1      -7.281   7.280  70.619  1.00  0.00    -0.066 C  
BRANCH   6   7
HETATM    7  C   UNL     1      -7.583   8.574  69.860  1.00  0.00    -0.071 C  
BRANCH   7   8
HETATM    8  C   UNL     1      -8.803   9.233  70.493  1.00  0.00    -0.285 C  
BRANCH   8   9
HETATM    9  C   UNL     1      -9.949   9.481  69.517  1.00  0.00    -0.205 C  
BRANCH   9  10
HETATM   10  C   UNL     1     -11.151  10.001  70.312  1.00  0.00    -0.381 C  
BRANCH  10  11
HETATM   11  C   UNL     1     -11.802  11.238  69.713  1.00  0.00    -0.437 C  
BRANCH  11  12
HETATM   12  C   UNL     1     -11.087  11.870  68.504  1.00  0.00    -0.243 C  
BRANCH  12  13
HETATM   13  C   UNL     1     -11.689  11.522  67.125  1.00  0.00    -0.140 C  
BRANCH  13  14
HETATM   14  C   UNL     1     -11.671  12.678  66.117  1.00  0.00    -0.406 C  
HETATM   15  O   UNL     1     -11.885  12.227  64.749  1.00  0.00    -0.368 OA 
HETATM   16  O   UNL     1     -10.203  12.619  63.223  1.00  0.00    -0.314 OA 
HETATM   17  C   UNL     1     -10.269  13.213  65.713  1.00  0.00    -0.294 C  
HETATM   18  C   UNL     1     -10.681  12.676  64.330  1.00  0.00    -0.359 C  
BRANCH  17  19
HETATM   19  C   UNL     1      -9.987  14.712  65.728  1.00  0.00    -0.365 C  
BRANCH  19  20
HETATM   20  C   UNL     1     -11.031  15.462  64.905  1.00  0.00    -0.453 C  
BRANCH  20  21
HETATM   21  C   UNL     1     -10.932  16.975  65.121  1.00  0.00    -0.016 C  
BRANCH  21  22
HETATM   22  C   UNL     1      -9.692  17.335  65.943  1.00  0.00    -0.111 C  
BRANCH  22  23
HETATM   23  C   UNL     1      -9.576  18.843  66.164  1.00  0.00    -0.266 C  
HETATM   24  C   UNL     1     -10.894  19.430  66.651  1.00  0.00    -0.462 C  
ENDBRANCH  22  23
ENDBRANCH  21  22
ENDBRANCH  20  21
ENDBRANCH  19  20
ENDBRANCH  17  19
ENDBRANCH  13  14
ENDBRANCH  12  13
BRANCH  12  25
HETATM   25  O   UNL     1     -11.071  13.312  68.615  1.00  0.00    -0.245 OA 
BRANCH  25  26
HETATM   26  C   UNL     1      -9.973  13.885  69.182  1.00  0.00     0.128 C  
HETATM   27  O   UNL     1      -8.805  13.640  68.899  1.00  0.00     0.009 OA 
BRANCH  26  28
HETATM   28  C   UNL     1     -10.378  14.918  70.230  1.00  0.00     0.142 C  
BRANCH  28  29
HETATM   29  C   UNL     1     -11.797  14.667  70.764  1.00  0.00    -0.372 C  
HETATM   30  C   UNL     1     -11.880  16.353  72.715  1.00  0.00    -0.531 C  
HETATM   31  C   UNL     1     -13.428  14.408  72.649  1.00  0.00    -0.605 C  
HETATM   32  C   UNL     1     -12.024  14.895  72.276  1.00  0.00    -0.396 C  
ENDBRANCH  28  29
BRANCH  28  33
HETATM   33  N   UNL     1     -10.204  16.255  69.664  1.00  0.00    -0.245 N  
HETATM   34  C   UNL     1     -11.116  16.826  68.823  1.00  0.00    -0.220 C  
HETATM   35  O   UNL     1     -12.136  16.290  68.416  1.00  0.00     0.050 OA 
HETATM   36  H   UNL     1      -9.365  16.783  69.907  1.00  0.00     0.000 HD 
ENDBRANCH  28  33
ENDBRANCH  26  28
ENDBRANCH  25  26
ENDBRANCH  12  25
ENDBRANCH  11  12
ENDBRANCH  10  11
ENDBRANCH   9  10
ENDBRANCH   8   9
ENDBRANCH   7   8
ENDBRANCH   6   7
ENDBRANCH   5   6
ENDBRANCH   4   5
ENDBRANCH   3   4
ENDBRANCH   2   3
TORSDOF 22
ENDMDL
MODEL      383
REMARK 921   NORMALIZED FREE ENERGY PREDICTED BY IDOCK:   -2.92 KCAL/MOL
REMARK 922        TOTAL FREE ENERGY PREDICTED BY IDOCK:  -10.30 KCAL/MOL
REMARK 923 INTER-LIGAND FREE ENERGY PREDICTED BY IDOCK:   -8.22 KCAL/MOL
REMARK 924 INTRA-LIGAND FREE ENERGY PREDICTED BY IDOCK:   -2.08 KCAL/MOL
REMARK 927      BINDING AFFINITY PREDICTED BY RF-SCORE:    0.00 PKD
ROOT
HETATM    1  C   UNL     1      -9.542   2.654  74.164  1.00  0.00    -0.116 C  
HETATM    2  C   UNL     1      -9.456   4.171  74.139  1.00  0.00    -0.121 C  
ENDROOT
BRANCH   2   3
HETATM    3  C   UNL     1     -10.008   4.724  72.828  1.00  0.00    -0.207 C  
BRANCH   3   4
HETATM    4  C   UNL     1     -11.506   4.998  72.916  1.00  0.00    -0.306 C  
BRANCH   4   5
HETATM    5  C   UNL     1     -11.871   6.267  72.143  1.00  0.00    -0.365 C  
BRANCH   5   6
HETATM    6  C   UNL     1     -11.391   7.505  72.890  1.00  0.00    -0.355 C  
BRANCH   6   7
HETATM    7  C   UNL     1     -10.656   8.488  71.977  1.00  0.00    -0.408 C  
BRANCH   7   8
HETATM    8  C   UNL     1     -10.921   8.094  70.528  1.00  0.00    -0.248 C  
BRANCH   8   9
HETATM    9  C   UNL     1      -9.778   8.429  69.575  1.00  0.00    -0.177 C  
BRANCH   9  10
HETATM   10  C   UNL     1     -10.377   8.752  68.203  1.00  0.00    -0.266 C  
BRANCH  10  11
HETATM   11  C   UNL     1     -11.051  10.114  68.125  1.00  0.00    -0.290 C  
BRANCH  11  12
HETATM   12  C   UNL     1     -10.331  11.186  67.286  1.00  0.00    -0.208 C  
BRANCH  12  13
HETATM   13  C   UNL     1      -9.946  10.755  65.854  1.00  0.00    -0.304 C  
BRANCH  13  14
HETATM   14  C   UNL     1      -8.609  10.010  65.755  1.00  0.00    -0.145 C  
HETATM   15  O   UNL     1      -7.563  10.820  65.147  1.00  0.00    -0.033 OA 
HETATM   16  O   UNL     1      -6.624  10.051  63.188  1.00  0.00    -0.122 OA 
HETATM   17  C   UNL     1      -8.479   8.985  64.594  1.00  0.00    -0.194 C  
HETATM   18  C   UNL     1      -7.395   9.966  64.113  1.00  0.00    -0.133 C  
BRANCH  17  19
HETATM   19  C   UNL     1      -7.953   7.580  64.868  1.00  0.00    -0.132 C  
BRANCH  19  20
HETATM   20  C   UNL     1      -7.949   7.291  66.366  1.00  0.00    -0.112 C  
BRANCH  20  21
HETATM   21  C   UNL     1      -8.254   5.818  66.653  1.00  0.00    -0.106 C  
BRANCH  21  22
HETATM   22  C   UNL     1      -9.720   5.491  66.358  1.00  0.00    -0.182 C  
BRANCH  22  23
HETATM   23  C   UNL     1     -10.512   5.232  67.639  1.00  0.00    -0.176 C  
HETATM   24  C   UNL     1      -9.593   4.811  68.778  1.00  0.00    -0.227 C  
ENDBRANCH  22  23
ENDBRANCH  21  22
ENDBRANCH  20  21
ENDBRANCH  19  20
ENDBRANCH  17  19
ENDBRANCH  13  14
ENDBRANCH  12  13
BRANCH  12  25
HETATM   25  O   UNL     1     -11.143  12.378  67.172  1.00  0.00    -0.253 OA 
BRANCH  25  26
HETATM   26  C   UNL     1     -10.621  13.540  67.653  1.00  0.00    -0.241 C  
HETATM   27  O   UNL     1      -9.474  13.703  68.056  1.00  0.00    -0.196 OA 
BRANCH  26  28
HETATM   28  C   UNL     1     -11.657  14.659  67.613  1.00  0.00    -0.361 C  
BRANCH  28  29
HETATM   29  C   UNL     1     -11.006  16.038  67.417  1.00  0.00    -0.237 C  
HETATM   30  C   UNL     1     -11.048  16.227  64.844  1.00  0.00    -0.301 C  
HETATM   31  C   UNL     1      -9.470  17.595  66.194  1.00  0.00    -0.178 C  
HETATM   32  C   UNL     1     -10.199  16.250  66.116  1.00  0.00    -0.361 C  
ENDBRANCH  28  29
BRANCH  28  33
HETATM   33  N   UNL     1     -12.483  14.579  68.817  1.00  0.00    -0.569 N  
HETATM   34  C   UNL     1     -12.007  14.882  70.061  1.00  0.00    -0.329 C  
HETATM   35  O   UNL     1     -10.858  15.203  70.320  1.00  0.00    -0.265 OA 
HETATM   36  H   UNL     1     -13.456  14.284  68.724  1.00  0.00     0.000 HD 
ENDBRANCH  28  33
ENDBRANCH  26  28
ENDBRANCH  25  26
ENDBRANCH  12  25
ENDBRANCH  11  12
ENDBRANCH  10  11
ENDBRANCH   9  10
ENDBRANCH   8   9
ENDBRANCH   7   8
ENDBRANCH   6   7
ENDBRANCH   5   6
ENDBRANCH   4   5
ENDBRANCH   3   4
ENDBRANCH   2   3
TORSDOF 22
ENDMDL
MODEL      384
REMARK 921   NORMALIZED FREE ENERGY PREDICTED BY IDOCK:   -2.91 KCAL/MOL
REMARK 922        TOTAL FREE ENERGY PREDICTED BY IDOCK:  -10.26 KCAL/MOL
REMARK 923 INTER-LIGAND FREE ENERGY PREDICTED BY IDOCK:   -7.68 KCAL/MOL
REMARK 924 INTRA-LIGAND FREE ENERGY PREDICTED BY IDOCK:   -2.58 KCAL/MOL
REMARK 927      BINDING AFFINITY PREDICTED BY RF-SCORE:    0.00 PKD
ROOT
HETATM    1  C   UNL     1      -9.801  16.012  65.747  1.00  0.00    -0.357 C  
HETATM    2  C   UNL     1     -11.118  16.139  65.000  1.00  0.00    -0.304 C  
ENDROOT
BRANCH   2   3
HETATM    3  C   UNL     1     -11.675  14.764  64.642  1.00  0.00    -0.426 C  
BRANCH   3   4
HETATM    4  C   UNL     1     -10.716  13.645  65.038  1.00  0.00    -0.374 C  
BRANCH   4   5
HETATM    5  C   UNL     1     -11.488  12.383  65.431  1.00  0.00    -0.402 C  
BRANCH   5   6
HETATM    6  C   UNL     1     -11.013  11.190  64.612  1.00  0.00    -0.238 C  
BRANCH   6   7
HETATM    7  C   UNL     1      -9.626  10.705  65.039  1.00  0.00    -0.319 C  
BRANCH   7   8
HETATM    8  C   UNL     1      -9.796   9.488  65.941  1.00  0.00    -0.360 C  
BRANCH   8   9
HETATM    9  C   UNL     1      -9.693   9.800  67.431  1.00  0.00    -0.202 C  
BRANCH   9  10
HETATM   10  C   UNL     1     -10.340   8.650  68.208  1.00  0.00    -0.252 C  
BRANCH  10  11
HETATM   11  C   UNL     1      -9.345   7.652  68.780  1.00  0.00    -0.148 C  
BRANCH  11  12
HETATM   12  C   UNL     1      -9.932   6.337  69.325  1.00  0.00    -0.155 C  
BRANCH  12  13
HETATM   13  C   UNL     1     -11.441   6.374  69.654  1.00  0.00    -0.446 C  
BRANCH  13  14
HETATM   14  C   UNL     1     -11.761   6.484  71.150  1.00  0.00    -0.335 C  
HETATM   15  O   UNL     1     -13.122   6.939  71.397  1.00  0.00    -0.344 OA 
HETATM   16  O   UNL     1     -13.392   8.918  72.545  1.00  0.00    -0.431 OA 
HETATM   17  C   UNL     1     -11.217   7.745  71.876  1.00  0.00    -0.310 C  
HETATM   18  C   UNL     1     -12.716   8.052  72.045  1.00  0.00    -0.302 C  
BRANCH  17  19
HETATM   19  C   UNL     1     -10.468   7.605  73.198  1.00  0.00    -0.433 C  
BRANCH  19  20
HETATM   20  C   UNL     1      -9.076   7.024  72.967  1.00  0.00    -0.156 C  
BRANCH  20  21
HETATM   21  C   UNL     1      -8.041   7.669  73.893  1.00  0.00    -0.216 C  
BRANCH  21  22
HETATM   22  C   UNL     1      -6.885   8.273  73.093  1.00  0.00    -0.131 C  
BRANCH  22  23
HETATM   23  C   UNL     1      -7.314   8.657  71.677  1.00  0.00    -0.117 C  
HETATM   24  C   UNL     1      -6.148   8.555  70.703  1.00  0.00    -0.032 C  
ENDBRANCH  22  23
ENDBRANCH  21  22
ENDBRANCH  20  21
ENDBRANCH  19  20
ENDBRANCH  17  19
ENDBRANCH  13  14
ENDBRANCH  12  13
BRANCH  12  25
HETATM   25  O   UNL     1      -9.723   5.255  68.389  1.00  0.00    -0.128 OA 
BRANCH  25  26
HETATM   26  C   UNL     1      -9.199   4.096  68.877  1.00  0.00    -0.147 C  
HETATM   27  O   UNL     1      -9.783   3.284  69.588  1.00  0.00    -0.126 OA 
BRANCH  26  28
HETATM   28  C   UNL     1      -7.761   3.908  68.404  1.00  0.00    -0.065 C  
BRANCH  28  29
HETATM   29  C   UNL     1      -7.691   3.156  67.065  1.00  0.00    -0.075 C  
HETATM   30  C   UNL     1      -7.028   5.074  65.472  1.00  0.00    -0.062 C  
HETATM   31  C   UNL     1      -8.100   3.009  64.598  1.00  0.00    -0.086 C  
HETATM   32  C   UNL     1      -8.031   3.964  65.792  1.00  0.00    -0.093 C  
ENDBRANCH  28  29
BRANCH  28  33
HETATM   33  N   UNL     1      -6.997   3.259  69.469  1.00  0.00    -0.041 N  
HETATM   34  C   UNL     1      -6.556   3.929  70.574  1.00  0.00    -0.032 C  
HETATM   35  O   UNL     1      -6.699   5.124  70.782  1.00  0.00    -0.037 OA 
HETATM   36  H   UNL     1      -6.785   2.265  69.383  1.00  0.00     0.000 HD 
ENDBRANCH  28  33
ENDBRANCH  26  28
ENDBRANCH  25  26
ENDBRANCH  12  25
ENDBRANCH  11  12
ENDBRANCH  10  11
ENDBRANCH   9  10
ENDBRANCH   8   9
ENDBRANCH   7   8
ENDBRANCH   6   7
ENDBRANCH   5   6
ENDBRANCH   4   5
ENDBRANCH   3   4
ENDBRANCH   2   3
TORSDOF 22
ENDMDL
MODEL      385
REMARK 921   NORMALIZED FREE ENERGY PREDICTED BY IDOCK:   -2.90 KCAL/MOL
REMARK 922        TOTAL FREE ENERGY PREDICTED BY IDOCK:  -10.25 KCAL/MOL
REMARK 923 INTER-LIGAND FREE ENERGY PREDICTED BY IDOCK:   -7.91 KCAL/MOL
REMARK 924 INTRA-LIGAND FREE ENERGY PREDICTED BY IDOCK:   -2.34 KCAL/MOL
REMARK 927      BINDING AFFINITY PREDICTED BY RF-SCORE:    0.00 PKD
ROOT
HETATM    1  C   UNL     1     -11.395  16.408  64.947  1.00  0.00    -0.103 C  
HETATM    2  C   UNL     1     -12.207  15.271  64.349  1.00  0.00    -0.222 C  
ENDROOT
BRANCH   2   3
HETATM    3  C   UNL     1     -11.712  13.922  64.863  1.00  0.00    -0.378 C  
BRANCH   3   4
HETATM    4  C   UNL     1     -12.650  12.786  64.466  1.00  0.00    -0.463 C  
BRANCH   4   5
HETATM    5  C   UNL     1     -11.891  11.693  63.711  1.00  0.00    -0.382 C  
BRANCH   5   6
HETATM    6  C   UNL     1     -10.390  11.942  63.778  1.00  0.00    -0.451 C  
BRANCH   6   7
HETATM    7  C   UNL     1      -9.606  11.040  62.823  1.00  0.00    -0.337 C  
BRANCH   7   8
HETATM    8  C   UNL     1      -8.245  10.744  63.443  1.00  0.00     0.038 C  
BRANCH   8   9
HETATM    9  C   UNL     1      -8.205   9.462  64.268  1.00  0.00    -0.153 C  
BRANCH   9  10
HETATM   10  C   UNL     1      -7.144   9.629  65.361  1.00  0.00    -0.100 C  
BRANCH  10  11
HETATM   11  C   UNL     1      -7.508   8.973  66.684  1.00  0.00    -0.086 C  
BRANCH  11  12
HETATM   12  C   UNL     1      -8.408   9.792  67.628  1.00  0.00    -0.114 C  
BRANCH  12  13
HETATM   13  C   UNL     1      -7.782  11.095  68.172  1.00  0.00    -0.107 C  
BRANCH  13  14
HETATM   14  C   UNL     1      -8.076  12.340  67.326  1.00  0.00    -0.182 C  
HETATM   15  O   UNL     1      -6.870  12.923  66.755  1.00  0.00     0.142 OA 
HETATM   16  O   UNL     1      -6.342  15.083  67.361  1.00  0.00    -0.308 OA 
HETATM   17  C   UNL     1      -8.332  13.657  68.111  1.00  0.00    -0.166 C  
HETATM   18  C   UNL     1      -7.037  14.097  67.403  1.00  0.00    -0.077 C  
BRANCH  17  19
HETATM   19  C   UNL     1      -9.539  14.527  67.775  1.00  0.00    -0.215 C  
BRANCH  19  20
HETATM   20  C   UNL     1     -10.835  13.815  68.152  1.00  0.00    -0.261 C  
BRANCH  20  21
HETATM   21  C   UNL     1     -11.466  14.429  69.404  1.00  0.00    -0.330 C  
BRANCH  21  22
HETATM   22  C   UNL     1     -12.309  13.400  70.159  1.00  0.00    -0.322 C  
BRANCH  22  23
HETATM   23  C   UNL     1     -12.614  13.852  71.587  1.00  0.00    -0.387 C  
HETATM   24  C   UNL     1     -13.993  13.382  72.029  1.00  0.00    -0.414 C  
ENDBRANCH  22  23
ENDBRANCH  21  22
ENDBRANCH  20  21
ENDBRANCH  19  20
ENDBRANCH  17  19
ENDBRANCH  13  14
ENDBRANCH  12  13
BRANCH  12  25
HETATM   25  O   UNL     1      -9.646  10.152  66.971  1.00  0.00    -0.163 OA 
BRANCH  25  26
HETATM   26  C   UNL     1     -10.745  10.323  67.757  1.00  0.00    -0.275 C  
HETATM   27  O   UNL     1     -11.635  11.148  67.582  1.00  0.00    -0.512 OA 
BRANCH  26  28
HETATM   28  C   UNL     1     -10.753   9.320  68.907  1.00  0.00    -0.156 C  
BRANCH  28  29
HETATM   29  C   UNL     1     -11.161   7.914  68.440  1.00  0.00     0.303 C  
HETATM   30  C   UNL     1      -9.285   6.493  69.500  1.00  0.00    -0.142 C  
HETATM   31  C   UNL     1     -10.597   5.631  67.572  1.00  0.00    -0.296 C  
HETATM   32  C   UNL     1     -10.020   6.893  68.220  1.00  0.00    -0.162 C  
ENDBRANCH  28  29
BRANCH  28  33
HETATM   33  N   UNL     1     -11.603   9.839  69.978  1.00  0.00    -0.407 N  
HETATM   34  C   UNL     1     -11.320   9.654  71.301  1.00  0.00    -0.388 C  
HETATM   35  O   UNL     1     -10.378   9.013  71.740  1.00  0.00    -0.332 OA 
HETATM   36  H   UNL     1     -12.442  10.362  69.726  1.00  0.00     0.000 HD 
ENDBRANCH  28  33
ENDBRANCH  26  28
ENDBRANCH  25  26
ENDBRANCH  12  25
ENDBRANCH  11  12
ENDBRANCH  10  11
ENDBRANCH   9  10
ENDBRANCH   8   9
ENDBRANCH   7   8
ENDBRANCH   6   7
ENDBRANCH   5   6
ENDBRANCH   4   5
ENDBRANCH   3   4
ENDBRANCH   2   3
TORSDOF 22
ENDMDL
MODEL      386
REMARK 921   NORMALIZED FREE ENERGY PREDICTED BY IDOCK:   -2.90 KCAL/MOL
REMARK 922        TOTAL FREE ENERGY PREDICTED BY IDOCK:  -10.24 KCAL/MOL
REMARK 923 INTER-LIGAND FREE ENERGY PREDICTED BY IDOCK:   -8.37 KCAL/MOL
REMARK 924 INTRA-LIGAND FREE ENERGY PREDICTED BY IDOCK:   -1.87 KCAL/MOL
REMARK 927      BINDING AFFINITY PREDICTED BY RF-SCORE:    0.00 PKD
ROOT
HETATM    1  C   UNL     1      -8.994   3.323  65.615  1.00  0.00    -0.144 C  
HETATM    2  C   UNL     1      -8.770   4.525  64.712  1.00  0.00    -0.146 C  
ENDROOT
BRANCH   2   3
HETATM    3  C   UNL     1      -7.454   4.393  63.951  1.00  0.00    -0.059 C  
BRANCH   3   4
HETATM    4  C   UNL     1      -7.574   4.906  62.519  1.00  0.00    -0.055 C  
BRANCH   4   5
HETATM    5  C   UNL     1      -8.057   6.358  62.501  1.00  0.00    -0.088 C  
BRANCH   5   6
HETATM    6  C   UNL     1      -7.092   7.251  63.269  1.00  0.00    -0.066 C  
BRANCH   6   7
HETATM    7  C   UNL     1      -7.806   8.144  64.285  1.00  0.00    -0.137 C  
BRANCH   7   8
HETATM    8  C   UNL     1      -7.771   9.581  63.776  1.00  0.00    -0.126 C  
BRANCH   8   9
HETATM    9  C   UNL     1      -9.002   9.984  62.970  1.00  0.00    -0.272 C  
BRANCH   9  10
HETATM   10  C   UNL     1      -9.836  10.948  63.820  1.00  0.00    -0.391 C  
BRANCH  10  11
HETATM   11  C   UNL     1      -9.577  10.841  65.314  1.00  0.00    -0.278 C  
BRANCH  11  12
HETATM   12  C   UNL     1      -9.501  12.167  66.092  1.00  0.00    -0.224 C  
BRANCH  12  13
HETATM   13  C   UNL     1     -10.348  13.322  65.513  1.00  0.00    -0.298 C  
BRANCH  13  14
HETATM   14  C   UNL     1     -10.463  14.544  66.432  1.00  0.00    -0.295 C  
HETATM   15  O   UNL     1     -10.943  15.726  65.729  1.00  0.00    -0.298 OA 
HETATM   16  O   UNL     1      -9.552  17.562  65.659  1.00  0.00    -0.510 OA 
HETATM   17  C   UNL     1      -9.136  15.286  66.755  1.00  0.00    -0.283 C  
HETATM   18  C   UNL     1      -9.817  16.429  65.981  1.00  0.00    -0.335 C  
BRANCH  17  19
HETATM   19  C   UNL     1      -8.790  15.645  68.196  1.00  0.00    -0.174 C  
BRANCH  19  20
HETATM   20  C   UNL     1      -7.286  15.853  68.351  1.00  0.00    -0.125 C  
BRANCH  20  21
HETATM   21  C   UNL     1      -6.977  17.112  69.166  1.00  0.00    -0.224 C  
BRANCH  21  22
HETATM   22  C   UNL     1      -6.992  18.360  68.281  1.00  0.00    -0.257 C  
BRANCH  22  23
HETATM   23  C   UNL     1      -8.175  19.271  68.605  1.00  0.00    -0.408 C  
HETATM   24  C   UNL     1      -8.543  20.139  67.409  1.00  0.00    -0.413 C  
ENDBRANCH  22  23
ENDBRANCH  21  22
ENDBRANCH  20  21
ENDBRANCH  19  20
ENDBRANCH  17  19
ENDBRANCH  13  14
ENDBRANCH  12  13
BRANCH  12  25
HETATM   25  O   UNL     1      -9.911  11.980  67.467  1.00  0.00    -0.183 OA 
BRANCH  25  26
HETATM   26  C   UNL     1     -10.690  10.899  67.747  1.00  0.00    -0.235 C  
HETATM   27  O   UNL     1     -11.913  10.853  67.672  1.00  0.00    -0.512 OA 
BRANCH  26  28
HETATM   28  C   UNL     1      -9.835   9.704  68.157  1.00  0.00    -0.150 C  
BRANCH  28  29
HETATM   29  C   UNL     1     -10.617   8.383  68.074  1.00  0.00    -0.191 C  
HETATM   30  C   UNL     1      -8.690   6.707  67.706  1.00  0.00    -0.116 C  
HETATM   31  C   UNL     1     -11.022   6.122  67.073  1.00  0.00    -0.414 C  
HETATM   32  C   UNL     1     -10.014   7.270  67.187  1.00  0.00    -0.279 C  
ENDBRANCH  28  29
BRANCH  28  33
HETATM   33  N   UNL     1      -9.277   9.959  69.484  1.00  0.00    -0.210 N  
HETATM   34  C   UNL     1      -9.951   9.673  70.637  1.00  0.00    -0.231 C  
HETATM   35  O   UNL     1     -11.085   9.226  70.701  1.00  0.00    -0.243 OA 
HETATM   36  H   UNL     1      -8.344  10.369  69.552  1.00  0.00     0.000 HD 
ENDBRANCH  28  33
ENDBRANCH  26  28
ENDBRANCH  25  26
ENDBRANCH  12  25
ENDBRANCH  11  12
ENDBRANCH  10  11
ENDBRANCH   9  10
ENDBRANCH   8   9
ENDBRANCH   7   8
ENDBRANCH   6   7
ENDBRANCH   5   6
ENDBRANCH   4   5
ENDBRANCH   3   4
ENDBRANCH   2   3
TORSDOF 22
ENDMDL
MODEL      387
REMARK 921   NORMALIZED FREE ENERGY PREDICTED BY IDOCK:   -2.89 KCAL/MOL
REMARK 922        TOTAL FREE ENERGY PREDICTED BY IDOCK:  -10.23 KCAL/MOL
REMARK 923 INTER-LIGAND FREE ENERGY PREDICTED BY IDOCK:   -8.52 KCAL/MOL
REMARK 924 INTRA-LIGAND FREE ENERGY PREDICTED BY IDOCK:   -1.71 KCAL/MOL
REMARK 927      BINDING AFFINITY PREDICTED BY RF-SCORE:    0.00 PKD
ROOT
HETATM    1  C   UNL     1      -7.547   3.895  66.011  1.00  0.00    -0.089 C  
HETATM    2  C   UNL     1      -7.883   4.698  64.765  1.00  0.00    -0.087 C  
ENDROOT
BRANCH   2   3
HETATM    3  C   UNL     1      -6.618   5.029  63.977  1.00  0.00    -0.041 C  
BRANCH   3   4
HETATM    4  C   UNL     1      -6.936   5.417  62.536  1.00  0.00    -0.036 C  
BRANCH   4   5
HETATM    5  C   UNL     1      -7.791   6.685  62.491  1.00  0.00    -0.104 C  
BRANCH   5   6
HETATM    6  C   UNL     1      -6.963   7.902  62.880  1.00  0.00    -0.085 C  
BRANCH   6   7
HETATM    7  C   UNL     1      -7.444   8.542  64.184  1.00  0.00    -0.112 C  
BRANCH   7   8
HETATM    8  C   UNL     1      -7.666  10.030  63.939  1.00  0.00    -0.145 C  
BRANCH   8   9
HETATM    9  C   UNL     1      -8.623  10.335  62.791  1.00  0.00    -0.199 C  
BRANCH   9  10
HETATM   10  C   UNL     1      -9.932  10.864  63.386  1.00  0.00    -0.414 C  
BRANCH  10  11
HETATM   11  C   UNL     1     -10.080  10.616  64.879  1.00  0.00    -0.402 C  
BRANCH  11  12
HETATM   12  C   UNL     1     -10.700  11.759  65.704  1.00  0.00    -0.280 C  
BRANCH  12  13
HETATM   13  C   UNL     1     -11.987  12.377  65.114  1.00  0.00    -0.454 C  
BRANCH  13  14
HETATM   14  C   UNL     1     -12.238  13.832  65.526  1.00  0.00    -0.442 C  
HETATM   15  O   UNL     1     -12.743  14.643  64.428  1.00  0.00    -0.636 OA 
HETATM   16  O   UNL     1     -11.468  16.442  63.757  1.00  0.00    -1.002 OA 
HETATM   17  C   UNL     1     -10.984  14.746  65.613  1.00  0.00    -0.345 C  
HETATM   18  C   UNL     1     -11.682  15.480  64.454  1.00  0.00    -0.242 C  
BRANCH  17  19
HETATM   19  C   UNL     1     -10.756  15.620  66.842  1.00  0.00    -0.307 C  
BRANCH  19  20
HETATM   20  C   UNL     1      -9.683  16.668  66.564  1.00  0.00    -0.291 C  
BRANCH  20  21
HETATM   21  C   UNL     1      -8.779  16.880  67.781  1.00  0.00    -0.212 C  
BRANCH  21  22
HETATM   22  C   UNL     1      -7.359  16.380  67.509  1.00  0.00    -0.170 C  
BRANCH  22  23
HETATM   23  C   UNL     1      -6.874  15.427  68.601  1.00  0.00    -0.106 C  
HETATM   24  C   UNL     1      -7.660  15.622  69.890  1.00  0.00     0.116 C  
ENDBRANCH  22  23
ENDBRANCH  21  22
ENDBRANCH  20  21
ENDBRANCH  19  20
ENDBRANCH  17  19
ENDBRANCH  13  14
ENDBRANCH  12  13
BRANCH  12  25
HETATM   25  O   UNL     1     -11.013  11.313  67.044  1.00  0.00    -0.270 OA 
BRANCH  25  26
HETATM   26  C   UNL     1     -10.710  12.154  68.071  1.00  0.00    -0.213 C  
HETATM   27  O   UNL     1      -9.626  12.693  68.266  1.00  0.00    -0.214 OA 
BRANCH  26  28
HETATM   28  C   UNL     1     -11.923  12.373  68.971  1.00  0.00    -0.241 C  
BRANCH  28  29
HETATM   29  C   UNL     1     -11.537  13.032  70.305  1.00  0.00    -0.060 C  
HETATM   30  C   UNL     1     -13.700  14.334  70.839  1.00  0.00    -0.023 C  
HETATM   31  C   UNL     1     -11.536  14.981  71.879  1.00  0.00    -0.426 C  
HETATM   32  C   UNL     1     -12.187  14.398  70.621  1.00  0.00    -0.414 C  
ENDBRANCH  28  29
BRANCH  28  33
HETATM   33  N   UNL     1     -12.619  11.098  69.139  1.00  0.00    -0.076 N  
HETATM   34  C   UNL     1     -12.480  10.322  70.255  1.00  0.00    -0.167 C  
HETATM   35  O   UNL     1     -11.745  10.566  71.199  1.00  0.00    -0.329 OA 
HETATM   36  H   UNL     1     -13.234  10.774  68.392  1.00  0.00     0.000 HD 
ENDBRANCH  28  33
ENDBRANCH  26  28
ENDBRANCH  25  26
ENDBRANCH  12  25
ENDBRANCH  11  12
ENDBRANCH  10  11
ENDBRANCH   9  10
ENDBRANCH   8   9
ENDBRANCH   7   8
ENDBRANCH   6   7
ENDBRANCH   5   6
ENDBRANCH   4   5
ENDBRANCH   3   4
ENDBRANCH   2   3
TORSDOF 22
ENDMDL
MODEL      388
REMARK 921   NORMALIZED FREE ENERGY PREDICTED BY IDOCK:   -2.87 KCAL/MOL
REMARK 922        TOTAL FREE ENERGY PREDICTED BY IDOCK:  -10.19 KCAL/MOL
REMARK 923 INTER-LIGAND FREE ENERGY PREDICTED BY IDOCK:   -7.70 KCAL/MOL
REMARK 924 INTRA-LIGAND FREE ENERGY PREDICTED BY IDOCK:   -2.48 KCAL/MOL
REMARK 927      BINDING AFFINITY PREDICTED BY RF-SCORE:    0.00 PKD
ROOT
HETATM    1  C   UNL     1      -9.844  14.574  66.498  1.00  0.00    -0.297 C  
HETATM    2  C   UNL     1     -10.790  15.706  66.130  1.00  0.00    -0.264 C  
ENDROOT
BRANCH   2   3
HETATM    3  C   UNL     1     -11.491  15.419  64.806  1.00  0.00    -0.337 C  
BRANCH   3   4
HETATM    4  C   UNL     1     -11.060  14.080  64.215  1.00  0.00    -0.198 C  
BRANCH   4   5
HETATM    5  C   UNL     1     -12.238  13.384  63.529  1.00  0.00    -0.468 C  
BRANCH   5   6
HETATM    6  C   UNL     1     -12.036  11.875  63.522  1.00  0.00    -0.575 C  
BRANCH   6   7
HETATM    7  C   UNL     1     -10.567  11.483  63.356  1.00  0.00    -0.460 C  
BRANCH   7   8
HETATM    8  C   UNL     1     -10.184  10.547  64.496  1.00  0.00    -0.355 C  
BRANCH   8   9
HETATM    9  C   UNL     1     -10.789  10.929  65.843  1.00  0.00    -0.132 C  
BRANCH   9  10
HETATM   10  C   UNL     1     -10.325   9.905  66.884  1.00  0.00    -0.300 C  
BRANCH  10  11
HETATM   11  C   UNL     1      -9.652  10.520  68.102  1.00  0.00    -0.163 C  
BRANCH  11  12
HETATM   12  C   UNL     1      -8.184  10.127  68.343  1.00  0.00    -0.112 C  
BRANCH  12  13
HETATM   13  C   UNL     1      -7.500  10.828  69.538  1.00  0.00    -0.113 C  
BRANCH  13  14
HETATM   14  C   UNL     1      -6.364  11.781  69.147  1.00  0.00    -0.086 C  
HETATM   15  O   UNL     1      -5.424  12.002  70.236  1.00  0.00    -0.102 OA 
HETATM   16  O   UNL     1      -5.185  14.158  71.016  1.00  0.00    -0.111 OA 
HETATM   17  C   UNL     1      -6.710  13.296  69.148  1.00  0.00    -0.092 C  
HETATM   18  C   UNL     1      -5.673  13.330  70.286  1.00  0.00    -0.154 C  
BRANCH  17  19
HETATM   19  C   UNL     1      -6.336  14.168  67.954  1.00  0.00    -0.173 C  
BRANCH  19  20
HETATM   20  C   UNL     1      -6.888  15.580  68.127  1.00  0.00    -0.132 C  
BRANCH  20  21
HETATM   21  C   UNL     1      -6.253  16.555  67.131  1.00  0.00    -0.212 C  
BRANCH  21  22
HETATM   22  C   UNL     1      -7.321  17.266  66.298  1.00  0.00    -0.342 C  
BRANCH  22  23
HETATM   23  C   UNL     1      -8.160  18.223  67.146  1.00  0.00    -0.232 C  
HETATM   24  C   UNL     1      -7.410  19.520  67.414  1.00  0.00    -0.261 C  
ENDBRANCH  22  23
ENDBRANCH  21  22
ENDBRANCH  20  21
ENDBRANCH  19  20
ENDBRANCH  17  19
ENDBRANCH  13  14
ENDBRANCH  12  13
BRANCH  12  25
HETATM   25  O   UNL     1      -8.063   8.701  68.555  1.00  0.00    -0.114 OA 
BRANCH  25  26
HETATM   26  C   UNL     1      -8.730   8.166  69.615  1.00  0.00    -0.142 C  
HETATM   27  O   UNL     1      -8.766   8.626  70.751  1.00  0.00    -0.143 OA 
BRANCH  26  28
HETATM   28  C   UNL     1      -9.472   6.897  69.207  1.00  0.00    -0.147 C  
BRANCH  28  29
HETATM   29  C   UNL     1      -9.054   6.413  67.809  1.00  0.00    -0.111 C  
HETATM   30  C   UNL     1      -9.489   3.878  68.029  1.00  0.00    -0.221 C  
HETATM   31  C   UNL     1      -7.942   4.757  66.292  1.00  0.00    -0.103 C  
HETATM   32  C   UNL     1      -8.479   4.981  67.709  1.00  0.00    -0.104 C  
ENDBRANCH  28  29
BRANCH  28  33
HETATM   33  N   UNL     1     -10.910   7.132  69.328  1.00  0.00    -0.338 N  
HETATM   34  C   UNL     1     -11.673   6.554  70.302  1.00  0.00    -0.366 C  
HETATM   35  O   UNL     1     -11.271   5.758  71.137  1.00  0.00    -0.241 OA 
HETATM   36  H   UNL     1     -11.362   7.754  68.658  1.00  0.00     0.000 HD 
ENDBRANCH  28  33
ENDBRANCH  26  28
ENDBRANCH  25  26
ENDBRANCH  12  25
ENDBRANCH  11  12
ENDBRANCH  10  11
ENDBRANCH   9  10
ENDBRANCH   8   9
ENDBRANCH   7   8
ENDBRANCH   6   7
ENDBRANCH   5   6
ENDBRANCH   4   5
ENDBRANCH   3   4
ENDBRANCH   2   3
TORSDOF 22
ENDMDL
MODEL      389
REMARK 921   NORMALIZED FREE ENERGY PREDICTED BY IDOCK:   -2.87 KCAL/MOL
REMARK 922        TOTAL FREE ENERGY PREDICTED BY IDOCK:  -10.18 KCAL/MOL
REMARK 923 INTER-LIGAND FREE ENERGY PREDICTED BY IDOCK:   -7.64 KCAL/MOL
REMARK 924 INTRA-LIGAND FREE ENERGY PREDICTED BY IDOCK:   -2.54 KCAL/MOL
REMARK 927      BINDING AFFINITY PREDICTED BY RF-SCORE:    0.00 PKD
ROOT
HETATM    1  C   UNL     1     -10.520   5.157  68.077  1.00  0.00    -0.088 C  
HETATM    2  C   UNL     1      -9.857   3.795  68.204  1.00  0.00    -0.007 C  
ENDROOT
BRANCH   2   3
HETATM    3  C   UNL     1      -9.146   3.662  69.547  1.00  0.00    -0.201 C  
BRANCH   3   4
HETATM    4  C   UNL     1      -9.651   4.686  70.559  1.00  0.00    -0.268 C  
BRANCH   4   5
HETATM    5  C   UNL     1      -8.532   5.649  70.962  1.00  0.00    -0.122 C  
BRANCH   5   6
HETATM    6  C   UNL     1      -7.344   5.512  70.019  1.00  0.00    -0.069 C  
BRANCH   6   7
HETATM    7  C   UNL     1      -7.123   6.767  69.172  1.00  0.00    -0.088 C  
BRANCH   7   8
HETATM    8  C   UNL     1      -8.246   7.754  69.468  1.00  0.00    -0.128 C  
BRANCH   8   9
HETATM    9  C   UNL     1      -9.035   8.184  68.236  1.00  0.00    -0.136 C  
BRANCH   9  10
HETATM   10  C   UNL     1     -10.360   8.794  68.704  1.00  0.00    -0.230 C  
BRANCH  10  11
HETATM   11  C   UNL     1     -10.532  10.260  68.335  1.00  0.00    -0.228 C  
BRANCH  11  12
HETATM   12  C   UNL     1      -9.770  10.745  67.088  1.00  0.00    -0.170 C  
BRANCH  12  13
HETATM   13  C   UNL     1     -10.656  11.139  65.885  1.00  0.00    -0.294 C  
BRANCH  13  14
HETATM   14  C   UNL     1     -11.241  12.554  65.966  1.00  0.00    -0.315 C  
HETATM   15  O   UNL     1     -12.495  12.681  65.237  1.00  0.00    -0.566 OA 
HETATM   16  O   UNL     1     -12.564  14.181  63.489  1.00  0.00    -0.834 OA 
HETATM   17  C   UNL     1     -10.599  13.616  65.031  1.00  0.00    -0.394 C  
HETATM   18  C   UNL     1     -12.001  13.614  64.394  1.00  0.00    -0.437 C  
BRANCH  17  19
HETATM   19  C   UNL     1     -10.182  14.974  65.586  1.00  0.00    -0.386 C  
BRANCH  19  20
HETATM   20  C   UNL     1     -11.103  15.393  66.728  1.00  0.00    -0.244 C  
BRANCH  20  21
HETATM   21  C   UNL     1     -10.514  16.562  67.521  1.00  0.00    -0.310 C  
BRANCH  21  22
HETATM   22  C   UNL     1      -9.172  17.007  66.936  1.00  0.00    -0.254 C  
BRANCH  22  23
HETATM   23  C   UNL     1      -9.285  18.348  66.210  1.00  0.00    -0.217 C  
HETATM   24  C   UNL     1      -9.345  19.504  67.199  1.00  0.00    -0.409 C  
ENDBRANCH  22  23
ENDBRANCH  21  22
ENDBRANCH  20  21
ENDBRANCH  19  20
ENDBRANCH  17  19
ENDBRANCH  13  14
ENDBRANCH  12  13
BRANCH  12  25
HETATM   25  O   UNL     1      -8.943  11.889  67.405  1.00  0.00    -0.163 OA 
BRANCH  25  26
HETATM   26  C   UNL     1      -7.747  11.649  68.011  1.00  0.00    -0.121 C  
HETATM   27  O   UNL     1      -7.585  11.317  69.180  1.00  0.00    -0.125 OA 
BRANCH  26  28
HETATM   28  C   UNL     1      -6.594  11.828  67.028  1.00  0.00    -0.140 C  
BRANCH  28  29
HETATM   29  C   UNL     1      -5.809  10.523  66.821  1.00  0.00    -0.061 C  
HETATM   30  C   UNL     1      -6.932   9.622  64.679  1.00  0.00    -0.112 C  
HETATM   31  C   UNL     1      -5.690   8.098  66.202  1.00  0.00    -0.040 C  
HETATM   32  C   UNL     1      -6.560   9.357  66.139  1.00  0.00    -0.070 C  
ENDBRANCH  28  29
BRANCH  28  33
HETATM   33  N   UNL     1      -5.757  12.938  67.482  1.00  0.00    -0.128 N  
HETATM   34  C   UNL     1      -6.265  14.167  67.793  1.00  0.00    -0.140 C  
HETATM   35  O   UNL     1      -7.437  14.495  67.691  1.00  0.00    -0.146 OA 
HETATM   36  H   UNL     1      -4.752  12.788  67.569  1.00  0.00     0.000 HD 
ENDBRANCH  28  33
ENDBRANCH  26  28
ENDBRANCH  25  26
ENDBRANCH  12  25
ENDBRANCH  11  12
ENDBRANCH  10  11
ENDBRANCH   9  10
ENDBRANCH   8   9
ENDBRANCH   7   8
ENDBRANCH   6   7
ENDBRANCH   5   6
ENDBRANCH   4   5
ENDBRANCH   3   4
ENDBRANCH   2   3
TORSDOF 22
ENDMDL
MODEL      390
REMARK 921   NORMALIZED FREE ENERGY PREDICTED BY IDOCK:   -2.85 KCAL/MOL
REMARK 922        TOTAL FREE ENERGY PREDICTED BY IDOCK:  -10.14 KCAL/MOL
REMARK 923 INTER-LIGAND FREE ENERGY PREDICTED BY IDOCK:   -9.00 KCAL/MOL
REMARK 924 INTRA-LIGAND FREE ENERGY PREDICTED BY IDOCK:   -1.15 KCAL/MOL
REMARK 927      BINDING AFFINITY PREDICTED BY RF-SCORE:    0.00 PKD
ROOT
HETATM    1  C   UNL     1     -10.357   5.165  69.972  1.00  0.00    -0.347 C  
HETATM    2  C   UNL     1      -8.960   5.684  70.272  1.00  0.00    -0.152 C  
ENDROOT
BRANCH   2   3
HETATM    3  C   UNL     1      -8.990   6.698  71.411  1.00  0.00    -0.139 C  
BRANCH   3   4
HETATM    4  C   UNL     1      -9.053   8.131  70.891  1.00  0.00    -0.169 C  
BRANCH   4   5
HETATM    5  C   UNL     1      -7.885   8.417  69.944  1.00  0.00    -0.101 C  
BRANCH   5   6
HETATM    6  C   UNL     1      -7.972   9.837  69.402  1.00  0.00    -0.125 C  
BRANCH   6   7
HETATM    7  C   UNL     1      -6.601  10.399  69.019  1.00  0.00    -0.058 C  
BRANCH   7   8
HETATM    8  C   UNL     1      -6.740  11.161  67.706  1.00  0.00    -0.065 C  
BRANCH   8   9
HETATM    9  C   UNL     1      -5.725  12.285  67.530  1.00  0.00    -0.128 C  
BRANCH   9  10
HETATM   10  C   UNL     1      -6.014  13.361  68.581  1.00  0.00    -0.084 C  
BRANCH  10  11
HETATM   11  C   UNL     1      -6.294  14.738  67.998  1.00  0.00    -0.164 C  
BRANCH  11  12
HETATM   12  C   UNL     1      -7.772  15.082  67.738  1.00  0.00    -0.153 C  
BRANCH  12  13
HETATM   13  C   UNL     1      -8.777  14.479  68.744  1.00  0.00    -0.147 C  
BRANCH  13  14
HETATM   14  C   UNL     1     -10.199  14.311  68.195  1.00  0.00    -0.231 C  
HETATM   15  O   UNL     1     -11.155  15.195  68.847  1.00  0.00    -0.245 OA 
HETATM   16  O   UNL     1     -12.903  14.218  69.988  1.00  0.00    -0.233 OA 
HETATM   17  C   UNL     1     -10.994  13.081  68.715  1.00  0.00    -0.295 C  
HETATM   18  C   UNL     1     -11.896  14.170  69.324  1.00  0.00    -0.338 C  
BRANCH  17  19
HETATM   19  C   UNL     1     -11.718  12.166  67.733  1.00  0.00    -0.390 C  
BRANCH  19  20
HETATM   20  C   UNL     1     -10.716  11.415  66.861  1.00  0.00    -0.308 C  
BRANCH  20  21
HETATM   21  C   UNL     1     -10.280  12.256  65.658  1.00  0.00    -0.287 C  
BRANCH  21  22
HETATM   22  C   UNL     1     -10.166  11.398  64.397  1.00  0.00    -0.361 C  
BRANCH  22  23
HETATM   23  C   UNL     1     -11.373  11.578  63.476  1.00  0.00    -0.375 C  
HETATM   24  C   UNL     1     -11.851  13.024  63.475  1.00  0.00    -0.582 C  
ENDBRANCH  22  23
ENDBRANCH  21  22
ENDBRANCH  20  21
ENDBRANCH  19  20
ENDBRANCH  17  19
ENDBRANCH  13  14
ENDBRANCH  12  13
BRANCH  12  25
HETATM   25  O   UNL     1      -7.972  16.515  67.738  1.00  0.00    -0.156 OA 
BRANCH  25  26
HETATM   26  C   UNL     1      -7.765  17.176  66.565  1.00  0.00    -0.286 C  
HETATM   27  O   UNL     1      -6.675  17.441  66.070  1.00  0.00    -0.240 OA 
BRANCH  26  28
HETATM   28  C   UNL     1      -9.091  17.544  65.906  1.00  0.00     0.099 C  
BRANCH  28  29
HETATM   29  C   UNL     1      -9.656  18.866  66.450  1.00  0.00    -0.377 C  
HETATM   30  C   UNL     1      -7.499  20.271  66.630  1.00  0.00    -0.319 C  
HETATM   31  C   UNL     1      -9.519  20.868  67.951  1.00  0.00    -0.075 C  
HETATM   32  C   UNL     1      -8.722  19.704  67.353  1.00  0.00    -0.364 C  
ENDBRANCH  28  29
BRANCH  28  33
HETATM   33  N   UNL     1     -10.015  16.420  66.051  1.00  0.00    -0.330 N  
HETATM   34  C   UNL     1     -10.976  16.129  65.125  1.00  0.00    -0.316 C  
HETATM   35  O   UNL     1     -11.205  16.778  64.116  1.00  0.00    -1.155 OA 
HETATM   36  H   UNL     1      -9.940  15.828  66.880  1.00  0.00     0.000 HD 
ENDBRANCH  28  33
ENDBRANCH  26  28
ENDBRANCH  25  26
ENDBRANCH  12  25
ENDBRANCH  11  12
ENDBRANCH  10  11
ENDBRANCH   9  10
ENDBRANCH   8   9
ENDBRANCH   7   8
ENDBRANCH   6   7
ENDBRANCH   5   6
ENDBRANCH   4   5
ENDBRANCH   3   4
ENDBRANCH   2   3
TORSDOF 22
ENDMDL
MODEL      391
REMARK 921   NORMALIZED FREE ENERGY PREDICTED BY IDOCK:   -2.84 KCAL/MOL
REMARK 922        TOTAL FREE ENERGY PREDICTED BY IDOCK:  -10.12 KCAL/MOL
REMARK 923 INTER-LIGAND FREE ENERGY PREDICTED BY IDOCK:   -8.84 KCAL/MOL
REMARK 924 INTRA-LIGAND FREE ENERGY PREDICTED BY IDOCK:   -1.28 KCAL/MOL
REMARK 927      BINDING AFFINITY PREDICTED BY RF-SCORE:    0.00 PKD
ROOT
HETATM    1  C   UNL     1      -9.290   3.718  67.695  1.00  0.00    -0.240 C  
HETATM    2  C   UNL     1      -9.206   4.856  66.691  1.00  0.00    -0.126 C  
ENDROOT
BRANCH   2   3
HETATM    3  C   UNL     1      -7.755   5.132  66.304  1.00  0.00    -0.088 C  
BRANCH   3   4
HETATM    4  C   UNL     1      -7.650   5.781  64.928  1.00  0.00    -0.088 C  
BRANCH   4   5
HETATM    5  C   UNL     1      -7.598   7.305  65.049  1.00  0.00    -0.107 C  
BRANCH   5   6
HETATM    6  C   UNL     1      -6.915   7.715  66.347  1.00  0.00    -0.066 C  
BRANCH   6   7
HETATM    7  C   UNL     1      -7.712   8.769  67.119  1.00  0.00    -0.096 C  
BRANCH   7   8
HETATM    8  C   UNL     1      -9.192   8.578  66.810  1.00  0.00    -0.215 C  
BRANCH   8   9
HETATM    9  C   UNL     1      -9.941   9.878  66.533  1.00  0.00    -0.291 C  
BRANCH   9  10
HETATM   10  C   UNL     1      -9.031  11.047  66.923  1.00  0.00    -0.162 C  
BRANCH  10  11
HETATM   11  C   UNL     1      -9.547  11.872  68.092  1.00  0.00    -0.195 C  
BRANCH  11  12
HETATM   12  C   UNL     1      -9.008  13.309  68.206  1.00  0.00    -0.176 C  
BRANCH  12  13
HETATM   13  C   UNL     1      -7.767  13.620  67.340  1.00  0.00    -0.156 C  
BRANCH  13  14
HETATM   14  C   UNL     1      -6.753  14.561  68.001  1.00  0.00    -0.145 C  
HETATM   15  O   UNL     1      -5.922  13.882  68.985  1.00  0.00    -0.080 OA 
HETATM   16  O   UNL     1      -6.035  14.621  71.166  1.00  0.00    -0.126 OA 
HETATM   17  C   UNL     1      -7.306  15.488  69.119  1.00  0.00    -0.177 C  
HETATM   18  C   UNL     1      -6.357  14.659  70.002  1.00  0.00    -0.165 C  
BRANCH  17  19
HETATM   19  C   UNL     1      -6.983  16.979  69.107  1.00  0.00    -0.228 C  
BRANCH  19  20
HETATM   20  C   UNL     1      -7.101  17.542  67.693  1.00  0.00    -0.180 C  
BRANCH  20  21
HETATM   21  C   UNL     1      -7.326  19.057  67.711  1.00  0.00    -0.261 C  
BRANCH  21  22
HETATM   22  C   UNL     1      -8.334  19.478  66.641  1.00  0.00    -0.340 C  
BRANCH  22  23
HETATM   23  C   UNL     1      -9.368  20.461  67.190  1.00  0.00    -0.537 C  
HETATM   24  C   UNL     1     -10.223  19.812  68.269  1.00  0.00    -0.569 C  
ENDBRANCH  22  23
ENDBRANCH  21  22
ENDBRANCH  20  21
ENDBRANCH  19  20
ENDBRANCH  17  19
ENDBRANCH  13  14
ENDBRANCH  12  13
BRANCH  12  25
HETATM   25  O   UNL     1     -10.029  14.270  67.853  1.00  0.00    -0.222 OA 
BRANCH  25  26
HETATM   26  C   UNL     1     -11.262  13.786  67.533  1.00  0.00    -0.294 C  
HETATM   27  O   UNL     1     -11.979  13.105  68.258  1.00  0.00    -0.343 OA 
BRANCH  26  28
HETATM   28  C   UNL     1     -11.669  14.221  66.128  1.00  0.00    -0.390 C  
BRANCH  28  29
HETATM   29  C   UNL     1     -12.326  13.076  65.340  1.00  0.00    -0.538 C  
HETATM   30  C   UNL     1     -10.340  12.287  63.894  1.00  0.00    -0.455 C  
HETATM   31  C   UNL     1     -12.680  11.775  63.229  1.00  0.00    -0.314 C  
HETATM   32  C   UNL     1     -11.780  12.803  63.920  1.00  0.00    -0.530 C  
ENDBRANCH  28  29
BRANCH  28  33
HETATM   33  N   UNL     1     -10.501  14.787  65.454  1.00  0.00    -0.351 N  
HETATM   34  C   UNL     1     -10.096  16.078  65.637  1.00  0.00    -0.354 C  
HETATM   35  O   UNL     1     -10.667  16.908  66.328  1.00  0.00    -0.229 OA 
HETATM   36  H   UNL     1      -9.966  14.192  64.821  1.00  0.00     0.000 HD 
ENDBRANCH  28  33
ENDBRANCH  26  28
ENDBRANCH  25  26
ENDBRANCH  12  25
ENDBRANCH  11  12
ENDBRANCH  10  11
ENDBRANCH   9  10
ENDBRANCH   8   9
ENDBRANCH   7   8
ENDBRANCH   6   7
ENDBRANCH   5   6
ENDBRANCH   4   5
ENDBRANCH   3   4
ENDBRANCH   2   3
TORSDOF 22
ENDMDL
MODEL      392
REMARK 921   NORMALIZED FREE ENERGY PREDICTED BY IDOCK:   -2.84 KCAL/MOL
REMARK 922        TOTAL FREE ENERGY PREDICTED BY IDOCK:  -10.12 KCAL/MOL
REMARK 923 INTER-LIGAND FREE ENERGY PREDICTED BY IDOCK:   -7.41 KCAL/MOL
REMARK 924 INTRA-LIGAND FREE ENERGY PREDICTED BY IDOCK:   -2.70 KCAL/MOL
REMARK 927      BINDING AFFINITY PREDICTED BY RF-SCORE:    0.00 PKD
ROOT
HETATM    1  C   UNL     1      -6.127   4.956  71.800  1.00  0.00    -0.024 C  
HETATM    2  C   UNL     1      -7.305   5.565  71.057  1.00  0.00    -0.084 C  
ENDROOT
BRANCH   2   3
HETATM    3  C   UNL     1      -8.589   5.423  71.869  1.00  0.00    -0.131 C  
BRANCH   3   4
HETATM    4  C   UNL     1      -9.469   6.665  71.758  1.00  0.00    -0.151 C  
BRANCH   4   5
HETATM    5  C   UNL     1     -10.430   6.545  70.573  1.00  0.00    -0.251 C  
BRANCH   5   6
HETATM    6  C   UNL     1     -11.001   7.909  70.208  1.00  0.00    -0.249 C  
BRANCH   6   7
HETATM    7  C   UNL     1     -11.714   8.577  71.386  1.00  0.00    -0.346 C  
BRANCH   7   8
HETATM    8  C   UNL     1     -11.497  10.083  71.292  1.00  0.00    -0.390 C  
BRANCH   8   9
HETATM    9  C   UNL     1     -12.389  10.776  70.267  1.00  0.00    -0.423 C  
BRANCH   9  10
HETATM   10  C   UNL     1     -11.563  11.860  69.568  1.00  0.00    -0.394 C  
BRANCH  10  11
HETATM   11  C   UNL     1     -11.095  11.480  68.172  1.00  0.00    -0.303 C  
BRANCH  11  12
HETATM   12  C   UNL     1      -9.573  11.452  67.944  1.00  0.00    -0.177 C  
BRANCH  12  13
HETATM   13  C   UNL     1      -8.813  12.718  68.400  1.00  0.00    -0.117 C  
BRANCH  13  14
HETATM   14  C   UNL     1      -9.041  13.947  67.513  1.00  0.00    -0.201 C  
HETATM   15  O   UNL     1      -7.950  14.907  67.601  1.00  0.00    -0.141 OA 
HETATM   16  O   UNL     1      -8.450  17.019  68.376  1.00  0.00    -0.221 OA 
HETATM   17  C   UNL     1     -10.020  15.020  68.065  1.00  0.00    -0.219 C  
HETATM   18  C   UNL     1      -8.748  15.888  68.079  1.00  0.00    -0.169 C  
BRANCH  17  19
HETATM   19  C   UNL     1     -11.129  15.575  67.178  1.00  0.00    -0.256 C  
BRANCH  19  20
HETATM   20  C   UNL     1     -11.934  14.440  66.552  1.00  0.00    -0.406 C  
BRANCH  20  21
HETATM   21  C   UNL     1     -11.731  14.380  65.036  1.00  0.00    -0.389 C  
BRANCH  21  22
HETATM   22  C   UNL     1     -11.014  13.093  64.625  1.00  0.00    -0.374 C  
BRANCH  22  23
HETATM   23  C   UNL     1     -11.477  12.597  63.255  1.00  0.00    -0.368 C  
HETATM   24  C   UNL     1     -12.818  11.883  63.354  1.00  0.00    -0.393 C  
ENDBRANCH  22  23
ENDBRANCH  21  22
ENDBRANCH  20  21
ENDBRANCH  19  20
ENDBRANCH  17  19
ENDBRANCH  13  14
ENDBRANCH  12  13
BRANCH  12  25
HETATM   25  O   UNL     1      -8.974  10.324  68.622  1.00  0.00    -0.131 OA 
BRANCH  25  26
HETATM   26  C   UNL     1      -7.971   9.665  67.978  1.00  0.00    -0.097 C  
HETATM   27  O   UNL     1      -6.828  10.078  67.811  1.00  0.00    -0.074 OA 
BRANCH  26  28
HETATM   28  C   UNL     1      -8.443   8.299  67.490  1.00  0.00    -0.130 C  
BRANCH  28  29
HETATM   29  C   UNL     1      -7.266   7.343  67.234  1.00  0.00    -0.093 C  
HETATM   30  C   UNL     1      -8.528   5.129  66.826  1.00  0.00    -0.106 C  
HETATM   31  C   UNL     1      -6.134   5.124  67.499  1.00  0.00    -0.030 C  
HETATM   32  C   UNL     1      -7.466   5.866  67.644  1.00  0.00    -0.078 C  
ENDBRANCH  28  29
BRANCH  28  33
HETATM   33  N   UNL     1      -9.296   8.487  66.318  1.00  0.00    -0.209 N  
HETATM   34  C   UNL     1      -8.826   8.975  65.132  1.00  0.00    -0.182 C  
HETATM   35  O   UNL     1      -7.681   9.346  64.924  1.00  0.00    -0.105 OA 
HETATM   36  H   UNL     1     -10.285   8.244  66.389  1.00  0.00     0.000 HD 
ENDBRANCH  28  33
ENDBRANCH  26  28
ENDBRANCH  25  26
ENDBRANCH  12  25
ENDBRANCH  11  12
ENDBRANCH  10  11
ENDBRANCH   9  10
ENDBRANCH   8   9
ENDBRANCH   7   8
ENDBRANCH   6   7
ENDBRANCH   5   6
ENDBRANCH   4   5
ENDBRANCH   3   4
ENDBRANCH   2   3
TORSDOF 22
ENDMDL
MODEL      393
REMARK 921   NORMALIZED FREE ENERGY PREDICTED BY IDOCK:   -2.84 KCAL/MOL
REMARK 922        TOTAL FREE ENERGY PREDICTED BY IDOCK:  -10.11 KCAL/MOL
REMARK 923 INTER-LIGAND FREE ENERGY PREDICTED BY IDOCK:   -7.00 KCAL/MOL
REMARK 924 INTRA-LIGAND FREE ENERGY PREDICTED BY IDOCK:   -3.11 KCAL/MOL
REMARK 927      BINDING AFFINITY PREDICTED BY RF-SCORE:    0.00 PKD
ROOT
HETATM    1  C   UNL     1     -11.475   8.761  72.260  1.00  0.00    -0.376 C  
HETATM    2  C   UNL     1     -12.880   9.192  71.875  1.00  0.00    -0.466 C  
ENDROOT
BRANCH   2   3
HETATM    3  C   UNL     1     -12.896  10.651  71.426  1.00  0.00    -0.556 C  
BRANCH   3   4
HETATM    4  C   UNL     1     -11.684  10.992  70.565  1.00  0.00    -0.416 C  
BRANCH   4   5
HETATM    5  C   UNL     1     -12.096  11.206  69.108  1.00  0.00    -0.352 C  
BRANCH   5   6
HETATM    6  C   UNL     1     -10.969  11.866  68.325  1.00  0.00    -0.273 C  
BRANCH   6   7
HETATM    7  C   UNL     1     -11.300  12.014  66.838  1.00  0.00    -0.400 C  
BRANCH   7   8
HETATM    8  C   UNL     1     -10.659  10.857  66.082  1.00  0.00    -0.270 C  
BRANCH   8   9
HETATM    9  C   UNL     1      -9.929   9.859  66.976  1.00  0.00    -0.254 C  
BRANCH   9  10
HETATM   10  C   UNL     1      -9.359   8.748  66.089  1.00  0.00    -0.297 C  
BRANCH  10  11
HETATM   11  C   UNL     1      -8.845   7.542  66.859  1.00  0.00    -0.145 C  
BRANCH  11  12
HETATM   12  C   UNL     1      -7.330   7.276  66.783  1.00  0.00    -0.088 C  
BRANCH  12  13
HETATM   13  C   UNL     1      -6.491   7.909  67.914  1.00  0.00    -0.052 C  
BRANCH  13  14
HETATM   14  C   UNL     1      -7.309   8.699  68.943  1.00  0.00    -0.082 C  
HETATM   15  O   UNL     1      -6.864  10.081  69.066  1.00  0.00    -0.052 OA 
HETATM   16  O   UNL     1      -6.084  10.770  71.122  1.00  0.00    -0.351 OA 
HETATM   17  C   UNL     1      -6.949   8.460  70.436  1.00  0.00    -0.037 C  
HETATM   18  C   UNL     1      -6.537   9.941  70.370  1.00  0.00    -0.125 C  
BRANCH  17  19
HETATM   19  C   UNL     1      -8.049   8.176  71.453  1.00  0.00    -0.132 C  
BRANCH  19  20
HETATM   20  C   UNL     1      -7.455   7.968  72.843  1.00  0.00    -0.153 C  
BRANCH  20  21
HETATM   21  C   UNL     1      -7.733   6.556  73.365  1.00  0.00    -0.092 C  
BRANCH  21  22
HETATM   22  C   UNL     1      -6.892   5.517  72.621  1.00  0.00    -0.077 C  
BRANCH  22  23
HETATM   23  C   UNL     1      -5.471   5.431  73.179  1.00  0.00    -0.022 C  
HETATM   24  C   UNL     1      -5.451   4.714  74.522  1.00  0.00    -0.013 C  
ENDBRANCH  22  23
ENDBRANCH  21  22
ENDBRANCH  20  21
ENDBRANCH  19  20
ENDBRANCH  17  19
ENDBRANCH  13  14
ENDBRANCH  12  13
BRANCH  12  25
HETATM   25  O   UNL     1      -7.058   5.856  66.789  1.00  0.00    -0.067 OA 
BRANCH  25  26
HETATM   26  C   UNL     1      -7.463   5.145  67.878  1.00  0.00    -0.076 C  
HETATM   27  O   UNL     1      -6.767   4.841  68.841  1.00  0.00    -0.047 OA 
BRANCH  26  28
HETATM   28  C   UNL     1      -8.939   4.774  67.767  1.00  0.00    -0.111 C  
BRANCH  28  29
HETATM   29  C   UNL     1      -9.565   4.490  69.142  1.00  0.00    -0.251 C  
HETATM   30  C   UNL     1     -11.194   6.480  69.349  1.00  0.00    -0.418 C  
HETATM   31  C   UNL     1     -10.429   5.248  71.368  1.00  0.00    -0.273 C  
HETATM   32  C   UNL     1     -10.023   5.714  69.967  1.00  0.00    -0.267 C  
ENDBRANCH  28  29
BRANCH  28  33
HETATM   33  N   UNL     1      -9.075   3.660  66.830  1.00  0.00    -0.152 N  
HETATM   34  C   UNL     1      -9.648   3.796  65.598  1.00  0.00    -0.166 C  
HETATM   35  O   UNL     1     -10.145   4.821  65.158  1.00  0.00    -0.089 OA 
HETATM   36  H   UNL     1      -8.727   2.742  67.109  1.00  0.00     0.000 HD 
ENDBRANCH  28  33
ENDBRANCH  26  28
ENDBRANCH  25  26
ENDBRANCH  12  25
ENDBRANCH  11  12
ENDBRANCH  10  11
ENDBRANCH   9  10
ENDBRANCH   8   9
ENDBRANCH   7   8
ENDBRANCH   6   7
ENDBRANCH   5   6
ENDBRANCH   4   5
ENDBRANCH   3   4
ENDBRANCH   2   3
TORSDOF 22
ENDMDL
MODEL      394
REMARK 921   NORMALIZED FREE ENERGY PREDICTED BY IDOCK:   -2.84 KCAL/MOL
REMARK 922        TOTAL FREE ENERGY PREDICTED BY IDOCK:  -10.10 KCAL/MOL
REMARK 923 INTER-LIGAND FREE ENERGY PREDICTED BY IDOCK:   -7.94 KCAL/MOL
REMARK 924 INTRA-LIGAND FREE ENERGY PREDICTED BY IDOCK:   -2.16 KCAL/MOL
REMARK 927      BINDING AFFINITY PREDICTED BY RF-SCORE:    0.00 PKD
ROOT
HETATM    1  C   UNL     1      -8.617   7.007  68.473  1.00  0.00    -0.123 C  
HETATM    2  C   UNL     1      -8.081   7.797  67.291  1.00  0.00    -0.119 C  
ENDROOT
BRANCH   2   3
HETATM    3  C   UNL     1      -6.639   8.232  67.538  1.00  0.00    -0.058 C  
BRANCH   3   4
HETATM    4  C   UNL     1      -6.433   8.726  68.966  1.00  0.00    -0.048 C  
BRANCH   4   5
HETATM    5  C   UNL     1      -5.550   9.976  68.987  1.00  0.00    -0.034 C  
BRANCH   5   6
HETATM    6  C   UNL     1      -6.372  11.204  69.355  1.00  0.00    -0.088 C  
BRANCH   6   7
HETATM    7  C   UNL     1      -7.511  11.462  68.367  1.00  0.00    -0.111 C  
BRANCH   7   8
HETATM    8  C   UNL     1      -7.242  12.781  67.652  1.00  0.00    -0.141 C  
BRANCH   8   9
HETATM    9  C   UNL     1      -6.252  13.689  68.374  1.00  0.00    -0.095 C  
BRANCH   9  10
HETATM   10  C   UNL     1      -6.905  15.063  68.555  1.00  0.00    -0.102 C  
BRANCH  10  11
HETATM   11  C   UNL     1      -8.153  15.047  69.424  1.00  0.00    -0.155 C  
BRANCH  11  12
HETATM   12  C   UNL     1      -9.237  16.086  69.084  1.00  0.00    -0.247 C  
BRANCH  12  13
HETATM   13  C   UNL     1     -10.385  16.203  70.110  1.00  0.00    -0.042 C  
BRANCH  13  14
HETATM   14  C   UNL     1     -11.682  15.502  69.692  1.00  0.00    -0.357 C  
HETATM   15  O   UNL     1     -12.835  15.960  70.455  1.00  0.00    -0.385 OA 
HETATM   16  O   UNL     1     -13.960  14.401  71.725  1.00  0.00    -0.394 OA 
HETATM   17  C   UNL     1     -11.896  14.066  70.247  1.00  0.00    -0.373 C  
HETATM   18  C   UNL     1     -13.080  14.735  70.969  1.00  0.00    -0.375 C  
BRANCH  17  19
HETATM   19  C   UNL     1     -12.310  12.936  69.311  1.00  0.00     0.045 C  
BRANCH  19  20
HETATM   20  C   UNL     1     -12.144  13.358  67.854  1.00  0.00    -0.289 C  
BRANCH  20  21
HETATM   21  C   UNL     1     -10.667  13.512  67.481  1.00  0.00    -0.266 C  
BRANCH  21  22
HETATM   22  C   UNL     1     -10.445  13.261  65.988  1.00  0.00    -0.289 C  
BRANCH  22  23
HETATM   23  C   UNL     1     -11.148  14.309  65.125  1.00  0.00    -0.354 C  
HETATM   24  C   UNL     1     -10.295  15.562  64.981  1.00  0.00    -0.327 C  
ENDBRANCH  22  23
ENDBRANCH  21  22
ENDBRANCH  20  21
ENDBRANCH  19  20
ENDBRANCH  17  19
ENDBRANCH  13  14
ENDBRANCH  12  13
BRANCH  12  25
HETATM   25  O   UNL     1      -8.657  17.403  68.936  1.00  0.00    -0.246 OA 
BRANCH  25  26
HETATM   26  C   UNL     1      -9.427  18.366  68.358  1.00  0.00    -0.332 C  
HETATM   27  O   UNL     1     -10.361  18.956  68.888  1.00  0.00    -0.292 OA 
BRANCH  26  28
HETATM   28  C   UNL     1      -8.964  18.650  66.932  1.00  0.00    -0.294 C  
BRANCH  28  29
HETATM   29  C   UNL     1      -7.434  18.582  66.801  1.00  0.00    -0.240 C  
HETATM   30  C   UNL     1      -6.760  20.826  67.883  1.00  0.00    -0.347 C  
HETATM   31  C   UNL     1      -5.214  19.646  66.335  1.00  0.00    -0.162 C  
HETATM   32  C   UNL     1      -6.686  19.927  66.648  1.00  0.00    -0.224 C  
ENDBRANCH  28  29
BRANCH  28  33
HETATM   33  N   UNL     1      -9.522  19.931  66.503  1.00  0.00    -0.386 N  
HETATM   34  C   UNL     1     -10.528  20.028  65.584  1.00  0.00    -0.299 C  
HETATM   35  O   UNL     1     -11.038  19.090  64.992  1.00  0.00    -0.393 OA 
HETATM   36  H   UNL     1      -9.144  20.789  66.906  1.00  0.00     0.000 HD 
ENDBRANCH  28  33
ENDBRANCH  26  28
ENDBRANCH  25  26
ENDBRANCH  12  25
ENDBRANCH  11  12
ENDBRANCH  10  11
ENDBRANCH   9  10
ENDBRANCH   8   9
ENDBRANCH   7   8
ENDBRANCH   6   7
ENDBRANCH   5   6
ENDBRANCH   4   5
ENDBRANCH   3   4
ENDBRANCH   2   3
TORSDOF 22
ENDMDL
MODEL      395
REMARK 921   NORMALIZED FREE ENERGY PREDICTED BY IDOCK:   -2.82 KCAL/MOL
REMARK 922        TOTAL FREE ENERGY PREDICTED BY IDOCK:  -10.06 KCAL/MOL
REMARK 923 INTER-LIGAND FREE ENERGY PREDICTED BY IDOCK:   -6.41 KCAL/MOL
REMARK 924 INTRA-LIGAND FREE ENERGY PREDICTED BY IDOCK:   -3.65 KCAL/MOL
REMARK 927      BINDING AFFINITY PREDICTED BY RF-SCORE:    0.00 PKD
ROOT
HETATM    1  C   UNL     1      -8.647   4.936  63.876  1.00  0.00    -0.131 C  
HETATM    2  C   UNL     1      -7.316   5.586  64.220  1.00  0.00    -0.058 C  
ENDROOT
BRANCH   2   3
HETATM    3  C   UNL     1      -7.522   6.797  65.125  1.00  0.00    -0.087 C  
BRANCH   3   4
HETATM    4  C   UNL     1      -6.935   8.066  64.514  1.00  0.00    -0.071 C  
BRANCH   4   5
HETATM    5  C   UNL     1      -7.203   9.275  65.413  1.00  0.00    -0.090 C  
BRANCH   5   6
HETATM    6  C   UNL     1      -6.749   8.993  66.839  1.00  0.00    -0.072 C  
BRANCH   6   7
HETATM    7  C   UNL     1      -7.906   8.570  67.746  1.00  0.00    -0.103 C  
BRANCH   7   8
HETATM    8  C   UNL     1      -9.106   9.461  67.447  1.00  0.00    -0.141 C  
BRANCH   8   9
HETATM    9  C   UNL     1     -10.387   8.693  67.135  1.00  0.00    -0.369 C  
BRANCH   9  10
HETATM   10  C   UNL     1     -10.036   7.208  67.005  1.00  0.00    -0.283 C  
BRANCH  10  11
HETATM   11  C   UNL     1     -10.894   6.290  67.862  1.00  0.00    -0.417 C  
BRANCH  11  12
HETATM   12  C   UNL     1     -10.739   6.437  69.387  1.00  0.00    -0.289 C  
BRANCH  12  13
HETATM   13  C   UNL     1     -12.010   6.892  70.138  1.00  0.00    -0.200 C  
BRANCH  13  14
HETATM   14  C   UNL     1     -11.805   8.108  71.050  1.00  0.00    -0.260 C  
HETATM   15  O   UNL     1     -12.144   7.827  72.438  1.00  0.00    -0.304 OA 
HETATM   16  O   UNL     1     -13.841   9.062  73.390  1.00  0.00    -0.090 OA 
HETATM   17  C   UNL     1     -12.916   9.193  71.006  1.00  0.00    -0.133 C  
HETATM   18  C   UNL     1     -13.121   8.760  72.469  1.00  0.00    -0.335 C  
BRANCH  17  19
HETATM   19  C   UNL     1     -12.545  10.664  70.849  1.00  0.00    -0.503 C  
BRANCH  19  20
HETATM   20  C   UNL     1     -11.194  10.806  70.154  1.00  0.00    -0.345 C  
BRANCH  20  21
HETATM   21  C   UNL     1     -11.169  12.020  69.222  1.00  0.00    -0.291 C  
BRANCH  21  22
HETATM   22  C   UNL     1     -12.104  11.818  68.027  1.00  0.00    -0.003 C  
BRANCH  22  23
HETATM   23  C   UNL     1     -11.612  12.565  66.788  1.00  0.00    -0.446 C  
HETATM   24  C   UNL     1     -11.374  14.037  67.093  1.00  0.00    -0.348 C  
ENDBRANCH  22  23
ENDBRANCH  21  22
ENDBRANCH  20  21
ENDBRANCH  19  20
ENDBRANCH  17  19
ENDBRANCH  13  14
ENDBRANCH  12  13
BRANCH  12  25
HETATM   25  O   UNL     1     -10.313   5.189  69.981  1.00  0.00    -0.277 OA 
BRANCH  25  26
HETATM   26  C   UNL     1      -9.506   5.260  71.076  1.00  0.00    -0.161 C  
HETATM   27  O   UNL     1      -9.837   5.018  72.232  1.00  0.00    -0.157 OA 
BRANCH  26  28
HETATM   28  C   UNL     1      -8.090   5.669  70.684  1.00  0.00    -0.116 C  
BRANCH  28  29
HETATM   29  C   UNL     1      -7.237   4.459  70.269  1.00  0.00    -0.049 C  
HETATM   30  C   UNL     1      -6.167   5.348  68.095  1.00  0.00    -0.034 C  
HETATM   31  C   UNL     1      -6.315   2.905  68.534  1.00  0.00    -0.029 C  
HETATM   32  C   UNL     1      -7.008   4.253  68.754  1.00  0.00    -0.051 C  
ENDBRANCH  28  29
BRANCH  28  33
HETATM   33  N   UNL     1      -7.502   6.439  71.779  1.00  0.00    -0.092 N  
HETATM   34  C   UNL     1      -6.554   7.402  71.579  1.00  0.00    -0.049 C  
HETATM   35  O   UNL     1      -6.062   7.698  70.501  1.00  0.00    -0.030 OA 
HETATM   36  H   UNL     1      -7.813   6.250  72.732  1.00  0.00     0.000 HD 
ENDBRANCH  28  33
ENDBRANCH  26  28
ENDBRANCH  25  26
ENDBRANCH  12  25
ENDBRANCH  11  12
ENDBRANCH  10  11
ENDBRANCH   9  10
ENDBRANCH   8   9
ENDBRANCH   7   8
ENDBRANCH   6   7
ENDBRANCH   5   6
ENDBRANCH   4   5
ENDBRANCH   3   4
ENDBRANCH   2   3
TORSDOF 22
ENDMDL
MODEL      396
REMARK 921   NORMALIZED FREE ENERGY PREDICTED BY IDOCK:   -2.82 KCAL/MOL
REMARK 922        TOTAL FREE ENERGY PREDICTED BY IDOCK:  -10.06 KCAL/MOL
REMARK 923 INTER-LIGAND FREE ENERGY PREDICTED BY IDOCK:   -6.43 KCAL/MOL
REMARK 924 INTRA-LIGAND FREE ENERGY PREDICTED BY IDOCK:   -3.63 KCAL/MOL
REMARK 927      BINDING AFFINITY PREDICTED BY RF-SCORE:    0.00 PKD
ROOT
HETATM    1  C   UNL     1      -8.564   1.715  69.679  1.00  0.00    -0.091 C  
HETATM    2  C   UNL     1      -7.754   2.942  69.296  1.00  0.00    -0.048 C  
ENDROOT
BRANCH   2   3
HETATM    3  C   UNL     1      -8.318   3.593  68.036  1.00  0.00    -0.101 C  
BRANCH   3   4
HETATM    4  C   UNL     1      -8.499   2.580  66.909  1.00  0.00    -0.107 C  
BRANCH   4   5
HETATM    5  C   UNL     1      -7.172   2.321  66.193  1.00  0.00    -0.061 C  
BRANCH   5   6
HETATM    6  C   UNL     1      -6.549   3.632  65.733  1.00  0.00    -0.040 C  
BRANCH   6   7
HETATM    7  C   UNL     1      -7.319   4.270  64.575  1.00  0.00    -0.071 C  
BRANCH   7   8
HETATM    8  C   UNL     1      -7.642   5.713  64.945  1.00  0.00    -0.083 C  
BRANCH   8   9
HETATM    9  C   UNL     1      -6.648   6.342  65.915  1.00  0.00    -0.047 C  
BRANCH   9  10
HETATM   10  C   UNL     1      -7.437   7.142  66.957  1.00  0.00    -0.097 C  
BRANCH  10  11
HETATM   11  C   UNL     1      -6.588   8.106  67.771  1.00  0.00    -0.057 C  
BRANCH  11  12
HETATM   12  C   UNL     1      -7.051   9.574  67.793  1.00  0.00    -0.081 C  
BRANCH  12  13
HETATM   13  C   UNL     1      -7.207  10.238  66.407  1.00  0.00    -0.113 C  
BRANCH  13  14
HETATM   14  C   UNL     1      -8.523   9.908  65.692  1.00  0.00    -0.144 C  
HETATM   15  O   UNL     1      -8.348   9.739  64.256  1.00  0.00    -0.143 OA 
HETATM   16  O   UNL     1      -9.492  11.180  62.867  1.00  0.00    -0.321 OA 
HETATM   17  C   UNL     1      -9.478  11.105  65.426  1.00  0.00    -0.253 C  
HETATM   18  C   UNL     1      -9.175  10.765  63.956  1.00  0.00    -0.227 C  
BRANCH  17  19
HETATM   19  C   UNL     1     -10.957  10.999  65.786  1.00  0.00    -0.102 C  
BRANCH  19  20
HETATM   20  C   UNL     1     -11.354  12.109  66.754  1.00  0.00    -0.398 C  
BRANCH  20  21
HETATM   21  C   UNL     1     -10.176  12.529  67.638  1.00  0.00    -0.220 C  
BRANCH  21  22
HETATM   22  C   UNL     1     -10.544  13.727  68.516  1.00  0.00    -0.261 C  
BRANCH  22  23
HETATM   23  C   UNL     1     -11.717  14.518  67.935  1.00  0.00    -0.381 C  
HETATM   24  C   UNL     1     -11.236  15.552  66.927  1.00  0.00    -0.159 C  
ENDBRANCH  22  23
ENDBRANCH  21  22
ENDBRANCH  20  21
ENDBRANCH  19  20
ENDBRANCH  17  19
ENDBRANCH  13  14
ENDBRANCH  12  13
BRANCH  12  25
HETATM   25  O   UNL     1      -8.320   9.701  68.475  1.00  0.00    -0.114 OA 
BRANCH  25  26
HETATM   26  C   UNL     1      -8.331   9.497  69.822  1.00  0.00    -0.164 C  
HETATM   27  O   UNL     1      -7.578  10.020  70.636  1.00  0.00    -0.286 OA 
BRANCH  26  28
HETATM   28  C   UNL     1      -9.440   8.526  70.216  1.00  0.00    -0.166 C  
BRANCH  28  29
HETATM   29  C   UNL     1     -10.345   8.174  69.024  1.00  0.00    -0.229 C  
HETATM   30  C   UNL     1     -10.949   5.729  69.586  1.00  0.00    -0.385 C  
HETATM   31  C   UNL     1     -11.144   6.584  67.260  1.00  0.00    -0.429 C  
HETATM   32  C   UNL     1     -10.351   6.698  68.565  1.00  0.00    -0.216 C  
ENDBRANCH  28  29
BRANCH  28  33
HETATM   33  N   UNL     1     -10.174   9.086  71.350  1.00  0.00    -0.304 N  
HETATM   34  C   UNL     1     -10.564   8.334  72.421  1.00  0.00    -0.337 C  
HETATM   35  O   UNL     1     -10.393   7.130  72.541  1.00  0.00    -0.193 OA 
HETATM   36  H   UNL     1     -10.406  10.080  71.340  1.00  0.00     0.000 HD 
ENDBRANCH  28  33
ENDBRANCH  26  28
ENDBRANCH  25  26
ENDBRANCH  12  25
ENDBRANCH  11  12
ENDBRANCH  10  11
ENDBRANCH   9  10
ENDBRANCH   8   9
ENDBRANCH   7   8
ENDBRANCH   6   7
ENDBRANCH   5   6
ENDBRANCH   4   5
ENDBRANCH   3   4
ENDBRANCH   2   3
TORSDOF 22
ENDMDL
MODEL      397
REMARK 921   NORMALIZED FREE ENERGY PREDICTED BY IDOCK:   -2.81 KCAL/MOL
REMARK 922        TOTAL FREE ENERGY PREDICTED BY IDOCK:  -10.05 KCAL/MOL
REMARK 923 INTER-LIGAND FREE ENERGY PREDICTED BY IDOCK:   -6.49 KCAL/MOL
REMARK 924 INTRA-LIGAND FREE ENERGY PREDICTED BY IDOCK:   -3.56 KCAL/MOL
REMARK 927      BINDING AFFINITY PREDICTED BY RF-SCORE:    0.00 PKD
ROOT
HETATM    1  C   UNL     1      -9.934  12.167  68.157  1.00  0.00    -0.201 C  
HETATM    2  C   UNL     1      -8.824  12.352  67.136  1.00  0.00    -0.197 C  
ENDROOT
BRANCH   2   3
HETATM    3  C   UNL     1      -7.541  11.668  67.600  1.00  0.00    -0.128 C  
BRANCH   3   4
HETATM    4  C   UNL     1      -7.676  11.111  69.014  1.00  0.00    -0.114 C  
BRANCH   4   5
HETATM    5  C   UNL     1      -7.290   9.631  69.054  1.00  0.00    -0.073 C  
BRANCH   5   6
HETATM    6  C   UNL     1      -8.249   8.806  68.207  1.00  0.00    -0.118 C  
BRANCH   6   7
HETATM    7  C   UNL     1      -7.541   8.084  67.059  1.00  0.00    -0.096 C  
BRANCH   7   8
HETATM    8  C   UNL     1      -8.563   7.228  66.320  1.00  0.00    -0.147 C  
BRANCH   8   9
HETATM    9  C   UNL     1     -10.013   7.586  66.632  1.00  0.00    -0.270 C  
BRANCH   9  10
HETATM   10  C   UNL     1     -10.712   6.333  67.167  1.00  0.00    -0.432 C  
BRANCH  10  11
HETATM   11  C   UNL     1     -11.181   6.452  68.609  1.00  0.00    -0.338 C  
BRANCH  11  12
HETATM   12  C   UNL     1     -10.490   5.532  69.631  1.00  0.00    -0.309 C  
BRANCH  12  13
HETATM   13  C   UNL     1      -8.946   5.533  69.582  1.00  0.00    -0.134 C  
BRANCH  13  14
HETATM   14  C   UNL     1      -8.288   4.366  70.328  1.00  0.00    -0.073 C  
HETATM   15  O   UNL     1      -7.932   4.709  71.697  1.00  0.00    -0.096 OA 
HETATM   16  O   UNL     1      -5.704   4.603  72.277  1.00  0.00    -0.010 OA 
HETATM   17  C   UNL     1      -6.789   4.107  70.011  1.00  0.00    -0.034 C  
HETATM   18  C   UNL     1      -6.614   4.495  71.491  1.00  0.00    -0.030 C  
BRANCH  17  19
HETATM   19  C   UNL     1      -6.306   2.697  69.687  1.00  0.00    -0.029 C  
BRANCH  19  20
HETATM   20  C   UNL     1      -6.194   2.502  68.178  1.00  0.00    -0.028 C  
BRANCH  20  21
HETATM   21  C   UNL     1      -6.026   3.840  67.452  1.00  0.00    -0.024 C  
BRANCH  21  22
HETATM   22  C   UNL     1      -7.044   3.984  66.319  1.00  0.00    -0.064 C  
BRANCH  22  23
HETATM   23  C   UNL     1      -8.411   3.423  66.709  1.00  0.00    -0.108 C  
HETATM   24  C   UNL     1      -9.304   3.253  65.487  1.00  0.00    -0.134 C  
ENDBRANCH  22  23
ENDBRANCH  21  22
ENDBRANCH  20  21
ENDBRANCH  19  20
ENDBRANCH  17  19
ENDBRANCH  13  14
ENDBRANCH  12  13
BRANCH  12  25
HETATM   25  O   UNL     1     -10.877   5.883  70.980  1.00  0.00    -0.260 OA 
BRANCH  25  26
HETATM   26  C   UNL     1     -11.851   6.823  71.129  1.00  0.00    -0.360 C  
HETATM   27  O   UNL     1     -13.060   6.625  71.061  1.00  0.00    -0.112 OA 
BRANCH  26  28
HETATM   28  C   UNL     1     -11.246   8.193  71.420  1.00  0.00    -0.254 C  
BRANCH  28  29
HETATM   29  C   UNL     1      -9.815   8.083  71.970  1.00  0.00    -0.273 C  
HETATM   30  C   UNL     1     -10.245   6.811  74.174  1.00  0.00    -0.370 C  
HETATM   31  C   UNL     1      -8.171   8.145  73.860  1.00  0.00    -0.311 C  
HETATM   32  C   UNL     1      -9.659   8.057  73.508  1.00  0.00    -0.195 C  
ENDBRANCH  28  29
BRANCH  28  33
HETATM   33  N   UNL     1     -12.148   8.927  72.306  1.00  0.00    -0.349 N  
HETATM   34  C   UNL     1     -12.932   9.958  71.872  1.00  0.00    -0.448 C  
HETATM   35  O   UNL     1     -12.941  10.412  70.738  1.00  0.00    -0.375 OA 
HETATM   36  H   UNL     1     -12.195   8.657  73.289  1.00  0.00     0.000 HD 
ENDBRANCH  28  33
ENDBRANCH  26  28
ENDBRANCH  25  26
ENDBRANCH  12  25
ENDBRANCH  11  12
ENDBRANCH  10  11
ENDBRANCH   9  10
ENDBRANCH   8   9
ENDBRANCH   7   8
ENDBRANCH   6   7
ENDBRANCH   5   6
ENDBRANCH   4   5
ENDBRANCH   3   4
ENDBRANCH   2   3
TORSDOF 22
ENDMDL
MODEL      398
REMARK 921   NORMALIZED FREE ENERGY PREDICTED BY IDOCK:   -2.81 KCAL/MOL
REMARK 922        TOTAL FREE ENERGY PREDICTED BY IDOCK:  -10.05 KCAL/MOL
REMARK 923 INTER-LIGAND FREE ENERGY PREDICTED BY IDOCK:   -7.87 KCAL/MOL
REMARK 924 INTRA-LIGAND FREE ENERGY PREDICTED BY IDOCK:   -2.18 KCAL/MOL
REMARK 927      BINDING AFFINITY PREDICTED BY RF-SCORE:    0.00 PKD
ROOT
HETATM    1  C   UNL     1      -9.909  15.769  65.638  1.00  0.00    -0.357 C  
HETATM    2  C   UNL     1     -11.069  16.544  65.034  1.00  0.00    -0.174 C  
ENDROOT
BRANCH   2   3
HETATM    3  C   UNL     1     -12.077  15.597  64.390  1.00  0.00    -0.089 C  
BRANCH   3   4
HETATM    4  C   UNL     1     -11.501  14.197  64.205  1.00  0.00    -0.287 C  
BRANCH   4   5
HETATM    5  C   UNL     1     -12.446  13.325  63.376  1.00  0.00    -0.281 C  
BRANCH   5   6
HETATM    6  C   UNL     1     -12.185  11.849  63.643  1.00  0.00    -0.586 C  
BRANCH   6   7
HETATM    7  C   UNL     1     -10.692  11.527  63.733  1.00  0.00    -0.474 C  
BRANCH   7   8
HETATM    8  C   UNL     1     -10.396  10.986  65.126  1.00  0.00    -0.346 C  
BRANCH   8   9
HETATM    9  C   UNL     1     -10.562  12.014  66.240  1.00  0.00    -0.287 C  
BRANCH   9  10
HETATM   10  C   UNL     1     -10.542  11.275  67.582  1.00  0.00    -0.252 C  
BRANCH  10  11
HETATM   11  C   UNL     1      -9.687  11.946  68.646  1.00  0.00    -0.116 C  
BRANCH  11  12
HETATM   12  C   UNL     1      -8.183  12.065  68.340  1.00  0.00    -0.151 C  
BRANCH  12  13
HETATM   13  C   UNL     1      -7.405  13.061  69.228  1.00  0.00     0.241 C  
BRANCH  13  14
HETATM   14  C   UNL     1      -7.289  14.473  68.642  1.00  0.00    -0.128 C  
HETATM   15  O   UNL     1      -5.989  15.078  68.899  1.00  0.00    -0.088 OA 
HETATM   16  O   UNL     1      -5.944  17.020  70.139  1.00  0.00    -0.229 OA 
HETATM   17  C   UNL     1      -7.969  15.610  69.454  1.00  0.00    -0.226 C  
HETATM   18  C   UNL     1      -6.517  16.098  69.611  1.00  0.00    -0.190 C  
BRANCH  17  19
HETATM   19  C   UNL     1      -8.879  16.614  68.754  1.00  0.00    -0.264 C  
BRANCH  19  20
HETATM   20  C   UNL     1     -10.222  16.713  69.472  1.00  0.00    -0.191 C  
BRANCH  20  21
HETATM   21  C   UNL     1     -10.974  15.380  69.438  1.00  0.00    -0.276 C  
BRANCH  21  22
HETATM   22  C   UNL     1     -11.678  15.109  70.770  1.00  0.00    -0.370 C  
BRANCH  22  23
HETATM   23  C   UNL     1     -13.186  14.935  70.590  1.00  0.00    -0.319 C  
HETATM   24  C   UNL     1     -13.946  15.440  71.809  1.00  0.00    -0.626 C  
ENDBRANCH  22  23
ENDBRANCH  21  22
ENDBRANCH  20  21
ENDBRANCH  19  20
ENDBRANCH  17  19
ENDBRANCH  13  14
ENDBRANCH  12  13
BRANCH  12  25
HETATM   25  O   UNL     1      -7.531  10.779  68.464  1.00  0.00    -0.088 OA 
BRANCH  25  26
HETATM   26  C   UNL     1      -7.346  10.289  69.721  1.00  0.00    -0.165 C  
HETATM   27  O   UNL     1      -6.694  10.821  70.613  1.00  0.00    -0.310 OA 
BRANCH  26  28
HETATM   28  C   UNL     1      -8.086   8.967  69.904  1.00  0.00    -0.117 C  
BRANCH  28  29
HETATM   29  C   UNL     1      -8.392   8.290  68.559  1.00  0.00    -0.129 C  
HETATM   30  C   UNL     1      -8.903   5.884  69.338  1.00  0.00    -0.122 C  
HETATM   31  C   UNL     1      -8.240   6.345  66.987  1.00  0.00    -0.113 C  
HETATM   32  C   UNL     1      -8.054   6.786  68.442  1.00  0.00    -0.119 C  
ENDBRANCH  28  29
BRANCH  28  33
HETATM   33  N   UNL     1      -9.280   9.205  70.714  1.00  0.00    -0.245 N  
HETATM   34  C   UNL     1      -9.497   8.583  71.910  1.00  0.00    -0.280 C  
HETATM   35  O   UNL     1      -8.768   7.743  72.413  1.00  0.00    -0.118 OA 
HETATM   36  H   UNL     1      -9.980   9.864  70.370  1.00  0.00     0.000 HD 
ENDBRANCH  28  33
ENDBRANCH  26  28
ENDBRANCH  25  26
ENDBRANCH  12  25
ENDBRANCH  11  12
ENDBRANCH  10  11
ENDBRANCH   9  10
ENDBRANCH   8   9
ENDBRANCH   7   8
ENDBRANCH   6   7
ENDBRANCH   5   6
ENDBRANCH   4   5
ENDBRANCH   3   4
ENDBRANCH   2   3
TORSDOF 22
ENDMDL
MODEL      399
REMARK 921   NORMALIZED FREE ENERGY PREDICTED BY IDOCK:   -2.80 KCAL/MOL
REMARK 922        TOTAL FREE ENERGY PREDICTED BY IDOCK:  -10.02 KCAL/MOL
REMARK 923 INTER-LIGAND FREE ENERGY PREDICTED BY IDOCK:   -7.59 KCAL/MOL
REMARK 924 INTRA-LIGAND FREE ENERGY PREDICTED BY IDOCK:   -2.43 KCAL/MOL
REMARK 927      BINDING AFFINITY PREDICTED BY RF-SCORE:    0.00 PKD
ROOT
HETATM    1  C   UNL     1      -6.474  19.318  69.228  1.00  0.00    -0.341 C  
HETATM    2  C   UNL     1      -7.552  18.760  68.313  1.00  0.00    -0.307 C  
ENDROOT
BRANCH   2   3
HETATM    3  C   UNL     1      -8.650  19.792  68.076  1.00  0.00    -0.340 C  
BRANCH   3   4
HETATM    4  C   UNL     1      -9.594  19.367  66.955  1.00  0.00    -0.412 C  
BRANCH   4   5
HETATM    5  C   UNL     1     -10.693  18.447  67.491  1.00  0.00    -0.399 C  
BRANCH   5   6
HETATM    6  C   UNL     1     -10.512  17.032  66.958  1.00  0.00    -0.279 C  
BRANCH   6   7
HETATM    7  C   UNL     1     -10.875  15.967  67.995  1.00  0.00    -0.335 C  
BRANCH   7   8
HETATM    8  C   UNL     1      -9.799  14.888  67.979  1.00  0.00    -0.216 C  
BRANCH   8   9
HETATM    9  C   UNL     1      -8.390  15.421  67.735  1.00  0.00    -0.156 C  
BRANCH   9  10
HETATM   10  C   UNL     1      -7.495  14.243  67.337  1.00  0.00    -0.172 C  
BRANCH  10  11
HETATM   11  C   UNL     1      -8.028  12.885  67.768  1.00  0.00    -0.162 C  
BRANCH  11  12
HETATM   12  C   UNL     1      -7.347  11.654  67.144  1.00  0.00    -0.143 C  
BRANCH  12  13
HETATM   13  C   UNL     1      -7.439  10.356  67.976  1.00  0.00    -0.090 C  
BRANCH  13  14
HETATM   14  C   UNL     1      -7.885  10.565  69.428  1.00  0.00    -0.147 C  
HETATM   15  O   UNL     1      -6.759  10.709  70.341  1.00  0.00    -0.263 OA 
HETATM   16  O   UNL     1      -6.546   9.148  72.023  1.00  0.00    -0.267 OA 
HETATM   17  C   UNL     1      -8.336   9.292  70.198  1.00  0.00    -0.189 C  
HETATM   18  C   UNL     1      -7.100   9.615  71.057  1.00  0.00     0.067 C  
BRANCH  17  19
HETATM   19  C   UNL     1      -9.644   9.295  70.982  1.00  0.00    -0.329 C  
BRANCH  19  20
HETATM   20  C   UNL     1      -9.739   8.057  71.869  1.00  0.00    -0.250 C  
BRANCH  20  21
HETATM   21  C   UNL     1      -9.412   6.782  71.087  1.00  0.00    -0.164 C  
BRANCH  21  22
HETATM   22  C   UNL     1      -9.176   5.601  72.031  1.00  0.00    -0.155 C  
BRANCH  22  23
HETATM   23  C   UNL     1      -9.721   4.294  71.454  1.00  0.00    -0.252 C  
HETATM   24  C   UNL     1      -8.691   3.617  70.560  1.00  0.00    -0.124 C  
ENDBRANCH  22  23
ENDBRANCH  21  22
ENDBRANCH  20  21
ENDBRANCH  19  20
ENDBRANCH  17  19
ENDBRANCH  13  14
ENDBRANCH  12  13
BRANCH  12  25
HETATM   25  O   UNL     1      -7.900  11.368  65.838  1.00  0.00     0.026 OA 
BRANCH  25  26
HETATM   26  C   UNL     1      -7.604  10.160  65.283  1.00  0.00    -0.144 C  
HETATM   27  O   UNL     1      -6.480   9.705  65.103  1.00  0.00    -0.079 OA 
BRANCH  26  28
HETATM   28  C   UNL     1      -8.878   9.403  64.917  1.00  0.00    -0.202 C  
BRANCH  28  29
HETATM   29  C   UNL     1      -8.894   7.986  65.512  1.00  0.00    -0.102 C  
HETATM   30  C   UNL     1     -10.584   8.294  67.439  1.00  0.00    -0.324 C  
HETATM   31  C   UNL     1      -8.953   6.418  67.466  1.00  0.00    -0.116 C  
HETATM   32  C   UNL     1      -9.173   7.869  67.028  1.00  0.00    -0.181 C  
ENDBRANCH  28  29
BRANCH  28  33
HETATM   33  N   UNL     1      -9.033   9.419  63.464  1.00  0.00    -0.406 N  
HETATM   34  C   UNL     1      -9.659  10.434  62.798  1.00  0.00    -0.275 C  
HETATM   35  O   UNL     1     -10.190  11.401  63.322  1.00  0.00    -0.360 OA 
HETATM   36  H   UNL     1      -8.658   8.638  62.923  1.00  0.00     0.000 HD 
ENDBRANCH  28  33
ENDBRANCH  26  28
ENDBRANCH  25  26
ENDBRANCH  12  25
ENDBRANCH  11  12
ENDBRANCH  10  11
ENDBRANCH   9  10
ENDBRANCH   8   9
ENDBRANCH   7   8
ENDBRANCH   6   7
ENDBRANCH   5   6
ENDBRANCH   4   5
ENDBRANCH   3   4
ENDBRANCH   2   3
TORSDOF 22
ENDMDL
MODEL      400
REMARK 921   NORMALIZED FREE ENERGY PREDICTED BY IDOCK:   -2.77 KCAL/MOL
REMARK 922        TOTAL FREE ENERGY PREDICTED BY IDOCK:   -9.96 KCAL/MOL
REMARK 923 INTER-LIGAND FREE ENERGY PREDICTED BY IDOCK:   -7.16 KCAL/MOL
REMARK 924 INTRA-LIGAND FREE ENERGY PREDICTED BY IDOCK:   -2.80 KCAL/MOL
REMARK 927      BINDING AFFINITY PREDICTED BY RF-SCORE:    0.00 PKD
ROOT
HETATM    1  C   UNL     1      -8.626   8.826  65.125  1.00  0.00    -0.209 C  
HETATM    2  C   UNL     1      -7.926  10.094  64.665  1.00  0.00    -0.145 C  
ENDROOT
BRANCH   2   3
HETATM    3  C   UNL     1      -8.440  10.532  63.297  1.00  0.00    -0.157 C  
BRANCH   3   4
HETATM    4  C   UNL     1      -9.949  10.756  63.305  1.00  0.00    -0.369 C  
BRANCH   4   5
HETATM    5  C   UNL     1     -10.312  11.986  64.140  1.00  0.00    -0.381 C  
BRANCH   5   6
HETATM    6  C   UNL     1     -11.013  11.571  65.427  1.00  0.00    -0.288 C  
BRANCH   6   7
HETATM    7  C   UNL     1     -11.916  12.674  65.981  1.00  0.00    -0.478 C  
BRANCH   7   8
HETATM    8  C   UNL     1     -11.440  13.030  67.384  1.00  0.00    -0.380 C  
BRANCH   8   9
HETATM    9  C   UNL     1     -12.089  12.202  68.489  1.00  0.00    -0.115 C  
BRANCH   9  10
HETATM   10  C   UNL     1     -11.210  10.975  68.748  1.00  0.00    -0.327 C  
BRANCH  10  11
HETATM   11  C   UNL     1      -9.794  11.309  69.190  1.00  0.00    -0.027 C  
BRANCH  11  12
HETATM   12  C   UNL     1      -8.669  10.975  68.192  1.00  0.00    -0.141 C  
BRANCH  12  13
HETATM   13  C   UNL     1      -7.466  11.943  68.206  1.00  0.00    -0.104 C  
BRANCH  13  14
HETATM   14  C   UNL     1      -7.822  13.400  67.885  1.00  0.00    -0.152 C  
HETATM   15  O   UNL     1      -6.703  14.133  67.310  1.00  0.00    -0.250 OA 
HETATM   16  O   UNL     1      -5.922  15.966  68.468  1.00  0.00    -0.098 OA 
HETATM   17  C   UNL     1      -7.836  14.383  69.089  1.00  0.00    -0.026 C  
HETATM   18  C   UNL     1      -6.665  15.026  68.324  1.00  0.00    -0.114 C  
BRANCH  17  19
HETATM   19  C   UNL     1      -9.020  15.322  69.297  1.00  0.00    -0.241 C  
BRANCH  19  20
HETATM   20  C   UNL     1      -8.784  16.649  68.583  1.00  0.00    -0.250 C  
BRANCH  20  21
HETATM   21  C   UNL     1      -9.819  16.883  67.480  1.00  0.00    -0.260 C  
BRANCH  21  22
HETATM   22  C   UNL     1      -9.217  16.635  66.095  1.00  0.00    -0.312 C  
BRANCH  22  23
HETATM   23  C   UNL     1      -9.922  15.492  65.365  1.00  0.00    -0.339 C  
HETATM   24  C   UNL     1     -11.183  15.982  64.666  1.00  0.00    -0.340 C  
ENDBRANCH  22  23
ENDBRANCH  21  22
ENDBRANCH  20  21
ENDBRANCH  19  20
ENDBRANCH  17  19
ENDBRANCH  13  14
ENDBRANCH  12  13
BRANCH  12  25
HETATM   25  O   UNL     1      -8.153   9.644  68.429  1.00  0.00    -0.102 OA 
BRANCH  25  26
HETATM   26  C   UNL     1      -8.198   9.172  69.706  1.00  0.00    -0.128 C  
HETATM   27  O   UNL     1      -7.722   9.721  70.694  1.00  0.00    -0.270 OA 
BRANCH  26  28
HETATM   28  C   UNL     1      -8.951   7.847  69.770  1.00  0.00    -0.146 C  
BRANCH  28  29
HETATM   29  C   UNL     1      -8.048   6.695  70.237  1.00  0.00    -0.121 C  
HETATM   30  C   UNL     1      -6.391   6.554  68.263  1.00  0.00    -0.037 C  
HETATM   31  C   UNL     1      -6.717   4.619  69.790  1.00  0.00    -0.037 C  
HETATM   32  C   UNL     1      -7.410   5.818  69.135  1.00  0.00    -0.083 C  
ENDBRANCH  28  29
BRANCH  28  33
HETATM   33  N   UNL     1      -9.576   7.599  68.471  1.00  0.00    -0.147 N  
HETATM   34  C   UNL     1     -10.737   6.893  68.333  1.00  0.00    -0.211 C  
HETATM   35  O   UNL     1     -11.353   6.358  69.243  1.00  0.00    -0.379 OA 
HETATM   36  H   UNL     1      -9.126   7.969  67.633  1.00  0.00     0.000 HD 
ENDBRANCH  28  33
ENDBRANCH  26  28
ENDBRANCH  25  26
ENDBRANCH  12  25
ENDBRANCH  11  12
ENDBRANCH  10  11
ENDBRANCH   9  10
ENDBRANCH   8   9
ENDBRANCH   7   8
ENDBRANCH   6   7
ENDBRANCH   5   6
ENDBRANCH   4   5
ENDBRANCH   3   4
ENDBRANCH   2   3
TORSDOF 22
ENDMDL
MODEL      401
REMARK 921   NORMALIZED FREE ENERGY PREDICTED BY IDOCK:   -2.76 KCAL/MOL
REMARK 922        TOTAL FREE ENERGY PREDICTED BY IDOCK:   -9.94 KCAL/MOL
REMARK 923 INTER-LIGAND FREE ENERGY PREDICTED BY IDOCK:   -6.97 KCAL/MOL
REMARK 924 INTRA-LIGAND FREE ENERGY PREDICTED BY IDOCK:   -2.97 KCAL/MOL
REMARK 927      BINDING AFFINITY PREDICTED BY RF-SCORE:    0.00 PKD
ROOT
HETATM    1  C   UNL     1      -6.065   8.927  72.667  1.00  0.00    -0.027 C  
HETATM    2  C   UNL     1      -6.395   8.294  74.009  1.00  0.00    -0.138 C  
ENDROOT
BRANCH   2   3
HETATM    3  C   UNL     1      -7.625   7.397  73.898  1.00  0.00    -0.134 C  
BRANCH   3   4
HETATM    4  C   UNL     1      -8.609   7.913  72.853  1.00  0.00    -0.236 C  
BRANCH   4   5
HETATM    5  C   UNL     1     -10.049   7.787  73.355  1.00  0.00    -0.327 C  
BRANCH   5   6
HETATM    6  C   UNL     1     -11.034   8.032  72.220  1.00  0.00    -0.377 C  
BRANCH   6   7
HETATM    7  C   UNL     1     -11.937   6.824  71.960  1.00  0.00    -0.355 C  
BRANCH   7   8
HETATM    8  C   UNL     1     -12.202   6.731  70.462  1.00  0.00    -0.253 C  
BRANCH   8   9
HETATM    9  C   UNL     1     -10.967   6.394  69.633  1.00  0.00    -0.420 C  
BRANCH   9  10
HETATM   10  C   UNL     1     -11.278   6.698  68.164  1.00  0.00    -0.207 C  
BRANCH  10  11
HETATM   11  C   UNL     1     -10.091   6.521  67.229  1.00  0.00    -0.212 C  
BRANCH  11  12
HETATM   12  C   UNL     1      -9.423   7.812  66.721  1.00  0.00    -0.197 C  
BRANCH  12  13
HETATM   13  C   UNL     1      -8.806   8.712  67.815  1.00  0.00    -0.137 C  
BRANCH  13  14
HETATM   14  C   UNL     1      -9.414  10.117  67.895  1.00  0.00    -0.141 C  
HETATM   15  O   UNL     1      -9.929  10.427  69.222  1.00  0.00    -0.210 OA 
HETATM   16  O   UNL     1     -12.180  10.881  69.412  1.00  0.00    -0.336 OA 
HETATM   17  C   UNL     1     -10.845  10.280  67.311  1.00  0.00    -0.312 C  
HETATM   18  C   UNL     1     -11.195  10.589  68.778  1.00  0.00    -0.262 C  
BRANCH  17  19
HETATM   19  C   UNL     1     -11.156  11.425  66.354  1.00  0.00    -0.301 C  
BRANCH  19  20
HETATM   20  C   UNL     1     -10.738  11.064  64.931  1.00  0.00    -0.278 C  
BRANCH  20  21
HETATM   21  C   UNL     1     -10.685  12.302  64.032  1.00  0.00    -0.438 C  
BRANCH  21  22
HETATM   22  C   UNL     1     -10.210  13.530  64.812  1.00  0.00    -0.355 C  
BRANCH  22  23
HETATM   23  C   UNL     1     -11.313  14.580  64.944  1.00  0.00    -0.394 C  
HETATM   24  C   UNL     1     -11.127  15.417  66.202  1.00  0.00    -0.230 C  
ENDBRANCH  22  23
ENDBRANCH  21  22
ENDBRANCH  20  21
ENDBRANCH  19  20
ENDBRANCH  17  19
ENDBRANCH  13  14
ENDBRANCH  12  13
BRANCH  12  25
HETATM   25  O   UNL     1      -8.373   7.507  65.774  1.00  0.00    -0.129 OA 
BRANCH  25  26
HETATM   26  C   UNL     1      -7.126   7.280  66.272  1.00  0.00    -0.077 C  
HETATM   27  O   UNL     1      -6.200   8.084  66.292  1.00  0.00    -0.044 OA 
BRANCH  26  28
HETATM   28  C   UNL     1      -7.016   5.868  66.840  1.00  0.00    -0.068 C  
BRANCH  28  29
HETATM   29  C   UNL     1      -6.282   5.848  68.190  1.00  0.00    -0.032 C  
HETATM   30  C   UNL     1      -7.828   4.296  69.554  1.00  0.00    -0.057 C  
HETATM   31  C   UNL     1      -6.278   5.869  70.696  1.00  0.00    -0.031 C  
HETATM   32  C   UNL     1      -7.152   5.664  69.455  1.00  0.00    -0.065 C  
ENDBRANCH  28  29
BRANCH  28  33
HETATM   33  N   UNL     1      -6.398   5.004  65.836  1.00  0.00    -0.038 N  
HETATM   34  C   UNL     1      -6.916   3.789  65.487  1.00  0.00    -0.061 C  
HETATM   35  O   UNL     1      -7.901   3.270  65.987  1.00  0.00    -0.083 OA 
HETATM   36  H   UNL     1      -5.544   5.321  65.377  1.00  0.00     0.000 HD 
ENDBRANCH  28  33
ENDBRANCH  26  28
ENDBRANCH  25  26
ENDBRANCH  12  25
ENDBRANCH  11  12
ENDBRANCH  10  11
ENDBRANCH   9  10
ENDBRANCH   8   9
ENDBRANCH   7   8
ENDBRANCH   6   7
ENDBRANCH   5   6
ENDBRANCH   4   5
ENDBRANCH   3   4
ENDBRANCH   2   3
TORSDOF 22
ENDMDL
MODEL      402
REMARK 921   NORMALIZED FREE ENERGY PREDICTED BY IDOCK:   -2.71 KCAL/MOL
REMARK 922        TOTAL FREE ENERGY PREDICTED BY IDOCK:   -9.81 KCAL/MOL
REMARK 923 INTER-LIGAND FREE ENERGY PREDICTED BY IDOCK:   -6.37 KCAL/MOL
REMARK 924 INTRA-LIGAND FREE ENERGY PREDICTED BY IDOCK:   -3.43 KCAL/MOL
REMARK 927      BINDING AFFINITY PREDICTED BY RF-SCORE:    0.00 PKD
ROOT
HETATM    1  C   UNL     1     -11.169  11.988  63.541  1.00  0.00    -0.526 C  
HETATM    2  C   UNL     1     -10.217  11.924  64.724  1.00  0.00    -0.314 C  
ENDROOT
BRANCH   2   3
HETATM    3  C   UNL     1     -10.444  13.102  65.667  1.00  0.00    -0.290 C  
BRANCH   3   4
HETATM    4  C   UNL     1     -11.808  13.028  66.347  1.00  0.00    -0.465 C  
BRANCH   4   5
HETATM    5  C   UNL     1     -11.849  11.880  67.358  1.00  0.00    -0.239 C  
BRANCH   5   6
HETATM    6  C   UNL     1     -11.263  12.321  68.692  1.00  0.00    -0.305 C  
BRANCH   6   7
HETATM    7  C   UNL     1     -10.336  11.266  69.300  1.00  0.00    -0.101 C  
BRANCH   7   8
HETATM    8  C   UNL     1      -9.685  10.483  68.166  1.00  0.00    -0.166 C  
BRANCH   8   9
HETATM    9  C   UNL     1      -8.820   9.316  68.634  1.00  0.00    -0.132 C  
BRANCH   9  10
HETATM   10  C   UNL     1      -7.958   9.798  69.805  1.00  0.00    -0.169 C  
BRANCH  10  11
HETATM   11  C   UNL     1      -6.970   8.761  70.315  1.00  0.00    -0.043 C  
BRANCH  11  12
HETATM   12  C   UNL     1      -7.574   7.482  70.923  1.00  0.00    -0.081 C  
BRANCH  12  13
HETATM   13  C   UNL     1      -6.942   6.158  70.439  1.00  0.00    -0.059 C  
BRANCH  13  14
HETATM   14  C   UNL     1      -7.866   5.297  69.569  1.00  0.00    -0.084 C  
HETATM   15  O   UNL     1      -7.438   3.906  69.510  1.00  0.00    -0.052 OA 
HETATM   16  O   UNL     1      -6.882   3.050  67.443  1.00  0.00    -0.044 OA 
HETATM   17  C   UNL     1      -7.667   5.415  68.032  1.00  0.00    -0.091 C  
HETATM   18  C   UNL     1      -7.251   3.940  68.172  1.00  0.00    -0.059 C  
BRANCH  17  19
HETATM   19  C   UNL     1      -8.869   5.628  67.118  1.00  0.00    -0.106 C  
BRANCH  19  20
HETATM   20  C   UNL     1      -8.417   6.100  65.739  1.00  0.00    -0.147 C  
BRANCH  20  21
HETATM   21  C   UNL     1      -8.322   4.934  64.752  1.00  0.00    -0.136 C  
BRANCH  21  22
HETATM   22  C   UNL     1      -9.362   3.857  65.067  1.00  0.00    -0.158 C  
BRANCH  22  23
HETATM   23  C   UNL     1     -10.515   3.869  64.063  1.00  0.00    -0.237 C  
HETATM   24  C   UNL     1      -9.996   3.827  62.632  1.00  0.00    -0.143 C  
ENDBRANCH  22  23
ENDBRANCH  21  22
ENDBRANCH  20  21
ENDBRANCH  19  20
ENDBRANCH  17  19
ENDBRANCH  13  14
ENDBRANCH  12  13
BRANCH  12  25
HETATM   25  O   UNL     1      -7.473   7.503  72.366  1.00  0.00    -0.070 OA 
BRANCH  25  26
HETATM   26  C   UNL     1      -8.564   7.926  73.065  1.00  0.00    -0.188 C  
HETATM   27  O   UNL     1      -8.714   9.034  73.566  1.00  0.00     0.040 OA 
BRANCH  26  28
HETATM   28  C   UNL     1      -9.623   6.829  73.135  1.00  0.00    -0.155 C  
BRANCH  28  29
HETATM   29  C   UNL     1     -11.047   7.402  73.071  1.00  0.00    -0.390 C  
HETATM   30  C   UNL     1     -11.365   7.615  70.518  1.00  0.00    -0.266 C  
HETATM   31  C   UNL     1     -12.758   8.947  72.088  1.00  0.00    -0.470 C  
HETATM   32  C   UNL     1     -11.376   8.324  71.874  1.00  0.00    -0.372 C  
ENDBRANCH  28  29
BRANCH  28  33
HETATM   33  N   UNL     1      -9.382   6.018  74.327  1.00  0.00    -0.136 N  
HETATM   34  C   UNL     1      -9.069   4.690  74.266  1.00  0.00    -0.110 C  
HETATM   35  O   UNL     1      -9.001   4.025  73.244  1.00  0.00    -0.103 OA 
HETATM   36  H   UNL     1      -9.449   6.463  75.243  1.00  0.00     0.000 HD 
ENDBRANCH  28  33
ENDBRANCH  26  28
ENDBRANCH  25  26
ENDBRANCH  12  25
ENDBRANCH  11  12
ENDBRANCH  10  11
ENDBRANCH   9  10
ENDBRANCH   8   9
ENDBRANCH   7   8
ENDBRANCH   6   7
ENDBRANCH   5   6
ENDBRANCH   4   5
ENDBRANCH   3   4
ENDBRANCH   2   3
TORSDOF 22
ENDMDL
MODEL      403
REMARK 921   NORMALIZED FREE ENERGY PREDICTED BY IDOCK:   -2.68 KCAL/MOL
REMARK 922        TOTAL FREE ENERGY PREDICTED BY IDOCK:   -9.75 KCAL/MOL
REMARK 923 INTER-LIGAND FREE ENERGY PREDICTED BY IDOCK:   -7.60 KCAL/MOL
REMARK 924 INTRA-LIGAND FREE ENERGY PREDICTED BY IDOCK:   -2.16 KCAL/MOL
REMARK 927      BINDING AFFINITY PREDICTED BY RF-SCORE:    0.00 PKD
ROOT
HETATM    1  C   UNL     1      -9.687  15.793  66.043  1.00  0.00    -0.377 C  
HETATM    2  C   UNL     1     -10.809  16.023  65.044  1.00  0.00    -0.421 C  
ENDROOT
BRANCH   2   3
HETATM    3  C   UNL     1     -11.289  14.700  64.454  1.00  0.00    -0.238 C  
BRANCH   3   4
HETATM    4  C   UNL     1     -10.524  13.513  65.030  1.00  0.00    -0.390 C  
BRANCH   4   5
HETATM    5  C   UNL     1     -11.483  12.382  65.410  1.00  0.00    -0.402 C  
BRANCH   5   6
HETATM    6  C   UNL     1     -11.146  11.113  64.639  1.00  0.00    -0.154 C  
BRANCH   6   7
HETATM    7  C   UNL     1      -9.765  10.562  65.000  1.00  0.00    -0.351 C  
BRANCH   7   8
HETATM    8  C   UNL     1      -9.943   9.426  66.000  1.00  0.00    -0.352 C  
BRANCH   8   9
HETATM    9  C   UNL     1      -9.669   9.824  67.447  1.00  0.00    -0.202 C  
BRANCH   9  10
HETATM   10  C   UNL     1     -10.339   8.795  68.363  1.00  0.00    -0.242 C  
BRANCH  10  11
HETATM   11  C   UNL     1      -9.378   7.781  68.964  1.00  0.00    -0.150 C  
BRANCH  11  12
HETATM   12  C   UNL     1     -10.001   6.474  69.487  1.00  0.00    -0.159 C  
BRANCH  12  13
HETATM   13  C   UNL     1     -11.529   6.515  69.710  1.00  0.00    -0.443 C  
BRANCH  13  14
HETATM   14  C   UNL     1     -11.951   6.616  71.181  1.00  0.00    -0.357 C  
HETATM   15  O   UNL     1     -13.321   7.086  71.336  1.00  0.00    -0.354 OA 
HETATM   16  O   UNL     1     -13.647   9.060  72.482  1.00  0.00    -0.461 OA 
HETATM   17  C   UNL     1     -11.444   7.865  71.956  1.00  0.00    -0.351 C  
HETATM   18  C   UNL     1     -12.947   8.189  72.022  1.00  0.00    -0.305 C  
BRANCH  17  19
HETATM   19  C   UNL     1     -10.792   7.704  73.325  1.00  0.00    -0.379 C  
BRANCH  19  20
HETATM   20  C   UNL     1      -9.398   7.099  73.187  1.00  0.00    -0.193 C  
BRANCH  20  21
HETATM   21  C   UNL     1      -8.387   7.812  74.089  1.00  0.00    -0.297 C  
BRANCH  21  22
HETATM   22  C   UNL     1      -7.222   8.377  73.273  1.00  0.00    -0.114 C  
BRANCH  22  23
HETATM   23  C   UNL     1      -7.606   8.592  71.809  1.00  0.00    -0.125 C  
HETATM   24  C   UNL     1      -6.379   8.892  70.959  1.00  0.00    -0.056 C  
ENDBRANCH  22  23
ENDBRANCH  21  22
ENDBRANCH  20  21
ENDBRANCH  19  20
ENDBRANCH  17  19
ENDBRANCH  13  14
ENDBRANCH  12  13
BRANCH  12  25
HETATM   25  O   UNL     1      -9.728   5.378  68.584  1.00  0.00    -0.123 OA 
BRANCH  25  26
HETATM   26  C   UNL     1      -9.250   4.223  69.125  1.00  0.00    -0.145 C  
HETATM   27  O   UNL     1      -9.875   3.452  69.845  1.00  0.00    -0.104 OA 
BRANCH  26  28
HETATM   28  C   UNL     1      -7.805   3.982  68.701  1.00  0.00    -0.068 C  
BRANCH  28  29
HETATM   29  C   UNL     1      -6.804   4.557  69.716  1.00  0.00    -0.041 C  
HETATM   30  C   UNL     1      -6.401   2.494  71.214  1.00  0.00    -0.019 C  
HETATM   31  C   UNL     1      -5.920   4.786  72.049  1.00  0.00    -0.017 C  
HETATM   32  C   UNL     1      -6.835   3.959  71.141  1.00  0.00    -0.032 C  
ENDBRANCH  28  29
BRANCH  28  33
HETATM   33  N   UNL     1      -7.618   4.506  67.348  1.00  0.00    -0.081 N  
HETATM   34  C   UNL     1      -6.857   5.608  67.082  1.00  0.00    -0.064 C  
HETATM   35  O   UNL     1      -6.295   6.299  67.918  1.00  0.00    -0.030 OA 
HETATM   36  H   UNL     1      -8.075   4.027  66.571  1.00  0.00     0.000 HD 
ENDBRANCH  28  33
ENDBRANCH  26  28
ENDBRANCH  25  26
ENDBRANCH  12  25
ENDBRANCH  11  12
ENDBRANCH  10  11
ENDBRANCH   9  10
ENDBRANCH   8   9
ENDBRANCH   7   8
ENDBRANCH   6   7
ENDBRANCH   5   6
ENDBRANCH   4   5
ENDBRANCH   3   4
ENDBRANCH   2   3
TORSDOF 22
ENDMDL
MODEL      404
REMARK 921   NORMALIZED FREE ENERGY PREDICTED BY IDOCK:   -2.68 KCAL/MOL
REMARK 922        TOTAL FREE ENERGY PREDICTED BY IDOCK:   -9.74 KCAL/MOL
REMARK 923 INTER-LIGAND FREE ENERGY PREDICTED BY IDOCK:   -6.46 KCAL/MOL
REMARK 924 INTRA-LIGAND FREE ENERGY PREDICTED BY IDOCK:   -3.28 KCAL/MOL
REMARK 927      BINDING AFFINITY PREDICTED BY RF-SCORE:    0.00 PKD
ROOT
HETATM    1  C   UNL     1     -11.451  13.647  69.050  1.00  0.00    -0.346 C  
HETATM    2  C   UNL     1     -11.795  13.061  67.691  1.00  0.00    -0.401 C  
ENDROOT
BRANCH   2   3
HETATM    3  C   UNL     1     -10.532  12.640  66.946  1.00  0.00    -0.246 C  
BRANCH   3   4
HETATM    4  C   UNL     1      -9.298  13.370  67.467  1.00  0.00    -0.218 C  
BRANCH   4   5
HETATM    5  C   UNL     1      -8.130  12.399  67.652  1.00  0.00    -0.168 C  
BRANCH   5   6
HETATM    6  C   UNL     1      -8.540  11.235  68.545  1.00  0.00    -0.156 C  
BRANCH   6   7
HETATM    7  C   UNL     1      -7.522  10.092  68.517  1.00  0.00    -0.086 C  
BRANCH   7   8
HETATM    8  C   UNL     1      -7.791   9.235  67.285  1.00  0.00    -0.099 C  
BRANCH   8   9
HETATM    9  C   UNL     1      -9.256   9.196  66.863  1.00  0.00    -0.183 C  
BRANCH   9  10
HETATM   10  C   UNL     1      -9.619   7.747  66.523  1.00  0.00    -0.270 C  
BRANCH  10  11
HETATM   11  C   UNL     1     -10.783   7.194  67.331  1.00  0.00    -0.368 C  
BRANCH  11  12
HETATM   12  C   UNL     1     -10.446   6.085  68.344  1.00  0.00    -0.238 C  
BRANCH  12  13
HETATM   13  C   UNL     1      -8.979   6.053  68.825  1.00  0.00    -0.118 C  
BRANCH  13  14
HETATM   14  C   UNL     1      -8.368   4.648  68.901  1.00  0.00    -0.081 C  
HETATM   15  O   UNL     1      -7.837   4.343  70.222  1.00  0.00    -0.058 OA 
HETATM   16  O   UNL     1      -5.583   3.893  70.386  1.00  0.00    -0.012 OA 
HETATM   17  C   UNL     1      -6.944   4.487  68.300  1.00  0.00    -0.056 C  
HETATM   18  C   UNL     1      -6.576   4.181  69.764  1.00  0.00    -0.033 C  
BRANCH  17  19
HETATM   19  C   UNL     1      -6.643   3.339  67.342  1.00  0.00    -0.038 C  
BRANCH  19  20
HETATM   20  C   UNL     1      -7.507   3.446  66.089  1.00  0.00    -0.077 C  
BRANCH  20  21
HETATM   21  C   UNL     1      -7.526   4.876  65.543  1.00  0.00    -0.081 C  
BRANCH  21  22
HETATM   22  C   UNL     1      -8.690   5.081  64.571  1.00  0.00    -0.132 C  
BRANCH  22  23
HETATM   23  C   UNL     1      -9.953   4.356  65.036  1.00  0.00    -0.165 C  
HETATM   24  C   UNL     1     -10.546   3.514  63.915  1.00  0.00    -0.269 C  
ENDBRANCH  22  23
ENDBRANCH  21  22
ENDBRANCH  20  21
ENDBRANCH  19  20
ENDBRANCH  17  19
ENDBRANCH  13  14
ENDBRANCH  12  13
BRANCH  12  25
HETATM   25  O   UNL     1     -11.282   6.194  69.520  1.00  0.00    -0.389 OA 
BRANCH  25  26
HETATM   26  C   UNL     1     -10.958   7.151  70.432  1.00  0.00    -0.265 C  
HETATM   27  O   UNL     1     -10.736   8.333  70.189  1.00  0.00    -0.234 OA 
BRANCH  26  28
HETATM   28  C   UNL     1     -10.923   6.570  71.842  1.00  0.00    -0.250 C  
BRANCH  28  29
HETATM   29  C   UNL     1     -10.274   7.536  72.846  1.00  0.00    -0.331 C  
HETATM   30  C   UNL     1      -7.829   7.516  72.018  1.00  0.00    -0.097 C  
HETATM   31  C   UNL     1      -8.380   8.216  74.340  1.00  0.00    -0.204 C  
HETATM   32  C   UNL     1      -8.787   7.289  73.190  1.00  0.00    -0.175 C  
ENDBRANCH  28  29
BRANCH  28  33
HETATM   33  N   UNL     1     -10.269   5.263  71.796  1.00  0.00    -0.203 N  
HETATM   34  C   UNL     1     -10.622   4.230  72.617  1.00  0.00    -0.140 C  
HETATM   35  O   UNL     1     -11.468   4.282  73.495  1.00  0.00    -0.271 OA 
HETATM   36  H   UNL     1      -9.517   5.116  71.121  1.00  0.00     0.000 HD 
ENDBRANCH  28  33
ENDBRANCH  26  28
ENDBRANCH  25  26
ENDBRANCH  12  25
ENDBRANCH  11  12
ENDBRANCH  10  11
ENDBRANCH   9  10
ENDBRANCH   8   9
ENDBRANCH   7   8
ENDBRANCH   6   7
ENDBRANCH   5   6
ENDBRANCH   4   5
ENDBRANCH   3   4
ENDBRANCH   2   3
TORSDOF 22
ENDMDL
MODEL      405
REMARK 921   NORMALIZED FREE ENERGY PREDICTED BY IDOCK:   -2.67 KCAL/MOL
REMARK 922        TOTAL FREE ENERGY PREDICTED BY IDOCK:   -9.72 KCAL/MOL
REMARK 923 INTER-LIGAND FREE ENERGY PREDICTED BY IDOCK:   -7.34 KCAL/MOL
REMARK 924 INTRA-LIGAND FREE ENERGY PREDICTED BY IDOCK:   -2.37 KCAL/MOL
REMARK 927      BINDING AFFINITY PREDICTED BY RF-SCORE:    0.00 PKD
ROOT
HETATM    1  C   UNL     1     -10.842  19.452  65.519  1.00  0.00    -0.204 C  
HETATM    2  C   UNL     1      -9.693  20.076  66.294  1.00  0.00    -0.546 C  
ENDROOT
BRANCH   2   3
HETATM    3  C   UNL     1      -9.654  19.548  67.725  1.00  0.00    -0.443 C  
BRANCH   3   4
HETATM    4  C   UNL     1      -9.852  18.036  67.777  1.00  0.00    -0.306 C  
BRANCH   4   5
HETATM    5  C   UNL     1     -10.517  17.620  69.090  1.00  0.00    -0.128 C  
BRANCH   5   6
HETATM    6  C   UNL     1     -10.973  16.169  69.023  1.00  0.00    -0.312 C  
BRANCH   6   7
HETATM    7  C   UNL     1     -10.684  15.406  70.317  1.00  0.00    -0.320 C  
BRANCH   7   8
HETATM    8  C   UNL     1     -11.091  13.950  70.122  1.00  0.00     0.164 C  
BRANCH   8   9
HETATM    9  C   UNL     1     -12.487  13.620  70.639  1.00  0.00    -0.417 C  
BRANCH   9  10
HETATM   10  C   UNL     1     -12.897  12.256  70.075  1.00  0.00     0.471 C  
BRANCH  10  11
HETATM   11  C   UNL     1     -11.794  11.210  70.117  1.00  0.00    -0.449 C  
BRANCH  11  12
HETATM   12  C   UNL     1     -10.684  11.345  69.059  1.00  0.00    -0.205 C  
BRANCH  12  13
HETATM   13  C   UNL     1      -9.604  10.241  69.090  1.00  0.00    -0.229 C  
BRANCH  13  14
HETATM   14  C   UNL     1      -9.996   8.952  68.356  1.00  0.00    -0.178 C  
HETATM   15  O   UNL     1     -10.229   7.842  69.268  1.00  0.00    -0.201 OA 
HETATM   16  O   UNL     1      -8.881   5.985  69.053  1.00  0.00    -0.121 OA 
HETATM   17  C   UNL     1      -8.833   8.157  67.699  1.00  0.00    -0.136 C  
HETATM   18  C   UNL     1      -9.236   7.095  68.737  1.00  0.00    -0.136 C  
BRANCH  17  19
HETATM   19  C   UNL     1      -8.953   7.678  66.256  1.00  0.00    -0.203 C  
BRANCH  19  20
HETATM   20  C   UNL     1      -7.816   6.721  65.912  1.00  0.00    -0.103 C  
BRANCH  20  21
HETATM   21  C   UNL     1      -7.145   7.100  64.589  1.00  0.00    -0.061 C  
BRANCH  21  22
HETATM   22  C   UNL     1      -7.115   8.618  64.401  1.00  0.00    -0.085 C  
BRANCH  22  23
HETATM   23  C   UNL     1      -7.254   9.011  62.930  1.00  0.00    -0.095 C  
HETATM   24  C   UNL     1      -8.593   8.558  62.364  1.00  0.00    -0.132 C  
ENDBRANCH  22  23
ENDBRANCH  21  22
ENDBRANCH  20  21
ENDBRANCH  19  20
ENDBRANCH  17  19
ENDBRANCH  13  14
ENDBRANCH  12  13
BRANCH  12  25
HETATM   25  O   UNL     1     -11.245  11.360  67.726  1.00  0.00    -0.241 OA 
BRANCH  25  26
HETATM   26  C   UNL     1     -11.135  12.515  67.011  1.00  0.00    -0.281 C  
HETATM   27  O   UNL     1     -12.015  13.355  66.859  1.00  0.00    -0.382 OA 
BRANCH  26  28
HETATM   28  C   UNL     1      -9.735  12.657  66.421  1.00  0.00    -0.258 C  
BRANCH  28  29
HETATM   29  C   UNL     1      -8.926  13.761  67.121  1.00  0.00    -0.241 C  
HETATM   30  C   UNL     1      -6.827  12.439  67.833  1.00  0.00    -0.099 C  
HETATM   31  C   UNL     1      -7.437  14.565  68.968  1.00  0.00    -0.131 C  
HETATM   32  C   UNL     1      -7.997  13.320  68.275  1.00  0.00    -0.144 C  
ENDBRANCH  28  29
BRANCH  28  33
HETATM   33  N   UNL     1      -9.852  12.857  64.977  1.00  0.00    -0.511 N  
HETATM   34  C   UNL     1     -10.238  11.864  64.123  1.00  0.00    -0.330 C  
HETATM   35  O   UNL     1     -10.480  10.710  64.442  1.00  0.00    -0.350 OA 
HETATM   36  H   UNL     1      -9.637  13.777  64.592  1.00  0.00     0.000 HD 
ENDBRANCH  28  33
ENDBRANCH  26  28
ENDBRANCH  25  26
ENDBRANCH  12  25
ENDBRANCH  11  12
ENDBRANCH  10  11
ENDBRANCH   9  10
ENDBRANCH   8   9
ENDBRANCH   7   8
ENDBRANCH   6   7
ENDBRANCH   5   6
ENDBRANCH   4   5
ENDBRANCH   3   4
ENDBRANCH   2   3
TORSDOF 22
ENDMDL
MODEL      406
REMARK 921   NORMALIZED FREE ENERGY PREDICTED BY IDOCK:   -2.65 KCAL/MOL
REMARK 922        TOTAL FREE ENERGY PREDICTED BY IDOCK:   -9.68 KCAL/MOL
REMARK 923 INTER-LIGAND FREE ENERGY PREDICTED BY IDOCK:   -7.27 KCAL/MOL
REMARK 924 INTRA-LIGAND FREE ENERGY PREDICTED BY IDOCK:   -2.40 KCAL/MOL
REMARK 927      BINDING AFFINITY PREDICTED BY RF-SCORE:    0.00 PKD
ROOT
HETATM    1  C   UNL     1      -9.559   4.017  62.957  1.00  0.00    -0.143 C  
HETATM    2  C   UNL     1      -9.792   3.098  64.145  1.00  0.00    -0.163 C  
ENDROOT
BRANCH   2   3
HETATM    3  C   UNL     1      -8.857   3.454  65.298  1.00  0.00    -0.126 C  
BRANCH   3   4
HETATM    4  C   UNL     1      -7.712   4.353  64.841  1.00  0.00    -0.081 C  
BRANCH   4   5
HETATM    5  C   UNL     1      -7.858   5.758  65.430  1.00  0.00    -0.107 C  
BRANCH   5   6
HETATM    6  C   UNL     1      -6.513   6.270  65.928  1.00  0.00    -0.046 C  
BRANCH   6   7
HETATM    7  C   UNL     1      -6.333   7.770  65.685  1.00  0.00    -0.042 C  
BRANCH   7   8
HETATM    8  C   UNL     1      -7.059   8.142  64.397  1.00  0.00    -0.078 C  
BRANCH   8   9
HETATM    9  C   UNL     1      -7.841   9.449  64.481  1.00  0.00    -0.121 C  
BRANCH   9  10
HETATM   10  C   UNL     1      -7.399  10.192  65.745  1.00  0.00    -0.128 C  
BRANCH  10  11
HETATM   11  C   UNL     1      -8.443  11.148  66.299  1.00  0.00    -0.168 C  
BRANCH  11  12
HETATM   12  C   UNL     1      -8.471  11.319  67.829  1.00  0.00    -0.126 C  
BRANCH  12  13
HETATM   13  C   UNL     1      -8.781  12.747  68.329  1.00  0.00    -0.168 C  
BRANCH  13  14
HETATM   14  C   UNL     1     -10.177  13.259  67.954  1.00  0.00    -0.233 C  
HETATM   15  O   UNL     1     -10.127  14.377  67.021  1.00  0.00    -0.251 OA 
HETATM   16  O   UNL     1     -11.025  16.383  67.714  1.00  0.00    -0.325 OA 
HETATM   17  C   UNL     1     -10.876  14.173  68.999  1.00  0.00    -0.273 C  
HETATM   18  C   UNL     1     -10.738  15.222  67.881  1.00  0.00    -0.275 C  
BRANCH  17  19
HETATM   19  C   UNL     1     -12.319  13.903  69.409  1.00  0.00    -0.240 C  
BRANCH  19  20
HETATM   20  C   UNL     1     -12.402  13.575  70.897  1.00  0.00    -0.437 C  
BRANCH  20  21
HETATM   21  C   UNL     1     -13.760  13.971  71.483  1.00  0.00    -0.356 C  
BRANCH  21  22
HETATM   22  C   UNL     1     -13.773  15.442  71.904  1.00  0.00    -0.603 C  
BRANCH  22  23
HETATM   23  C   UNL     1     -13.298  15.624  73.346  1.00  0.00    -0.553 C  
HETATM   24  C   UNL     1     -12.106  16.569  73.416  1.00  0.00    -0.474 C  
ENDBRANCH  22  23
ENDBRANCH  21  22
ENDBRANCH  20  21
ENDBRANCH  19  20
ENDBRANCH  17  19
ENDBRANCH  13  14
ENDBRANCH  12  13
BRANCH  12  25
HETATM   25  O   UNL     1      -9.447  10.433  68.426  1.00  0.00    -0.141 OA 
BRANCH  25  26
HETATM   26  C   UNL     1      -9.002   9.552  69.365  1.00  0.00    -0.172 C  
HETATM   27  O   UNL     1      -8.633   9.833  70.500  1.00  0.00    -0.160 OA 
BRANCH  26  28
HETATM   28  C   UNL     1      -9.039   8.123  68.830  1.00  0.00    -0.147 C  
BRANCH  28  29
HETATM   29  C   UNL     1      -7.712   7.386  69.073  1.00  0.00    -0.118 C  
HETATM   30  C   UNL     1      -8.451   4.939  68.715  1.00  0.00    -0.089 C  
HETATM   31  C   UNL     1      -6.395   5.471  70.009  1.00  0.00    -0.033 C  
HETATM   32  C   UNL     1      -7.804   5.958  69.656  1.00  0.00    -0.097 C  
ENDBRANCH  28  29
BRANCH  28  33
HETATM   33  N   UNL     1      -9.429   8.158  67.422  1.00  0.00    -0.150 N  
HETATM   34  C   UNL     1     -10.432   7.384  66.914  1.00  0.00    -0.309 C  
HETATM   35  O   UNL     1     -11.077   6.558  67.542  1.00  0.00    -0.341 OA 
HETATM   36  H   UNL     1      -8.930   8.788  66.792  1.00  0.00     0.000 HD 
ENDBRANCH  28  33
ENDBRANCH  26  28
ENDBRANCH  25  26
ENDBRANCH  12  25
ENDBRANCH  11  12
ENDBRANCH  10  11
ENDBRANCH   9  10
ENDBRANCH   8   9
ENDBRANCH   7   8
ENDBRANCH   6   7
ENDBRANCH   5   6
ENDBRANCH   4   5
ENDBRANCH   3   4
ENDBRANCH   2   3
TORSDOF 22
ENDMDL
MODEL      407
REMARK 921   NORMALIZED FREE ENERGY PREDICTED BY IDOCK:   -2.64 KCAL/MOL
REMARK 922        TOTAL FREE ENERGY PREDICTED BY IDOCK:   -9.66 KCAL/MOL
REMARK 923 INTER-LIGAND FREE ENERGY PREDICTED BY IDOCK:   -6.70 KCAL/MOL
REMARK 924 INTRA-LIGAND FREE ENERGY PREDICTED BY IDOCK:   -2.97 KCAL/MOL
REMARK 927      BINDING AFFINITY PREDICTED BY RF-SCORE:    0.00 PKD
ROOT
HETATM    1  C   UNL     1     -12.313  13.473  70.382  1.00  0.00    -0.397 C  
HETATM    2  C   UNL     1     -11.867  14.718  71.132  1.00  0.00    -0.387 C  
ENDROOT
BRANCH   2   3
HETATM    3  C   UNL     1     -11.421  15.806  70.159  1.00  0.00    -0.366 C  
BRANCH   3   4
HETATM    4  C   UNL     1      -9.997  15.573  69.663  1.00  0.00    -0.287 C  
BRANCH   4   5
HETATM    5  C   UNL     1      -9.765  16.281  68.327  1.00  0.00    -0.222 C  
BRANCH   5   6
HETATM    6  C   UNL     1     -10.885  15.954  67.347  1.00  0.00    -0.291 C  
BRANCH   6   7
HETATM    7  C   UNL     1     -10.802  14.519  66.823  1.00  0.00    -0.305 C  
BRANCH   7   8
HETATM    8  C   UNL     1     -12.151  14.145  66.221  1.00  0.00    -0.463 C  
BRANCH   8   9
HETATM    9  C   UNL     1     -12.239  12.698  65.747  1.00  0.00    -0.427 C  
BRANCH   9  10
HETATM   10  C   UNL     1     -11.240  11.866  66.558  1.00  0.00    -0.383 C  
BRANCH  10  11
HETATM   11  C   UNL     1     -10.520  10.799  65.748  1.00  0.00    -0.256 C  
BRANCH  11  12
HETATM   12  C   UNL     1      -9.771   9.720  66.551  1.00  0.00    -0.209 C  
BRANCH  12  13
HETATM   13  C   UNL     1     -10.649   8.566  67.084  1.00  0.00    -0.314 C  
BRANCH  13  14
HETATM   14  C   UNL     1     -10.800   8.539  68.610  1.00  0.00     0.060 C  
HETATM   15  O   UNL     1     -10.111   9.646  69.257  1.00  0.00    -0.175 OA 
HETATM   16  O   UNL     1      -8.423   9.130  70.740  1.00  0.00    -0.184 OA 
HETATM   17  C   UNL     1      -9.888   7.537  69.372  1.00  0.00    -0.166 C  
HETATM   18  C   UNL     1      -9.290   8.830  69.955  1.00  0.00    -0.168 C  
BRANCH  17  19
HETATM   19  C   UNL     1     -10.482   6.608  70.425  1.00  0.00    -0.249 C  
BRANCH  19  20
HETATM   20  C   UNL     1      -9.438   5.605  70.907  1.00  0.00    -0.202 C  
BRANCH  20  21
HETATM   21  C   UNL     1     -10.091   4.414  71.614  1.00  0.00    -0.230 C  
BRANCH  21  22
HETATM   22  C   UNL     1      -9.228   3.922  72.777  1.00  0.00    -0.137 C  
BRANCH  22  23
HETATM   23  C   UNL     1      -9.921   2.813  73.569  1.00  0.00    -0.168 C  
HETATM   24  C   UNL     1      -9.127   1.515  73.505  1.00  0.00    -0.065 C  
ENDBRANCH  22  23
ENDBRANCH  21  22
ENDBRANCH  20  21
ENDBRANCH  19  20
ENDBRANCH  17  19
ENDBRANCH  13  14
ENDBRANCH  12  13
BRANCH  12  25
HETATM   25  O   UNL     1      -8.719   9.126  65.755  1.00  0.00    -0.145 OA 
BRANCH  25  26
HETATM   26  C   UNL     1      -7.558   8.804  66.391  1.00  0.00    -0.091 C  
HETATM   27  O   UNL     1      -6.893   9.552  67.100  1.00  0.00    -0.081 OA 
BRANCH  26  28
HETATM   28  C   UNL     1      -7.179   7.350  66.128  1.00  0.00    -0.077 C  
BRANCH  28  29
HETATM   29  C   UNL     1      -6.302   6.774  67.251  1.00  0.00    -0.047 C  
HETATM   30  C   UNL     1      -7.423   4.476  67.604  1.00  0.00    -0.074 C  
HETATM   31  C   UNL     1      -6.016   5.491  69.384  1.00  0.00    -0.020 C  
HETATM   32  C   UNL     1      -6.983   5.797  68.237  1.00  0.00    -0.069 C  
ENDBRANCH  28  29
BRANCH  28  33
HETATM   33  N   UNL     1      -6.558   7.258  64.808  1.00  0.00    -0.040 N  
HETATM   34  C   UNL     1      -7.239   6.844  63.698  1.00  0.00    -0.067 C  
HETATM   35  O   UNL     1      -8.401   6.468  63.681  1.00  0.00     0.007 OA 
HETATM   36  H   UNL     1      -5.575   7.513  64.711  1.00  0.00     0.000 HD 
ENDBRANCH  28  33
ENDBRANCH  26  28
ENDBRANCH  25  26
ENDBRANCH  12  25
ENDBRANCH  11  12
ENDBRANCH  10  11
ENDBRANCH   9  10
ENDBRANCH   8   9
ENDBRANCH   7   8
ENDBRANCH   6   7
ENDBRANCH   5   6
ENDBRANCH   4   5
ENDBRANCH   3   4
ENDBRANCH   2   3
TORSDOF 22
ENDMDL
MODEL      408
REMARK 921   NORMALIZED FREE ENERGY PREDICTED BY IDOCK:   -2.63 KCAL/MOL
REMARK 922        TOTAL FREE ENERGY PREDICTED BY IDOCK:   -9.63 KCAL/MOL
REMARK 923 INTER-LIGAND FREE ENERGY PREDICTED BY IDOCK:   -7.74 KCAL/MOL
REMARK 924 INTRA-LIGAND FREE ENERGY PREDICTED BY IDOCK:   -1.89 KCAL/MOL
REMARK 927      BINDING AFFINITY PREDICTED BY RF-SCORE:    0.00 PKD
ROOT
HETATM    1  C   UNL     1     -10.082   2.809  74.301  1.00  0.00    -0.175 C  
HETATM    2  C   UNL     1     -11.313   3.485  73.720  1.00  0.00    -0.158 C  
ENDROOT
BRANCH   2   3
HETATM    3  C   UNL     1     -11.055   4.970  73.480  1.00  0.00    -0.386 C  
BRANCH   3   4
HETATM    4  C   UNL     1     -10.892   5.284  71.996  1.00  0.00    -0.230 C  
BRANCH   4   5
HETATM    5  C   UNL     1      -9.751   6.278  71.774  1.00  0.00    -0.168 C  
BRANCH   5   6
HETATM    6  C   UNL     1      -8.462   5.545  71.426  1.00  0.00    -0.127 C  
BRANCH   6   7
HETATM    7  C   UNL     1      -7.905   5.960  70.063  1.00  0.00    -0.100 C  
BRANCH   7   8
HETATM    8  C   UNL     1      -8.409   7.361  69.740  1.00  0.00    -0.134 C  
BRANCH   8   9
HETATM    9  C   UNL     1      -7.309   8.339  69.338  1.00  0.00    -0.074 C  
BRANCH   9  10
HETATM   10  C   UNL     1      -7.954   9.702  69.067  1.00  0.00    -0.088 C  
BRANCH  10  11
HETATM   11  C   UNL     1      -8.014  10.078  67.595  1.00  0.00    -0.105 C  
BRANCH  11  12
HETATM   12  C   UNL     1      -9.404  10.428  67.034  1.00  0.00    -0.154 C  
BRANCH  12  13
HETATM   13  C   UNL     1      -9.452  11.668  66.114  1.00  0.00    -0.240 C  
BRANCH  13  14
HETATM   14  C   UNL     1     -10.461  12.738  66.547  1.00  0.00    -0.263 C  
HETATM   15  O   UNL     1     -11.840  12.293  66.406  1.00  0.00    -0.529 OA 
HETATM   16  O   UNL     1     -13.201  13.479  64.973  1.00  0.00    -0.721 OA 
HETATM   17  C   UNL     1     -10.733  13.877  65.525  1.00  0.00    -0.306 C  
HETATM   18  C   UNL     1     -12.145  13.265  65.517  1.00  0.00    -0.435 C  
BRANCH  17  19
HETATM   19  C   UNL     1     -10.701  15.334  65.975  1.00  0.00    -0.324 C  
BRANCH  19  20
HETATM   20  C   UNL     1     -10.031  15.459  67.340  1.00  0.00    -0.229 C  
BRANCH  20  21
HETATM   21  C   UNL     1      -9.095  16.670  67.396  1.00  0.00    -0.206 C  
BRANCH  21  22
HETATM   22  C   UNL     1      -8.985  17.345  66.027  1.00  0.00    -0.086 C  
BRANCH  22  23
HETATM   23  C   UNL     1      -9.112  18.865  66.132  1.00  0.00    -0.175 C  
HETATM   24  C   UNL     1     -10.570  19.288  66.246  1.00  0.00    -0.545 C  
ENDBRANCH  22  23
ENDBRANCH  21  22
ENDBRANCH  20  21
ENDBRANCH  19  20
ENDBRANCH  17  19
ENDBRANCH  13  14
ENDBRANCH  12  13
BRANCH  12  25
HETATM   25  O   UNL     1      -9.949   9.316  66.286  1.00  0.00    -0.269 OA 
BRANCH  25  26
HETATM   26  C   UNL     1      -9.067   8.427  65.752  1.00  0.00    -0.139 C  
HETATM   27  O   UNL     1      -8.292   8.647  64.827  1.00  0.00    -0.153 OA 
BRANCH  26  28
HETATM   28  C   UNL     1      -9.141   7.086  66.476  1.00  0.00    -0.156 C  
BRANCH  28  29
HETATM   29  C   UNL     1      -7.911   6.210  66.191  1.00  0.00    -0.105 C  
HETATM   30  C   UNL     1      -8.395   5.477  63.764  1.00  0.00    -0.075 C  
HETATM   31  C   UNL     1      -6.837   4.175  65.199  1.00  0.00    -0.053 C  
HETATM   32  C   UNL     1      -8.102   5.039  65.200  1.00  0.00    -0.112 C  
ENDBRANCH  28  29
BRANCH  28  33
HETATM   33  N   UNL     1     -10.404   6.434  66.130  1.00  0.00    -0.406 N  
HETATM   34  C   UNL     1     -11.279   5.971  67.071  1.00  0.00    -0.002 C  
HETATM   35  O   UNL     1     -11.100   6.002  68.279  1.00  0.00    -0.309 OA 
HETATM   36  H   UNL     1     -10.641   6.320  65.144  1.00  0.00     0.000 HD 
ENDBRANCH  28  33
ENDBRANCH  26  28
ENDBRANCH  25  26
ENDBRANCH  12  25
ENDBRANCH  11  12
ENDBRANCH  10  11
ENDBRANCH   9  10
ENDBRANCH   8   9
ENDBRANCH   7   8
ENDBRANCH   6   7
ENDBRANCH   5   6
ENDBRANCH   4   5
ENDBRANCH   3   4
ENDBRANCH   2   3
TORSDOF 22
ENDMDL
MODEL      409
REMARK 921   NORMALIZED FREE ENERGY PREDICTED BY IDOCK:   -2.60 KCAL/MOL
REMARK 922        TOTAL FREE ENERGY PREDICTED BY IDOCK:   -9.55 KCAL/MOL
REMARK 923 INTER-LIGAND FREE ENERGY PREDICTED BY IDOCK:   -7.28 KCAL/MOL
REMARK 924 INTRA-LIGAND FREE ENERGY PREDICTED BY IDOCK:   -2.28 KCAL/MOL
REMARK 927      BINDING AFFINITY PREDICTED BY RF-SCORE:    0.00 PKD
ROOT
HETATM    1  C   UNL     1      -9.624   3.993  62.961  1.00  0.00    -0.143 C  
HETATM    2  C   UNL     1     -10.496   3.728  64.177  1.00  0.00    -0.267 C  
ENDROOT
BRANCH   2   3
HETATM    3  C   UNL     1     -10.025   4.552  65.372  1.00  0.00    -0.207 C  
BRANCH   3   4
HETATM    4  C   UNL     1      -8.601   5.066  65.180  1.00  0.00    -0.148 C  
BRANCH   4   5
HETATM    5  C   UNL     1      -8.528   6.571  65.443  1.00  0.00    -0.119 C  
BRANCH   5   6
HETATM    6  C   UNL     1      -7.811   6.850  66.757  1.00  0.00    -0.107 C  
BRANCH   6   7
HETATM    7  C   UNL     1      -7.025   8.162  66.727  1.00  0.00    -0.073 C  
BRANCH   7   8
HETATM    8  C   UNL     1      -6.633   8.458  65.284  1.00  0.00    -0.056 C  
BRANCH   8   9
HETATM    9  C   UNL     1      -6.662   9.940  64.925  1.00  0.00    -0.123 C  
BRANCH   9  10
HETATM   10  C   UNL     1      -6.255  10.742  66.165  1.00  0.00    -0.134 C  
BRANCH  10  11
HETATM   11  C   UNL     1      -7.294  11.758  66.614  1.00  0.00     0.021 C  
BRANCH  11  12
HETATM   12  C   UNL     1      -7.467  11.932  68.134  1.00  0.00    -0.100 C  
BRANCH  12  13
HETATM   13  C   UNL     1      -8.238  13.198  68.570  1.00  0.00    -0.076 C  
BRANCH  13  14
HETATM   14  C   UNL     1      -8.402  14.250  67.466  1.00  0.00    -0.188 C  
HETATM   15  O   UNL     1      -7.228  15.100  67.328  1.00  0.00    -0.202 OA 
HETATM   16  O   UNL     1      -7.499  17.360  67.690  1.00  0.00    -0.178 OA 
HETATM   17  C   UNL     1      -9.253  15.499  67.830  1.00  0.00    -0.187 C  
HETATM   18  C   UNL     1      -7.911  16.226  67.631  1.00  0.00    -0.145 C  
BRANCH  17  19
HETATM   19  C   UNL     1     -10.354  15.977  66.889  1.00  0.00    -0.289 C  
BRANCH  19  20
HETATM   20  C   UNL     1     -10.051  15.559  65.453  1.00  0.00    -0.387 C  
BRANCH  20  21
HETATM   21  C   UNL     1     -11.239  15.837  64.528  1.00  0.00    -0.334 C  
BRANCH  21  22
HETATM   22  C   UNL     1     -12.211  14.656  64.508  1.00  0.00    -0.473 C  
BRANCH  22  23
HETATM   23  C   UNL     1     -11.478  13.315  64.556  1.00  0.00    -0.399 C  
HETATM   24  C   UNL     1     -11.888  12.509  65.781  1.00  0.00    -0.494 C  
ENDBRANCH  22  23
ENDBRANCH  21  22
ENDBRANCH  20  21
ENDBRANCH  19  20
ENDBRANCH  17  19
ENDBRANCH  13  14
ENDBRANCH  12  13
BRANCH  12  25
HETATM   25  O   UNL     1      -8.153  10.794  68.706  1.00  0.00    -0.126 OA 
BRANCH  25  26
HETATM   26  C   UNL     1      -9.342  10.433  68.147  1.00  0.00    -0.145 C  
HETATM   27  O   UNL     1      -9.602  10.424  66.949  1.00  0.00    -0.165 OA 
BRANCH  26  28
HETATM   28  C   UNL     1     -10.339  10.006  69.220  1.00  0.00    -0.219 C  
BRANCH  28  29
HETATM   29  C   UNL     1     -10.310   8.488  69.459  1.00  0.00    -0.218 C  
HETATM   30  C   UNL     1      -9.025   8.379  71.695  1.00  0.00    -0.261 C  
HETATM   31  C   UNL     1      -9.145   6.397  70.200  1.00  0.00    -0.154 C  
HETATM   32  C   UNL     1      -9.096   7.927  70.236  1.00  0.00    -0.152 C  
ENDBRANCH  28  29
BRANCH  28  33
HETATM   33  N   UNL     1     -11.664  10.506  68.856  1.00  0.00    -0.502 N  
HETATM   34  C   UNL     1     -12.383  11.345  69.658  1.00  0.00    -0.170 C  
HETATM   35  O   UNL     1     -12.041  11.732  70.765  1.00  0.00    -0.360 OA 
HETATM   36  H   UNL     1     -12.068  10.215  67.965  1.00  0.00     0.000 HD 
ENDBRANCH  28  33
ENDBRANCH  26  28
ENDBRANCH  25  26
ENDBRANCH  12  25
ENDBRANCH  11  12
ENDBRANCH  10  11
ENDBRANCH   9  10
ENDBRANCH   8   9
ENDBRANCH   7   8
ENDBRANCH   6   7
ENDBRANCH   5   6
ENDBRANCH   4   5
ENDBRANCH   3   4
ENDBRANCH   2   3
TORSDOF 22
ENDMDL
MODEL      410
REMARK 921   NORMALIZED FREE ENERGY PREDICTED BY IDOCK:   -2.58 KCAL/MOL
REMARK 922        TOTAL FREE ENERGY PREDICTED BY IDOCK:   -9.53 KCAL/MOL
REMARK 923 INTER-LIGAND FREE ENERGY PREDICTED BY IDOCK:   -7.52 KCAL/MOL
REMARK 924 INTRA-LIGAND FREE ENERGY PREDICTED BY IDOCK:   -2.00 KCAL/MOL
REMARK 927      BINDING AFFINITY PREDICTED BY RF-SCORE:    0.00 PKD
ROOT
HETATM    1  C   UNL     1      -9.571   3.745  70.874  1.00  0.00    -0.256 C  
HETATM    2  C   UNL     1     -10.160   5.143  70.777  1.00  0.00    -0.303 C  
ENDROOT
BRANCH   2   3
HETATM    3  C   UNL     1      -9.822   5.961  72.020  1.00  0.00    -0.181 C  
BRANCH   3   4
HETATM    4  C   UNL     1      -8.492   6.693  71.872  1.00  0.00    -0.114 C  
BRANCH   4   5
HETATM    5  C   UNL     1      -8.276   7.141  70.425  1.00  0.00    -0.126 C  
BRANCH   5   6
HETATM    6  C   UNL     1      -6.944   7.865  70.283  1.00  0.00    -0.049 C  
BRANCH   6   7
HETATM    7  C   UNL     1      -6.614   8.724  71.505  1.00  0.00    -0.080 C  
BRANCH   7   8
HETATM    8  C   UNL     1      -5.504   9.698  71.126  1.00  0.00    -0.064 C  
BRANCH   8   9
HETATM    9  C   UNL     1      -6.006  11.069  70.683  1.00  0.00    -0.079 C  
BRANCH   9  10
HETATM   10  C   UNL     1      -6.164  11.052  69.159  1.00  0.00    -0.049 C  
BRANCH  10  11
HETATM   11  C   UNL     1      -7.603  11.175  68.684  1.00  0.00    -0.127 C  
BRANCH  11  12
HETATM   12  C   UNL     1      -7.992  12.507  68.017  1.00  0.00    -0.153 C  
BRANCH  12  13
HETATM   13  C   UNL     1      -6.808  13.380  67.546  1.00  0.00    -0.154 C  
BRANCH  13  14
HETATM   14  C   UNL     1      -7.003  14.884  67.768  1.00  0.00    -0.175 C  
HETATM   15  O   UNL     1      -5.768  15.555  68.151  1.00  0.00    -0.107 OA 
HETATM   16  O   UNL     1      -5.717  16.602  70.204  1.00  0.00    -0.211 OA 
HETATM   17  C   UNL     1      -7.640  15.300  69.123  1.00  0.00    -0.192 C  
HETATM   18  C   UNL     1      -6.264  15.955  69.343  1.00  0.00    -0.153 C  
BRANCH  17  19
HETATM   19  C   UNL     1      -8.800  16.291  69.153  1.00  0.00    -0.217 C  
BRANCH  19  20
HETATM   20  C   UNL     1      -8.602  17.379  68.102  1.00  0.00    -0.248 C  
BRANCH  20  21
HETATM   21  C   UNL     1      -8.274  18.728  68.749  1.00  0.00    -0.329 C  
BRANCH  21  22
HETATM   22  C   UNL     1      -9.359  19.763  68.447  1.00  0.00    -0.396 C  
BRANCH  22  23
HETATM   23  C   UNL     1      -9.367  20.165  66.972  1.00  0.00    -0.523 C  
HETATM   24  C   UNL     1     -10.743  19.955  66.354  1.00  0.00    -0.440 C  
ENDBRANCH  22  23
ENDBRANCH  21  22
ENDBRANCH  20  21
ENDBRANCH  19  20
ENDBRANCH  17  19
ENDBRANCH  13  14
ENDBRANCH  12  13
BRANCH  12  25
HETATM   25  O   UNL     1      -8.841  12.277  66.869  1.00  0.00    -0.198 OA 
BRANCH  25  26
HETATM   26  C   UNL     1      -8.522  11.236  66.051  1.00  0.00    -0.102 C  
HETATM   27  O   UNL     1      -7.394  10.934  65.676  1.00  0.00    -0.076 OA 
BRANCH  26  28
HETATM   28  C   UNL     1      -9.769  10.449  65.660  1.00  0.00    -0.236 C  
BRANCH  28  29
HETATM   29  C   UNL     1     -10.221   9.497  66.779  1.00  0.00    -0.313 C  
HETATM   30  C   UNL     1      -8.440   7.640  66.578  1.00  0.00    -0.133 C  
HETATM   31  C   UNL     1     -10.621   7.195  67.685  1.00  0.00    -0.318 C  
HETATM   32  C   UNL     1      -9.929   7.993  66.576  1.00  0.00    -0.283 C  
ENDBRANCH  28  29
BRANCH  28  33
HETATM   33  N   UNL     1      -9.516   9.767  64.392  1.00  0.00    -0.413 N  
HETATM   34  C   UNL     1      -9.464  10.426  63.197  1.00  0.00    -0.327 C  
HETATM   35  O   UNL     1      -9.661  11.621  63.038  1.00  0.00    -0.396 OA 
HETATM   36  H   UNL     1      -9.373   8.756  64.400  1.00  0.00     0.000 HD 
ENDBRANCH  28  33
ENDBRANCH  26  28
ENDBRANCH  25  26
ENDBRANCH  12  25
ENDBRANCH  11  12
ENDBRANCH  10  11
ENDBRANCH   9  10
ENDBRANCH   8   9
ENDBRANCH   7   8
ENDBRANCH   6   7
ENDBRANCH   5   6
ENDBRANCH   4   5
ENDBRANCH   3   4
ENDBRANCH   2   3
TORSDOF 22
ENDMDL
MODEL      411
REMARK 921   NORMALIZED FREE ENERGY PREDICTED BY IDOCK:   -2.57 KCAL/MOL
REMARK 922        TOTAL FREE ENERGY PREDICTED BY IDOCK:   -9.48 KCAL/MOL
REMARK 923 INTER-LIGAND FREE ENERGY PREDICTED BY IDOCK:   -6.56 KCAL/MOL
REMARK 924 INTRA-LIGAND FREE ENERGY PREDICTED BY IDOCK:   -2.92 KCAL/MOL
REMARK 927      BINDING AFFINITY PREDICTED BY RF-SCORE:    0.00 PKD
ROOT
HETATM    1  C   UNL     1     -12.926  13.685  71.212  1.00  0.00    -0.399 C  
HETATM    2  C   UNL     1     -12.040  12.595  70.631  1.00  0.00    -0.315 C  
ENDROOT
BRANCH   2   3
HETATM    3  C   UNL     1     -12.878  11.539  69.916  1.00  0.00     0.250 C  
BRANCH   3   4
HETATM    4  C   UNL     1     -12.006  10.557  69.138  1.00  0.00    -0.149 C  
BRANCH   4   5
HETATM    5  C   UNL     1     -10.545  10.663  69.578  1.00  0.00    -0.265 C  
BRANCH   5   6
HETATM    6  C   UNL     1      -9.735   9.498  69.025  1.00  0.00    -0.170 C  
BRANCH   6   7
HETATM    7  C   UNL     1     -10.128   9.143  67.589  1.00  0.00    -0.273 C  
BRANCH   7   8
HETATM    8  C   UNL     1      -9.771   7.683  67.336  1.00  0.00    -0.208 C  
BRANCH   8   9
HETATM    9  C   UNL     1      -8.472   7.237  67.999  1.00  0.00    -0.123 C  
BRANCH   9  10
HETATM   10  C   UNL     1      -8.801   6.736  69.409  1.00  0.00    -0.135 C  
BRANCH  10  11
HETATM   11  C   UNL     1      -7.602   6.190  70.168  1.00  0.00    -0.096 C  
BRANCH  11  12
HETATM   12  C   UNL     1      -6.972   7.125  71.216  1.00  0.00    -0.060 C  
BRANCH  12  13
HETATM   13  C   UNL     1      -7.349   8.617  71.081  1.00  0.00    -0.092 C  
BRANCH  13  14
HETATM   14  C   UNL     1      -6.240   9.499  70.496  1.00  0.00    -0.071 C  
HETATM   15  O   UNL     1      -5.546  10.272  71.516  1.00  0.00    -0.226 OA 
HETATM   16  O   UNL     1      -5.635  12.570  71.357  1.00  0.00    -0.381 OA 
HETATM   17  C   UNL     1      -6.700  10.821  69.820  1.00  0.00    -0.139 C  
HETATM   18  C   UNL     1      -5.906  11.457  70.975  1.00  0.00     0.136 C  
BRANCH  17  19
HETATM   19  C   UNL     1      -6.177  11.198  68.438  1.00  0.00    -0.045 C  
BRANCH  19  20
HETATM   20  C   UNL     1      -5.884  12.693  68.364  1.00  0.00    -0.059 C  
BRANCH  20  21
HETATM   21  C   UNL     1      -6.907  13.422  67.489  1.00  0.00    -0.154 C  
BRANCH  21  22
HETATM   22  C   UNL     1      -7.919  14.187  68.344  1.00  0.00    -0.142 C  
BRANCH  22  23
HETATM   23  C   UNL     1      -9.301  13.534  68.309  1.00  0.00    -0.205 C  
HETATM   24  C   UNL     1      -9.751  13.277  66.877  1.00  0.00    -0.248 C  
ENDBRANCH  22  23
ENDBRANCH  21  22
ENDBRANCH  20  21
ENDBRANCH  19  20
ENDBRANCH  17  19
ENDBRANCH  13  14
ENDBRANCH  12  13
BRANCH  12  25
HETATM   25  O   UNL     1      -7.331   6.711  72.555  1.00  0.00    -0.086 OA 
BRANCH  25  26
HETATM   26  C   UNL     1      -8.337   7.390  73.173  1.00  0.00    -0.123 C  
HETATM   27  O   UNL     1      -8.250   8.504  73.680  1.00  0.00    -0.383 OA 
BRANCH  26  28
HETATM   28  C   UNL     1      -9.634   6.588  73.142  1.00  0.00    -0.151 C  
BRANCH  28  29
HETATM   29  C   UNL     1     -10.871   7.491  73.273  1.00  0.00    -0.409 C  
HETATM   30  C   UNL     1     -12.216   6.765  71.193  1.00  0.00    -0.413 C  
HETATM   31  C   UNL     1     -12.639   8.962  72.278  1.00  0.00    -0.455 C  
HETATM   32  C   UNL     1     -11.565   7.918  71.959  1.00  0.00    -0.357 C  
ENDBRANCH  28  29
BRANCH  28  33
HETATM   33  N   UNL     1      -9.569   5.549  74.170  1.00  0.00    -0.140 N  
HETATM   34  C   UNL     1     -10.367   4.442  74.152  1.00  0.00    -0.235 C  
HETATM   35  O   UNL     1     -11.239   4.210  73.329  1.00  0.00    -0.239 OA 
HETATM   36  H   UNL     1      -8.899   5.657  74.932  1.00  0.00     0.000 HD 
ENDBRANCH  28  33
ENDBRANCH  26  28
ENDBRANCH  25  26
ENDBRANCH  12  25
ENDBRANCH  11  12
ENDBRANCH  10  11
ENDBRANCH   9  10
ENDBRANCH   8   9
ENDBRANCH   7   8
ENDBRANCH   6   7
ENDBRANCH   5   6
ENDBRANCH   4   5
ENDBRANCH   3   4
ENDBRANCH   2   3
TORSDOF 22
ENDMDL
MODEL      412
REMARK 921   NORMALIZED FREE ENERGY PREDICTED BY IDOCK:   -2.56 KCAL/MOL
REMARK 922        TOTAL FREE ENERGY PREDICTED BY IDOCK:   -9.46 KCAL/MOL
REMARK 923 INTER-LIGAND FREE ENERGY PREDICTED BY IDOCK:   -7.63 KCAL/MOL
REMARK 924 INTRA-LIGAND FREE ENERGY PREDICTED BY IDOCK:   -1.83 KCAL/MOL
REMARK 927      BINDING AFFINITY PREDICTED BY RF-SCORE:    0.00 PKD
ROOT
HETATM    1  C   UNL     1      -6.527  19.211  69.130  1.00  0.00    -0.321 C  
HETATM    2  C   UNL     1      -7.593  18.529  68.288  1.00  0.00    -0.305 C  
ENDROOT
BRANCH   2   3
HETATM    3  C   UNL     1      -8.743  19.487  67.988  1.00  0.00    -0.369 C  
BRANCH   3   4
HETATM    4  C   UNL     1      -9.710  18.906  66.960  1.00  0.00    -0.349 C  
BRANCH   4   5
HETATM    5  C   UNL     1     -10.848  18.153  67.652  1.00  0.00    -0.260 C  
BRANCH   5   6
HETATM    6  C   UNL     1     -10.736  16.657  67.388  1.00  0.00    -0.253 C  
BRANCH   6   7
HETATM    7  C   UNL     1     -11.091  15.820  68.619  1.00  0.00    -0.327 C  
BRANCH   7   8
HETATM    8  C   UNL     1      -9.984  14.797  68.845  1.00  0.00    -0.233 C  
BRANCH   8   9
HETATM    9  C   UNL     1      -8.577  15.355  68.658  1.00  0.00    -0.179 C  
BRANCH   9  10
HETATM   10  C   UNL     1      -7.645  14.194  68.298  1.00  0.00    -0.130 C  
BRANCH  10  11
HETATM   11  C   UNL     1      -8.249  12.818  68.532  1.00  0.00    -0.068 C  
BRANCH  11  12
HETATM   12  C   UNL     1      -7.506  11.628  67.899  1.00  0.00    -0.105 C  
BRANCH  12  13
HETATM   13  C   UNL     1      -7.881  10.239  68.463  1.00  0.00    -0.097 C  
BRANCH  13  14
HETATM   14  C   UNL     1      -8.080  10.207  69.984  1.00  0.00    -0.061 C  
HETATM   15  O   UNL     1      -6.898   9.732  70.689  1.00  0.00    -0.118 OA 
HETATM   16  O   UNL     1      -7.109   7.814  71.950  1.00  0.00    -0.061 OA 
HETATM   17  C   UNL     1      -8.888   9.003  70.544  1.00  0.00    -0.242 C  
HETATM   18  C   UNL     1      -7.544   8.668  71.215  1.00  0.00    -0.110 C  
BRANCH  17  19
HETATM   19  C   UNL     1     -10.025   9.237  71.533  1.00  0.00    -0.281 C  
BRANCH  19  20
HETATM   20  C   UNL     1     -11.233   9.847  70.828  1.00  0.00    -0.427 C  
BRANCH  20  21
HETATM   21  C   UNL     1     -10.806  10.746  69.664  1.00  0.00    -0.294 C  
BRANCH  21  22
HETATM   22  C   UNL     1     -12.011  11.165  68.820  1.00  0.00    -0.337 C  
BRANCH  22  23
HETATM   23  C   UNL     1     -11.651  12.266  67.823  1.00  0.00    -0.416 C  
HETATM   24  C   UNL     1     -11.149  11.678  66.511  1.00  0.00    -0.357 C  
ENDBRANCH  22  23
ENDBRANCH  21  22
ENDBRANCH  20  21
ENDBRANCH  19  20
ENDBRANCH  17  19
ENDBRANCH  13  14
ENDBRANCH  12  13
BRANCH  12  25
HETATM   25  O   UNL     1      -7.728  11.585  66.471  1.00  0.00    -0.134 OA 
BRANCH  25  26
HETATM   26  C   UNL     1      -7.297  10.480  65.802  1.00  0.00    -0.137 C  
HETATM   27  O   UNL     1      -6.137  10.090  65.725  1.00  0.00    -0.073 OA 
BRANCH  26  28
HETATM   28  C   UNL     1      -8.468   9.745  65.155  1.00  0.00    -0.149 C  
BRANCH  28  29
HETATM   29  C   UNL     1      -8.510   8.263  65.559  1.00  0.00    -0.177 C  
HETATM   30  C   UNL     1     -10.699   8.199  66.924  1.00  0.00    -0.186 C  
HETATM   31  C   UNL     1      -8.962   6.446  67.224  1.00  0.00    -0.107 C  
HETATM   32  C   UNL     1      -9.194   7.925  66.903  1.00  0.00    -0.191 C  
ENDBRANCH  28  29
BRANCH  28  33
HETATM   33  N   UNL     1      -8.407   9.946  63.708  1.00  0.00    -0.155 N  
HETATM   34  C   UNL     1      -9.078  10.951  63.073  1.00  0.00    -0.299 C  
HETATM   35  O   UNL     1      -9.825  11.754  63.611  1.00  0.00    -0.327 OA 
HETATM   36  H   UNL     1      -7.839   9.308  63.149  1.00  0.00     0.000 HD 
ENDBRANCH  28  33
ENDBRANCH  26  28
ENDBRANCH  25  26
ENDBRANCH  12  25
ENDBRANCH  11  12
ENDBRANCH  10  11
ENDBRANCH   9  10
ENDBRANCH   8   9
ENDBRANCH   7   8
ENDBRANCH   6   7
ENDBRANCH   5   6
ENDBRANCH   4   5
ENDBRANCH   3   4
ENDBRANCH   2   3
TORSDOF 22
ENDMDL
MODEL      413
REMARK 921   NORMALIZED FREE ENERGY PREDICTED BY IDOCK:   -2.55 KCAL/MOL
REMARK 922        TOTAL FREE ENERGY PREDICTED BY IDOCK:   -9.45 KCAL/MOL
REMARK 923 INTER-LIGAND FREE ENERGY PREDICTED BY IDOCK:   -7.74 KCAL/MOL
REMARK 924 INTRA-LIGAND FREE ENERGY PREDICTED BY IDOCK:   -1.71 KCAL/MOL
REMARK 927      BINDING AFFINITY PREDICTED BY RF-SCORE:    0.00 PKD
ROOT
HETATM    1  C   UNL     1     -11.379  10.097  71.106  1.00  0.00    -0.326 C  
HETATM    2  C   UNL     1     -10.919   8.781  71.711  1.00  0.00    -0.415 C  
ENDROOT
BRANCH   2   3
HETATM    3  C   UNL     1     -12.114   7.913  72.095  1.00  0.00    -0.371 C  
BRANCH   3   4
HETATM    4  C   UNL     1     -11.972   6.489  71.567  1.00  0.00    -0.383 C  
BRANCH   4   5
HETATM    5  C   UNL     1     -10.690   5.840  72.093  1.00  0.00    -0.282 C  
BRANCH   5   6
HETATM    6  C   UNL     1      -9.887   5.239  70.947  1.00  0.00    -0.257 C  
BRANCH   6   7
HETATM    7  C   UNL     1      -8.450   5.763  70.905  1.00  0.00    -0.126 C  
BRANCH   7   8
HETATM    8  C   UNL     1      -8.271   6.583  69.632  1.00  0.00    -0.126 C  
BRANCH   8   9
HETATM    9  C   UNL     1      -6.825   6.972  69.343  1.00  0.00    -0.054 C  
BRANCH   9  10
HETATM   10  C   UNL     1      -6.829   8.303  68.584  1.00  0.00    -0.063 C  
BRANCH  10  11
HETATM   11  C   UNL     1      -8.219   8.845  68.291  1.00  0.00    -0.121 C  
BRANCH  11  12
HETATM   12  C   UNL     1      -8.286  10.164  67.500  1.00  0.00    -0.114 C  
BRANCH  12  13
HETATM   13  C   UNL     1      -7.077  10.443  66.579  1.00  0.00    -0.114 C  
BRANCH  13  14
HETATM   14  C   UNL     1      -6.968   9.500  65.375  1.00  0.00    -0.094 C  
HETATM   15  O   UNL     1      -7.263  10.168  64.115  1.00  0.00    -0.135 OA 
HETATM   16  O   UNL     1      -9.049   9.384  62.887  1.00  0.00    -0.234 OA 
HETATM   17  C   UNL     1      -8.171   8.544  65.141  1.00  0.00    -0.153 C  
HETATM   18  C   UNL     1      -8.317   9.366  63.848  1.00  0.00    -0.175 C  
BRANCH  17  19
HETATM   19  C   UNL     1      -7.932   7.058  64.897  1.00  0.00    -0.127 C  
BRANCH  19  20
HETATM   20  C   UNL     1      -6.502   6.676  65.265  1.00  0.00    -0.046 C  
BRANCH  20  21
HETATM   21  C   UNL     1      -6.446   5.307  65.948  1.00  0.00    -0.040 C  
BRANCH  21  22
HETATM   22  C   UNL     1      -7.773   4.561  65.798  1.00  0.00    -0.094 C  
BRANCH  22  23
HETATM   23  C   UNL     1      -8.154   3.816  67.077  1.00  0.00    -0.095 C  
HETATM   24  C   UNL     1      -9.635   3.983  67.389  1.00  0.00    -0.222 C  
ENDBRANCH  22  23
ENDBRANCH  21  22
ENDBRANCH  20  21
ENDBRANCH  19  20
ENDBRANCH  17  19
ENDBRANCH  13  14
ENDBRANCH  12  13
BRANCH  12  25
HETATM   25  O   UNL     1      -9.473  10.207  66.675  1.00  0.00    -0.161 OA 
BRANCH  25  26
HETATM   26  C   UNL     1     -10.677  10.254  67.311  1.00  0.00    -0.263 C  
HETATM   27  O   UNL     1     -11.161   9.365  68.003  1.00  0.00    -0.123 OA 
BRANCH  26  28
HETATM   28  C   UNL     1     -11.367  11.593  67.071  1.00  0.00    -0.305 C  
BRANCH  28  29
HETATM   29  C   UNL     1     -11.198  12.075  65.622  1.00  0.00    -0.377 C  
HETATM   30  C   UNL     1     -12.850  14.057  65.579  1.00  0.00    -0.453 C  
HETATM   31  C   UNL     1     -12.133  12.954  63.469  1.00  0.00    -0.633 C  
HETATM   32  C   UNL     1     -12.432  12.725  64.954  1.00  0.00    -0.563 C  
ENDBRANCH  28  29
BRANCH  28  33
HETATM   33  N   UNL     1     -10.881  12.556  68.058  1.00  0.00    -0.217 N  
HETATM   34  C   UNL     1      -9.891  13.457  67.786  1.00  0.00    -0.234 C  
HETATM   35  O   UNL     1      -9.277  13.536  66.733  1.00  0.00    -0.246 OA 
HETATM   36  H   UNL     1     -11.298  12.555  68.990  1.00  0.00     0.000 HD 
ENDBRANCH  28  33
ENDBRANCH  26  28
ENDBRANCH  25  26
ENDBRANCH  12  25
ENDBRANCH  11  12
ENDBRANCH  10  11
ENDBRANCH   9  10
ENDBRANCH   8   9
ENDBRANCH   7   8
ENDBRANCH   6   7
ENDBRANCH   5   6
ENDBRANCH   4   5
ENDBRANCH   3   4
ENDBRANCH   2   3
TORSDOF 22
ENDMDL
MODEL      414
REMARK 921   NORMALIZED FREE ENERGY PREDICTED BY IDOCK:   -2.54 KCAL/MOL
REMARK 922        TOTAL FREE ENERGY PREDICTED BY IDOCK:   -9.42 KCAL/MOL
REMARK 923 INTER-LIGAND FREE ENERGY PREDICTED BY IDOCK:   -7.39 KCAL/MOL
REMARK 924 INTRA-LIGAND FREE ENERGY PREDICTED BY IDOCK:   -2.03 KCAL/MOL
REMARK 927      BINDING AFFINITY PREDICTED BY RF-SCORE:    0.00 PKD
ROOT
HETATM    1  C   UNL     1     -10.098  15.386  65.338  1.00  0.00    -0.394 C  
HETATM    2  C   UNL     1     -11.554  15.300  64.909  1.00  0.00    -0.289 C  
ENDROOT
BRANCH   2   3
HETATM    3  C   UNL     1     -11.884  13.905  64.385  1.00  0.00    -0.456 C  
BRANCH   3   4
HETATM    4  C   UNL     1     -10.623  13.097  64.094  1.00  0.00    -0.384 C  
BRANCH   4   5
HETATM    5  C   UNL     1     -10.977  11.739  63.484  1.00  0.00    -0.499 C  
BRANCH   5   6
HETATM    6  C   UNL     1      -9.715  10.992  63.074  1.00  0.00    -0.381 C  
BRANCH   6   7
HETATM    7  C   UNL     1      -8.746  10.798  64.242  1.00  0.00    -0.080 C  
BRANCH   7   8
HETATM    8  C   UNL     1      -9.265   9.665  65.119  1.00  0.00    -0.305 C  
BRANCH   8   9
HETATM    9  C   UNL     1      -9.294   9.997  66.608  1.00  0.00    -0.202 C  
BRANCH   9  10
HETATM   10  C   UNL     1     -10.017   8.860  67.338  1.00  0.00    -0.267 C  
BRANCH  10  11
HETATM   11  C   UNL     1      -9.144   7.645  67.611  1.00  0.00    -0.133 C  
BRANCH  11  12
HETATM   12  C   UNL     1      -9.871   6.373  68.081  1.00  0.00    -0.127 C  
BRANCH  12  13
HETATM   13  C   UNL     1     -11.200   6.611  68.833  1.00  0.00    -0.273 C  
BRANCH  13  14
HETATM   14  C   UNL     1     -11.215   6.085  70.273  1.00  0.00    -0.322 C  
HETATM   15  O   UNL     1     -12.146   6.814  71.123  1.00  0.00    -0.353 OA 
HETATM   16  O   UNL     1     -11.277   7.929  72.943  1.00  0.00    -0.398 OA 
HETATM   17  C   UNL     1     -10.040   6.540  71.183  1.00  0.00    -0.206 C  
HETATM   18  C   UNL     1     -11.172   7.240  71.957  1.00  0.00    -0.250 C  
BRANCH  17  19
HETATM   19  C   UNL     1      -9.272   5.517  72.013  1.00  0.00    -0.154 C  
BRANCH  19  20
HETATM   20  C   UNL     1      -7.786   5.555  71.671  1.00  0.00    -0.107 C  
BRANCH  20  21
HETATM   21  C   UNL     1      -7.439   4.547  70.572  1.00  0.00    -0.050 C  
BRANCH  21  22
HETATM   22  C   UNL     1      -7.776   3.119  71.006  1.00  0.00    -0.043 C  
BRANCH  22  23
HETATM   23  C   UNL     1      -6.851   2.630  72.120  1.00  0.00    -0.022 C  
HETATM   24  C   UNL     1      -7.644   2.227  73.355  1.00  0.00    -0.042 C  
ENDBRANCH  22  23
ENDBRANCH  21  22
ENDBRANCH  20  21
ENDBRANCH  19  20
ENDBRANCH  17  19
ENDBRANCH  13  14
ENDBRANCH  12  13
BRANCH  12  25
HETATM   25  O   UNL     1     -10.161   5.504  66.962  1.00  0.00    -0.176 OA 
BRANCH  25  26
HETATM   26  C   UNL     1      -9.609   4.259  66.974  1.00  0.00    -0.203 C  
HETATM   27  O   UNL     1      -9.668   3.454  67.897  1.00  0.00    -0.152 OA 
BRANCH  26  28
HETATM   28  C   UNL     1      -8.902   3.965  65.654  1.00  0.00    -0.124 C  
BRANCH  28  29
HETATM   29  C   UNL     1      -8.846   5.202  64.745  1.00  0.00    -0.100 C  
HETATM   30  C   UNL     1      -6.831   4.606  63.247  1.00  0.00    -0.039 C  
HETATM   31  C   UNL     1      -7.572   6.965  63.500  1.00  0.00    -0.101 C  
HETATM   32  C   UNL     1      -7.454   5.615  64.213  1.00  0.00    -0.073 C  
ENDBRANCH  28  29
BRANCH  28  33
HETATM   33  N   UNL     1      -9.547   2.815  65.022  1.00  0.00    -0.323 N  
HETATM   34  C   UNL     1     -10.300   2.921  63.888  1.00  0.00    -0.148 C  
HETATM   35  O   UNL     1     -10.558   3.963  63.305  1.00  0.00    -0.215 OA 
HETATM   36  H   UNL     1      -9.430   1.894  65.447  1.00  0.00     0.000 HD 
ENDBRANCH  28  33
ENDBRANCH  26  28
ENDBRANCH  25  26
ENDBRANCH  12  25
ENDBRANCH  11  12
ENDBRANCH  10  11
ENDBRANCH   9  10
ENDBRANCH   8   9
ENDBRANCH   7   8
ENDBRANCH   6   7
ENDBRANCH   5   6
ENDBRANCH   4   5
ENDBRANCH   3   4
ENDBRANCH   2   3
TORSDOF 22
ENDMDL
MODEL      415
REMARK 921   NORMALIZED FREE ENERGY PREDICTED BY IDOCK:   -2.53 KCAL/MOL
REMARK 922        TOTAL FREE ENERGY PREDICTED BY IDOCK:   -9.41 KCAL/MOL
REMARK 923 INTER-LIGAND FREE ENERGY PREDICTED BY IDOCK:   -6.57 KCAL/MOL
REMARK 924 INTRA-LIGAND FREE ENERGY PREDICTED BY IDOCK:   -2.84 KCAL/MOL
REMARK 927      BINDING AFFINITY PREDICTED BY RF-SCORE:    0.00 PKD
ROOT
HETATM    1  C   UNL     1      -9.313   2.576  70.552  1.00  0.00    -0.209 C  
HETATM    2  C   UNL     1      -9.665   3.749  71.451  1.00  0.00    -0.242 C  
ENDROOT
BRANCH   2   3
HETATM    3  C   UNL     1      -8.442   4.220  72.233  1.00  0.00    -0.106 C  
BRANCH   3   4
HETATM    4  C   UNL     1      -7.597   5.200  71.426  1.00  0.00    -0.096 C  
BRANCH   4   5
HETATM    5  C   UNL     1      -8.363   6.501  71.177  1.00  0.00    -0.122 C  
BRANCH   5   6
HETATM    6  C   UNL     1      -7.448   7.549  70.557  1.00  0.00    -0.080 C  
BRANCH   6   7
HETATM    7  C   UNL     1      -6.789   8.444  71.608  1.00  0.00    -0.076 C  
BRANCH   7   8
HETATM    8  C   UNL     1      -5.628   9.184  70.954  1.00  0.00    -0.039 C  
BRANCH   8   9
HETATM    9  C   UNL     1      -5.966  10.604  70.513  1.00  0.00    -0.121 C  
BRANCH   9  10
HETATM   10  C   UNL     1      -5.989  10.638  68.982  1.00  0.00    -0.040 C  
BRANCH  10  11
HETATM   11  C   UNL     1      -7.387  10.641  68.382  1.00  0.00    -0.091 C  
BRANCH  11  12
HETATM   12  C   UNL     1      -7.918  12.000  67.893  1.00  0.00    -0.147 C  
BRANCH  12  13
HETATM   13  C   UNL     1      -6.862  13.123  67.789  1.00  0.00    -0.149 C  
BRANCH  13  14
HETATM   14  C   UNL     1      -7.449  14.529  67.614  1.00  0.00    -0.177 C  
HETATM   15  O   UNL     1      -6.449  15.502  67.196  1.00  0.00    -0.302 OA 
HETATM   16  O   UNL     1      -6.044  17.284  68.600  1.00  0.00    -0.156 OA 
HETATM   17  C   UNL     1      -7.683  15.342  68.917  1.00  0.00    -0.165 C  
HETATM   18  C   UNL     1      -6.609  16.258  68.304  1.00  0.00    -0.127 C  
BRANCH  17  19
HETATM   19  C   UNL     1      -9.018  16.040  69.156  1.00  0.00    -0.252 C  
BRANCH  19  20
HETATM   20  C   UNL     1     -10.116  15.402  68.309  1.00  0.00    -0.218 C  
BRANCH  20  21
HETATM   21  C   UNL     1     -11.507  15.717  68.866  1.00  0.00    -0.367 C  
BRANCH  21  22
HETATM   22  C   UNL     1     -12.297  14.435  69.137  1.00  0.00    -0.156 C  
BRANCH  22  23
HETATM   23  C   UNL     1     -11.695  13.233  68.410  1.00  0.00    -0.389 C  
HETATM   24  C   UNL     1     -11.380  12.104  69.382  1.00  0.00    -0.311 C  
ENDBRANCH  22  23
ENDBRANCH  21  22
ENDBRANCH  20  21
ENDBRANCH  19  20
ENDBRANCH  17  19
ENDBRANCH  13  14
ENDBRANCH  12  13
BRANCH  12  25
HETATM   25  O   UNL     1      -8.536  11.871  66.591  1.00  0.00    -0.187 OA 
BRANCH  25  26
HETATM   26  C   UNL     1      -8.388  10.682  65.942  1.00  0.00    -0.161 C  
HETATM   27  O   UNL     1      -7.328  10.189  65.574  1.00  0.00    -0.130 OA 
BRANCH  26  28
HETATM   28  C   UNL     1      -9.739  10.002  65.739  1.00  0.00    -0.257 C  
BRANCH  28  29
HETATM   29  C   UNL     1      -9.663   8.488  65.992  1.00  0.00    -0.195 C  
HETATM   30  C   UNL     1     -10.412   8.375  68.459  1.00  0.00    -0.201 C  
HETATM   31  C   UNL     1      -9.103   6.522  67.441  1.00  0.00    -0.112 C  
HETATM   32  C   UNL     1      -9.329   8.037  67.432  1.00  0.00    -0.173 C  
ENDBRANCH  28  29
BRANCH  28  33
HETATM   33  N   UNL     1     -10.239  10.338  64.407  1.00  0.00    -0.391 N  
HETATM   34  C   UNL     1     -11.113  11.364  64.183  1.00  0.00    -0.308 C  
HETATM   35  O   UNL     1     -11.605  12.075  65.045  1.00  0.00    -0.318 OA 
HETATM   36  H   UNL     1      -9.921   9.784  63.611  1.00  0.00     0.000 HD 
ENDBRANCH  28  33
ENDBRANCH  26  28
ENDBRANCH  25  26
ENDBRANCH  12  25
ENDBRANCH  11  12
ENDBRANCH  10  11
ENDBRANCH   9  10
ENDBRANCH   8   9
ENDBRANCH   7   8
ENDBRANCH   6   7
ENDBRANCH   5   6
ENDBRANCH   4   5
ENDBRANCH   3   4
ENDBRANCH   2   3
TORSDOF 22
ENDMDL
MODEL      416
REMARK 921   NORMALIZED FREE ENERGY PREDICTED BY IDOCK:   -2.53 KCAL/MOL
REMARK 922        TOTAL FREE ENERGY PREDICTED BY IDOCK:   -9.40 KCAL/MOL
REMARK 923 INTER-LIGAND FREE ENERGY PREDICTED BY IDOCK:   -7.19 KCAL/MOL
REMARK 924 INTRA-LIGAND FREE ENERGY PREDICTED BY IDOCK:   -2.21 KCAL/MOL
REMARK 927      BINDING AFFINITY PREDICTED BY RF-SCORE:    0.00 PKD
ROOT
HETATM    1  C   UNL     1      -9.305   2.002  71.731  1.00  0.00    -0.173 C  
HETATM    2  C   UNL     1      -8.994   3.475  71.522  1.00  0.00    -0.158 C  
ENDROOT
BRANCH   2   3
HETATM    3  C   UNL     1      -8.374   3.709  70.148  1.00  0.00    -0.085 C  
BRANCH   3   4
HETATM    4  C   UNL     1      -7.325   4.815  70.182  1.00  0.00    -0.054 C  
BRANCH   4   5
HETATM    5  C   UNL     1      -7.836   6.070  69.472  1.00  0.00    -0.099 C  
BRANCH   5   6
HETATM    6  C   UNL     1      -7.148   6.240  68.124  1.00  0.00    -0.082 C  
BRANCH   6   7
HETATM    7  C   UNL     1      -5.969   7.213  68.189  1.00  0.00    -0.030 C  
BRANCH   7   8
HETATM    8  C   UNL     1      -5.818   7.884  66.829  1.00  0.00    -0.044 C  
BRANCH   8   9
HETATM    9  C   UNL     1      -6.325   7.042  65.662  1.00  0.00    -0.046 C  
BRANCH   9  10
HETATM   10  C   UNL     1      -6.655   7.984  64.500  1.00  0.00    -0.060 C  
BRANCH  10  11
HETATM   11  C   UNL     1      -7.286   9.299  64.927  1.00  0.00    -0.103 C  
BRANCH  11  12
HETATM   12  C   UNL     1      -8.825   9.345  64.948  1.00  0.00    -0.202 C  
BRANCH  12  13
HETATM   13  C   UNL     1      -9.491   8.633  66.146  1.00  0.00    -0.308 C  
BRANCH  13  14
HETATM   14  C   UNL     1      -9.709   9.528  67.372  1.00  0.00    -0.157 C  
HETATM   15  O   UNL     1      -8.629  10.486  67.561  1.00  0.00    -0.121 OA 
HETATM   16  O   UNL     1      -7.420  10.357  69.519  1.00  0.00    -0.119 OA 
HETATM   17  C   UNL     1      -9.376   8.894  68.752  1.00  0.00    -0.137 C  
HETATM   18  C   UNL     1      -8.292   9.987  68.771  1.00  0.00    -0.121 C  
BRANCH  17  19
HETATM   19  C   UNL     1     -10.371   8.999  69.903  1.00  0.00    -0.219 C  
BRANCH  19  20
HETATM   20  C   UNL     1      -9.812   8.336  71.158  1.00  0.00    -0.219 C  
BRANCH  20  21
HETATM   21  C   UNL     1     -10.933   7.871  72.092  1.00  0.00    -0.339 C  
BRANCH  21  22
HETATM   22  C   UNL     1     -10.558   6.564  72.795  1.00  0.00    -0.257 C  
BRANCH  22  23
HETATM   23  C   UNL     1     -11.637   5.495  72.619  1.00  0.00    -0.293 C  
HETATM   24  C   UNL     1     -11.516   4.414  73.684  1.00  0.00    -0.210 C  
ENDBRANCH  22  23
ENDBRANCH  21  22
ENDBRANCH  20  21
ENDBRANCH  19  20
ENDBRANCH  17  19
ENDBRANCH  13  14
ENDBRANCH  12  13
BRANCH  12  25
HETATM   25  O   UNL     1      -9.298  10.712  64.943  1.00  0.00    -0.197 OA 
BRANCH  25  26
HETATM   26  C   UNL     1      -9.697  11.233  63.750  1.00  0.00    -0.298 C  
HETATM   27  O   UNL     1      -9.447  10.771  62.642  1.00  0.00    -0.297 OA 
BRANCH  26  28
HETATM   28  C   UNL     1     -10.537  12.489  63.959  1.00  0.00    -0.421 C  
BRANCH  28  29
HETATM   29  C   UNL     1     -10.722  12.815  65.450  1.00  0.00    -0.309 C  
HETATM   30  C   UNL     1      -9.762  15.208  65.541  1.00  0.00    -0.303 C  
HETATM   31  C   UNL     1      -9.924  13.823  67.600  1.00  0.00    -0.238 C  
HETATM   32  C   UNL     1      -9.696  13.780  66.086  1.00  0.00    -0.280 C  
ENDBRANCH  28  29
BRANCH  28  33
HETATM   33  N   UNL     1     -11.802  12.333  63.243  1.00  0.00    -0.727 N  
HETATM   34  C   UNL     1     -12.781  13.286  63.256  1.00  0.00     0.263 C  
HETATM   35  O   UNL     1     -12.742  14.332  63.885  1.00  0.00    -0.749 OA 
HETATM   36  H   UNL     1     -11.961  11.477  62.710  1.00  0.00     0.000 HD 
ENDBRANCH  28  33
ENDBRANCH  26  28
ENDBRANCH  25  26
ENDBRANCH  12  25
ENDBRANCH  11  12
ENDBRANCH  10  11
ENDBRANCH   9  10
ENDBRANCH   8   9
ENDBRANCH   7   8
ENDBRANCH   6   7
ENDBRANCH   5   6
ENDBRANCH   4   5
ENDBRANCH   3   4
ENDBRANCH   2   3
TORSDOF 22
ENDMDL
MODEL      417
REMARK 921   NORMALIZED FREE ENERGY PREDICTED BY IDOCK:   -2.43 KCAL/MOL
REMARK 922        TOTAL FREE ENERGY PREDICTED BY IDOCK:   -9.18 KCAL/MOL
REMARK 923 INTER-LIGAND FREE ENERGY PREDICTED BY IDOCK:   -7.64 KCAL/MOL
REMARK 924 INTRA-LIGAND FREE ENERGY PREDICTED BY IDOCK:   -1.54 KCAL/MOL
REMARK 927      BINDING AFFINITY PREDICTED BY RF-SCORE:    0.00 PKD
ROOT
HETATM    1  C   UNL     1     -10.048  10.148  64.911  1.00  0.00    -0.277 C  
HETATM    2  C   UNL     1      -9.904  10.931  63.616  1.00  0.00    -0.403 C  
ENDROOT
BRANCH   2   3
HETATM    3  C   UNL     1     -10.995  11.991  63.499  1.00  0.00    -0.514 C  
BRANCH   3   4
HETATM    4  C   UNL     1     -11.956  11.949  64.683  1.00  0.00    -0.251 C  
BRANCH   4   5
HETATM    5  C   UNL     1     -12.627  13.308  64.887  1.00  0.00    -0.444 C  
BRANCH   5   6
HETATM    6  C   UNL     1     -12.286  14.250  63.740  1.00  0.00    -0.106 C  
BRANCH   6   7
HETATM    7  C   UNL     1     -12.121  15.699  64.204  1.00  0.00    -0.002 C  
BRANCH   7   8
HETATM    8  C   UNL     1     -11.029  15.746  65.267  1.00  0.00    -0.354 C  
BRANCH   8   9
HETATM    9  C   UNL     1      -9.723  15.080  64.845  1.00  0.00     0.300 C  
BRANCH   9  10
HETATM   10  C   UNL     1      -9.363  14.024  65.894  1.00  0.00    -0.006 C  
BRANCH  10  11
HETATM   11  C   UNL     1      -9.159  14.584  67.293  1.00  0.00    -0.217 C  
BRANCH  11  12
HETATM   12  C   UNL     1     -10.422  15.079  68.021  1.00  0.00    -0.242 C  
BRANCH  12  13
HETATM   13  C   UNL     1     -11.491  13.999  68.298  1.00  0.00    -0.337 C  
BRANCH  13  14
HETATM   14  C   UNL     1     -11.052  12.913  69.287  1.00  0.00    -0.133 C  
HETATM   15  O   UNL     1      -9.671  12.501  69.085  1.00  0.00     0.234 OA 
HETATM   16  O   UNL     1      -9.286  10.295  68.536  1.00  0.00    -0.144 OA 
HETATM   17  C   UNL     1     -11.522  11.466  68.970  1.00  0.00    -0.366 C  
HETATM   18  C   UNL     1     -10.011  11.223  68.806  1.00  0.00    -0.193 C  
BRANCH  17  19
HETATM   19  C   UNL     1     -12.164  10.612  70.059  1.00  0.00    -0.373 C  
BRANCH  19  20
HETATM   20  C   UNL     1     -12.123  11.336  71.401  1.00  0.00    -0.023 C  
BRANCH  20  21
HETATM   21  C   UNL     1     -13.520  11.451  72.017  1.00  0.00    -0.289 C  
BRANCH  21  22
HETATM   22  C   UNL     1     -13.798  12.879  72.493  1.00  0.00    -0.332 C  
BRANCH  22  23
HETATM   23  C   UNL     1     -13.123  13.917  71.597  1.00  0.00    -0.446 C  
HETATM   24  C   UNL     1     -14.091  15.032  71.224  1.00  0.00    -0.516 C  
ENDBRANCH  22  23
ENDBRANCH  21  22
ENDBRANCH  20  21
ENDBRANCH  19  20
ENDBRANCH  17  19
ENDBRANCH  13  14
ENDBRANCH  12  13
BRANCH  12  25
HETATM   25  O   UNL     1     -10.079  15.679  69.292  1.00  0.00    -0.222 OA 
BRANCH  25  26
HETATM   26  C   UNL     1      -8.793  16.096  69.462  1.00  0.00     0.017 C  
HETATM   27  O   UNL     1      -7.833  15.380  69.728  1.00  0.00    -0.196 OA 
BRANCH  26  28
HETATM   28  C   UNL     1      -8.677  17.603  69.254  1.00  0.00     0.279 C  
BRANCH  28  29
HETATM   29  C   UNL     1      -9.807  18.149  68.367  1.00  0.00    -0.380 C  
HETATM   30  C   UNL     1      -8.593  18.321  66.096  1.00  0.00    -0.127 C  
HETATM   31  C   UNL     1     -10.647  19.648  66.544  1.00  0.00    -0.591 C  
HETATM   32  C   UNL     1      -9.390  19.048  67.181  1.00  0.00    -0.345 C  
ENDBRANCH  28  29
BRANCH  28  33
HETATM   33  N   UNL     1      -7.343  17.905  68.739  1.00  0.00    -0.272 N  
HETATM   34  C   UNL     1      -6.503  18.798  69.340  1.00  0.00    -0.262 C  
HETATM   35  O   UNL     1      -6.771  19.469  70.326  1.00  0.00    -0.107 OA 
HETATM   36  H   UNL     1      -7.026  17.429  67.893  1.00  0.00     0.000 HD 
ENDBRANCH  28  33
ENDBRANCH  26  28
ENDBRANCH  25  26
ENDBRANCH  12  25
ENDBRANCH  11  12
ENDBRANCH  10  11
ENDBRANCH   9  10
ENDBRANCH   8   9
ENDBRANCH   7   8
ENDBRANCH   6   7
ENDBRANCH   5   6
ENDBRANCH   4   5
ENDBRANCH   3   4
ENDBRANCH   2   3
TORSDOF 22
ENDMDL
MODEL      418
REMARK 921   NORMALIZED FREE ENERGY PREDICTED BY IDOCK:   -2.39 KCAL/MOL
REMARK 922        TOTAL FREE ENERGY PREDICTED BY IDOCK:   -9.09 KCAL/MOL
REMARK 923 INTER-LIGAND FREE ENERGY PREDICTED BY IDOCK:   -7.33 KCAL/MOL
REMARK 924 INTRA-LIGAND FREE ENERGY PREDICTED BY IDOCK:   -1.76 KCAL/MOL
REMARK 927      BINDING AFFINITY PREDICTED BY RF-SCORE:    0.00 PKD
ROOT
HETATM    1  C   UNL     1     -10.388  15.993  65.646  1.00  0.00    -0.414 C  
HETATM    2  C   UNL     1     -10.495  16.137  67.155  1.00  0.00    -0.305 C  
ENDROOT
BRANCH   2   3
HETATM    3  C   UNL     1     -10.317  14.786  67.843  1.00  0.00    -0.240 C  
BRANCH   3   4
HETATM    4  C   UNL     1     -11.516  14.433  68.716  1.00  0.00    -0.319 C  
BRANCH   4   5
HETATM    5  C   UNL     1     -12.379  13.361  68.047  1.00  0.00     0.061 C  
BRANCH   5   6
HETATM    6  C   UNL     1     -11.620  12.044  67.957  1.00  0.00    -0.407 C  
BRANCH   6   7
HETATM    7  C   UNL     1     -11.087  11.772  66.549  1.00  0.00    -0.364 C  
BRANCH   7   8
HETATM    8  C   UNL     1     -10.111  10.603  66.618  1.00  0.00    -0.270 C  
BRANCH   8   9
HETATM    9  C   UNL     1     -10.755   9.281  67.023  1.00  0.00    -0.199 C  
BRANCH   9  10
HETATM   10  C   UNL     1      -9.784   8.537  67.945  1.00  0.00    -0.193 C  
BRANCH  10  11
HETATM   11  C   UNL     1     -10.448   7.501  68.839  1.00  0.00    -0.214 C  
BRANCH  11  12
HETATM   12  C   UNL     1      -9.594   6.277  69.217  1.00  0.00    -0.133 C  
BRANCH  12  13
HETATM   13  C   UNL     1      -8.099   6.373  68.842  1.00  0.00    -0.111 C  
BRANCH  13  14
HETATM   14  C   UNL     1      -7.427   5.023  68.565  1.00  0.00    -0.074 C  
HETATM   15  O   UNL     1      -6.077   5.169  68.040  1.00  0.00    -0.025 OA 
HETATM   16  O   UNL     1      -5.651   4.313  65.943  1.00  0.00    -0.016 OA 
HETATM   17  C   UNL     1      -7.850   4.303  67.254  1.00  0.00    -0.096 C  
HETATM   18  C   UNL     1      -6.377   4.545  66.880  1.00  0.00    -0.037 C  
BRANCH  17  19
HETATM   19  C   UNL     1      -8.240   2.828  67.281  1.00  0.00    -0.082 C  
BRANCH  19  20
HETATM   20  C   UNL     1      -9.200   2.506  66.140  1.00  0.00    -0.043 C  
BRANCH  20  21
HETATM   21  C   UNL     1      -8.558   2.774  64.776  1.00  0.00    -0.096 C  
BRANCH  21  22
HETATM   22  C   UNL     1      -9.528   3.501  63.843  1.00  0.00    -0.135 C  
BRANCH  22  23
HETATM   23  C   UNL     1     -10.821   2.711  63.639  1.00  0.00    -0.122 C  
HETATM   24  C   UNL     1     -10.710   1.776  62.442  1.00  0.00    -0.119 C  
ENDBRANCH  22  23
ENDBRANCH  21  22
ENDBRANCH  20  21
ENDBRANCH  19  20
ENDBRANCH  17  19
ENDBRANCH  13  14
ENDBRANCH  12  13
BRANCH  12  25
HETATM   25  O   UNL     1      -9.664   6.023  70.640  1.00  0.00    -0.170 OA 
BRANCH  25  26
HETATM   26  C   UNL     1      -9.613   7.100  71.472  1.00  0.00    -0.157 C  
HETATM   27  O   UNL     1      -8.627   7.795  71.692  1.00  0.00    -0.112 OA 
BRANCH  26  28
HETATM   28  C   UNL     1     -10.977   7.363  72.105  1.00  0.00    -0.245 C  
BRANCH  28  29
HETATM   29  C   UNL     1     -11.391   8.838  71.981  1.00  0.00    -0.441 C  
HETATM   30  C   UNL     1     -13.925   8.664  72.440  1.00  0.00    -0.435 C  
HETATM   31  C   UNL     1     -12.983  10.623  71.234  1.00  0.00    -0.513 C  
HETATM   32  C   UNL     1     -12.826   9.119  71.479  1.00  0.00    -0.412 C  
ENDBRANCH  28  29
BRANCH  28  33
HETATM   33  N   UNL     1     -10.954   6.885  73.486  1.00  0.00    -0.534 N  
HETATM   34  C   UNL     1     -10.986   5.559  73.810  1.00  0.00    -0.110 C  
HETATM   35  O   UNL     1     -11.082   4.638  73.014  1.00  0.00    -0.247 OA 
HETATM   36  H   UNL     1     -10.912   7.572  74.240  1.00  0.00     0.000 HD 
ENDBRANCH  28  33
ENDBRANCH  26  28
ENDBRANCH  25  26
ENDBRANCH  12  25
ENDBRANCH  11  12
ENDBRANCH  10  11
ENDBRANCH   9  10
ENDBRANCH   8   9
ENDBRANCH   7   8
ENDBRANCH   6   7
ENDBRANCH   5   6
ENDBRANCH   4   5
ENDBRANCH   3   4
ENDBRANCH   2   3
TORSDOF 22
ENDMDL
MODEL      419
REMARK 921   NORMALIZED FREE ENERGY PREDICTED BY IDOCK:   -2.39 KCAL/MOL
REMARK 922        TOTAL FREE ENERGY PREDICTED BY IDOCK:   -9.07 KCAL/MOL
REMARK 923 INTER-LIGAND FREE ENERGY PREDICTED BY IDOCK:   -7.46 KCAL/MOL
REMARK 924 INTRA-LIGAND FREE ENERGY PREDICTED BY IDOCK:   -1.61 KCAL/MOL
REMARK 927      BINDING AFFINITY PREDICTED BY RF-SCORE:    0.00 PKD
ROOT
HETATM    1  C   UNL     1      -9.726  19.788  68.020  1.00  0.00    -0.505 C  
HETATM    2  C   UNL     1     -10.664  18.954  67.164  1.00  0.00    -0.506 C  
ENDROOT
BRANCH   2   3
HETATM    3  C   UNL     1      -9.887  17.907  66.370  1.00  0.00    -0.339 C  
BRANCH   3   4
HETATM    4  C   UNL     1      -9.697  16.619  67.165  1.00  0.00    -0.250 C  
BRANCH   4   5
HETATM    5  C   UNL     1     -11.041  15.931  67.414  1.00  0.00    -0.207 C  
BRANCH   5   6
HETATM    6  C   UNL     1     -11.431  16.036  68.882  1.00  0.00    -0.362 C  
BRANCH   6   7
HETATM    7  C   UNL     1     -10.938  14.843  69.704  1.00  0.00    -0.294 C  
BRANCH   7   8
HETATM    8  C   UNL     1     -12.051  13.804  69.765  1.00  0.00    -0.400 C  
BRANCH   8   9
HETATM    9  C   UNL     1     -11.798  12.572  68.902  1.00  0.00    -0.346 C  
BRANCH   9  10
HETATM   10  C   UNL     1     -11.343  11.431  69.817  1.00  0.00    -0.332 C  
BRANCH  10  11
HETATM   11  C   UNL     1     -10.147  10.653  69.292  1.00  0.00    -0.227 C  
BRANCH  11  12
HETATM   12  C   UNL     1      -9.181  11.423  68.373  1.00  0.00    -0.183 C  
BRANCH  12  13
HETATM   13  C   UNL     1      -7.681  11.256  68.702  1.00  0.00    -0.136 C  
BRANCH  13  14
HETATM   14  C   UNL     1      -7.399  10.461  69.983  1.00  0.00    -0.111 C  
HETATM   15  O   UNL     1      -5.974  10.295  70.234  1.00  0.00    -0.065 OA 
HETATM   16  O   UNL     1      -5.148   8.145  70.297  1.00  0.00    -0.023 OA 
HETATM   17  C   UNL     1      -7.553   8.918  69.881  1.00  0.00    -0.063 C  
HETATM   18  C   UNL     1      -6.040   8.947  70.164  1.00  0.00    -0.037 C  
BRANCH  17  19
HETATM   19  C   UNL     1      -8.357   8.157  70.931  1.00  0.00    -0.124 C  
BRANCH  19  20
HETATM   20  C   UNL     1      -8.054   6.663  70.859  1.00  0.00    -0.119 C  
BRANCH  20  21
HETATM   21  C   UNL     1      -8.742   5.898  71.992  1.00  0.00    -0.137 C  
BRANCH  21  22
HETATM   22  C   UNL     1     -10.081   6.541  72.360  1.00  0.00    -0.187 C  
BRANCH  22  23
HETATM   23  C   UNL     1     -10.954   5.601  73.191  1.00  0.00    -0.326 C  
HETATM   24  C   UNL     1     -10.245   4.279  73.450  1.00  0.00    -0.219 C  
ENDBRANCH  22  23
ENDBRANCH  21  22
ENDBRANCH  20  21
ENDBRANCH  19  20
ENDBRANCH  17  19
ENDBRANCH  13  14
ENDBRANCH  12  13
BRANCH  12  25
HETATM   25  O   UNL     1      -9.364  11.031  66.993  1.00  0.00    -0.169 OA 
BRANCH  25  26
HETATM   26  C   UNL     1     -10.218  10.001  66.742  1.00  0.00    -0.232 C  
HETATM   27  O   UNL     1     -11.408  10.102  66.463  1.00  0.00     0.199 OA 
BRANCH  26  28
HETATM   28  C   UNL     1      -9.494   8.660  66.830  1.00  0.00    -0.191 C  
BRANCH  28  29
HETATM   29  C   UNL     1      -8.176   8.667  66.039  1.00  0.00    -0.127 C  
HETATM   30  C   UNL     1      -8.966   9.670  63.797  1.00  0.00    -0.251 C  
HETATM   31  C   UNL     1      -6.874   8.334  63.925  1.00  0.00    -0.075 C  
HETATM   32  C   UNL     1      -8.281   8.501  64.506  1.00  0.00    -0.158 C  
ENDBRANCH  28  29
BRANCH  28  33
HETATM   33  N   UNL     1     -10.412   7.602  66.410  1.00  0.00    -0.407 N  
HETATM   34  C   UNL     1     -11.068   6.798  67.298  1.00  0.00    -0.324 C  
HETATM   35  O   UNL     1     -10.939   6.832  68.512  1.00  0.00    -0.231 OA 
HETATM   36  H   UNL     1     -10.568   7.458  65.412  1.00  0.00     0.000 HD 
ENDBRANCH  28  33
ENDBRANCH  26  28
ENDBRANCH  25  26
ENDBRANCH  12  25
ENDBRANCH  11  12
ENDBRANCH  10  11
ENDBRANCH   9  10
ENDBRANCH   8   9
ENDBRANCH   7   8
ENDBRANCH   6   7
ENDBRANCH   5   6
ENDBRANCH   4   5
ENDBRANCH   3   4
ENDBRANCH   2   3
TORSDOF 22
ENDMDL
MODEL      420
REMARK 921   NORMALIZED FREE ENERGY PREDICTED BY IDOCK:   -2.36 KCAL/MOL
REMARK 922        TOTAL FREE ENERGY PREDICTED BY IDOCK:   -9.02 KCAL/MOL
REMARK 923 INTER-LIGAND FREE ENERGY PREDICTED BY IDOCK:   -6.77 KCAL/MOL
REMARK 924 INTRA-LIGAND FREE ENERGY PREDICTED BY IDOCK:   -2.25 KCAL/MOL
REMARK 927      BINDING AFFINITY PREDICTED BY RF-SCORE:    0.00 PKD
ROOT
HETATM    1  C   UNL     1      -9.643   3.871  62.904  1.00  0.00    -0.132 C  
HETATM    2  C   UNL     1     -10.375   3.459  64.171  1.00  0.00    -0.192 C  
ENDROOT
BRANCH   2   3
HETATM    3  C   UNL     1      -9.773   4.146  65.393  1.00  0.00    -0.201 C  
BRANCH   3   4
HETATM    4  C   UNL     1      -8.384   4.704  65.102  1.00  0.00    -0.126 C  
BRANCH   4   5
HETATM    5  C   UNL     1      -8.338   6.211  65.364  1.00  0.00    -0.150 C  
BRANCH   5   6
HETATM    6  C   UNL     1      -7.471   6.517  66.578  1.00  0.00    -0.086 C  
BRANCH   6   7
HETATM    7  C   UNL     1      -6.830   7.903  66.502  1.00  0.00    -0.070 C  
BRANCH   7   8
HETATM    8  C   UNL     1      -6.671   8.284  65.035  1.00  0.00    -0.063 C  
BRANCH   8   9
HETATM    9  C   UNL     1      -7.038   9.732  64.726  1.00  0.00    -0.126 C  
BRANCH   9  10
HETATM   10  C   UNL     1      -6.707  10.583  65.957  1.00  0.00    -0.130 C  
BRANCH  10  11
HETATM   11  C   UNL     1      -7.892  11.360  66.509  1.00  0.00    -0.105 C  
BRANCH  11  12
HETATM   12  C   UNL     1      -7.853  11.689  68.013  1.00  0.00    -0.128 C  
BRANCH  12  13
HETATM   13  C   UNL     1      -8.658  12.937  68.437  1.00  0.00    -0.120 C  
BRANCH  13  14
HETATM   14  C   UNL     1      -9.017  13.881  67.283  1.00  0.00    -0.221 C  
HETATM   15  O   UNL     1      -8.001  14.900  67.061  1.00  0.00    -0.207 OA 
HETATM   16  O   UNL     1      -8.630  17.103  67.306  1.00  0.00    -0.196 OA 
HETATM   17  C   UNL     1     -10.051  14.995  67.605  1.00  0.00    -0.231 C  
HETATM   18  C   UNL     1      -8.851  15.917  67.322  1.00  0.00    -0.196 C  
BRANCH  17  19
HETATM   19  C   UNL     1     -11.237  15.232  66.675  1.00  0.00    -0.232 C  
BRANCH  19  20
HETATM   20  C   UNL     1     -10.841  14.972  65.225  1.00  0.00    -0.399 C  
BRANCH  20  21
HETATM   21  C   UNL     1     -12.069  14.717  64.346  1.00  0.00    -0.457 C  
BRANCH  21  22
HETATM   22  C   UNL     1     -12.396  13.224  64.274  1.00  0.00    -0.406 C  
BRANCH  22  23
HETATM   23  C   UNL     1     -11.132  12.370  64.181  1.00  0.00    -0.425 C  
HETATM   24  C   UNL     1     -10.934  11.542  65.444  1.00  0.00    -0.288 C  
ENDBRANCH  22  23
ENDBRANCH  21  22
ENDBRANCH  20  21
ENDBRANCH  19  20
ENDBRANCH  17  19
ENDBRANCH  13  14
ENDBRANCH  12  13
BRANCH  12  25
HETATM   25  O   UNL     1      -8.345  10.575  68.794  1.00  0.00    -0.119 OA 
BRANCH  25  26
HETATM   26  C   UNL     1      -7.609  10.193  69.874  1.00  0.00    -0.166 C  
HETATM   27  O   UNL     1      -6.707  10.838  70.396  1.00  0.00    -0.279 OA 
BRANCH  26  28
HETATM   28  C   UNL     1      -8.068   8.832  70.391  1.00  0.00    -0.116 C  
BRANCH  28  29
HETATM   29  C   UNL     1      -9.284   8.952  71.323  1.00  0.00    -0.328 C  
HETATM   30  C   UNL     1     -11.182   8.234  69.729  1.00  0.00     0.029 C  
HETATM   31  C   UNL     1     -11.670   9.581  71.761  1.00  0.00    -0.411 C  
HETATM   32  C   UNL     1     -10.635   9.314  70.664  1.00  0.00    -0.324 C  
ENDBRANCH  28  29
BRANCH  28  33
HETATM   33  N   UNL     1      -6.930   8.158  71.015  1.00  0.00    -0.045 N  
HETATM   34  C   UNL     1      -6.598   6.862  70.740  1.00  0.00    -0.052 C  
HETATM   35  O   UNL     1      -7.218   6.114  70.000  1.00  0.00    -0.069 OA 
HETATM   36  H   UNL     1      -6.359   8.678  71.682  1.00  0.00     0.000 HD 
ENDBRANCH  28  33
ENDBRANCH  26  28
ENDBRANCH  25  26
ENDBRANCH  12  25
ENDBRANCH  11  12
ENDBRANCH  10  11
ENDBRANCH   9  10
ENDBRANCH   8   9
ENDBRANCH   7   8
ENDBRANCH   6   7
ENDBRANCH   5   6
ENDBRANCH   4   5
ENDBRANCH   3   4
ENDBRANCH   2   3
TORSDOF 22
ENDMDL
MODEL      421
REMARK 921   NORMALIZED FREE ENERGY PREDICTED BY IDOCK:   -2.34 KCAL/MOL
REMARK 922        TOTAL FREE ENERGY PREDICTED BY IDOCK:   -8.97 KCAL/MOL
REMARK 923 INTER-LIGAND FREE ENERGY PREDICTED BY IDOCK:   -6.66 KCAL/MOL
REMARK 924 INTRA-LIGAND FREE ENERGY PREDICTED BY IDOCK:   -2.31 KCAL/MOL
REMARK 927      BINDING AFFINITY PREDICTED BY RF-SCORE:    0.00 PKD
ROOT
HETATM    1  C   UNL     1      -9.907  10.116  64.694  1.00  0.00    -0.361 C  
HETATM    2  C   UNL     1      -9.734  11.615  64.516  1.00  0.00    -0.203 C  
ENDROOT
BRANCH   2   3
HETATM    3  C   UNL     1     -10.621  12.133  63.387  1.00  0.00    -0.454 C  
BRANCH   3   4
HETATM    4  C   UNL     1     -12.092  11.813  63.632  1.00  0.00    -0.486 C  
BRANCH   4   5
HETATM    5  C   UNL     1     -12.828  13.033  64.190  1.00  0.00    -0.078 C  
BRANCH   5   6
HETATM    6  C   UNL     1     -12.002  14.296  63.983  1.00  0.00    -0.328 C  
BRANCH   6   7
HETATM    7  C   UNL     1     -11.410  14.826  65.290  1.00  0.00    -0.363 C  
BRANCH   7   8
HETATM    8  C   UNL     1     -12.123  14.148  66.455  1.00  0.00    -0.475 C  
BRANCH   8   9
HETATM    9  C   UNL     1     -11.194  13.380  67.388  1.00  0.00    -0.311 C  
BRANCH   9  10
HETATM   10  C   UNL     1     -10.621  14.364  68.413  1.00  0.00    -0.248 C  
BRANCH  10  11
HETATM   11  C   UNL     1     -10.771  15.826  68.019  1.00  0.00    -0.296 C  
BRANCH  11  12
HETATM   12  C   UNL     1      -9.561  16.736  68.294  1.00  0.00    -0.244 C  
BRANCH  12  13
HETATM   13  C   UNL     1      -8.678  16.316  69.490  1.00  0.00     0.103 C  
BRANCH  13  14
HETATM   14  C   UNL     1      -7.909  15.006  69.280  1.00  0.00    -0.190 C  
HETATM   15  O   UNL     1      -7.521  14.380  70.536  1.00  0.00     0.551 OA 
HETATM   16  O   UNL     1      -5.269  14.095  70.935  1.00  0.00    -0.107 OA 
HETATM   17  C   UNL     1      -6.409  15.145  68.897  1.00  0.00    -0.090 C  
HETATM   18  C   UNL     1      -6.201  14.464  70.262  1.00  0.00    -0.172 C  
BRANCH  17  19
HETATM   19  C   UNL     1      -5.841  14.352  67.724  1.00  0.00    -0.093 C  
BRANCH  19  20
HETATM   20  C   UNL     1      -6.062  12.857  67.931  1.00  0.00    -0.125 C  
BRANCH  20  21
HETATM   21  C   UNL     1      -7.108  12.306  66.958  1.00  0.00    -0.040 C  
BRANCH  21  22
HETATM   22  C   UNL     1      -8.189  11.517  67.699  1.00  0.00    -0.131 C  
BRANCH  22  23
HETATM   23  C   UNL     1      -7.899  10.016  67.697  1.00  0.00    -0.095 C  
HETATM   24  C   UNL     1      -7.394   9.552  69.057  1.00  0.00    -0.072 C  
ENDBRANCH  22  23
ENDBRANCH  21  22
ENDBRANCH  20  21
ENDBRANCH  19  20
ENDBRANCH  17  19
ENDBRANCH  13  14
ENDBRANCH  12  13
BRANCH  12  25
HETATM   25  O   UNL     1      -8.702  16.813  67.133  1.00  0.00    -0.191 OA 
BRANCH  25  26
HETATM   26  C   UNL     1      -8.901  17.851  66.274  1.00  0.00    -0.163 C  
HETATM   27  O   UNL     1      -9.957  18.135  65.719  1.00  0.00    -0.547 OA 
BRANCH  26  28
HETATM   28  C   UNL     1      -7.620  18.660  66.091  1.00  0.00    -0.246 C  
BRANCH  28  29
HETATM   29  C   UNL     1      -6.601  18.380  67.208  1.00  0.00    -0.205 C  
HETATM   30  C   UNL     1      -7.558  19.841  69.108  1.00  0.00    -0.218 C  
HETATM   31  C   UNL     1      -5.176  19.129  69.127  1.00  0.00    -0.202 C  
HETATM   32  C   UNL     1      -6.351  19.517  68.225  1.00  0.00    -0.264 C  
ENDBRANCH  28  29
BRANCH  28  33
HETATM   33  N   UNL     1      -7.970  20.075  65.973  1.00  0.00    -0.468 N  
HETATM   34  C   UNL     1      -7.351  20.918  65.095  1.00  0.00     0.464 C  
HETATM   35  O   UNL     1      -6.426  20.616  64.357  1.00  0.00    -0.315 OA 
HETATM   36  H   UNL     1      -8.708  20.448  66.571  1.00  0.00     0.000 HD 
ENDBRANCH  28  33
ENDBRANCH  26  28
ENDBRANCH  25  26
ENDBRANCH  12  25
ENDBRANCH  11  12
ENDBRANCH  10  11
ENDBRANCH   9  10
ENDBRANCH   8   9
ENDBRANCH   7   8
ENDBRANCH   6   7
ENDBRANCH   5   6
ENDBRANCH   4   5
ENDBRANCH   3   4
ENDBRANCH   2   3
TORSDOF 22
ENDMDL
MODEL      422
REMARK 921   NORMALIZED FREE ENERGY PREDICTED BY IDOCK:   -2.33 KCAL/MOL
REMARK 922        TOTAL FREE ENERGY PREDICTED BY IDOCK:   -8.95 KCAL/MOL
REMARK 923 INTER-LIGAND FREE ENERGY PREDICTED BY IDOCK:   -6.84 KCAL/MOL
REMARK 924 INTRA-LIGAND FREE ENERGY PREDICTED BY IDOCK:   -2.11 KCAL/MOL
REMARK 927      BINDING AFFINITY PREDICTED BY RF-SCORE:    0.00 PKD
ROOT
HETATM    1  C   UNL     1     -12.346  16.019  73.126  1.00  0.00    -0.637 C  
HETATM    2  C   UNL     1     -13.636  15.590  72.447  1.00  0.00    -0.636 C  
ENDROOT
BRANCH   2   3
HETATM    3  C   UNL     1     -13.344  14.714  71.231  1.00  0.00    -0.447 C  
BRANCH   3   4
HETATM    4  C   UNL     1     -11.886  14.819  70.795  1.00  0.00    -0.370 C  
BRANCH   4   5
HETATM    5  C   UNL     1     -11.768  15.578  69.472  1.00  0.00    -0.380 C  
BRANCH   5   6
HETATM    6  C   UNL     1     -11.630  14.605  68.309  1.00  0.00    -0.353 C  
BRANCH   6   7
HETATM    7  C   UNL     1     -10.376  13.735  68.422  1.00  0.00    -0.247 C  
BRANCH   7   8
HETATM    8  C   UNL     1     -10.699  12.348  67.879  1.00  0.00    -0.245 C  
BRANCH   8   9
HETATM    9  C   UNL     1     -11.697  11.566  68.728  1.00  0.00    -0.397 C  
BRANCH   9  10
HETATM   10  C   UNL     1     -11.079  10.205  69.062  1.00  0.00    -0.249 C  
BRANCH  10  11
HETATM   11  C   UNL     1     -10.358  10.163  70.401  1.00  0.00    -0.178 C  
BRANCH  11  12
HETATM   12  C   UNL     1      -8.992   9.453  70.420  1.00  0.00    -0.250 C  
BRANCH  12  13
HETATM   13  C   UNL     1      -8.650   8.716  71.734  1.00  0.00    -0.240 C  
BRANCH  13  14
HETATM   14  C   UNL     1      -9.779   7.831  72.276  1.00  0.00    -0.186 C  
HETATM   15  O   UNL     1      -9.693   7.639  73.717  1.00  0.00    -0.285 OA 
HETATM   16  O   UNL     1      -9.424   5.485  74.491  1.00  0.00    -0.132 OA 
HETATM   17  C   UNL     1      -9.609   6.300  72.071  1.00  0.00    -0.161 C  
HETATM   18  C   UNL     1      -9.549   6.300  73.609  1.00  0.00    -0.159 C  
BRANCH  17  19
HETATM   19  C   UNL     1     -10.758   5.472  71.504  1.00  0.00    -0.290 C  
BRANCH  19  20
HETATM   20  C   UNL     1     -12.100   6.011  71.990  1.00  0.00    -0.170 C  
BRANCH  20  21
HETATM   21  C   UNL     1     -12.892   6.652  70.848  1.00  0.00     0.091 C  
BRANCH  21  22
HETATM   22  C   UNL     1     -14.251   7.160  71.335  1.00  0.00    -0.414 C  
BRANCH  22  23
HETATM   23  C   UNL     1     -14.398   8.669  71.137  1.00  0.00    -0.144 C  
HETATM   24  C   UNL     1     -13.599   9.439  72.180  1.00  0.00    -0.528 C  
ENDBRANCH  22  23
ENDBRANCH  21  22
ENDBRANCH  20  21
ENDBRANCH  19  20
ENDBRANCH  17  19
ENDBRANCH  13  14
ENDBRANCH  12  13
BRANCH  12  25
HETATM   25  O   UNL     1      -8.902   8.485  69.349  1.00  0.00    -0.138 OA 
BRANCH  25  26
HETATM   26  C   UNL     1      -7.757   8.472  68.611  1.00  0.00    -0.103 C  
HETATM   27  O   UNL     1      -6.668   8.913  68.962  1.00  0.00    -0.050 OA 
BRANCH  26  28
HETATM   28  C   UNL     1      -7.990   7.804  67.259  1.00  0.00    -0.118 C  
BRANCH  28  29
HETATM   29  C   UNL     1      -6.854   6.833  66.896  1.00  0.00    -0.065 C  
HETATM   30  C   UNL     1      -6.503   7.417  64.407  1.00  0.00    -0.040 C  
HETATM   31  C   UNL     1      -5.745   5.232  65.320  1.00  0.00    -0.014 C  
HETATM   32  C   UNL     1      -6.809   6.327  65.436  1.00  0.00    -0.048 C  
ENDBRANCH  28  29
BRANCH  28  33
HETATM   33  N   UNL     1      -8.204   8.842  66.252  1.00  0.00    -0.113 N  
HETATM   34  C   UNL     1      -9.362   8.950  65.537  1.00  0.00    -0.145 C  
HETATM   35  O   UNL     1     -10.315   8.189  65.614  1.00  0.00     0.998 OA 
HETATM   36  H   UNL     1      -7.456   9.514  66.076  1.00  0.00     0.000 HD 
ENDBRANCH  28  33
ENDBRANCH  26  28
ENDBRANCH  25  26
ENDBRANCH  12  25
ENDBRANCH  11  12
ENDBRANCH  10  11
ENDBRANCH   9  10
ENDBRANCH   8   9
ENDBRANCH   7   8
ENDBRANCH   6   7
ENDBRANCH   5   6
ENDBRANCH   4   5
ENDBRANCH   3   4
ENDBRANCH   2   3
TORSDOF 22
ENDMDL
MODEL      423
REMARK 921   NORMALIZED FREE ENERGY PREDICTED BY IDOCK:   -2.29 KCAL/MOL
REMARK 922        TOTAL FREE ENERGY PREDICTED BY IDOCK:   -8.85 KCAL/MOL
REMARK 923 INTER-LIGAND FREE ENERGY PREDICTED BY IDOCK:   -7.27 KCAL/MOL
REMARK 924 INTRA-LIGAND FREE ENERGY PREDICTED BY IDOCK:   -1.58 KCAL/MOL
REMARK 927      BINDING AFFINITY PREDICTED BY RF-SCORE:    0.00 PKD
ROOT
HETATM    1  C   UNL     1      -6.529  18.831  69.276  1.00  0.00    -0.301 C  
HETATM    2  C   UNL     1      -7.357  17.803  68.522  1.00  0.00    -0.266 C  
ENDROOT
BRANCH   2   3
HETATM    3  C   UNL     1      -8.430  18.485  67.677  1.00  0.00    -0.276 C  
BRANCH   3   4
HETATM    4  C   UNL     1      -8.839  17.627  66.484  1.00  0.00    -0.287 C  
BRANCH   4   5
HETATM    5  C   UNL     1     -10.276  17.125  66.643  1.00  0.00    -0.319 C  
BRANCH   5   6
HETATM    6  C   UNL     1     -10.337  15.614  66.469  1.00  0.00    -0.296 C  
BRANCH   6   7
HETATM    7  C   UNL     1     -11.107  14.927  67.599  1.00  0.00    -0.315 C  
BRANCH   7   8
HETATM    8  C   UNL     1     -10.168  13.954  68.304  1.00  0.00    -0.247 C  
BRANCH   8   9
HETATM    9  C   UNL     1      -8.764  14.504  68.535  1.00  0.00    -0.177 C  
BRANCH   9  10
HETATM   10  C   UNL     1      -7.777  13.334  68.487  1.00  0.00    -0.120 C  
BRANCH  10  11
HETATM   11  C   UNL     1      -8.410  12.004  68.108  1.00  0.00    -0.165 C  
BRANCH  11  12
HETATM   12  C   UNL     1      -7.447  10.893  67.651  1.00  0.00    -0.095 C  
BRANCH  12  13
HETATM   13  C   UNL     1      -7.585   9.550  68.401  1.00  0.00    -0.081 C  
BRANCH  13  14
HETATM   14  C   UNL     1      -8.828   9.448  69.293  1.00  0.00    -0.150 C  
HETATM   15  O   UNL     1      -8.557   9.828  70.672  1.00  0.00    -0.184 OA 
HETATM   16  O   UNL     1      -8.883   8.231  72.301  1.00  0.00    -0.169 OA 
HETATM   17  C   UNL     1      -9.214   8.020  69.771  1.00  0.00    -0.149 C  
HETATM   18  C   UNL     1      -8.885   8.609  71.155  1.00  0.00    -0.199 C  
BRANCH  17  19
HETATM   19  C   UNL     1     -10.652   7.531  69.640  1.00  0.00    -0.243 C  
BRANCH  19  20
HETATM   20  C   UNL     1     -10.797   6.127  70.221  1.00  0.00    -0.385 C  
BRANCH  20  21
HETATM   21  C   UNL     1      -9.607   5.240  69.842  1.00  0.00    -0.241 C  
BRANCH  21  22
HETATM   22  C   UNL     1      -9.830   4.569  68.485  1.00  0.00    -0.160 C  
BRANCH  22  23
HETATM   23  C   UNL     1      -9.201   3.177  68.430  1.00  0.00    -0.235 C  
HETATM   24  C   UNL     1      -9.108   2.673  66.996  1.00  0.00    -0.171 C  
ENDBRANCH  22  23
ENDBRANCH  21  22
ENDBRANCH  20  21
ENDBRANCH  19  20
ENDBRANCH  17  19
ENDBRANCH  13  14
ENDBRANCH  12  13
BRANCH  12  25
HETATM   25  O   UNL     1      -7.614  10.617  66.241  1.00  0.00    -0.126 OA 
BRANCH  25  26
HETATM   26  C   UNL     1      -7.162   9.418  65.779  1.00  0.00    -0.095 C  
HETATM   27  O   UNL     1      -6.011   9.003  65.858  1.00  0.00    -0.050 OA 
BRANCH  26  28
HETATM   28  C   UNL     1      -8.296   8.616  65.149  1.00  0.00    -0.168 C  
BRANCH  28  29
HETATM   29  C   UNL     1      -9.526   9.490  64.858  1.00  0.00    -0.230 C  
HETATM   30  C   UNL     1      -9.112  10.095  62.384  1.00  0.00    -0.306 C  
HETATM   31  C   UNL     1     -10.609  11.486  63.800  1.00  0.00    -0.465 C  
HETATM   32  C   UNL     1      -9.354  10.608  63.804  1.00  0.00    -0.304 C  
ENDBRANCH  28  29
BRANCH  28  33
HETATM   33  N   UNL     1      -8.594   7.470  66.006  1.00  0.00    -0.147 N  
HETATM   34  C   UNL     1      -7.798   6.361  66.062  1.00  0.00    -0.103 C  
HETATM   35  O   UNL     1      -6.795   6.176  65.389  1.00  0.00    -0.046 OA 
HETATM   36  H   UNL     1      -9.432   7.499  66.588  1.00  0.00     0.000 HD 
ENDBRANCH  28  33
ENDBRANCH  26  28
ENDBRANCH  25  26
ENDBRANCH  12  25
ENDBRANCH  11  12
ENDBRANCH  10  11
ENDBRANCH   9  10
ENDBRANCH   8   9
ENDBRANCH   7   8
ENDBRANCH   6   7
ENDBRANCH   5   6
ENDBRANCH   4   5
ENDBRANCH   3   4
ENDBRANCH   2   3
TORSDOF 22
ENDMDL
MODEL      424
REMARK 921   NORMALIZED FREE ENERGY PREDICTED BY IDOCK:   -2.27 KCAL/MOL
REMARK 922        TOTAL FREE ENERGY PREDICTED BY IDOCK:   -8.80 KCAL/MOL
REMARK 923 INTER-LIGAND FREE ENERGY PREDICTED BY IDOCK:   -7.72 KCAL/MOL
REMARK 924 INTRA-LIGAND FREE ENERGY PREDICTED BY IDOCK:   -1.09 KCAL/MOL
REMARK 927      BINDING AFFINITY PREDICTED BY RF-SCORE:    0.00 PKD
ROOT
HETATM    1  C   UNL     1      -8.680   4.553  74.556  1.00  0.00    -0.108 C  
HETATM    2  C   UNL     1      -8.938   6.036  74.350  1.00  0.00    -0.134 C  
ENDROOT
BRANCH   2   3
HETATM    3  C   UNL     1      -9.685   6.281  73.042  1.00  0.00    -0.158 C  
BRANCH   3   4
HETATM    4  C   UNL     1      -9.259   5.298  71.955  1.00  0.00    -0.154 C  
BRANCH   4   5
HETATM    5  C   UNL     1     -10.184   4.079  71.934  1.00  0.00    -0.160 C  
BRANCH   5   6
HETATM    6  C   UNL     1      -9.778   3.121  70.822  1.00  0.00    -0.157 C  
BRANCH   6   7
HETATM    7  C   UNL     1      -8.662   3.687  69.942  1.00  0.00    -0.130 C  
BRANCH   7   8
HETATM    8  C   UNL     1      -9.253   4.055  68.586  1.00  0.00    -0.209 C  
BRANCH   8   9
HETATM    9  C   UNL     1      -8.425   5.068  67.803  1.00  0.00    -0.104 C  
BRANCH   9  10
HETATM   10  C   UNL     1      -8.319   6.349  68.636  1.00  0.00    -0.121 C  
BRANCH  10  11
HETATM   11  C   UNL     1      -9.556   7.232  68.575  1.00  0.00    -0.140 C  
BRANCH  11  12
HETATM   12  C   UNL     1      -9.442   8.510  67.724  1.00  0.00    -0.145 C  
BRANCH  12  13
HETATM   13  C   UNL     1      -9.879   8.364  66.250  1.00  0.00    -0.257 C  
BRANCH  13  14
HETATM   14  C   UNL     1      -8.783   8.695  65.230  1.00  0.00    -0.165 C  
HETATM   15  O   UNL     1      -7.451   8.681  65.818  1.00  0.00    -0.083 OA 
HETATM   16  O   UNL     1      -6.245  10.645  65.770  1.00  0.00    -0.122 OA 
HETATM   17  C   UNL     1      -8.604  10.199  64.880  1.00  0.00    -0.188 C  
HETATM   18  C   UNL     1      -7.228   9.984  65.537  1.00  0.00    -0.133 C  
BRANCH  17  19
HETATM   19  C   UNL     1      -8.523  10.642  63.423  1.00  0.00    -0.103 C  
BRANCH  19  20
HETATM   20  C   UNL     1      -9.918  10.901  62.862  1.00  0.00    -0.251 C  
BRANCH  20  21
HETATM   21  C   UNL     1     -10.871  11.410  63.947  1.00  0.00    -0.463 C  
BRANCH  21  22
HETATM   22  C   UNL     1     -11.731  12.565  63.430  1.00  0.00    -0.567 C  
BRANCH  22  23
HETATM   23  C   UNL     1     -12.107  13.538  64.547  1.00  0.00    -0.460 C  
HETATM   24  C   UNL     1     -11.299  13.264  65.808  1.00  0.00    -0.328 C  
ENDBRANCH  22  23
ENDBRANCH  21  22
ENDBRANCH  20  21
ENDBRANCH  19  20
ENDBRANCH  17  19
ENDBRANCH  13  14
ENDBRANCH  12  13
BRANCH  12  25
HETATM   25  O   UNL     1     -10.227   9.581  68.300  1.00  0.00    -0.177 OA 
BRANCH  25  26
HETATM   26  C   UNL     1      -9.980   9.911  69.598  1.00  0.00    -0.231 C  
HETATM   27  O   UNL     1      -8.888  10.206  70.072  1.00  0.00    -0.146 OA 
BRANCH  26  28
HETATM   28  C   UNL     1     -11.266   9.890  70.419  1.00  0.00    -0.313 C  
BRANCH  28  29
HETATM   29  C   UNL     1     -11.836   8.469  70.557  1.00  0.00    -0.022 C  
HETATM   30  C   UNL     1     -13.763   8.884  72.223  1.00  0.00    -0.527 C  
HETATM   31  C   UNL     1     -12.806   6.608  71.926  1.00  0.00    -0.209 C  
HETATM   32  C   UNL     1     -12.483   8.105  71.912  1.00  0.00    -0.368 C  
ENDBRANCH  28  29
BRANCH  28  33
HETATM   33  N   UNL     1     -12.214  10.835  69.831  1.00  0.00    -0.405 N  
HETATM   34  C   UNL     1     -11.823  12.006  69.247  1.00  0.00    -0.318 C  
HETATM   35  O   UNL     1     -10.675  12.419  69.187  1.00  0.00    -0.160 OA 
HETATM   36  H   UNL     1     -13.209  10.610  69.858  1.00  0.00     0.000 HD 
ENDBRANCH  28  33
ENDBRANCH  26  28
ENDBRANCH  25  26
ENDBRANCH  12  25
ENDBRANCH  11  12
ENDBRANCH  10  11
ENDBRANCH   9  10
ENDBRANCH   8   9
ENDBRANCH   7   8
ENDBRANCH   6   7
ENDBRANCH   5   6
ENDBRANCH   4   5
ENDBRANCH   3   4
ENDBRANCH   2   3
TORSDOF 22
ENDMDL
MODEL      425
REMARK 921   NORMALIZED FREE ENERGY PREDICTED BY IDOCK:   -2.17 KCAL/MOL
REMARK 922        TOTAL FREE ENERGY PREDICTED BY IDOCK:   -8.58 KCAL/MOL
REMARK 923 INTER-LIGAND FREE ENERGY PREDICTED BY IDOCK:   -6.72 KCAL/MOL
REMARK 924 INTRA-LIGAND FREE ENERGY PREDICTED BY IDOCK:   -1.86 KCAL/MOL
REMARK 927      BINDING AFFINITY PREDICTED BY RF-SCORE:    0.00 PKD
ROOT
HETATM    1  C   UNL     1      -9.573   2.576  74.082  1.00  0.00    -0.115 C  
HETATM    2  C   UNL     1      -9.674   2.391  72.576  1.00  0.00    -0.186 C  
ENDROOT
BRANCH   2   3
HETATM    3  C   UNL     1      -8.565   3.156  71.860  1.00  0.00    -0.101 C  
BRANCH   3   4
HETATM    4  C   UNL     1      -9.127   4.222  70.923  1.00  0.00    -0.186 C  
BRANCH   4   5
HETATM    5  C   UNL     1      -9.409   3.634  69.539  1.00  0.00    -0.247 C  
BRANCH   5   6
HETATM    6  C   UNL     1      -8.218   2.821  69.051  1.00  0.00    -0.074 C  
BRANCH   6   7
HETATM    7  C   UNL     1      -7.085   3.704  68.525  1.00  0.00    -0.051 C  
BRANCH   7   8
HETATM    8  C   UNL     1      -7.093   3.648  67.002  1.00  0.00    -0.063 C  
BRANCH   8   9
HETATM    9  C   UNL     1      -8.391   3.110  66.408  1.00  0.00    -0.100 C  
BRANCH   9  10
HETATM   10  C   UNL     1      -9.180   4.290  65.832  1.00  0.00    -0.145 C  
BRANCH  10  11
HETATM   11  C   UNL     1      -8.384   5.582  65.738  1.00  0.00    -0.129 C  
BRANCH  11  12
HETATM   12  C   UNL     1      -9.057   6.843  66.311  1.00  0.00    -0.141 C  
BRANCH  12  13
HETATM   13  C   UNL     1      -9.249   6.851  67.843  1.00  0.00    -0.124 C  
BRANCH  13  14
HETATM   14  C   UNL     1      -8.685   8.092  68.545  1.00  0.00    -0.134 C  
HETATM   15  O   UNL     1      -7.257   7.981  68.812  1.00  0.00    -0.079 OA 
HETATM   16  O   UNL     1      -6.576   8.056  71.013  1.00  0.00    -0.037 OA 
HETATM   17  C   UNL     1      -8.954   8.198  70.072  1.00  0.00    -0.143 C  
HETATM   18  C   UNL     1      -7.421   8.074  70.151  1.00  0.00    -0.073 C  
BRANCH  17  19
HETATM   19  C   UNL     1      -9.493   9.495  70.667  1.00  0.00    -0.277 C  
BRANCH  19  20
HETATM   20  C   UNL     1     -10.954   9.698  70.275  1.00  0.00    -0.337 C  
BRANCH  20  21
HETATM   21  C   UNL     1     -11.899   9.281  71.405  1.00  0.00    -0.428 C  
BRANCH  21  22
HETATM   22  C   UNL     1     -11.186   8.385  72.420  1.00  0.00    -0.438 C  
BRANCH  22  23
HETATM   23  C   UNL     1     -11.661   6.935  72.330  1.00  0.00    -0.296 C  
HETATM   24  C   UNL     1     -12.228   6.627  70.950  1.00  0.00    -0.324 C  
ENDBRANCH  22  23
ENDBRANCH  21  22
ENDBRANCH  20  21
ENDBRANCH  19  20
ENDBRANCH  17  19
ENDBRANCH  13  14
ENDBRANCH  12  13
BRANCH  12  25
HETATM   25  O   UNL     1      -8.302   8.028  65.966  1.00  0.00    -0.112 OA 
BRANCH  25  26
HETATM   26  C   UNL     1      -8.255   8.381  64.651  1.00  0.00    -0.154 C  
HETATM   27  O   UNL     1      -8.050   7.624  63.709  1.00  0.00    -0.120 OA 
BRANCH  26  28
HETATM   28  C   UNL     1      -8.516   9.874  64.479  1.00  0.00    -0.175 C  
BRANCH  28  29
HETATM   29  C   UNL     1      -9.839  10.305  65.133  1.00  0.00    -0.389 C  
HETATM   30  C   UNL     1      -9.083  12.425  66.394  1.00  0.00    -0.149 C  
HETATM   31  C   UNL     1     -11.147  11.213  67.067  1.00  0.00    -0.339 C  
HETATM   32  C   UNL     1      -9.740  11.047  66.485  1.00  0.00    -0.230 C  
ENDBRANCH  28  29
BRANCH  28  33
HETATM   33  N   UNL     1      -8.443  10.203  63.056  1.00  0.00    -0.165 N  
HETATM   34  C   UNL     1      -9.143  11.236  62.500  1.00  0.00    -0.237 C  
HETATM   35  O   UNL     1      -9.927  11.960  63.094  1.00  0.00    -0.422 OA 
HETATM   36  H   UNL     1      -7.844   9.638  62.454  1.00  0.00     0.000 HD 
ENDBRANCH  28  33
ENDBRANCH  26  28
ENDBRANCH  25  26
ENDBRANCH  12  25
ENDBRANCH  11  12
ENDBRANCH  10  11
ENDBRANCH   9  10
ENDBRANCH   8   9
ENDBRANCH   7   8
ENDBRANCH   6   7
ENDBRANCH   5   6
ENDBRANCH   4   5
ENDBRANCH   3   4
ENDBRANCH   2   3
TORSDOF 22
ENDMDL
MODEL      426
REMARK 921   NORMALIZED FREE ENERGY PREDICTED BY IDOCK:   -2.13 KCAL/MOL
REMARK 922        TOTAL FREE ENERGY PREDICTED BY IDOCK:   -8.49 KCAL/MOL
REMARK 923 INTER-LIGAND FREE ENERGY PREDICTED BY IDOCK:   -6.40 KCAL/MOL
REMARK 924 INTRA-LIGAND FREE ENERGY PREDICTED BY IDOCK:   -2.09 KCAL/MOL
REMARK 927      BINDING AFFINITY PREDICTED BY RF-SCORE:    0.00 PKD
ROOT
HETATM    1  C   UNL     1     -10.158   3.993  63.028  1.00  0.00    -0.141 C  
HETATM    2  C   UNL     1     -10.775   3.623  64.366  1.00  0.00    -0.127 C  
ENDROOT
BRANCH   2   3
HETATM    3  C   UNL     1     -10.160   4.445  65.494  1.00  0.00    -0.251 C  
BRANCH   3   4
HETATM    4  C   UNL     1      -8.814   5.040  65.092  1.00  0.00    -0.153 C  
BRANCH   4   5
HETATM    5  C   UNL     1      -8.756   6.531  65.430  1.00  0.00    -0.020 C  
BRANCH   5   6
HETATM    6  C   UNL     1      -7.906   6.765  66.671  1.00  0.00    -0.107 C  
BRANCH   6   7
HETATM    7  C   UNL     1      -7.119   8.075  66.601  1.00  0.00    -0.076 C  
BRANCH   7   8
HETATM    8  C   UNL     1      -6.999   8.490  65.139  1.00  0.00    -0.075 C  
BRANCH   8   9
HETATM    9  C   UNL     1      -6.808   9.989  64.933  1.00  0.00    -0.133 C  
BRANCH   9  10
HETATM   10  C   UNL     1      -5.965  10.529  66.092  1.00  0.00    -0.101 C  
BRANCH  10  11
HETATM   11  C   UNL     1      -6.543  11.771  66.754  1.00  0.00    -0.060 C  
BRANCH  11  12
HETATM   12  C   UNL     1      -6.542  11.788  68.293  1.00  0.00    -0.056 C  
BRANCH  12  13
HETATM   13  C   UNL     1      -6.548  13.192  68.938  1.00  0.00    -0.104 C  
BRANCH  13  14
HETATM   14  C   UNL     1      -6.872  14.333  67.966  1.00  0.00    -0.144 C  
HETATM   15  O   UNL     1      -5.679  14.894  67.347  1.00  0.00    -0.342 OA 
HETATM   16  O   UNL     1      -5.227  17.121  67.731  1.00  0.00    -0.108 OA 
HETATM   17  C   UNL     1      -7.179  15.715  68.608  1.00  0.00    -0.129 C  
HETATM   18  C   UNL     1      -5.891  16.122  67.869  1.00  0.00    -0.130 C  
BRANCH  17  19
HETATM   19  C   UNL     1      -8.409  16.505  68.174  1.00  0.00    -0.186 C  
BRANCH  19  20
HETATM   20  C   UNL     1      -9.386  15.607  67.422  1.00  0.00    -0.214 C  
BRANCH  20  21
HETATM   21  C   UNL     1     -10.803  16.188  67.435  1.00  0.00    -0.265 C  
BRANCH  21  22
HETATM   22  C   UNL     1     -11.641  15.575  68.558  1.00  0.00    -0.379 C  
BRANCH  22  23
HETATM   23  C   UNL     1     -12.020  14.125  68.258  1.00  0.00    -0.367 C  
HETATM   24  C   UNL     1     -12.357  13.939  66.784  1.00  0.00    -0.370 C  
ENDBRANCH  22  23
ENDBRANCH  21  22
ENDBRANCH  20  21
ENDBRANCH  19  20
ENDBRANCH  17  19
ENDBRANCH  13  14
ENDBRANCH  12  13
BRANCH  12  25
HETATM   25  O   UNL     1      -7.686  11.072  68.815  1.00  0.00    -0.118 OA 
BRANCH  25  26
HETATM   26  C   UNL     1      -7.475  10.241  69.873  1.00  0.00    -0.158 C  
HETATM   27  O   UNL     1      -6.598  10.362  70.721  1.00  0.00    -0.327 OA 
BRANCH  26  28
HETATM   28  C   UNL     1      -8.506   9.116  69.895  1.00  0.00    -0.147 C  
BRANCH  28  29
HETATM   29  C   UNL     1      -9.930   9.647  70.126  1.00  0.00    -0.309 C  
HETATM   30  C   UNL     1     -10.875   9.547  67.727  1.00  0.00    -0.258 C  
HETATM   31  C   UNL     1     -11.905  11.027  69.439  1.00  0.00    -0.407 C  
HETATM   32  C   UNL     1     -10.588  10.412  68.956  1.00  0.00    -0.247 C  
ENDBRANCH  28  29
BRANCH  28  33
HETATM   33  N   UNL     1      -8.095   8.121  70.884  1.00  0.00    -0.093 N  
HETATM   34  C   UNL     1      -8.619   6.860  70.925  1.00  0.00    -0.136 C  
HETATM   35  O   UNL     1      -9.501   6.436  70.194  1.00  0.00    -0.159 OA 
HETATM   36  H   UNL     1      -7.387   8.378  71.572  1.00  0.00     0.000 HD 
ENDBRANCH  28  33
ENDBRANCH  26  28
ENDBRANCH  25  26
ENDBRANCH  12  25
ENDBRANCH  11  12
ENDBRANCH  10  11
ENDBRANCH   9  10
ENDBRANCH   8   9
ENDBRANCH   7   8
ENDBRANCH   6   7
ENDBRANCH   5   6
ENDBRANCH   4   5
ENDBRANCH   3   4
ENDBRANCH   2   3
TORSDOF 22
ENDMDL
MODEL      427
REMARK 921   NORMALIZED FREE ENERGY PREDICTED BY IDOCK:   -2.12 KCAL/MOL
REMARK 922        TOTAL FREE ENERGY PREDICTED BY IDOCK:   -8.45 KCAL/MOL
REMARK 923 INTER-LIGAND FREE ENERGY PREDICTED BY IDOCK:   -6.71 KCAL/MOL
REMARK 924 INTRA-LIGAND FREE ENERGY PREDICTED BY IDOCK:   -1.75 KCAL/MOL
REMARK 927      BINDING AFFINITY PREDICTED BY RF-SCORE:    0.00 PKD
ROOT
HETATM    1  C   UNL     1      -6.395   6.401  62.330  1.00  0.00    -0.031 C  
HETATM    2  C   UNL     1      -7.069   7.109  63.494  1.00  0.00    -0.069 C  
ENDROOT
BRANCH   2   3
HETATM    3  C   UNL     1      -7.804   6.110  64.384  1.00  0.00    -0.114 C  
BRANCH   3   4
HETATM    4  C   UNL     1      -6.949   4.883  64.683  1.00  0.00    -0.050 C  
BRANCH   4   5
HETATM    5  C   UNL     1      -7.752   3.839  65.463  1.00  0.00    -0.082 C  
BRANCH   5   6
HETATM    6  C   UNL     1      -9.167   3.730  64.908  1.00  0.00    -0.148 C  
BRANCH   6   7
HETATM    7  C   UNL     1     -10.233   3.968  65.979  1.00  0.00     0.006 C  
BRANCH   7   8
HETATM    8  C   UNL     1     -10.134   5.414  66.448  1.00  0.00    -0.239 C  
BRANCH   8   9
HETATM    9  C   UNL     1     -11.030   5.744  67.638  1.00  0.00    -0.141 C  
BRANCH   9  10
HETATM   10  C   UNL     1     -10.450   6.970  68.350  1.00  0.00    -0.231 C  
BRANCH  10  11
HETATM   11  C   UNL     1     -10.816   7.062  69.823  1.00  0.00    -0.276 C  
BRANCH  11  12
HETATM   12  C   UNL     1     -11.283   8.440  70.327  1.00  0.00    -0.173 C  
BRANCH  12  13
HETATM   13  C   UNL     1     -10.672   8.893  71.671  1.00  0.00    -0.418 C  
BRANCH  13  14
HETATM   14  C   UNL     1      -9.617   7.937  72.242  1.00  0.00    -0.195 C  
HETATM   15  O   UNL     1      -9.482   8.055  73.687  1.00  0.00    -0.259 OA 
HETATM   16  O   UNL     1      -7.430   8.698  74.516  1.00  0.00    -0.339 OA 
HETATM   17  C   UNL     1      -8.135   8.373  72.076  1.00  0.00    -0.194 C  
HETATM   18  C   UNL     1      -8.187   8.433  73.613  1.00  0.00    -0.113 C  
BRANCH  17  19
HETATM   19  C   UNL     1      -7.103   7.388  71.536  1.00  0.00    -0.066 C  
BRANCH  19  20
HETATM   20  C   UNL     1      -7.114   7.381  70.011  1.00  0.00    -0.065 C  
BRANCH  20  21
HETATM   21  C   UNL     1      -7.106   5.953  69.458  1.00  0.00    -0.065 C  
BRANCH  21  22
HETATM   22  C   UNL     1      -7.795   4.984  70.421  1.00  0.00    -0.073 C  
BRANCH  22  23
HETATM   23  C   UNL     1      -8.107   3.645  69.753  1.00  0.00    -0.063 C  
HETATM   24  C   UNL     1      -7.936   2.491  70.731  1.00  0.00    -0.052 C  
ENDBRANCH  22  23
ENDBRANCH  21  22
ENDBRANCH  20  21
ENDBRANCH  19  20
ENDBRANCH  17  19
ENDBRANCH  13  14
ENDBRANCH  12  13
BRANCH  12  25
HETATM   25  O   UNL     1     -10.991   9.468  69.353  1.00  0.00    -0.230 OA 
BRANCH  25  26
HETATM   26  C   UNL     1     -11.361  10.743  69.657  1.00  0.00    -0.294 C  
HETATM   27  O   UNL     1     -12.144  11.075  70.540  1.00  0.00    -0.318 OA 
BRANCH  26  28
HETATM   28  C   UNL     1     -10.649  11.746  68.754  1.00  0.00    -0.206 C  
BRANCH  28  29
HETATM   29  C   UNL     1     -11.244  11.766  67.337  1.00  0.00    -0.357 C  
HETATM   30  C   UNL     1     -10.315  14.008  66.458  1.00  0.00    -0.285 C  
HETATM   31  C   UNL     1     -12.316  12.965  65.415  1.00  0.00    -0.538 C  
HETATM   32  C   UNL     1     -11.554  13.154  66.730  1.00  0.00    -0.414 C  
ENDBRANCH  28  29
BRANCH  28  33
HETATM   33  N   UNL     1      -9.215  11.460  68.772  1.00  0.00    -0.347 N  
HETATM   34  C   UNL     1      -8.581  10.798  67.759  1.00  0.00    -0.127 C  
HETATM   35  O   UNL     1      -9.124  10.337  66.767  1.00  0.00    -0.142 OA 
HETATM   36  H   UNL     1      -8.665  11.767  69.575  1.00  0.00     0.000 HD 
ENDBRANCH  28  33
ENDBRANCH  26  28
ENDBRANCH  25  26
ENDBRANCH  12  25
ENDBRANCH  11  12
ENDBRANCH  10  11
ENDBRANCH   9  10
ENDBRANCH   8   9
ENDBRANCH   7   8
ENDBRANCH   6   7
ENDBRANCH   5   6
ENDBRANCH   4   5
ENDBRANCH   3   4
ENDBRANCH   2   3
TORSDOF 22
ENDMDL
MODEL      428
REMARK 921   NORMALIZED FREE ENERGY PREDICTED BY IDOCK:   -2.11 KCAL/MOL
REMARK 922        TOTAL FREE ENERGY PREDICTED BY IDOCK:   -8.44 KCAL/MOL
REMARK 923 INTER-LIGAND FREE ENERGY PREDICTED BY IDOCK:   -6.40 KCAL/MOL
REMARK 924 INTRA-LIGAND FREE ENERGY PREDICTED BY IDOCK:   -2.03 KCAL/MOL
REMARK 927      BINDING AFFINITY PREDICTED BY RF-SCORE:    0.00 PKD
ROOT
HETATM    1  C   UNL     1     -11.015   1.611  73.931  1.00  0.00    -0.232 C  
HETATM    2  C   UNL     1     -11.629   2.948  73.551  1.00  0.00    -0.113 C  
ENDROOT
BRANCH   2   3
HETATM    3  C   UNL     1     -10.550   4.016  73.396  1.00  0.00    -0.275 C  
BRANCH   3   4
HETATM    4  C   UNL     1     -10.068   4.129  71.953  1.00  0.00    -0.224 C  
BRANCH   4   5
HETATM    5  C   UNL     1      -8.683   4.777  71.892  1.00  0.00    -0.133 C  
BRANCH   5   6
HETATM    6  C   UNL     1      -7.643   3.769  71.421  1.00  0.00    -0.056 C  
BRANCH   6   7
HETATM    7  C   UNL     1      -7.124   4.081  70.016  1.00  0.00    -0.042 C  
BRANCH   7   8
HETATM    8  C   UNL     1      -7.432   5.539  69.698  1.00  0.00    -0.070 C  
BRANCH   8   9
HETATM    9  C   UNL     1      -6.295   6.276  68.997  1.00  0.00    -0.041 C  
BRANCH   9  10
HETATM   10  C   UNL     1      -6.496   7.780  69.209  1.00  0.00    -0.036 C  
BRANCH  10  11
HETATM   11  C   UNL     1      -6.404   8.604  67.934  1.00  0.00    -0.057 C  
BRANCH  11  12
HETATM   12  C   UNL     1      -7.702   9.285  67.465  1.00  0.00    -0.092 C  
BRANCH  12  13
HETATM   13  C   UNL     1      -7.526  10.352  66.361  1.00  0.00    -0.120 C  
BRANCH  13  14
HETATM   14  C   UNL     1      -8.548  11.494  66.417  1.00  0.00    -0.159 C  
HETATM   15  O   UNL     1      -9.404  11.419  67.593  1.00  0.00    -0.155 OA 
HETATM   16  O   UNL     1     -11.670  11.180  67.247  1.00  0.00    -0.540 OA 
HETATM   17  C   UNL     1      -9.798  11.341  65.507  1.00  0.00    -0.274 C  
HETATM   18  C   UNL     1     -10.531  11.289  66.860  1.00  0.00    -0.245 C  
BRANCH  17  19
HETATM   19  C   UNL     1     -10.242  12.496  64.615  1.00  0.00    -0.315 C  
BRANCH  19  20
HETATM   20  C   UNL     1     -11.250  12.014  63.576  1.00  0.00    -0.526 C  
BRANCH  20  21
HETATM   21  C   UNL     1     -12.435  12.977  63.457  1.00  0.00    -0.388 C  
BRANCH  21  22
HETATM   22  C   UNL     1     -12.442  13.987  64.606  1.00  0.00    -0.366 C  
BRANCH  22  23
HETATM   23  C   UNL     1     -12.178  15.410  64.114  1.00  0.00    -0.075 C  
HETATM   24  C   UNL     1     -10.993  16.031  64.841  1.00  0.00    -0.399 C  
ENDBRANCH  22  23
ENDBRANCH  21  22
ENDBRANCH  20  21
ENDBRANCH  19  20
ENDBRANCH  17  19
ENDBRANCH  13  14
ENDBRANCH  12  13
BRANCH  12  25
HETATM   25  O   UNL     1      -8.645   8.306  66.970  1.00  0.00    -0.120 OA 
BRANCH  25  26
HETATM   26  C   UNL     1      -8.355   7.699  65.785  1.00  0.00    -0.141 C  
HETATM   27  O   UNL     1      -8.061   8.265  64.738  1.00  0.00    -0.139 OA 
BRANCH  26  28
HETATM   28  C   UNL     1      -8.419   6.181  65.922  1.00  0.00    -0.145 C  
BRANCH  28  29
HETATM   29  C   UNL     1      -7.569   5.472  64.856  1.00  0.00    -0.078 C  
HETATM   30  C   UNL     1      -5.982   4.089  66.349  1.00  0.00    -0.027 C  
HETATM   31  C   UNL     1      -5.376   4.619  63.997  1.00  0.00    -0.013 C  
HETATM   32  C   UNL     1      -6.111   5.133  65.238  1.00  0.00    -0.030 C  
ENDBRANCH  28  29
BRANCH  28  33
HETATM   33  N   UNL     1      -9.822   5.767  65.909  1.00  0.00    -0.372 N  
HETATM   34  C   UNL     1     -10.283   4.696  66.621  1.00  0.00    -0.213 C  
HETATM   35  O   UNL     1      -9.595   3.947  67.297  1.00  0.00    -0.193 OA 
HETATM   36  H   UNL     1     -10.484   6.301  65.345  1.00  0.00     0.000 HD 
ENDBRANCH  28  33
ENDBRANCH  26  28
ENDBRANCH  25  26
ENDBRANCH  12  25
ENDBRANCH  11  12
ENDBRANCH  10  11
ENDBRANCH   9  10
ENDBRANCH   8   9
ENDBRANCH   7   8
ENDBRANCH   6   7
ENDBRANCH   5   6
ENDBRANCH   4   5
ENDBRANCH   3   4
ENDBRANCH   2   3
TORSDOF 22
ENDMDL
MODEL      429
REMARK 921   NORMALIZED FREE ENERGY PREDICTED BY IDOCK:   -2.10 KCAL/MOL
REMARK 922        TOTAL FREE ENERGY PREDICTED BY IDOCK:   -8.41 KCAL/MOL
REMARK 923 INTER-LIGAND FREE ENERGY PREDICTED BY IDOCK:   -6.90 KCAL/MOL
REMARK 924 INTRA-LIGAND FREE ENERGY PREDICTED BY IDOCK:   -1.51 KCAL/MOL
REMARK 927      BINDING AFFINITY PREDICTED BY RF-SCORE:    0.00 PKD
ROOT
HETATM    1  C   UNL     1     -13.199  11.296  71.334  1.00  0.00    -0.267 C  
HETATM    2  C   UNL     1     -12.587   9.914  71.491  1.00  0.00    -0.513 C  
ENDROOT
BRANCH   2   3
HETATM    3  C   UNL     1     -13.663   8.874  71.787  1.00  0.00    -0.471 C  
BRANCH   3   4
HETATM    4  C   UNL     1     -13.407   7.567  71.042  1.00  0.00    -0.119 C  
BRANCH   4   5
HETATM    5  C   UNL     1     -12.241   6.803  71.672  1.00  0.00    -0.410 C  
BRANCH   5   6
HETATM    6  C   UNL     1     -11.209   6.436  70.614  1.00  0.00    -0.400 C  
BRANCH   6   7
HETATM    7  C   UNL     1      -9.774   6.660  71.095  1.00  0.00    -0.184 C  
BRANCH   7   8
HETATM    8  C   UNL     1      -9.145   7.759  70.246  1.00  0.00    -0.152 C  
BRANCH   8   9
HETATM    9  C   UNL     1      -7.659   7.973  70.511  1.00  0.00    -0.076 C  
BRANCH   9  10
HETATM   10  C   UNL     1      -7.273   9.360  69.987  1.00  0.00    -0.092 C  
BRANCH  10  11
HETATM   11  C   UNL     1      -8.304   9.979  69.055  1.00  0.00    -0.134 C  
BRANCH  11  12
HETATM   12  C   UNL     1      -7.883  11.272  68.332  1.00  0.00    -0.136 C  
BRANCH  12  13
HETATM   13  C   UNL     1      -6.683  11.130  67.370  1.00  0.00    -0.084 C  
BRANCH  13  14
HETATM   14  C   UNL     1      -6.588   9.767  66.675  1.00  0.00    -0.071 C  
HETATM   15  O   UNL     1      -5.621   9.764  65.585  1.00  0.00    -0.050 OA 
HETATM   16  O   UNL     1      -6.406   9.307  63.467  1.00  0.00    -0.089 OA 
HETATM   17  C   UNL     1      -7.718   9.433  65.662  1.00  0.00    -0.099 C  
HETATM   18  C   UNL     1      -6.555   9.467  64.654  1.00  0.00    -0.093 C  
BRANCH  17  19
HETATM   19  C   UNL     1      -8.432   8.087  65.726  1.00  0.00    -0.159 C  
BRANCH  19  20
HETATM   20  C   UNL     1      -7.920   7.264  66.905  1.00  0.00    -0.112 C  
BRANCH  20  21
HETATM   21  C   UNL     1      -8.841   6.077  67.201  1.00  0.00    -0.108 C  
BRANCH  21  22
HETATM   22  C   UNL     1      -8.856   5.087  66.034  1.00  0.00    -0.130 C  
BRANCH  22  23
HETATM   23  C   UNL     1     -10.217   4.407  65.883  1.00  0.00    -0.252 C  
HETATM   24  C   UNL     1     -10.192   3.370  64.769  1.00  0.00     0.020 C  
ENDBRANCH  22  23
ENDBRANCH  21  22
ENDBRANCH  20  21
ENDBRANCH  19  20
ENDBRANCH  17  19
ENDBRANCH  13  14
ENDBRANCH  12  13
BRANCH  12  25
HETATM   25  O   UNL     1      -8.985  11.813  67.567  1.00  0.00    -0.160 OA 
BRANCH  25  26
HETATM   26  C   UNL     1     -10.008  12.386  68.261  1.00  0.00    -0.224 C  
HETATM   27  O   UNL     1     -10.854  11.791  68.920  1.00  0.00    -0.216 OA 
BRANCH  26  28
HETATM   28  C   UNL     1      -9.966  13.906  68.136  1.00  0.00    -0.240 C  
BRANCH  28  29
HETATM   29  C   UNL     1     -10.030  14.363  66.669  1.00  0.00    -0.278 C  
HETATM   30  C   UNL     1     -10.459  16.890  66.973  1.00  0.00    -0.281 C  
HETATM   31  C   UNL     1     -11.025  15.751  64.836  1.00  0.00    -0.443 C  
HETATM   32  C   UNL     1     -10.937  15.575  66.355  1.00  0.00    -0.238 C  
ENDBRANCH  28  29
BRANCH  28  33
HETATM   33  N   UNL     1      -8.788  14.404  68.843  1.00  0.00    -0.339 N  
HETATM   34  C   UNL     1      -7.709  14.937  68.197  1.00  0.00    -0.115 C  
HETATM   35  O   UNL     1      -7.579  15.019  66.985  1.00  0.00    -0.186 OA 
HETATM   36  H   UNL     1      -8.770  14.350  69.862  1.00  0.00     0.000 HD 
ENDBRANCH  28  33
ENDBRANCH  26  28
ENDBRANCH  25  26
ENDBRANCH  12  25
ENDBRANCH  11  12
ENDBRANCH  10  11
ENDBRANCH   9  10
ENDBRANCH   8   9
ENDBRANCH   7   8
ENDBRANCH   6   7
ENDBRANCH   5   6
ENDBRANCH   4   5
ENDBRANCH   3   4
ENDBRANCH   2   3
TORSDOF 22
ENDMDL
MODEL      430
REMARK 921   NORMALIZED FREE ENERGY PREDICTED BY IDOCK:   -2.01 KCAL/MOL
REMARK 922        TOTAL FREE ENERGY PREDICTED BY IDOCK:   -8.22 KCAL/MOL
REMARK 923 INTER-LIGAND FREE ENERGY PREDICTED BY IDOCK:   -6.66 KCAL/MOL
REMARK 924 INTRA-LIGAND FREE ENERGY PREDICTED BY IDOCK:   -1.56 KCAL/MOL
REMARK 927      BINDING AFFINITY PREDICTED BY RF-SCORE:    0.00 PKD
ROOT
HETATM    1  C   UNL     1      -9.993  10.171  64.803  1.00  0.00    -0.334 C  
HETATM    2  C   UNL     1      -9.871  11.020  63.548  1.00  0.00    -0.403 C  
ENDROOT
BRANCH   2   3
HETATM    3  C   UNL     1     -11.037  11.999  63.441  1.00  0.00    -0.476 C  
BRANCH   3   4
HETATM    4  C   UNL     1     -12.047  11.803  64.567  1.00  0.00    -0.156 C  
BRANCH   4   5
HETATM    5  C   UNL     1     -12.819  13.096  64.835  1.00  0.00    -0.349 C  
BRANCH   5   6
HETATM    6  C   UNL     1     -12.525  14.128  63.755  1.00  0.00    -0.006 C  
BRANCH   6   7
HETATM    7  C   UNL     1     -12.535  15.559  64.296  1.00  0.00     0.113 C  
BRANCH   7   8
HETATM    8  C   UNL     1     -11.438  15.686  65.347  1.00  0.00     0.025 C  
BRANCH   8   9
HETATM    9  C   UNL     1     -10.045  15.332  64.837  1.00  0.00    -0.114 C  
BRANCH   9  10
HETATM   10  C   UNL     1      -9.484  14.209  65.716  1.00  0.00    -0.070 C  
BRANCH  10  11
HETATM   11  C   UNL     1      -8.912  14.687  67.042  1.00  0.00    -0.258 C  
BRANCH  11  12
HETATM   12  C   UNL     1      -9.851  14.608  68.259  1.00  0.00    -0.222 C  
BRANCH  12  13
HETATM   13  C   UNL     1     -10.257  13.181  68.689  1.00  0.00    -0.177 C  
BRANCH  13  14
HETATM   14  C   UNL     1      -9.079  12.275  69.068  1.00  0.00     0.439 C  
HETATM   15  O   UNL     1      -8.038  12.259  68.050  1.00  0.00    -0.137 OA 
HETATM   16  O   UNL     1      -7.554  10.238  67.053  1.00  0.00    -0.097 OA 
HETATM   17  C   UNL     1      -9.293  10.749  68.862  1.00  0.00    -0.183 C  
HETATM   18  C   UNL     1      -8.168  10.933  67.826  1.00  0.00    -0.116 C  
BRANCH  17  19
HETATM   19  C   UNL     1      -8.943   9.769  69.977  1.00  0.00    -0.255 C  
BRANCH  19  20
HETATM   20  C   UNL     1     -10.060   8.745  70.160  1.00  0.00    -0.203 C  
BRANCH  20  21
HETATM   21  C   UNL     1      -9.505   7.320  70.232  1.00  0.00    -0.165 C  
BRANCH  21  22
HETATM   22  C   UNL     1     -10.332   6.361  69.373  1.00  0.00    -0.252 C  
BRANCH  22  23
HETATM   23  C   UNL     1     -10.755   7.003  68.051  1.00  0.00    -0.252 C  
HETATM   24  C   UNL     1     -10.694   5.999  66.909  1.00  0.00    -0.407 C  
ENDBRANCH  22  23
ENDBRANCH  21  22
ENDBRANCH  20  21
ENDBRANCH  19  20
ENDBRANCH  17  19
ENDBRANCH  13  14
ENDBRANCH  12  13
BRANCH  12  25
HETATM   25  O   UNL     1      -9.253  15.249  69.410  1.00  0.00    -0.246 OA 
BRANCH  25  26
HETATM   26  C   UNL     1      -8.036  15.837  69.238  1.00  0.00    -0.241 C  
HETATM   27  O   UNL     1      -6.975  15.254  69.045  1.00  0.00    -0.118 OA 
BRANCH  26  28
HETATM   28  C   UNL     1      -8.154  17.357  69.296  1.00  0.00     0.154 C  
BRANCH  28  29
HETATM   29  C   UNL     1      -9.461  17.856  68.658  1.00  0.00    -0.301 C  
HETATM   30  C   UNL     1      -8.575  18.803  66.427  1.00  0.00    -0.294 C  
HETATM   31  C   UNL     1     -10.766  19.542  67.342  1.00  0.00    -0.589 C  
HETATM   32  C   UNL     1      -9.355  19.076  67.714  1.00  0.00    -0.347 C  
ENDBRANCH  28  29
BRANCH  28  33
HETATM   33  N   UNL     1      -6.958  17.944  68.692  1.00  0.00    -0.242 N  
HETATM   34  C   UNL     1      -5.882  18.348  69.429  1.00  0.00    -0.236 C  
HETATM   35  O   UNL     1      -5.804  18.313  70.647  1.00  0.00    -0.140 OA 
HETATM   36  H   UNL     1      -6.927  18.057  67.678  1.00  0.00     0.000 HD 
ENDBRANCH  28  33
ENDBRANCH  26  28
ENDBRANCH  25  26
ENDBRANCH  12  25
ENDBRANCH  11  12
ENDBRANCH  10  11
ENDBRANCH   9  10
ENDBRANCH   8   9
ENDBRANCH   7   8
ENDBRANCH   6   7
ENDBRANCH   5   6
ENDBRANCH   4   5
ENDBRANCH   3   4
ENDBRANCH   2   3
TORSDOF 22
ENDMDL
MODEL      431
REMARK 921   NORMALIZED FREE ENERGY PREDICTED BY IDOCK:   -1.99 KCAL/MOL
REMARK 922        TOTAL FREE ENERGY PREDICTED BY IDOCK:   -8.16 KCAL/MOL
REMARK 923 INTER-LIGAND FREE ENERGY PREDICTED BY IDOCK:   -6.80 KCAL/MOL
REMARK 924 INTRA-LIGAND FREE ENERGY PREDICTED BY IDOCK:   -1.36 KCAL/MOL
REMARK 927      BINDING AFFINITY PREDICTED BY RF-SCORE:    0.00 PKD
ROOT
HETATM    1  C   UNL     1     -10.364  16.068  65.219  1.00  0.00    -0.319 C  
HETATM    2  C   UNL     1     -10.411  16.292  66.722  1.00  0.00    -0.296 C  
ENDROOT
BRANCH   2   3
HETATM    3  C   UNL     1     -10.147  14.991  67.473  1.00  0.00    -0.228 C  
BRANCH   3   4
HETATM    4  C   UNL     1     -11.392  14.497  68.204  1.00  0.00    -0.319 C  
BRANCH   4   5
HETATM    5  C   UNL     1     -12.303  13.713  67.256  1.00  0.00    -0.195 C  
BRANCH   5   6
HETATM    6  C   UNL     1     -11.553  12.538  66.644  1.00  0.00    -0.442 C  
BRANCH   6   7
HETATM    7  C   UNL     1     -11.165  12.788  65.185  1.00  0.00    -0.327 C  
BRANCH   7   8
HETATM    8  C   UNL     1     -10.172  11.714  64.757  1.00  0.00    -0.321 C  
BRANCH   8   9
HETATM    9  C   UNL     1     -10.624  10.291  65.070  1.00  0.00     0.127 C  
BRANCH   9  10
HETATM   10  C   UNL     1      -9.713   9.729  66.166  1.00  0.00    -0.309 C  
BRANCH  10  11
HETATM   11  C   UNL     1     -10.358   8.641  67.011  1.00  0.00    -0.368 C  
BRANCH  11  12
HETATM   12  C   UNL     1      -9.440   7.490  67.460  1.00  0.00    -0.139 C  
BRANCH  12  13
HETATM   13  C   UNL     1      -8.029   7.487  66.832  1.00  0.00    -0.115 C  
BRANCH  13  14
HETATM   14  C   UNL     1      -6.968   6.754  67.662  1.00  0.00    -0.083 C  
HETATM   15  O   UNL     1      -5.755   6.484  66.903  1.00  0.00    -0.013 OA 
HETATM   16  O   UNL     1      -5.147   4.280  66.614  1.00  0.00    -0.007 OA 
HETATM   17  C   UNL     1      -7.180   5.226  67.850  1.00  0.00    -0.071 C  
HETATM   18  C   UNL     1      -5.877   5.145  67.035  1.00  0.00    -0.022 C  
BRANCH  17  19
HETATM   19  C   UNL     1      -7.074   4.602  69.238  1.00  0.00    -0.052 C  
BRANCH  19  20
HETATM   20  C   UNL     1      -8.138   3.525  69.425  1.00  0.00    -0.064 C  
BRANCH  20  21
HETATM   21  C   UNL     1      -8.245   2.623  68.192  1.00  0.00    -0.075 C  
BRANCH  21  22
HETATM   22  C   UNL     1      -9.565   2.852  67.454  1.00  0.00    -0.007 C  
BRANCH  22  23
HETATM   23  C   UNL     1      -9.404   2.694  65.941  1.00  0.00    -0.004 C  
HETATM   24  C   UNL     1      -9.443   4.045  65.241  1.00  0.00    -0.172 C  
ENDBRANCH  22  23
ENDBRANCH  21  22
ENDBRANCH  20  21
ENDBRANCH  19  20
ENDBRANCH  17  19
ENDBRANCH  13  14
ENDBRANCH  12  13
BRANCH  12  25
HETATM   25  O   UNL     1      -9.271   7.499  68.897  1.00  0.00    -0.143 OA 
BRANCH  25  26
HETATM   26  C   UNL     1      -9.348   8.702  69.529  1.00  0.00    -0.153 C  
HETATM   27  O   UNL     1      -8.470   9.557  69.561  1.00  0.00    -0.129 OA 
BRANCH  26  28
HETATM   28  C   UNL     1     -10.707   8.879  70.200  1.00  0.00    -0.225 C  
BRANCH  28  29
HETATM   29  C   UNL     1     -10.989  10.349  70.548  1.00  0.00    -0.270 C  
HETATM   30  C   UNL     1     -13.307  10.142  71.663  1.00  0.00    -0.463 C  
HETATM   31  C   UNL     1     -12.534  12.313  70.729  1.00  0.00    -0.356 C  
HETATM   32  C   UNL     1     -12.470  10.792  70.560  1.00  0.00    -0.447 C  
ENDBRANCH  28  29
BRANCH  28  33
HETATM   33  N   UNL     1     -10.780   7.989  71.357  1.00  0.00    -0.225 N  
HETATM   34  C   UNL     1      -9.838   7.986  72.347  1.00  0.00    -0.247 C  
HETATM   35  O   UNL     1      -8.827   8.671  72.364  1.00  0.00    -0.321 OA 
HETATM   36  H   UNL     1     -11.567   7.343  71.429  1.00  0.00     0.000 HD 
ENDBRANCH  28  33
ENDBRANCH  26  28
ENDBRANCH  25  26
ENDBRANCH  12  25
ENDBRANCH  11  12
ENDBRANCH  10  11
ENDBRANCH   9  10
ENDBRANCH   8   9
ENDBRANCH   7   8
ENDBRANCH   6   7
ENDBRANCH   5   6
ENDBRANCH   4   5
ENDBRANCH   3   4
ENDBRANCH   2   3
TORSDOF 22
ENDMDL
MODEL      432
REMARK 921   NORMALIZED FREE ENERGY PREDICTED BY IDOCK:   -1.95 KCAL/MOL
REMARK 922        TOTAL FREE ENERGY PREDICTED BY IDOCK:   -8.08 KCAL/MOL
REMARK 923 INTER-LIGAND FREE ENERGY PREDICTED BY IDOCK:   -5.40 KCAL/MOL
REMARK 924 INTRA-LIGAND FREE ENERGY PREDICTED BY IDOCK:   -2.68 KCAL/MOL
REMARK 927      BINDING AFFINITY PREDICTED BY RF-SCORE:    0.00 PKD
ROOT
HETATM    1  C   UNL     1      -9.695  10.301  63.867  1.00  0.00    -0.325 C  
HETATM    2  C   UNL     1      -8.711   9.293  64.438  1.00  0.00    -0.211 C  
ENDROOT
BRANCH   2   3
HETATM    3  C   UNL     1      -7.752   9.966  65.416  1.00  0.00    -0.130 C  
BRANCH   3   4
HETATM    4  C   UNL     1      -8.498  10.689  66.534  1.00  0.00    -0.144 C  
BRANCH   4   5
HETATM    5  C   UNL     1      -8.784   9.739  67.698  1.00  0.00    -0.125 C  
BRANCH   5   6
HETATM    6  C   UNL     1      -8.710  10.482  69.025  1.00  0.00    -0.160 C  
BRANCH   6   7
HETATM    7  C   UNL     1      -7.738   9.826  70.008  1.00  0.00    -0.179 C  
BRANCH   7   8
HETATM    8  C   UNL     1      -6.573   9.240  69.219  1.00  0.00    -0.049 C  
BRANCH   8   9
HETATM    9  C   UNL     1      -6.124   7.865  69.703  1.00  0.00    -0.033 C  
BRANCH   9  10
HETATM   10  C   UNL     1      -6.235   7.834  71.230  1.00  0.00    -0.035 C  
BRANCH  10  11
HETATM   11  C   UNL     1      -6.376   6.437  71.814  1.00  0.00    -0.042 C  
BRANCH  11  12
HETATM   12  C   UNL     1      -7.593   5.619  71.345  1.00  0.00    -0.104 C  
BRANCH  12  13
HETATM   13  C   UNL     1      -7.272   4.440  70.400  1.00  0.00    -0.048 C  
BRANCH  13  14
HETATM   14  C   UNL     1      -8.206   4.326  69.189  1.00  0.00    -0.070 C  
HETATM   15  O   UNL     1      -9.432   3.604  69.497  1.00  0.00    -0.166 OA 
HETATM   16  O   UNL     1      -9.846   1.661  68.329  1.00  0.00    -0.112 OA 
HETATM   17  C   UNL     1      -7.840   3.240  68.139  1.00  0.00    -0.063 C  
HETATM   18  C   UNL     1      -9.177   2.630  68.596  1.00  0.00    -0.179 C  
BRANCH  17  19
HETATM   19  C   UNL     1      -7.803   3.591  66.655  1.00  0.00    -0.081 C  
BRANCH  19  20
HETATM   20  C   UNL     1      -8.932   2.887  65.910  1.00  0.00    -0.145 C  
BRANCH  20  21
HETATM   21  C   UNL     1      -9.759   3.876  65.083  1.00  0.00    -0.191 C  
BRANCH  21  22
HETATM   22  C   UNL     1      -9.053   4.223  63.771  1.00  0.00    -0.142 C  
BRANCH  22  23
HETATM   23  C   UNL     1      -8.431   5.619  63.812  1.00  0.00     0.015 C  
HETATM   24  C   UNL     1      -7.778   5.969  62.482  1.00  0.00    -0.081 C  
ENDBRANCH  22  23
ENDBRANCH  21  22
ENDBRANCH  20  21
ENDBRANCH  19  20
ENDBRANCH  17  19
ENDBRANCH  13  14
ENDBRANCH  12  13
BRANCH  12  25
HETATM   25  O   UNL     1      -8.315   5.079  72.476  1.00  0.00    -0.114 OA 
BRANCH  25  26
HETATM   26  C   UNL     1      -9.153   5.919  73.144  1.00  0.00    -0.130 C  
HETATM   27  O   UNL     1      -8.826   6.733  74.000  1.00  0.00    -0.144 OA 
BRANCH  26  28
HETATM   28  C   UNL     1     -10.593   5.738  72.672  1.00  0.00    -0.223 C  
BRANCH  28  29
HETATM   29  C   UNL     1     -11.274   7.084  72.378  1.00  0.00    -0.305 C  
HETATM   30  C   UNL     1     -10.388   7.561  70.002  1.00  0.00    -0.222 C  
HETATM   31  C   UNL     1     -11.251   9.404  71.430  1.00  0.00    -0.452 C  
HETATM   32  C   UNL     1     -10.521   8.058  71.443  1.00  0.00    -0.257 C  
ENDBRANCH  28  29
BRANCH  28  33
HETATM   33  N   UNL     1     -11.313   4.932  73.657  1.00  0.00    -0.402 N  
HETATM   34  C   UNL     1     -11.155   3.580  73.762  1.00  0.00    -0.197 C  
HETATM   35  O   UNL     1     -10.452   2.891  73.039  1.00  0.00    -0.150 OA 
HETATM   36  H   UNL     1     -11.960   5.400  74.293  1.00  0.00     0.000 HD 
ENDBRANCH  28  33
ENDBRANCH  26  28
ENDBRANCH  25  26
ENDBRANCH  12  25
ENDBRANCH  11  12
ENDBRANCH  10  11
ENDBRANCH   9  10
ENDBRANCH   8   9
ENDBRANCH   7   8
ENDBRANCH   6   7
ENDBRANCH   5   6
ENDBRANCH   4   5
ENDBRANCH   3   4
ENDBRANCH   2   3
TORSDOF 22
ENDMDL
MODEL      433
REMARK 921   NORMALIZED FREE ENERGY PREDICTED BY IDOCK:   -1.94 KCAL/MOL
REMARK 922        TOTAL FREE ENERGY PREDICTED BY IDOCK:   -8.06 KCAL/MOL
REMARK 923 INTER-LIGAND FREE ENERGY PREDICTED BY IDOCK:   -5.95 KCAL/MOL
REMARK 924 INTRA-LIGAND FREE ENERGY PREDICTED BY IDOCK:   -2.12 KCAL/MOL
REMARK 927      BINDING AFFINITY PREDICTED BY RF-SCORE:    0.00 PKD
ROOT
HETATM    1  C   UNL     1      -5.854   8.549  73.596  1.00  0.00    -0.113 C  
HETATM    2  C   UNL     1      -6.285   7.409  74.503  1.00  0.00    -0.082 C  
ENDROOT
BRANCH   2   3
HETATM    3  C   UNL     1      -7.433   6.621  73.878  1.00  0.00    -0.082 C  
BRANCH   3   4
HETATM    4  C   UNL     1      -8.367   7.523  73.076  1.00  0.00    -0.166 C  
BRANCH   4   5
HETATM    5  C   UNL     1      -9.815   7.352  73.539  1.00  0.00    -0.363 C  
BRANCH   5   6
HETATM    6  C   UNL     1     -10.780   7.766  72.436  1.00  0.00    -0.347 C  
BRANCH   6   7
HETATM    7  C   UNL     1     -11.832   6.692  72.148  1.00  0.00    -0.337 C  
BRANCH   7   8
HETATM    8  C   UNL     1     -12.039   6.608  70.641  1.00  0.00    -0.342 C  
BRANCH   8   9
HETATM    9  C   UNL     1     -10.750   6.420  69.847  1.00  0.00    -0.332 C  
BRANCH   9  10
HETATM   10  C   UNL     1     -11.086   6.522  68.356  1.00  0.00    -0.340 C  
BRANCH  10  11
HETATM   11  C   UNL     1      -9.972   6.046  67.436  1.00  0.00    -0.165 C  
BRANCH  11  12
HETATM   12  C   UNL     1      -9.312   7.118  66.549  1.00  0.00    -0.164 C  
BRANCH  12  13
HETATM   13  C   UNL     1      -8.461   8.164  67.302  1.00  0.00    -0.125 C  
BRANCH  13  14
HETATM   14  C   UNL     1      -9.139   9.530  67.468  1.00  0.00    -0.130 C  
HETATM   15  O   UNL     1      -9.979   9.876  66.330  1.00  0.00    -0.227 OA 
HETATM   16  O   UNL     1      -9.432  11.772  65.139  1.00  0.00    -0.199 OA 
HETATM   17  C   UNL     1      -8.253  10.774  67.181  1.00  0.00    -0.123 C  
HETATM   18  C   UNL     1      -9.254  10.977  66.030  1.00  0.00    -0.193 C  
BRANCH  17  19
HETATM   19  C   UNL     1      -8.217  11.933  68.172  1.00  0.00    -0.158 C  
BRANCH  19  20
HETATM   20  C   UNL     1      -9.421  12.848  67.971  1.00  0.00    -0.213 C  
BRANCH  20  21
HETATM   21  C   UNL     1      -9.154  14.253  68.518  1.00  0.00    -0.191 C  
BRANCH  21  22
HETATM   22  C   UNL     1      -9.102  15.284  67.389  1.00  0.00    -0.201 C  
BRANCH  22  23
HETATM   23  C   UNL     1      -7.675  15.760  67.119  1.00  0.00    -0.255 C  
HETATM   24  C   UNL     1      -7.662  17.192  66.601  1.00  0.00    -0.300 C  
ENDBRANCH  22  23
ENDBRANCH  21  22
ENDBRANCH  20  21
ENDBRANCH  19  20
ENDBRANCH  17  19
ENDBRANCH  13  14
ENDBRANCH  12  13
BRANCH  12  25
HETATM   25  O   UNL     1      -8.459   6.506  65.554  1.00  0.00    -0.150 OA 
BRANCH  25  26
HETATM   26  C   UNL     1      -7.205   6.140  65.943  1.00  0.00    -0.075 C  
HETATM   27  O   UNL     1      -6.155   6.615  65.525  1.00  0.00    -0.035 OA 
BRANCH  26  28
HETATM   28  C   UNL     1      -7.263   5.050  67.009  1.00  0.00    -0.077 C  
BRANCH  28  29
HETATM   29  C   UNL     1      -6.309   5.340  68.178  1.00  0.00    -0.036 C  
HETATM   30  C   UNL     1      -7.675   4.401  70.156  1.00  0.00    -0.049 C  
HETATM   31  C   UNL     1      -5.872   6.070  70.535  1.00  0.00    -0.021 C  
HETATM   32  C   UNL     1      -6.956   5.610  69.556  1.00  0.00    -0.063 C  
ENDBRANCH  28  29
BRANCH  28  33
HETATM   33  N   UNL     1      -7.016   3.757  66.372  1.00  0.00    -0.058 N  
HETATM   34  C   UNL     1      -8.023   2.907  66.011  1.00  0.00    -0.082 C  
HETATM   35  O   UNL     1      -9.213   3.095  66.211  1.00  0.00    -0.152 OA 
HETATM   36  H   UNL     1      -6.051   3.478  66.190  1.00  0.00     0.000 HD 
ENDBRANCH  28  33
ENDBRANCH  26  28
ENDBRANCH  25  26
ENDBRANCH  12  25
ENDBRANCH  11  12
ENDBRANCH  10  11
ENDBRANCH   9  10
ENDBRANCH   8   9
ENDBRANCH   7   8
ENDBRANCH   6   7
ENDBRANCH   5   6
ENDBRANCH   4   5
ENDBRANCH   3   4
ENDBRANCH   2   3
TORSDOF 22
ENDMDL
MODEL      434
REMARK 921   NORMALIZED FREE ENERGY PREDICTED BY IDOCK:   -1.94 KCAL/MOL
REMARK 922        TOTAL FREE ENERGY PREDICTED BY IDOCK:   -8.05 KCAL/MOL
REMARK 923 INTER-LIGAND FREE ENERGY PREDICTED BY IDOCK:   -7.15 KCAL/MOL
REMARK 924 INTRA-LIGAND FREE ENERGY PREDICTED BY IDOCK:   -0.90 KCAL/MOL
REMARK 927      BINDING AFFINITY PREDICTED BY RF-SCORE:    0.00 PKD
ROOT
HETATM    1  C   UNL     1     -10.257   2.809  62.645  1.00  0.00    -0.107 C  
HETATM    2  C   UNL     1     -10.887   3.779  63.631  1.00  0.00    -0.173 C  
ENDROOT
BRANCH   2   3
HETATM    3  C   UNL     1     -10.018   3.928  64.877  1.00  0.00    -0.198 C  
BRANCH   3   4
HETATM    4  C   UNL     1      -8.546   3.668  64.574  1.00  0.00    -0.097 C  
BRANCH   4   5
HETATM    5  C   UNL     1      -7.822   4.974  64.239  1.00  0.00    -0.091 C  
BRANCH   5   6
HETATM    6  C   UNL     1      -8.343   6.112  65.107  1.00  0.00    -0.129 C  
BRANCH   6   7
HETATM    7  C   UNL     1      -7.751   6.088  66.517  1.00  0.00    -0.103 C  
BRANCH   7   8
HETATM    8  C   UNL     1      -8.888   6.233  67.522  1.00  0.00    -0.103 C  
BRANCH   8   9
HETATM    9  C   UNL     1     -10.225   6.613  66.896  1.00  0.00    -0.287 C  
BRANCH   9  10
HETATM   10  C   UNL     1     -10.693   7.929  67.524  1.00  0.00    -0.252 C  
BRANCH  10  11
HETATM   11  C   UNL     1      -9.812   9.123  67.189  1.00  0.00    -0.253 C  
BRANCH  11  12
HETATM   12  C   UNL     1      -9.864  10.308  68.171  1.00  0.00    -0.148 C  
BRANCH  12  13
HETATM   13  C   UNL     1     -10.168   9.936  69.639  1.00  0.00    -0.261 C  
BRANCH  13  14
HETATM   14  C   UNL     1      -8.924   9.671  70.496  1.00  0.00    -0.128 C  
HETATM   15  O   UNL     1      -7.730   9.452  69.691  1.00  0.00    -0.081 OA 
HETATM   16  O   UNL     1      -6.673   7.413  69.887  1.00  0.00    -0.045 OA 
HETATM   17  C   UNL     1      -8.785   8.238  71.079  1.00  0.00    -0.169 C  
HETATM   18  C   UNL     1      -7.548   8.199  70.163  1.00  0.00    -0.077 C  
BRANCH  17  19
HETATM   19  C   UNL     1      -8.459   8.039  72.556  1.00  0.00    -0.217 C  
BRANCH  19  20
HETATM   20  C   UNL     1      -9.686   8.321  73.418  1.00  0.00     0.025 C  
BRANCH  20  21
HETATM   21  C   UNL     1     -10.411   7.027  73.799  1.00  0.00    -0.408 C  
BRANCH  21  22
HETATM   22  C   UNL     1     -10.801   6.226  72.555  1.00  0.00    -0.273 C  
BRANCH  22  23
HETATM   23  C   UNL     1     -11.563   4.951  72.916  1.00  0.00    -0.227 C  
HETATM   24  C   UNL     1     -10.758   4.083  73.873  1.00  0.00    -0.312 C  
ENDBRANCH  22  23
ENDBRANCH  21  22
ENDBRANCH  20  21
ENDBRANCH  19  20
ENDBRANCH  17  19
ENDBRANCH  13  14
ENDBRANCH  12  13
BRANCH  12  25
HETATM   25  O   UNL     1      -8.614  11.036  68.163  1.00  0.00    -0.128 OA 
BRANCH  25  26
HETATM   26  C   UNL     1      -8.568  12.194  67.447  1.00  0.00    -0.175 C  
HETATM   27  O   UNL     1      -7.559  12.838  67.183  1.00  0.00    -0.132 OA 
BRANCH  26  28
HETATM   28  C   UNL     1      -9.962  12.599  66.977  1.00  0.00    -0.219 C  
BRANCH  28  29
HETATM   29  C   UNL     1     -10.095  12.531  65.447  1.00  0.00    -0.284 C  
HETATM   30  C   UNL     1     -12.648  12.792  65.175  1.00  0.00    -0.513 C  
HETATM   31  C   UNL     1     -11.274  11.775  63.370  1.00  0.00    -0.440 C  
HETATM   32  C   UNL     1     -11.409  11.942  64.886  1.00  0.00    -0.337 C  
ENDBRANCH  28  29
BRANCH  28  33
HETATM   33  N   UNL     1     -10.278  13.917  67.525  1.00  0.00    -0.243 N  
HETATM   34  C   UNL     1      -9.927  15.080  66.899  1.00  0.00    -0.244 C  
HETATM   35  O   UNL     1      -9.287  15.161  65.863  1.00  0.00    -0.317 OA 
HETATM   36  H   UNL     1     -10.781  13.971  68.411  1.00  0.00     0.000 HD 
ENDBRANCH  28  33
ENDBRANCH  26  28
ENDBRANCH  25  26
ENDBRANCH  12  25
ENDBRANCH  11  12
ENDBRANCH  10  11
ENDBRANCH   9  10
ENDBRANCH   8   9
ENDBRANCH   7   8
ENDBRANCH   6   7
ENDBRANCH   5   6
ENDBRANCH   4   5
ENDBRANCH   3   4
ENDBRANCH   2   3
TORSDOF 22
ENDMDL
MODEL      435
REMARK 921   NORMALIZED FREE ENERGY PREDICTED BY IDOCK:   -1.91 KCAL/MOL
REMARK 922        TOTAL FREE ENERGY PREDICTED BY IDOCK:   -7.97 KCAL/MOL
REMARK 923 INTER-LIGAND FREE ENERGY PREDICTED BY IDOCK:   -7.34 KCAL/MOL
REMARK 924 INTRA-LIGAND FREE ENERGY PREDICTED BY IDOCK:   -0.63 KCAL/MOL
REMARK 927      BINDING AFFINITY PREDICTED BY RF-SCORE:    0.00 PKD
ROOT
HETATM    1  C   UNL     1     -10.140   4.980  70.018  1.00  0.00    -0.342 C  
HETATM    2  C   UNL     1      -8.636   5.155  69.891  1.00  0.00    -0.108 C  
ENDROOT
BRANCH   2   3
HETATM    3  C   UNL     1      -8.048   5.743  71.170  1.00  0.00    -0.117 C  
BRANCH   3   4
HETATM    4  C   UNL     1      -8.339   7.235  71.294  1.00  0.00    -0.111 C  
BRANCH   4   5
HETATM    5  C   UNL     1      -7.779   7.999  70.092  1.00  0.00    -0.087 C  
BRANCH   5   6
HETATM    6  C   UNL     1      -8.024   9.494  70.247  1.00  0.00    -0.190 C  
BRANCH   6   7
HETATM    7  C   UNL     1      -7.141  10.329  69.319  1.00  0.00    -0.083 C  
BRANCH   7   8
HETATM    8  C   UNL     1      -7.960  11.504  68.797  1.00  0.00    -0.107 C  
BRANCH   8   9
HETATM    9  C   UNL     1      -7.185  12.442  67.878  1.00  0.00    -0.110 C  
BRANCH   9  10
HETATM   10  C   UNL     1      -6.440  13.459  68.749  1.00  0.00    -0.098 C  
BRANCH  10  11
HETATM   11  C   UNL     1      -6.659  14.907  68.336  1.00  0.00    -0.103 C  
BRANCH  11  12
HETATM   12  C   UNL     1      -8.121  15.354  68.161  1.00  0.00    -0.136 C  
BRANCH  12  13
HETATM   13  C   UNL     1      -9.024  15.161  69.399  1.00  0.00    -0.176 C  
BRANCH  13  14
HETATM   14  C   UNL     1     -10.447  14.688  69.077  1.00  0.00    -0.246 C  
HETATM   15  O   UNL     1     -11.402  15.787  69.034  1.00  0.00    -0.305 OA 
HETATM   16  O   UNL     1     -13.148  15.740  70.538  1.00  0.00    -0.461 OA 
HETATM   17  C   UNL     1     -11.241  14.055  70.253  1.00  0.00     0.063 C  
HETATM   18  C   UNL     1     -12.142  15.286  70.048  1.00  0.00    -0.352 C  
BRANCH  17  19
HETATM   19  C   UNL     1     -11.967  12.727  70.060  1.00  0.00    -0.371 C  
BRANCH  19  20
HETATM   20  C   UNL     1     -11.284  11.894  68.980  1.00  0.00    -0.316 C  
BRANCH  20  21
HETATM   21  C   UNL     1     -11.863  10.479  68.914  1.00  0.00    -0.136 C  
BRANCH  21  22
HETATM   22  C   UNL     1     -10.753   9.431  68.812  1.00  0.00    -0.200 C  
BRANCH  22  23
HETATM   23  C   UNL     1     -10.567   8.938  67.377  1.00  0.00    -0.305 C  
HETATM   24  C   UNL     1     -10.707  10.081  66.381  1.00  0.00    -0.063 C  
ENDBRANCH  22  23
ENDBRANCH  21  22
ENDBRANCH  20  21
ENDBRANCH  19  20
ENDBRANCH  17  19
ENDBRANCH  13  14
ENDBRANCH  12  13
BRANCH  12  25
HETATM   25  O   UNL     1      -8.189  16.752  67.794  1.00  0.00    -0.179 OA 
BRANCH  25  26
HETATM   26  C   UNL     1      -8.645  17.051  66.546  1.00  0.00    -0.270 C  
HETATM   27  O   UNL     1      -8.545  16.340  65.552  1.00  0.00    -0.101 OA 
BRANCH  26  28
HETATM   28  C   UNL     1      -9.337  18.411  66.531  1.00  0.00    -0.309 C  
BRANCH  28  29
HETATM   29  C   UNL     1      -8.414  19.519  66.001  1.00  0.00    -0.247 C  
HETATM   30  C   UNL     1      -6.149  18.284  65.970  1.00  0.00    -0.247 C  
HETATM   31  C   UNL     1      -6.242  20.768  66.008  1.00  0.00    -0.284 C  
HETATM   32  C   UNL     1      -6.943  19.489  66.475  1.00  0.00    -0.223 C  
ENDBRANCH  28  29
BRANCH  28  33
HETATM   33  N   UNL     1      -9.859  18.687  67.869  1.00  0.00    -0.315 N  
HETATM   34  C   UNL     1     -10.195  19.944  68.286  1.00  0.00    -0.434 C  
HETATM   35  O   UNL     1     -10.062  20.966  67.631  1.00  0.00    -0.271 OA 
HETATM   36  H   UNL     1      -9.977  17.909  68.518  1.00  0.00     0.000 HD 
ENDBRANCH  28  33
ENDBRANCH  26  28
ENDBRANCH  25  26
ENDBRANCH  12  25
ENDBRANCH  11  12
ENDBRANCH  10  11
ENDBRANCH   9  10
ENDBRANCH   8   9
ENDBRANCH   7   8
ENDBRANCH   6   7
ENDBRANCH   5   6
ENDBRANCH   4   5
ENDBRANCH   3   4
ENDBRANCH   2   3
TORSDOF 22
ENDMDL
MODEL      436
REMARK 921   NORMALIZED FREE ENERGY PREDICTED BY IDOCK:   -1.89 KCAL/MOL
REMARK 922        TOTAL FREE ENERGY PREDICTED BY IDOCK:   -7.95 KCAL/MOL
REMARK 923 INTER-LIGAND FREE ENERGY PREDICTED BY IDOCK:   -6.12 KCAL/MOL
REMARK 924 INTRA-LIGAND FREE ENERGY PREDICTED BY IDOCK:   -1.83 KCAL/MOL
REMARK 927      BINDING AFFINITY PREDICTED BY RF-SCORE:    0.00 PKD
ROOT
HETATM    1  C   UNL     1      -6.539  18.757  69.287  1.00  0.00    -0.298 C  
HETATM    2  C   UNL     1      -7.166  17.620  68.497  1.00  0.00    -0.242 C  
ENDROOT
BRANCH   2   3
HETATM    3  C   UNL     1      -8.204  18.151  67.513  1.00  0.00    -0.236 C  
BRANCH   3   4
HETATM    4  C   UNL     1      -8.312  17.269  66.272  1.00  0.00    -0.289 C  
BRANCH   4   5
HETATM    5  C   UNL     1      -9.693  16.617  66.188  1.00  0.00    -0.329 C  
BRANCH   5   6
HETATM    6  C   UNL     1      -9.565  15.133  65.872  1.00  0.00    -0.373 C  
BRANCH   6   7
HETATM    7  C   UNL     1     -10.499  14.272  66.726  1.00  0.00    -0.273 C  
BRANCH   7   8
HETATM    8  C   UNL     1      -9.656  13.275  67.511  1.00  0.00    -0.218 C  
BRANCH   8   9
HETATM    9  C   UNL     1      -8.328  13.839  68.006  1.00  0.00    -0.171 C  
BRANCH   9  10
HETATM   10  C   UNL     1      -7.366  12.669  68.236  1.00  0.00    -0.116 C  
BRANCH  10  11
HETATM   11  C   UNL     1      -7.890  11.330  67.741  1.00  0.00    -0.115 C  
BRANCH  11  12
HETATM   12  C   UNL     1      -6.908  10.145  67.807  1.00  0.00    -0.075 C  
BRANCH  12  13
HETATM   13  C   UNL     1      -7.411   8.915  68.595  1.00  0.00    -0.077 C  
BRANCH  13  14
HETATM   14  C   UNL     1      -8.719   9.145  69.361  1.00  0.00    -0.140 C  
HETATM   15  O   UNL     1      -8.512   9.848  70.618  1.00  0.00    -0.150 OA 
HETATM   16  O   UNL     1      -9.112   8.760  72.560  1.00  0.00    -0.367 OA 
HETATM   17  C   UNL     1      -9.278   7.925  70.145  1.00  0.00    -0.153 C  
HETATM   18  C   UNL     1      -8.993   8.826  71.360  1.00  0.00    -0.238 C  
BRANCH  17  19
HETATM   19  C   UNL     1     -10.745   7.532  70.006  1.00  0.00    -0.248 C  
BRANCH  19  20
HETATM   20  C   UNL     1     -11.052   6.297  70.848  1.00  0.00    -0.366 C  
BRANCH  20  21
HETATM   21  C   UNL     1      -9.897   5.292  70.809  1.00  0.00    -0.261 C  
BRANCH  21  22
HETATM   22  C   UNL     1     -10.026   4.348  69.612  1.00  0.00    -0.209 C  
BRANCH  22  23
HETATM   23  C   UNL     1      -9.406   2.980  69.897  1.00  0.00    -0.221 C  
HETATM   24  C   UNL     1      -9.560   2.603  71.364  1.00  0.00    -0.222 C  
ENDBRANCH  22  23
ENDBRANCH  21  22
ENDBRANCH  20  21
ENDBRANCH  19  20
ENDBRANCH  17  19
ENDBRANCH  13  14
ENDBRANCH  12  13
BRANCH  12  25
HETATM   25  O   UNL     1      -6.561   9.692  66.478  1.00  0.00    -0.069 OA 
BRANCH  25  26
HETATM   26  C   UNL     1      -6.163   8.396  66.342  1.00  0.00    -0.053 C  
HETATM   27  O   UNL     1      -5.164   7.892  66.843  1.00  0.00    -0.029 OA 
BRANCH  26  28
HETATM   28  C   UNL     1      -7.150   7.613  65.481  1.00  0.00    -0.063 C  
BRANCH  28  29
HETATM   29  C   UNL     1      -6.512   7.139  64.165  1.00  0.00    -0.043 C  
HETATM   30  C   UNL     1      -7.775   4.919  63.792  1.00  0.00    -0.076 C  
HETATM   31  C   UNL     1      -5.587   5.338  62.689  1.00  0.00    -0.014 C  
HETATM   32  C   UNL     1      -6.419   5.612  63.945  1.00  0.00    -0.033 C  
ENDBRANCH  28  29
BRANCH  28  33
HETATM   33  N   UNL     1      -8.348   8.427  65.280  1.00  0.00    -0.153 N  
HETATM   34  C   UNL     1      -9.527   8.177  65.922  1.00  0.00    -0.012 C  
HETATM   35  O   UNL     1      -9.734   7.245  66.684  1.00  0.00    -0.191 OA 
HETATM   36  H   UNL     1      -8.301   9.214  64.632  1.00  0.00     0.000 HD 
ENDBRANCH  28  33
ENDBRANCH  26  28
ENDBRANCH  25  26
ENDBRANCH  12  25
ENDBRANCH  11  12
ENDBRANCH  10  11
ENDBRANCH   9  10
ENDBRANCH   8   9
ENDBRANCH   7   8
ENDBRANCH   6   7
ENDBRANCH   5   6
ENDBRANCH   4   5
ENDBRANCH   3   4
ENDBRANCH   2   3
TORSDOF 22
ENDMDL
MODEL      437
REMARK 921   NORMALIZED FREE ENERGY PREDICTED BY IDOCK:   -1.89 KCAL/MOL
REMARK 922        TOTAL FREE ENERGY PREDICTED BY IDOCK:   -7.95 KCAL/MOL
REMARK 923 INTER-LIGAND FREE ENERGY PREDICTED BY IDOCK:   -6.24 KCAL/MOL
REMARK 924 INTRA-LIGAND FREE ENERGY PREDICTED BY IDOCK:   -1.70 KCAL/MOL
REMARK 927      BINDING AFFINITY PREDICTED BY RF-SCORE:    0.00 PKD
ROOT
HETATM    1  C   UNL     1     -11.853   7.696  72.695  1.00  0.00    -0.269 C  
HETATM    2  C   UNL     1     -11.896   6.315  72.061  1.00  0.00    -0.370 C  
ENDROOT
BRANCH   2   3
HETATM    3  C   UNL     1     -10.520   5.657  72.098  1.00  0.00    -0.265 C  
BRANCH   3   4
HETATM    4  C   UNL     1      -9.805   5.915  73.422  1.00  0.00    -0.167 C  
BRANCH   4   5
HETATM    5  C   UNL     1      -8.323   6.213  73.189  1.00  0.00    -0.118 C  
BRANCH   5   6
HETATM    6  C   UNL     1      -8.020   6.287  71.698  1.00  0.00    -0.102 C  
BRANCH   6   7
HETATM    7  C   UNL     1      -7.336   7.598  71.307  1.00  0.00    -0.074 C  
BRANCH   7   8
HETATM    8  C   UNL     1      -8.175   8.758  71.831  1.00  0.00    -0.113 C  
BRANCH   8   9
HETATM    9  C   UNL     1      -9.369   9.108  70.949  1.00  0.00    -0.335 C  
BRANCH   9  10
HETATM   10  C   UNL     1      -9.046   8.682  69.514  1.00  0.00    -0.146 C  
BRANCH  10  11
HETATM   11  C   UNL     1      -8.258   9.714  68.723  1.00  0.00    -0.106 C  
BRANCH  11  12
HETATM   12  C   UNL     1      -7.708   9.257  67.359  1.00  0.00    -0.095 C  
BRANCH  12  13
HETATM   13  C   UNL     1      -8.610   8.275  66.579  1.00  0.00    -0.141 C  
BRANCH  13  14
HETATM   14  C   UNL     1      -8.183   6.806  66.680  1.00  0.00    -0.115 C  
HETATM   15  O   UNL     1      -6.801   6.599  66.271  1.00  0.00    -0.057 OA 
HETATM   16  O   UNL     1      -6.420   5.209  64.472  1.00  0.00    -0.033 OA 
HETATM   17  C   UNL     1      -8.655   5.874  65.530  1.00  0.00    -0.150 C  
HETATM   18  C   UNL     1      -7.144   5.774  65.257  1.00  0.00    -0.065 C  
BRANCH  17  19
HETATM   19  C   UNL     1      -9.309   4.533  65.850  1.00  0.00    -0.159 C  
BRANCH  19  20
HETATM   20  C   UNL     1     -10.733   4.487  65.304  1.00  0.00    -0.145 C  
BRANCH  20  21
HETATM   21  C   UNL     1     -10.773   3.891  63.894  1.00  0.00    -0.212 C  
BRANCH  21  22
HETATM   22  C   UNL     1     -10.331   2.426  63.902  1.00  0.00    -0.059 C  
BRANCH  22  23
HETATM   23  C   UNL     1      -9.264   2.149  62.843  1.00  0.00    -0.091 C  
HETATM   24  C   UNL     1      -8.471   3.409  62.520  1.00  0.00    -0.074 C  
ENDBRANCH  22  23
ENDBRANCH  21  22
ENDBRANCH  20  21
ENDBRANCH  19  20
ENDBRANCH  17  19
ENDBRANCH  13  14
ENDBRANCH  12  13
BRANCH  12  25
HETATM   25  O   UNL     1      -7.464  10.393  66.498  1.00  0.00    -0.108 OA 
BRANCH  25  26
HETATM   26  C   UNL     1      -8.383  10.652  65.526  1.00  0.00    -0.158 C  
HETATM   27  O   UNL     1      -8.327  10.273  64.362  1.00  0.00    -0.163 OA 
BRANCH  26  28
HETATM   28  C   UNL     1      -9.540  11.479  66.079  1.00  0.00    -0.228 C  
BRANCH  28  29
HETATM   29  C   UNL     1     -10.838  11.251  65.288  1.00  0.00    -0.261 C  
HETATM   30  C   UNL     1     -10.170  12.203  62.984  1.00  0.00     0.028 C  
HETATM   31  C   UNL     1     -12.562  11.985  63.625  1.00  0.00    -0.605 C  
HETATM   32  C   UNL     1     -11.151  12.256  64.156  1.00  0.00    -0.423 C  
ENDBRANCH  28  29
BRANCH  28  33
HETATM   33  N   UNL     1      -9.134  12.883  66.126  1.00  0.00    -0.449 N  
HETATM   34  C   UNL     1      -8.969  13.566  67.297  1.00  0.00    -0.222 C  
HETATM   35  O   UNL     1      -9.179  13.117  68.414  1.00  0.00    -0.198 OA 
HETATM   36  H   UNL     1      -8.966  13.373  65.247  1.00  0.00     0.000 HD 
ENDBRANCH  28  33
ENDBRANCH  26  28
ENDBRANCH  25  26
ENDBRANCH  12  25
ENDBRANCH  11  12
ENDBRANCH  10  11
ENDBRANCH   9  10
ENDBRANCH   8   9
ENDBRANCH   7   8
ENDBRANCH   6   7
ENDBRANCH   5   6
ENDBRANCH   4   5
ENDBRANCH   3   4
ENDBRANCH   2   3
TORSDOF 22
ENDMDL
MODEL      438
REMARK 921   NORMALIZED FREE ENERGY PREDICTED BY IDOCK:   -1.89 KCAL/MOL
REMARK 922        TOTAL FREE ENERGY PREDICTED BY IDOCK:   -7.94 KCAL/MOL
REMARK 923 INTER-LIGAND FREE ENERGY PREDICTED BY IDOCK:   -5.85 KCAL/MOL
REMARK 924 INTRA-LIGAND FREE ENERGY PREDICTED BY IDOCK:   -2.09 KCAL/MOL
REMARK 927      BINDING AFFINITY PREDICTED BY RF-SCORE:    0.00 PKD
ROOT
HETATM    1  C   UNL     1      -9.345   2.179  74.566  1.00  0.00    -0.100 C  
HETATM    2  C   UNL     1      -9.376   3.479  73.779  1.00  0.00    -0.112 C  
ENDROOT
BRANCH   2   3
HETATM    3  C   UNL     1     -10.308   3.363  72.576  1.00  0.00    -0.190 C  
BRANCH   3   4
HETATM    4  C   UNL     1     -11.657   4.024  72.840  1.00  0.00     0.183 C  
BRANCH   4   5
HETATM    5  C   UNL     1     -11.713   5.416  72.207  1.00  0.00    -0.034 C  
BRANCH   5   6
HETATM    6  C   UNL     1     -10.411   6.167  72.453  1.00  0.00    -0.228 C  
BRANCH   6   7
HETATM    7  C   UNL     1      -9.558   6.286  71.189  1.00  0.00    -0.190 C  
BRANCH   7   8
HETATM    8  C   UNL     1     -10.463   6.108  69.976  1.00  0.00    -0.294 C  
BRANCH   8   9
HETATM    9  C   UNL     1      -9.710   5.869  68.671  1.00  0.00    -0.155 C  
BRANCH   9  10
HETATM   10  C   UNL     1     -10.596   6.342  67.513  1.00  0.00    -0.348 C  
BRANCH  10  11
HETATM   11  C   UNL     1     -10.970   7.814  67.581  1.00  0.00    -0.020 C  
BRANCH  11  12
HETATM   12  C   UNL     1     -10.002   8.798  66.900  1.00  0.00    -0.257 C  
BRANCH  12  13
HETATM   13  C   UNL     1      -9.228   8.232  65.688  1.00  0.00    -0.077 C  
BRANCH  13  14
HETATM   14  C   UNL     1      -8.053   9.101  65.226  1.00  0.00    -0.124 C  
HETATM   15  O   UNL     1      -7.849   9.041  63.785  1.00  0.00    -0.123 OA 
HETATM   16  O   UNL     1      -5.828   8.231  63.028  1.00  0.00    -0.074 OA 
HETATM   17  C   UNL     1      -6.633   8.506  65.443  1.00  0.00    -0.059 C  
HETATM   18  C   UNL     1      -6.604   8.528  63.904  1.00  0.00    -0.076 C  
BRANCH  17  19
HETATM   19  C   UNL     1      -5.539   9.351  66.088  1.00  0.00    -0.048 C  
BRANCH  19  20
HETATM   20  C   UNL     1      -5.612  10.792  65.593  1.00  0.00    -0.135 C  
BRANCH  20  21
HETATM   21  C   UNL     1      -5.694  11.781  66.759  1.00  0.00    -0.113 C  
BRANCH  21  22
HETATM   22  C   UNL     1      -5.590  11.058  68.104  1.00  0.00    -0.042 C  
BRANCH  22  23
HETATM   23  C   UNL     1      -6.636  11.559  69.100  1.00  0.00    -0.102 C  
HETATM   24  C   UNL     1      -6.750  13.077  69.059  1.00  0.00    -0.099 C  
ENDBRANCH  22  23
ENDBRANCH  21  22
ENDBRANCH  20  21
ENDBRANCH  19  20
ENDBRANCH  17  19
ENDBRANCH  13  14
ENDBRANCH  12  13
BRANCH  12  25
HETATM   25  O   UNL     1     -10.704   9.979  66.447  1.00  0.00    -0.118 OA 
BRANCH  25  26
HETATM   26  C   UNL     1     -10.784  11.030  67.309  1.00  0.00    -0.265 C  
HETATM   27  O   UNL     1     -10.801  10.959  68.533  1.00  0.00    -0.189 OA 
BRANCH  26  28
HETATM   28  C   UNL     1     -10.829  12.353  66.551  1.00  0.00    -0.250 C  
BRANCH  28  29
HETATM   29  C   UNL     1     -10.954  13.555  67.500  1.00  0.00    -0.283 C  
HETATM   30  C   UNL     1      -9.339  15.225  66.376  1.00  0.00    -0.328 C  
HETATM   31  C   UNL     1      -9.958  15.471  68.771  1.00  0.00    -0.214 C  
HETATM   32  C   UNL     1      -9.710  14.460  67.648  1.00  0.00    -0.219 C  
ENDBRANCH  28  29
BRANCH  28  33
HETATM   33  N   UNL     1     -11.901  12.290  65.558  1.00  0.00    -0.394 N  
HETATM   34  C   UNL     1     -11.696  12.549  64.233  1.00  0.00    -0.382 C  
HETATM   35  O   UNL     1     -10.638  12.900  63.735  1.00  0.00    -0.390 OA 
HETATM   36  H   UNL     1     -12.841  12.041  65.869  1.00  0.00     0.000 HD 
ENDBRANCH  28  33
ENDBRANCH  26  28
ENDBRANCH  25  26
ENDBRANCH  12  25
ENDBRANCH  11  12
ENDBRANCH  10  11
ENDBRANCH   9  10
ENDBRANCH   8   9
ENDBRANCH   7   8
ENDBRANCH   6   7
ENDBRANCH   5   6
ENDBRANCH   4   5
ENDBRANCH   3   4
ENDBRANCH   2   3
TORSDOF 22
ENDMDL
MODEL      439
REMARK 921   NORMALIZED FREE ENERGY PREDICTED BY IDOCK:   -1.87 KCAL/MOL
REMARK 922        TOTAL FREE ENERGY PREDICTED BY IDOCK:   -7.90 KCAL/MOL
REMARK 923 INTER-LIGAND FREE ENERGY PREDICTED BY IDOCK:   -5.44 KCAL/MOL
REMARK 924 INTRA-LIGAND FREE ENERGY PREDICTED BY IDOCK:   -2.47 KCAL/MOL
REMARK 927      BINDING AFFINITY PREDICTED BY RF-SCORE:    0.00 PKD
ROOT
HETATM    1  C   UNL     1     -11.004  11.825  63.137  1.00  0.00    -0.275 C  
HETATM    2  C   UNL     1      -9.924  11.373  64.106  1.00  0.00    -0.335 C  
ENDROOT
BRANCH   2   3
HETATM    3  C   UNL     1      -9.886  12.274  65.336  1.00  0.00    -0.209 C  
BRANCH   3   4
HETATM    4  C   UNL     1     -11.159  12.150  66.168  1.00  0.00    -0.354 C  
BRANCH   4   5
HETATM    5  C   UNL     1     -11.098  10.919  67.074  1.00  0.00    -0.271 C  
BRANCH   5   6
HETATM    6  C   UNL     1     -11.073  11.333  68.539  1.00  0.00    -0.288 C  
BRANCH   6   7
HETATM    7  C   UNL     1      -9.881  10.742  69.293  1.00  0.00    -0.160 C  
BRANCH   7   8
HETATM    8  C   UNL     1      -8.650  10.827  68.397  1.00  0.00    -0.141 C  
BRANCH   8   9
HETATM    9  C   UNL     1      -7.631   9.718  68.635  1.00  0.00    -0.079 C  
BRANCH   9  10
HETATM   10  C   UNL     1      -7.144   9.818  70.084  1.00  0.00    -0.130 C  
BRANCH  10  11
HETATM   11  C   UNL     1      -6.525   8.536  70.620  1.00  0.00    -0.038 C  
BRANCH  11  12
HETATM   12  C   UNL     1      -7.490   7.362  70.868  1.00  0.00    -0.074 C  
BRANCH  12  13
HETATM   13  C   UNL     1      -7.215   6.094  70.030  1.00  0.00    -0.073 C  
BRANCH  13  14
HETATM   14  C   UNL     1      -8.463   5.476  69.389  1.00  0.00    -0.105 C  
HETATM   15  O   UNL     1      -9.679   5.781  70.130  1.00  0.00    -0.160 OA 
HETATM   16  O   UNL     1     -10.869   4.009  71.000  1.00  0.00     0.764 OA 
HETATM   17  C   UNL     1      -8.692   3.962  69.652  1.00  0.00    -0.124 C  
HETATM   18  C   UNL     1      -9.940   4.481  70.389  1.00  0.00    -0.213 C  
BRANCH  17  19
HETATM   19  C   UNL     1      -9.012   3.022  68.494  1.00  0.00    -0.190 C  
BRANCH  19  20
HETATM   20  C   UNL     1      -8.766   3.715  67.158  1.00  0.00    -0.126 C  
BRANCH  20  21
HETATM   21  C   UNL     1      -7.385   3.367  66.594  1.00  0.00    -0.075 C  
BRANCH  21  22
HETATM   22  C   UNL     1      -6.979   1.941  66.969  1.00  0.00    -0.039 C  
BRANCH  22  23
HETATM   23  C   UNL     1      -5.754   1.922  67.884  1.00  0.00    -0.019 C  
HETATM   24  C   UNL     1      -6.163   1.950  69.350  1.00  0.00    -0.025 C  
ENDBRANCH  22  23
ENDBRANCH  21  22
ENDBRANCH  20  21
ENDBRANCH  19  20
ENDBRANCH  17  19
ENDBRANCH  13  14
ENDBRANCH  12  13
BRANCH  12  25
HETATM   25  O   UNL     1      -7.473   6.969  72.260  1.00  0.00    -0.084 OA 
BRANCH  25  26
HETATM   26  C   UNL     1      -8.302   7.636  73.110  1.00  0.00    -0.138 C  
HETATM   27  O   UNL     1      -7.985   8.566  73.844  1.00  0.00    -0.375 OA 
BRANCH  26  28
HETATM   28  C   UNL     1      -9.723   7.088  73.025  1.00  0.00    -0.169 C  
BRANCH  28  29
HETATM   29  C   UNL     1     -10.752   8.199  72.761  1.00  0.00    -0.391 C  
HETATM   30  C   UNL     1     -12.737   6.813  71.868  1.00  0.00    -0.298 C  
HETATM   31  C   UNL     1     -12.560   9.243  71.375  1.00  0.00    -0.411 C  
HETATM   32  C   UNL     1     -11.758   7.960  71.612  1.00  0.00    -0.320 C  
ENDBRANCH  28  29
BRANCH  28  33
HETATM   33  N   UNL     1     -10.004   6.320  74.237  1.00  0.00    -0.276 N  
HETATM   34  C   UNL     1      -9.473   5.083  74.467  1.00  0.00    -0.132 C  
HETATM   35  O   UNL     1      -8.758   4.465  73.693  1.00  0.00    -0.102 OA 
HETATM   36  H   UNL     1     -10.623   6.725  74.940  1.00  0.00     0.000 HD 
ENDBRANCH  28  33
ENDBRANCH  26  28
ENDBRANCH  25  26
ENDBRANCH  12  25
ENDBRANCH  11  12
ENDBRANCH  10  11
ENDBRANCH   9  10
ENDBRANCH   8   9
ENDBRANCH   7   8
ENDBRANCH   6   7
ENDBRANCH   5   6
ENDBRANCH   4   5
ENDBRANCH   3   4
ENDBRANCH   2   3
TORSDOF 22
ENDMDL
MODEL      440
REMARK 921   NORMALIZED FREE ENERGY PREDICTED BY IDOCK:   -1.86 KCAL/MOL
REMARK 922        TOTAL FREE ENERGY PREDICTED BY IDOCK:   -7.87 KCAL/MOL
REMARK 923 INTER-LIGAND FREE ENERGY PREDICTED BY IDOCK:   -6.29 KCAL/MOL
REMARK 924 INTRA-LIGAND FREE ENERGY PREDICTED BY IDOCK:   -1.57 KCAL/MOL
REMARK 927      BINDING AFFINITY PREDICTED BY RF-SCORE:    0.00 PKD
ROOT
HETATM    1  C   UNL     1      -9.546   4.040  62.622  1.00  0.00    -0.128 C  
HETATM    2  C   UNL     1     -10.315   3.364  63.745  1.00  0.00    -0.236 C  
ENDROOT
BRANCH   2   3
HETATM    3  C   UNL     1      -9.880   3.905  65.104  1.00  0.00    -0.184 C  
BRANCH   3   4
HETATM    4  C   UNL     1      -8.477   4.503  65.052  1.00  0.00    -0.128 C  
BRANCH   4   5
HETATM    5  C   UNL     1      -8.422   5.826  65.819  1.00  0.00    -0.143 C  
BRANCH   5   6
HETATM    6  C   UNL     1      -7.119   5.937  66.600  1.00  0.00    -0.069 C  
BRANCH   6   7
HETATM    7  C   UNL     1      -6.426   7.284  66.388  1.00  0.00    -0.048 C  
BRANCH   7   8
HETATM    8  C   UNL     1      -6.855   7.843  65.036  1.00  0.00    -0.051 C  
BRANCH   8   9
HETATM    9  C   UNL     1      -6.911   9.366  64.984  1.00  0.00    -0.089 C  
BRANCH   9  10
HETATM   10  C   UNL     1      -6.107   9.916  66.167  1.00  0.00    -0.067 C  
BRANCH  10  11
HETATM   11  C   UNL     1      -6.746  11.120  66.844  1.00  0.00    -0.128 C  
BRANCH  11  12
HETATM   12  C   UNL     1      -6.704  11.140  68.382  1.00  0.00    -0.060 C  
BRANCH  12  13
HETATM   13  C   UNL     1      -6.418  12.520  69.017  1.00  0.00    -0.097 C  
BRANCH  13  14
HETATM   14  C   UNL     1      -7.109  13.695  68.315  1.00  0.00    -0.110 C  
HETATM   15  O   UNL     1      -6.163  14.578  67.646  1.00  0.00    -0.244 OA 
HETATM   16  O   UNL     1      -6.073  16.771  68.349  1.00  0.00    -0.129 OA 
HETATM   17  C   UNL     1      -7.552  14.873  69.226  1.00  0.00    -0.170 C  
HETATM   18  C   UNL     1      -6.507  15.645  68.400  1.00  0.00    -0.113 C  
BRANCH  17  19
HETATM   19  C   UNL     1      -8.963  15.441  69.111  1.00  0.00    -0.245 C  
BRANCH  19  20
HETATM   20  C   UNL     1      -9.058  16.408  67.935  1.00  0.00    -0.201 C  
BRANCH  20  21
HETATM   21  C   UNL     1     -10.484  16.938  67.761  1.00  0.00    -0.340 C  
BRANCH  21  22
HETATM   22  C   UNL     1     -10.540  18.032  66.692  1.00  0.00    -0.268 C  
BRANCH  22  23
HETATM   23  C   UNL     1     -10.760  19.415  67.306  1.00  0.00    -0.603 C  
HETATM   24  C   UNL     1      -9.685  20.393  66.854  1.00  0.00    -0.567 C  
ENDBRANCH  22  23
ENDBRANCH  21  22
ENDBRANCH  20  21
ENDBRANCH  19  20
ENDBRANCH  17  19
ENDBRANCH  13  14
ENDBRANCH  12  13
BRANCH  12  25
HETATM   25  O   UNL     1      -7.954  10.665  68.935  1.00  0.00    -0.114 OA 
BRANCH  25  26
HETATM   26  C   UNL     1      -7.886   9.751  69.943  1.00  0.00    -0.161 C  
HETATM   27  O   UNL     1      -7.097   9.770  70.881  1.00  0.00    -0.296 OA 
BRANCH  26  28
HETATM   28  C   UNL     1      -8.955   8.675  69.775  1.00  0.00    -0.145 C  
BRANCH  28  29
HETATM   29  C   UNL     1      -8.524   7.336  70.395  1.00  0.00    -0.139 C  
HETATM   30  C   UNL     1     -10.571   6.813  71.876  1.00  0.00    -0.234 C  
HETATM   31  C   UNL     1      -8.368   5.754  72.332  1.00  0.00    -0.118 C  
HETATM   32  C   UNL     1      -9.057   7.019  71.811  1.00  0.00    -0.140 C  
ENDBRANCH  28  29
BRANCH  28  33
HETATM   33  N   UNL     1      -9.297   8.570  68.357  1.00  0.00    -0.135 N  
HETATM   34  C   UNL     1     -10.321   7.791  67.900  1.00  0.00    -0.217 C  
HETATM   35  O   UNL     1     -11.027   7.072  68.592  1.00  0.00    -0.177 OA 
HETATM   36  H   UNL     1      -8.747   9.101  67.681  1.00  0.00     0.000 HD 
ENDBRANCH  28  33
ENDBRANCH  26  28
ENDBRANCH  25  26
ENDBRANCH  12  25
ENDBRANCH  11  12
ENDBRANCH  10  11
ENDBRANCH   9  10
ENDBRANCH   8   9
ENDBRANCH   7   8
ENDBRANCH   6   7
ENDBRANCH   5   6
ENDBRANCH   4   5
ENDBRANCH   3   4
ENDBRANCH   2   3
TORSDOF 22
ENDMDL
MODEL      441
REMARK 921   NORMALIZED FREE ENERGY PREDICTED BY IDOCK:   -1.85 KCAL/MOL
REMARK 922        TOTAL FREE ENERGY PREDICTED BY IDOCK:   -7.85 KCAL/MOL
REMARK 923 INTER-LIGAND FREE ENERGY PREDICTED BY IDOCK:   -6.18 KCAL/MOL
REMARK 924 INTRA-LIGAND FREE ENERGY PREDICTED BY IDOCK:   -1.66 KCAL/MOL
REMARK 927      BINDING AFFINITY PREDICTED BY RF-SCORE:    0.00 PKD
ROOT
HETATM    1  C   UNL     1      -8.426  18.718  68.638  1.00  0.00    -0.364 C  
HETATM    2  C   UNL     1      -8.907  17.766  67.555  1.00  0.00    -0.243 C  
ENDROOT
BRANCH   2   3
HETATM    3  C   UNL     1      -9.945  18.440  66.662  1.00  0.00    -0.382 C  
BRANCH   3   4
HETATM    4  C   UNL     1     -10.599  17.448  65.706  1.00  0.00    -0.185 C  
BRANCH   4   5
HETATM    5  C   UNL     1      -9.936  16.073  65.813  1.00  0.00    -0.382 C  
BRANCH   5   6
HETATM    6  C   UNL     1     -10.847  14.994  65.243  1.00  0.00    -0.399 C  
BRANCH   6   7
HETATM    7  C   UNL     1     -11.399  14.066  66.326  1.00  0.00    -0.336 C  
BRANCH   7   8
HETATM    8  C   UNL     1     -10.279  13.747  67.309  1.00  0.00    -0.253 C  
BRANCH   8   9
HETATM    9  C   UNL     1      -9.800  12.300  67.257  1.00  0.00    -0.208 C  
BRANCH   9  10
HETATM   10  C   UNL     1      -8.881  12.055  68.458  1.00  0.00    -0.095 C  
BRANCH  10  11
HETATM   11  C   UNL     1      -7.644  11.232  68.134  1.00  0.00    -0.105 C  
BRANCH  11  12
HETATM   12  C   UNL     1      -7.396   9.994  69.015  1.00  0.00    -0.083 C  
BRANCH  12  13
HETATM   13  C   UNL     1      -8.543   9.635  69.986  1.00  0.00    -0.237 C  
BRANCH  13  14
HETATM   14  C   UNL     1      -8.216   8.493  70.956  1.00  0.00    -0.140 C  
HETATM   15  O   UNL     1      -8.635   8.784  72.320  1.00  0.00    -0.377 OA 
HETATM   16  O   UNL     1      -7.000   8.860  73.943  1.00  0.00    -0.360 OA 
HETATM   17  C   UNL     1      -6.741   8.403  71.437  1.00  0.00    -0.063 C  
HETATM   18  C   UNL     1      -7.376   8.713  72.805  1.00  0.00     0.074 C  
BRANCH  17  19
HETATM   19  C   UNL     1      -6.001   7.069  71.395  1.00  0.00    -0.037 C  
BRANCH  19  20
HETATM   20  C   UNL     1      -6.767   6.006  72.176  1.00  0.00    -0.068 C  
BRANCH  20  21
HETATM   21  C   UNL     1      -7.273   4.892  71.256  1.00  0.00    -0.060 C  
BRANCH  21  22
HETATM   22  C   UNL     1      -8.732   4.544  71.561  1.00  0.00    -0.139 C  
BRANCH  22  23
HETATM   23  C   UNL     1      -9.651   4.867  70.383  1.00  0.00    -0.259 C  
HETATM   24  C   UNL     1     -10.590   6.018  70.719  1.00  0.00    -0.316 C  
ENDBRANCH  22  23
ENDBRANCH  21  22
ENDBRANCH  20  21
ENDBRANCH  19  20
ENDBRANCH  17  19
ENDBRANCH  13  14
ENDBRANCH  12  13
BRANCH  12  25
HETATM   25  O   UNL     1      -7.142   8.826  68.200  1.00  0.00    -0.076 OA 
BRANCH  25  26
HETATM   26  C   UNL     1      -7.915   8.656  67.091  1.00  0.00    -0.100 C  
HETATM   27  O   UNL     1      -8.022   9.445  66.159  1.00  0.00    -0.108 OA 
BRANCH  26  28
HETATM   28  C   UNL     1      -8.640   7.314  67.134  1.00  0.00    -0.121 C  
BRANCH  28  29
HETATM   29  C   UNL     1      -7.847   6.210  66.418  1.00  0.00    -0.104 C  
HETATM   30  C   UNL     1      -9.086   4.107  67.258  1.00  0.00    -0.161 C  
HETATM   31  C   UNL     1      -6.768   3.949  66.373  1.00  0.00    -0.053 C  
HETATM   32  C   UNL     1      -7.750   4.843  67.135  1.00  0.00    -0.092 C  
ENDBRANCH  28  29
BRANCH  28  33
HETATM   33  N   UNL     1      -9.990   7.492  66.601  1.00  0.00    -0.367 N  
HETATM   34  C   UNL     1     -10.994   8.082  67.314  1.00  0.00     0.100 C  
HETATM   35  O   UNL     1     -10.906   8.479  68.466  1.00  0.00    -0.085 OA 
HETATM   36  H   UNL     1     -10.190   7.161  65.656  1.00  0.00     0.000 HD 
ENDBRANCH  28  33
ENDBRANCH  26  28
ENDBRANCH  25  26
ENDBRANCH  12  25
ENDBRANCH  11  12
ENDBRANCH  10  11
ENDBRANCH   9  10
ENDBRANCH   8   9
ENDBRANCH   7   8
ENDBRANCH   6   7
ENDBRANCH   5   6
ENDBRANCH   4   5
ENDBRANCH   3   4
ENDBRANCH   2   3
TORSDOF 22
ENDMDL
MODEL      442
REMARK 921   NORMALIZED FREE ENERGY PREDICTED BY IDOCK:   -1.84 KCAL/MOL
REMARK 922        TOTAL FREE ENERGY PREDICTED BY IDOCK:   -7.82 KCAL/MOL
REMARK 923 INTER-LIGAND FREE ENERGY PREDICTED BY IDOCK:   -6.25 KCAL/MOL
REMARK 924 INTRA-LIGAND FREE ENERGY PREDICTED BY IDOCK:   -1.57 KCAL/MOL
REMARK 927      BINDING AFFINITY PREDICTED BY RF-SCORE:    0.00 PKD
ROOT
HETATM    1  C   UNL     1      -8.409  16.394  68.990  1.00  0.00    -0.225 C  
HETATM    2  C   UNL     1      -9.768  16.042  68.408  1.00  0.00    -0.213 C  
ENDROOT
BRANCH   2   3
HETATM    3  C   UNL     1      -9.615  15.262  67.106  1.00  0.00    -0.223 C  
BRANCH   3   4
HETATM    4  C   UNL     1      -8.448  14.280  67.168  1.00  0.00    -0.220 C  
BRANCH   4   5
HETATM    5  C   UNL     1      -8.723  13.175  68.190  1.00  0.00    -0.193 C  
BRANCH   5   6
HETATM    6  C   UNL     1      -8.581  11.803  67.544  1.00  0.00    -0.157 C  
BRANCH   6   7
HETATM    7  C   UNL     1      -9.410  11.672  66.265  1.00  0.00    -0.228 C  
BRANCH   7   8
HETATM    8  C   UNL     1     -10.489  10.620  66.493  1.00  0.00    -0.285 C  
BRANCH   8   9
HETATM    9  C   UNL     1     -11.332  10.856  67.743  1.00  0.00    -0.366 C  
BRANCH   9  10
HETATM   10  C   UNL     1     -11.016   9.746  68.751  1.00  0.00    -0.185 C  
BRANCH  10  11
HETATM   11  C   UNL     1     -10.424   8.492  68.127  1.00  0.00    -0.236 C  
BRANCH  11  12
HETATM   12  C   UNL     1      -9.882   7.433  69.104  1.00  0.00    -0.168 C  
BRANCH  12  13
HETATM   13  C   UNL     1     -10.710   6.132  69.193  1.00  0.00    -0.381 C  
BRANCH  13  14
HETATM   14  C   UNL     1     -11.504   5.974  70.495  1.00  0.00    -0.157 C  
HETATM   15  O   UNL     1     -12.351   7.126  70.774  1.00  0.00    -0.314 OA 
HETATM   16  O   UNL     1     -11.947   8.302  72.714  1.00  0.00    -0.377 OA 
HETATM   17  C   UNL     1     -10.723   6.242  71.812  1.00  0.00    -0.279 C  
HETATM   18  C   UNL     1     -11.718   7.410  71.933  1.00  0.00    -0.288 C  
BRANCH  17  19
HETATM   19  C   UNL     1     -10.803   5.248  72.966  1.00  0.00    -0.332 C  
BRANCH  19  20
HETATM   20  C   UNL     1      -9.617   4.287  72.930  1.00  0.00    -0.159 C  
BRANCH  20  21
HETATM   21  C   UNL     1      -8.286   5.039  73.010  1.00  0.00    -0.105 C  
BRANCH  21  22
HETATM   22  C   UNL     1      -8.100   5.689  74.383  1.00  0.00    -0.103 C  
BRANCH  22  23
HETATM   23  C   UNL     1      -7.572   7.119  74.268  1.00  0.00    -0.128 C  
HETATM   24  C   UNL     1      -6.457   7.211  73.235  1.00  0.00    -0.065 C  
ENDBRANCH  22  23
ENDBRANCH  21  22
ENDBRANCH  20  21
ENDBRANCH  19  20
ENDBRANCH  17  19
ENDBRANCH  13  14
ENDBRANCH  12  13
BRANCH  12  25
HETATM   25  O   UNL     1      -8.529   7.058  68.756  1.00  0.00    -0.121 OA 
BRANCH  25  26
HETATM   26  C   UNL     1      -8.336   6.456  67.550  1.00  0.00    -0.117 C  
HETATM   27  O   UNL     1      -8.820   6.811  66.481  1.00  0.00    -0.132 OA 
BRANCH  26  28
HETATM   28  C   UNL     1      -7.400   5.259  67.683  1.00  0.00    -0.076 C  
BRANCH  28  29
HETATM   29  C   UNL     1      -7.326   4.440  66.385  1.00  0.00    -0.081 C  
HETATM   30  C   UNL     1      -9.719   3.479  66.287  1.00  0.00    -0.041 C  
HETATM   31  C   UNL     1      -7.863   2.398  65.035  1.00  0.00    -0.077 C  
HETATM   32  C   UNL     1      -8.219   3.180  66.303  1.00  0.00    -0.090 C  
ENDBRANCH  28  29
BRANCH  28  33
HETATM   33  N   UNL     1      -7.812   4.466  68.841  1.00  0.00    -0.069 N  
HETATM   34  C   UNL     1      -6.939   4.068  69.813  1.00  0.00    -0.042 C  
HETATM   35  O   UNL     1      -5.735   4.278  69.812  1.00  0.00    -0.015 OA 
HETATM   36  H   UNL     1      -8.793   4.199  68.927  1.00  0.00     0.000 HD 
ENDBRANCH  28  33
ENDBRANCH  26  28
ENDBRANCH  25  26
ENDBRANCH  12  25
ENDBRANCH  11  12
ENDBRANCH  10  11
ENDBRANCH   9  10
ENDBRANCH   8   9
ENDBRANCH   7   8
ENDBRANCH   6   7
ENDBRANCH   5   6
ENDBRANCH   4   5
ENDBRANCH   3   4
ENDBRANCH   2   3
TORSDOF 22
ENDMDL
MODEL      443
REMARK 921   NORMALIZED FREE ENERGY PREDICTED BY IDOCK:   -1.83 KCAL/MOL
REMARK 922        TOTAL FREE ENERGY PREDICTED BY IDOCK:   -7.79 KCAL/MOL
REMARK 923 INTER-LIGAND FREE ENERGY PREDICTED BY IDOCK:   -5.93 KCAL/MOL
REMARK 924 INTRA-LIGAND FREE ENERGY PREDICTED BY IDOCK:   -1.86 KCAL/MOL
REMARK 927      BINDING AFFINITY PREDICTED BY RF-SCORE:    0.00 PKD
ROOT
HETATM    1  C   UNL     1      -8.325  18.734  68.720  1.00  0.00    -0.322 C  
HETATM    2  C   UNL     1      -8.807  17.843  67.587  1.00  0.00    -0.250 C  
ENDROOT
BRANCH   2   3
HETATM    3  C   UNL     1      -9.792  18.589  66.691  1.00  0.00    -0.370 C  
BRANCH   3   4
HETATM    4  C   UNL     1     -10.628  17.630  65.849  1.00  0.00    -0.203 C  
BRANCH   4   5
HETATM    5  C   UNL     1     -10.175  16.184  66.061  1.00  0.00    -0.374 C  
BRANCH   5   6
HETATM    6  C   UNL     1     -11.358  15.232  65.953  1.00  0.00    -0.172 C  
BRANCH   6   7
HETATM    7  C   UNL     1     -11.697  14.569  67.289  1.00  0.00    -0.429 C  
BRANCH   7   8
HETATM    8  C   UNL     1     -10.395  14.200  67.991  1.00  0.00    -0.231 C  
BRANCH   8   9
HETATM    9  C   UNL     1     -10.096  12.705  67.999  1.00  0.00    -0.229 C  
BRANCH   9  10
HETATM   10  C   UNL     1      -8.827  12.474  68.826  1.00  0.00     0.161 C  
BRANCH  10  11
HETATM   11  C   UNL     1      -7.781  11.617  68.130  1.00  0.00    -0.122 C  
BRANCH  11  12
HETATM   12  C   UNL     1      -7.394  10.304  68.834  1.00  0.00    -0.090 C  
BRANCH  12  13
HETATM   13  C   UNL     1      -8.092  10.051  70.189  1.00  0.00    -0.099 C  
BRANCH  13  14
HETATM   14  C   UNL     1      -7.527   8.864  70.979  1.00  0.00    -0.110 C  
HETATM   15  O   UNL     1      -7.479   9.121  72.411  1.00  0.00    -0.294 OA 
HETATM   16  O   UNL     1      -5.413   9.080  73.432  1.00  0.00    -0.099 OA 
HETATM   17  C   UNL     1      -5.981   8.703  70.964  1.00  0.00    -0.038 C  
HETATM   18  C   UNL     1      -6.135   8.987  72.469  1.00  0.00     0.018 C  
BRANCH  17  19
HETATM   19  C   UNL     1      -5.355   7.346  70.659  1.00  0.00    -0.023 C  
BRANCH  19  20
HETATM   20  C   UNL     1      -6.436   6.311  70.360  1.00  0.00    -0.040 C  
BRANCH  20  21
HETATM   21  C   UNL     1      -6.357   5.822  68.911  1.00  0.00    -0.037 C  
BRANCH  21  22
HETATM   22  C   UNL     1      -7.237   4.589  68.696  1.00  0.00    -0.056 C  
BRANCH  22  23
HETATM   23  C   UNL     1      -8.380   4.870  67.720  1.00  0.00    -0.104 C  
HETATM   24  C   UNL     1      -9.709   4.374  68.273  1.00  0.00    -0.171 C  
ENDBRANCH  22  23
ENDBRANCH  21  22
ENDBRANCH  20  21
ENDBRANCH  19  20
ENDBRANCH  17  19
ENDBRANCH  13  14
ENDBRANCH  12  13
BRANCH  12  25
HETATM   25  O   UNL     1      -7.674   9.166  67.987  1.00  0.00    -0.091 OA 
BRANCH  25  26
HETATM   26  C   UNL     1      -8.959   8.999  67.566  1.00  0.00    -0.122 C  
HETATM   27  O   UNL     1      -9.876   8.520  68.223  1.00  0.00    -0.159 OA 
BRANCH  26  28
HETATM   28  C   UNL     1      -9.135   9.514  66.140  1.00  0.00    -0.166 C  
BRANCH  28  29
HETATM   29  C   UNL     1     -10.454  10.284  65.967  1.00  0.00    -0.181 C  
HETATM   30  C   UNL     1     -10.380  10.801  63.440  1.00  0.00    -0.196 C  
HETATM   31  C   UNL     1     -11.803  12.146  64.972  1.00  0.00    -0.357 C  
HETATM   32  C   UNL     1     -10.493  11.361  64.859  1.00  0.00    -0.363 C  
ENDBRANCH  28  29
BRANCH  28  33
HETATM   33  N   UNL     1      -8.999   8.391  65.214  1.00  0.00    -0.397 N  
HETATM   34  C   UNL     1      -7.866   8.167  64.486  1.00  0.00    -0.138 C  
HETATM   35  O   UNL     1      -6.875   8.881  64.481  1.00  0.00    -0.079 OA 
HETATM   36  H   UNL     1      -9.783   7.746  65.109  1.00  0.00     0.000 HD 
ENDBRANCH  28  33
ENDBRANCH  26  28
ENDBRANCH  25  26
ENDBRANCH  12  25
ENDBRANCH  11  12
ENDBRANCH  10  11
ENDBRANCH   9  10
ENDBRANCH   8   9
ENDBRANCH   7   8
ENDBRANCH   6   7
ENDBRANCH   5   6
ENDBRANCH   4   5
ENDBRANCH   3   4
ENDBRANCH   2   3
TORSDOF 22
ENDMDL
MODEL      444
REMARK 921   NORMALIZED FREE ENERGY PREDICTED BY IDOCK:   -1.80 KCAL/MOL
REMARK 922        TOTAL FREE ENERGY PREDICTED BY IDOCK:   -7.72 KCAL/MOL
REMARK 923 INTER-LIGAND FREE ENERGY PREDICTED BY IDOCK:   -6.07 KCAL/MOL
REMARK 924 INTRA-LIGAND FREE ENERGY PREDICTED BY IDOCK:   -1.65 KCAL/MOL
REMARK 927      BINDING AFFINITY PREDICTED BY RF-SCORE:    0.00 PKD
ROOT
HETATM    1  C   UNL     1      -8.031   6.971  69.802  1.00  0.00    -0.124 C  
HETATM    2  C   UNL     1      -9.439   6.434  69.607  1.00  0.00    -0.154 C  
ENDROOT
BRANCH   2   3
HETATM    3  C   UNL     1      -9.837   6.478  68.135  1.00  0.00    -0.131 C  
BRANCH   3   4
HETATM    4  C   UNL     1     -10.537   7.785  67.776  1.00  0.00    -0.254 C  
BRANCH   4   5
HETATM    5  C   UNL     1      -9.914   8.409  66.526  1.00  0.00    -0.335 C  
BRANCH   5   6
HETATM    6  C   UNL     1      -8.739   9.301  66.903  1.00  0.00    -0.136 C  
BRANCH   6   7
HETATM    7  C   UNL     1      -8.992  10.087  68.191  1.00  0.00    -0.122 C  
BRANCH   7   8
HETATM    8  C   UNL     1      -8.508  11.518  67.989  1.00  0.00    -0.148 C  
BRANCH   8   9
HETATM    9  C   UNL     1      -9.037  12.504  69.024  1.00  0.00     0.477 C  
BRANCH   9  10
HETATM   10  C   UNL     1      -8.519  13.900  68.666  1.00  0.00    -0.082 C  
BRANCH  10  11
HETATM   11  C   UNL     1      -9.533  14.771  67.940  1.00  0.00    -0.201 C  
BRANCH  11  12
HETATM   12  C   UNL     1      -9.315  14.958  66.427  1.00  0.00    -0.297 C  
BRANCH  12  13
HETATM   13  C   UNL     1     -10.541  14.645  65.540  1.00  0.00    -0.369 C  
BRANCH  13  14
HETATM   14  C   UNL     1     -10.860  13.151  65.406  1.00  0.00    -0.282 C  
HETATM   15  O   UNL     1     -11.509  12.832  64.142  1.00  0.00    -0.343 OA 
HETATM   16  O   UNL     1     -13.624  11.922  64.231  1.00  0.00    -0.425 OA 
HETATM   17  C   UNL     1     -12.116  12.647  66.169  1.00  0.00    -0.399 C  
HETATM   18  C   UNL     1     -12.628  12.372  64.743  1.00  0.00    -0.335 C  
BRANCH  17  19
HETATM   19  C   UNL     1     -12.034  11.398  67.041  1.00  0.00     0.444 C  
BRANCH  19  20
HETATM   20  C   UNL     1     -12.441  11.717  68.476  1.00  0.00     0.698 C  
BRANCH  20  21
HETATM   21  C   UNL     1     -12.269  13.207  68.788  1.00  0.00    -0.090 C  
BRANCH  21  22
HETATM   22  C   UNL     1     -12.731  13.530  70.210  1.00  0.00    -0.118 C  
BRANCH  22  23
HETATM   23  C   UNL     1     -11.941  14.691  70.814  1.00  0.00    -0.380 C  
HETATM   24  C   UNL     1     -12.774  15.448  71.839  1.00  0.00    -0.462 C  
ENDBRANCH  22  23
ENDBRANCH  21  22
ENDBRANCH  20  21
ENDBRANCH  19  20
ENDBRANCH  17  19
ENDBRANCH  13  14
ENDBRANCH  12  13
BRANCH  12  25
HETATM   25  O   UNL     1      -8.906  16.313  66.132  1.00  0.00    -0.310 OA 
BRANCH  25  26
HETATM   26  C   UNL     1      -9.432  17.308  66.898  1.00  0.00    -0.257 C  
HETATM   27  O   UNL     1     -10.324  17.182  67.730  1.00  0.00    -0.319 OA 
BRANCH  26  28
HETATM   28  C   UNL     1      -8.746  18.640  66.608  1.00  0.00    -0.302 C  
BRANCH  28  29
HETATM   29  C   UNL     1      -7.950  19.152  67.819  1.00  0.00    -0.305 C  
HETATM   30  C   UNL     1      -6.384  17.146  68.248  1.00  0.00    -0.149 C  
HETATM   31  C   UNL     1      -6.857  18.798  70.046  1.00  0.00     0.292 C  
HETATM   32  C   UNL     1      -7.444  18.089  68.821  1.00  0.00    -0.271 C  
ENDBRANCH  28  29
BRANCH  28  33
HETATM   33  N   UNL     1      -9.748  19.592  66.133  1.00  0.00    -0.394 N  
HETATM   34  C   UNL     1     -10.638  20.206  66.968  1.00  0.00    -0.208 C  
HETATM   35  O   UNL     1     -10.734  20.007  68.170  1.00  0.00    -0.281 OA 
HETATM   36  H   UNL     1      -9.785  19.807  65.136  1.00  0.00     0.000 HD 
ENDBRANCH  28  33
ENDBRANCH  26  28
ENDBRANCH  25  26
ENDBRANCH  12  25
ENDBRANCH  11  12
ENDBRANCH  10  11
ENDBRANCH   9  10
ENDBRANCH   8   9
ENDBRANCH   7   8
ENDBRANCH   6   7
ENDBRANCH   5   6
ENDBRANCH   4   5
ENDBRANCH   3   4
ENDBRANCH   2   3
TORSDOF 22
ENDMDL
MODEL      445
REMARK 921   NORMALIZED FREE ENERGY PREDICTED BY IDOCK:   -1.79 KCAL/MOL
REMARK 922        TOTAL FREE ENERGY PREDICTED BY IDOCK:   -7.71 KCAL/MOL
REMARK 923 INTER-LIGAND FREE ENERGY PREDICTED BY IDOCK:   -6.71 KCAL/MOL
REMARK 924 INTRA-LIGAND FREE ENERGY PREDICTED BY IDOCK:   -0.99 KCAL/MOL
REMARK 927      BINDING AFFINITY PREDICTED BY RF-SCORE:    0.00 PKD
ROOT
HETATM    1  C   UNL     1      -9.250   1.668  70.800  1.00  0.00    -0.156 C  
HETATM    2  C   UNL     1      -9.530   3.155  70.651  1.00  0.00    -0.233 C  
ENDROOT
BRANCH   2   3
HETATM    3  C   UNL     1      -9.522   3.564  69.181  1.00  0.00    -0.224 C  
BRANCH   3   4
HETATM    4  C   UNL     1      -8.372   4.516  68.865  1.00  0.00    -0.086 C  
BRANCH   4   5
HETATM    5  C   UNL     1      -8.894   5.931  68.607  1.00  0.00    -0.111 C  
BRANCH   5   6
HETATM    6  C   UNL     1      -8.137   6.578  67.455  1.00  0.00    -0.121 C  
BRANCH   6   7
HETATM    7  C   UNL     1      -6.732   7.026  67.858  1.00  0.00    -0.065 C  
BRANCH   7   8
HETATM    8  C   UNL     1      -6.352   8.242  67.020  1.00  0.00    -0.056 C  
BRANCH   8   9
HETATM    9  C   UNL     1      -7.100   8.340  65.695  1.00  0.00    -0.071 C  
BRANCH   9  10
HETATM   10  C   UNL     1      -6.867   9.738  65.115  1.00  0.00    -0.109 C  
BRANCH  10  11
HETATM   11  C   UNL     1      -7.167  10.870  66.086  1.00  0.00    -0.101 C  
BRANCH  11  12
HETATM   12  C   UNL     1      -8.652  11.217  66.293  1.00  0.00    -0.172 C  
BRANCH  12  13
HETATM   13  C   UNL     1      -9.483  10.149  67.038  1.00  0.00    -0.197 C  
BRANCH  13  14
HETATM   14  C   UNL     1      -9.644  10.407  68.541  1.00  0.00    -0.158 C  
HETATM   15  O   UNL     1      -8.393  10.254  69.270  1.00  0.00    -0.141 OA 
HETATM   16  O   UNL     1      -8.303   8.631  70.904  1.00  0.00    -0.125 OA 
HETATM   17  C   UNL     1     -10.261   9.248  69.373  1.00  0.00    -0.214 C  
HETATM   18  C   UNL     1      -8.870   9.246  70.033  1.00  0.00    -0.197 C  
BRANCH  17  19
HETATM   19  C   UNL     1     -11.400   9.528  70.349  1.00  0.00    -0.318 C  
BRANCH  19  20
HETATM   20  C   UNL     1     -10.978   9.192  71.776  1.00  0.00    -0.429 C  
BRANCH  20  21
HETATM   21  C   UNL     1     -11.745   7.982  72.316  1.00  0.00    -0.428 C  
BRANCH  21  22
HETATM   22  C   UNL     1     -10.796   6.971  72.963  1.00  0.00    -0.342 C  
BRANCH  22  23
HETATM   23  C   UNL     1     -11.319   5.540  72.837  1.00  0.00    -0.348 C  
HETATM   24  C   UNL     1     -10.722   4.640  73.911  1.00  0.00    -0.360 C  
ENDBRANCH  22  23
ENDBRANCH  21  22
ENDBRANCH  20  21
ENDBRANCH  19  20
ENDBRANCH  17  19
ENDBRANCH  13  14
ENDBRANCH  12  13
BRANCH  12  25
HETATM   25  O   UNL     1      -8.791  12.457  67.026  1.00  0.00    -0.198 OA 
BRANCH  25  26
HETATM   26  C   UNL     1      -7.656  13.167  67.279  1.00  0.00    -0.080 C  
HETATM   27  O   UNL     1      -6.512  12.726  67.264  1.00  0.00    -0.160 OA 
BRANCH  26  28
HETATM   28  C   UNL     1      -7.983  14.628  67.571  1.00  0.00    -0.190 C  
BRANCH  28  29
HETATM   29  C   UNL     1      -9.473  14.937  67.358  1.00  0.00    -0.206 C  
HETATM   30  C   UNL     1     -10.087  15.946  69.653  1.00  0.00    -0.271 C  
HETATM   31  C   UNL     1     -11.845  15.011  68.163  1.00  0.00    -0.286 C  
HETATM   32  C   UNL     1     -10.385  14.872  68.605  1.00  0.00    -0.237 C  
ENDBRANCH  28  29
BRANCH  28  33
HETATM   33  N   UNL     1      -7.099  15.476  66.772  1.00  0.00    -0.017 N  
HETATM   34  C   UNL     1      -6.237  16.377  67.329  1.00  0.00    -0.177 C  
HETATM   35  O   UNL     1      -6.134  16.612  68.523  1.00  0.00    -0.129 OA 
HETATM   36  H   UNL     1      -7.128  15.391  65.755  1.00  0.00     0.000 HD 
ENDBRANCH  28  33
ENDBRANCH  26  28
ENDBRANCH  25  26
ENDBRANCH  12  25
ENDBRANCH  11  12
ENDBRANCH  10  11
ENDBRANCH   9  10
ENDBRANCH   8   9
ENDBRANCH   7   8
ENDBRANCH   6   7
ENDBRANCH   5   6
ENDBRANCH   4   5
ENDBRANCH   3   4
ENDBRANCH   2   3
TORSDOF 22
ENDMDL
MODEL      446
REMARK 921   NORMALIZED FREE ENERGY PREDICTED BY IDOCK:   -1.76 KCAL/MOL
REMARK 922        TOTAL FREE ENERGY PREDICTED BY IDOCK:   -7.65 KCAL/MOL
REMARK 923 INTER-LIGAND FREE ENERGY PREDICTED BY IDOCK:   -4.91 KCAL/MOL
REMARK 924 INTRA-LIGAND FREE ENERGY PREDICTED BY IDOCK:   -2.73 KCAL/MOL
REMARK 927      BINDING AFFINITY PREDICTED BY RF-SCORE:    0.00 PKD
ROOT
HETATM    1  C   UNL     1      -5.126  10.167  67.567  1.00  0.00    -0.037 C  
HETATM    2  C   UNL     1      -5.936   9.425  68.617  1.00  0.00    -0.044 C  
ENDROOT
BRANCH   2   3
HETATM    3  C   UNL     1      -7.248   8.912  68.028  1.00  0.00    -0.083 C  
BRANCH   3   4
HETATM    4  C   UNL     1      -8.350   8.837  69.080  1.00  0.00    -0.125 C  
BRANCH   4   5
HETATM    5  C   UNL     1      -9.385   9.942  68.862  1.00  0.00    -0.170 C  
BRANCH   5   6
HETATM    6  C   UNL     1      -8.795  11.070  68.026  1.00  0.00    -0.138 C  
BRANCH   6   7
HETATM    7  C   UNL     1      -8.478  12.311  68.862  1.00  0.00     0.234 C  
BRANCH   7   8
HETATM    8  C   UNL     1      -7.323  13.057  68.202  1.00  0.00    -0.118 C  
BRANCH   8   9
HETATM    9  C   UNL     1      -6.631  14.062  69.117  1.00  0.00    -0.113 C  
BRANCH   9  10
HETATM   10  C   UNL     1      -6.875  15.467  68.558  1.00  0.00    -0.113 C  
BRANCH  10  11
HETATM   11  C   UNL     1      -8.322  15.740  68.177  1.00  0.00    -0.160 C  
BRANCH  11  12
HETATM   12  C   UNL     1      -8.559  16.341  66.780  1.00  0.00    -0.237 C  
BRANCH  12  13
HETATM   13  C   UNL     1      -9.330  15.437  65.793  1.00  0.00    -0.265 C  
BRANCH  13  14
HETATM   14  C   UNL     1     -10.348  14.501  66.456  1.00  0.00    -0.283 C  
HETATM   15  O   UNL     1     -10.999  13.618  65.499  1.00  0.00    -0.287 OA 
HETATM   16  O   UNL     1     -13.287  13.788  65.277  1.00  0.00    -0.710 OA 
HETATM   17  C   UNL     1     -11.727  15.125  66.806  1.00  0.00    -0.070 C  
HETATM   18  C   UNL     1     -12.229  14.112  65.761  1.00  0.00    -0.442 C  
BRANCH  17  19
HETATM   19  C   UNL     1     -12.331  14.923  68.192  1.00  0.00     0.173 C  
BRANCH  19  20
HETATM   20  C   UNL     1     -11.692  13.722  68.885  1.00  0.00    -0.374 C  
BRANCH  20  21
HETATM   21  C   UNL     1     -11.996  13.716  70.386  1.00  0.00    -0.372 C  
BRANCH  21  22
HETATM   22  C   UNL     1     -13.240  14.549  70.701  1.00  0.00    -0.228 C  
BRANCH  22  23
HETATM   23  C   UNL     1     -13.561  14.547  72.196  1.00  0.00    -0.516 C  
HETATM   24  C   UNL     1     -13.085  15.832  72.860  1.00  0.00    -0.618 C  
ENDBRANCH  22  23
ENDBRANCH  21  22
ENDBRANCH  20  21
ENDBRANCH  19  20
ENDBRANCH  17  19
ENDBRANCH  13  14
ENDBRANCH  12  13
BRANCH  12  25
HETATM   25  O   UNL     1      -9.284  17.589  66.876  1.00  0.00    -0.250 OA 
BRANCH  25  26
HETATM   26  C   UNL     1      -9.605  18.034  68.122  1.00  0.00    -0.301 C  
HETATM   27  O   UNL     1     -10.304  17.445  68.940  1.00  0.00    -0.335 OA 
BRANCH  26  28
HETATM   28  C   UNL     1      -8.955  19.386  68.402  1.00  0.00    -0.354 C  
BRANCH  28  29
HETATM   29  C   UNL     1      -7.424  19.279  68.486  1.00  0.00    -0.360 C  
HETATM   30  C   UNL     1      -6.723  21.082  66.776  1.00  0.00    -0.360 C  
HETATM   31  C   UNL     1      -5.155  19.263  67.422  1.00  0.00    -0.160 C  
HETATM   32  C   UNL     1      -6.630  19.615  67.203  1.00  0.00    -0.215 C  
ENDBRANCH  28  29
BRANCH  28  33
HETATM   33  N   UNL     1      -9.559  19.958  69.604  1.00  0.00     0.083 N  
HETATM   34  C   UNL     1     -10.739  20.646  69.582  1.00  0.00     0.996 C  
HETATM   35  O   UNL     1     -11.391  20.900  68.581  1.00  0.00     1.443 OA 
HETATM   36  H   UNL     1      -9.079  19.839  70.496  1.00  0.00     0.000 HD 
ENDBRANCH  28  33
ENDBRANCH  26  28
ENDBRANCH  25  26
ENDBRANCH  12  25
ENDBRANCH  11  12
ENDBRANCH  10  11
ENDBRANCH   9  10
ENDBRANCH   8   9
ENDBRANCH   7   8
ENDBRANCH   6   7
ENDBRANCH   5   6
ENDBRANCH   4   5
ENDBRANCH   3   4
ENDBRANCH   2   3
TORSDOF 22
ENDMDL
MODEL      447
REMARK 921   NORMALIZED FREE ENERGY PREDICTED BY IDOCK:   -1.70 KCAL/MOL
REMARK 922        TOTAL FREE ENERGY PREDICTED BY IDOCK:   -7.49 KCAL/MOL
REMARK 923 INTER-LIGAND FREE ENERGY PREDICTED BY IDOCK:   -6.18 KCAL/MOL
REMARK 924 INTRA-LIGAND FREE ENERGY PREDICTED BY IDOCK:   -1.32 KCAL/MOL
REMARK 927      BINDING AFFINITY PREDICTED BY RF-SCORE:    0.00 PKD
ROOT
HETATM    1  C   UNL     1     -12.110  14.977  69.955  1.00  0.00    -0.376 C  
HETATM    2  C   UNL     1     -11.135  16.071  70.359  1.00  0.00    -0.376 C  
ENDROOT
BRANCH   2   3
HETATM    3  C   UNL     1     -10.397  16.617  69.139  1.00  0.00    -0.326 C  
BRANCH   3   4
HETATM    4  C   UNL     1      -9.038  15.950  68.955  1.00  0.00    -0.233 C  
BRANCH   4   5
HETATM    5  C   UNL     1      -8.589  16.028  67.494  1.00  0.00    -0.190 C  
BRANCH   5   6
HETATM    6  C   UNL     1      -9.673  15.488  66.572  1.00  0.00    -0.290 C  
BRANCH   6   7
HETATM    7  C   UNL     1      -9.835  13.971  66.688  1.00  0.00    -0.288 C  
BRANCH   7   8
HETATM    8  C   UNL     1     -11.316  13.631  66.558  1.00  0.00    -0.335 C  
BRANCH   8   9
HETATM    9  C   UNL     1     -11.616  12.136  66.605  1.00  0.00    -0.416 C  
BRANCH   9  10
HETATM   10  C   UNL     1     -10.317  11.397  66.942  1.00  0.00    -0.262 C  
BRANCH  10  11
HETATM   11  C   UNL     1     -10.124  10.100  66.172  1.00  0.00    -0.314 C  
BRANCH  11  12
HETATM   12  C   UNL     1      -8.991   9.178  66.658  1.00  0.00    -0.137 C  
BRANCH  12  13
HETATM   13  C   UNL     1      -9.425   8.051  67.622  1.00  0.00    -0.171 C  
BRANCH  13  14
HETATM   14  C   UNL     1      -8.674   8.038  68.959  1.00  0.00    -0.137 C  
HETATM   15  O   UNL     1      -7.668   6.986  69.021  1.00  0.00    -0.105 OA 
HETATM   16  O   UNL     1      -7.911   5.377  70.654  1.00  0.00    -0.086 OA 
HETATM   17  C   UNL     1      -9.418   7.386  70.157  1.00  0.00    -0.165 C  
HETATM   18  C   UNL     1      -8.262   6.373  70.070  1.00  0.00    -0.125 C  
BRANCH  17  19
HETATM   19  C   UNL     1      -9.495   8.112  71.497  1.00  0.00    -0.222 C  
BRANCH  19  20
HETATM   20  C   UNL     1     -10.300   7.295  72.503  1.00  0.00    -0.254 C  
BRANCH  20  21
HETATM   21  C   UNL     1      -9.790   7.507  73.931  1.00  0.00    -0.205 C  
BRANCH  21  22
HETATM   22  C   UNL     1      -8.475   8.289  73.937  1.00  0.00    -0.247 C  
BRANCH  22  23
HETATM   23  C   UNL     1      -7.307   7.433  74.430  1.00  0.00    -0.141 C  
HETATM   24  C   UNL     1      -7.143   6.184  73.575  1.00  0.00    -0.080 C  
ENDBRANCH  22  23
ENDBRANCH  21  22
ENDBRANCH  20  21
ENDBRANCH  19  20
ENDBRANCH  17  19
ENDBRANCH  13  14
ENDBRANCH  12  13
BRANCH  12  25
HETATM   25  O   UNL     1      -8.323   8.551  65.538  1.00  0.00    -0.137 OA 
BRANCH  25  26
HETATM   26  C   UNL     1      -7.640   7.398  65.781  1.00  0.00    -0.090 C  
HETATM   27  O   UNL     1      -6.487   7.316  66.191  1.00  0.00    -0.043 OA 
BRANCH  26  28
HETATM   28  C   UNL     1      -8.511   6.179  65.494  1.00  0.00    -0.149 C  
BRANCH  28  29
HETATM   29  C   UNL     1      -7.971   4.914  66.180  1.00  0.00    -0.107 C  
HETATM   30  C   UNL     1     -10.152   3.569  66.490  1.00  0.00     0.508 C  
HETATM   31  C   UNL     1      -8.151   3.085  67.883  1.00  0.00    -0.083 C  
HETATM   32  C   UNL     1      -8.924   4.190  67.158  1.00  0.00    -0.139 C  
ENDBRANCH  28  29
BRANCH  28  33
HETATM   33  N   UNL     1      -8.653   6.033  64.046  1.00  0.00    -0.340 N  
HETATM   34  C   UNL     1      -7.668   5.511  63.257  1.00  0.00    -0.084 C  
HETATM   35  O   UNL     1      -6.565   5.156  63.643  1.00  0.00    -0.029 OA 
HETATM   36  H   UNL     1      -9.524   6.333  63.607  1.00  0.00     0.000 HD 
ENDBRANCH  28  33
ENDBRANCH  26  28
ENDBRANCH  25  26
ENDBRANCH  12  25
ENDBRANCH  11  12
ENDBRANCH  10  11
ENDBRANCH   9  10
ENDBRANCH   8   9
ENDBRANCH   7   8
ENDBRANCH   6   7
ENDBRANCH   5   6
ENDBRANCH   4   5
ENDBRANCH   3   4
ENDBRANCH   2   3
TORSDOF 22
ENDMDL
MODEL      448
REMARK 921   NORMALIZED FREE ENERGY PREDICTED BY IDOCK:   -1.69 KCAL/MOL
REMARK 922        TOTAL FREE ENERGY PREDICTED BY IDOCK:   -7.47 KCAL/MOL
REMARK 923 INTER-LIGAND FREE ENERGY PREDICTED BY IDOCK:   -6.63 KCAL/MOL
REMARK 924 INTRA-LIGAND FREE ENERGY PREDICTED BY IDOCK:   -0.84 KCAL/MOL
REMARK 927      BINDING AFFINITY PREDICTED BY RF-SCORE:    0.00 PKD
ROOT
HETATM    1  C   UNL     1      -5.949   8.593  73.584  1.00  0.00    -0.120 C  
HETATM    2  C   UNL     1      -6.432   7.532  74.559  1.00  0.00    -0.093 C  
ENDROOT
BRANCH   2   3
HETATM    3  C   UNL     1      -7.623   6.770  73.986  1.00  0.00    -0.101 C  
BRANCH   3   4
HETATM    4  C   UNL     1      -8.519   7.671  73.143  1.00  0.00    -0.193 C  
BRANCH   4   5
HETATM    5  C   UNL     1      -9.976   7.566  73.597  1.00  0.00    -0.347 C  
BRANCH   5   6
HETATM    6  C   UNL     1     -10.919   7.958  72.467  1.00  0.00    -0.412 C  
BRANCH   6   7
HETATM    7  C   UNL     1     -11.992   6.899  72.209  1.00  0.00    -0.244 C  
BRANCH   7   8
HETATM    8  C   UNL     1     -12.272   6.849  70.711  1.00  0.00    -0.364 C  
BRANCH   8   9
HETATM    9  C   UNL     1     -11.040   6.565  69.858  1.00  0.00    -0.430 C  
BRANCH   9  10
HETATM   10  C   UNL     1     -11.410   6.797  68.390  1.00  0.00    -0.033 C  
BRANCH  10  11
HETATM   11  C   UNL     1     -10.299   6.455  67.409  1.00  0.00    -0.257 C  
BRANCH  11  12
HETATM   12  C   UNL     1      -9.527   7.645  66.809  1.00  0.00    -0.191 C  
BRANCH  12  13
HETATM   13  C   UNL     1      -8.651   8.435  67.806  1.00  0.00    -0.130 C  
BRANCH  13  14
HETATM   14  C   UNL     1      -9.094   9.886  68.026  1.00  0.00    -0.121 C  
HETATM   15  O   UNL     1      -9.257  10.210  69.437  1.00  0.00    -0.197 OA 
HETATM   16  O   UNL     1     -11.352  10.855  70.147  1.00  0.00    -0.293 OA 
HETATM   17  C   UNL     1     -10.601  10.185  67.792  1.00  0.00    -0.304 C  
HETATM   18  C   UNL     1     -10.571  10.493  69.300  1.00  0.00    -0.236 C  
BRANCH  17  19
HETATM   19  C   UNL     1     -11.021  11.374  66.934  1.00  0.00    -0.355 C  
BRANCH  19  20
HETATM   20  C   UNL     1     -10.700  12.687  67.642  1.00  0.00    -0.239 C  
BRANCH  20  21
HETATM   21  C   UNL     1      -9.612  13.470  66.902  1.00  0.00    -0.258 C  
BRANCH  21  22
HETATM   22  C   UNL     1     -10.220  14.403  65.853  1.00  0.00    -0.341 C  
BRANCH  22  23
HETATM   23  C   UNL     1     -11.280  15.324  66.458  1.00  0.00    -0.228 C  
HETATM   24  C   UNL     1     -10.712  16.123  67.624  1.00  0.00    -0.318 C  
ENDBRANCH  22  23
ENDBRANCH  21  22
ENDBRANCH  20  21
ENDBRANCH  19  20
ENDBRANCH  17  19
ENDBRANCH  13  14
ENDBRANCH  12  13
BRANCH  12  25
HETATM   25  O   UNL     1      -8.665   7.206  65.733  1.00  0.00    -0.154 OA 
BRANCH  25  26
HETATM   26  C   UNL     1      -7.448   6.698  66.072  1.00  0.00    -0.081 C  
HETATM   27  O   UNL     1      -6.474   7.346  66.439  1.00  0.00    -0.046 OA 
BRANCH  26  28
HETATM   28  C   UNL     1      -7.443   5.177  65.959  1.00  0.00    -0.082 C  
BRANCH  28  29
HETATM   29  C   UNL     1      -7.846   4.704  64.554  1.00  0.00    -0.087 C  
HETATM   30  C   UNL     1      -7.086   2.239  64.640  1.00  0.00    -0.053 C  
HETATM   31  C   UNL     1      -7.414   3.393  62.462  1.00  0.00    -0.052 C  
HETATM   32  C   UNL     1      -6.987   3.585  63.920  1.00  0.00    -0.049 C  
ENDBRANCH  28  29
BRANCH  28  33
HETATM   33  N   UNL     1      -8.288   4.624  67.017  1.00  0.00    -0.106 N  
HETATM   34  C   UNL     1      -7.788   4.195  68.213  1.00  0.00    -0.074 C  
HETATM   35  O   UNL     1      -6.606   4.177  68.521  1.00  0.00    -0.043 OA 
HETATM   36  H   UNL     1      -9.293   4.556  66.854  1.00  0.00     0.000 HD 
ENDBRANCH  28  33
ENDBRANCH  26  28
ENDBRANCH  25  26
ENDBRANCH  12  25
ENDBRANCH  11  12
ENDBRANCH  10  11
ENDBRANCH   9  10
ENDBRANCH   8   9
ENDBRANCH   7   8
ENDBRANCH   6   7
ENDBRANCH   5   6
ENDBRANCH   4   5
ENDBRANCH   3   4
ENDBRANCH   2   3
TORSDOF 22
ENDMDL
MODEL      449
REMARK 921   NORMALIZED FREE ENERGY PREDICTED BY IDOCK:   -1.66 KCAL/MOL
REMARK 922        TOTAL FREE ENERGY PREDICTED BY IDOCK:   -7.41 KCAL/MOL
REMARK 923 INTER-LIGAND FREE ENERGY PREDICTED BY IDOCK:   -6.42 KCAL/MOL
REMARK 924 INTRA-LIGAND FREE ENERGY PREDICTED BY IDOCK:   -0.99 KCAL/MOL
REMARK 927      BINDING AFFINITY PREDICTED BY RF-SCORE:    0.00 PKD
ROOT
HETATM    1  C   UNL     1     -13.172  12.077  71.602  1.00  0.00    -0.361 C  
HETATM    2  C   UNL     1     -13.225  10.729  72.302  1.00  0.00    -0.173 C  
ENDROOT
BRANCH   2   3
HETATM    3  C   UNL     1     -13.285   9.592  71.285  1.00  0.00    -0.429 C  
BRANCH   3   4
HETATM    4  C   UNL     1     -11.891   9.129  70.872  1.00  0.00    -0.327 C  
BRANCH   4   5
HETATM    5  C   UNL     1     -11.094   8.656  72.089  1.00  0.00    -0.434 C  
BRANCH   5   6
HETATM    6  C   UNL     1      -9.664   8.315  71.692  1.00  0.00    -0.261 C  
BRANCH   6   7
HETATM    7  C   UNL     1      -9.441   6.808  71.552  1.00  0.00    -0.156 C  
BRANCH   7   8
HETATM    8  C   UNL     1      -9.354   6.466  70.069  1.00  0.00    -0.162 C  
BRANCH   8   9
HETATM    9  C   UNL     1     -10.540   5.663  69.546  1.00  0.00    -0.384 C  
BRANCH   9  10
HETATM   10  C   UNL     1     -10.987   6.278  68.217  1.00  0.00    -0.408 C  
BRANCH  10  11
HETATM   11  C   UNL     1     -10.222   7.533  67.825  1.00  0.00    -0.257 C  
BRANCH  11  12
HETATM   12  C   UNL     1      -8.826   7.319  67.212  1.00  0.00    -0.124 C  
BRANCH  12  13
HETATM   13  C   UNL     1      -8.810   6.996  65.702  1.00  0.00    -0.037 C  
BRANCH  13  14
HETATM   14  C   UNL     1      -8.416   5.552  65.368  1.00  0.00    -0.146 C  
HETATM   15  O   UNL     1      -8.564   5.248  63.951  1.00  0.00    -0.127 OA 
HETATM   16  O   UNL     1     -10.043   3.579  63.369  1.00  0.00    -0.152 OA 
HETATM   17  C   UNL     1      -9.468   4.459  65.704  1.00  0.00    -0.175 C  
HETATM   18  C   UNL     1      -9.480   4.279  64.175  1.00  0.00    -0.134 C  
BRANCH  17  19
HETATM   19  C   UNL     1      -9.053   3.203  66.464  1.00  0.00    -0.170 C  
BRANCH  19  20
HETATM   20  C   UNL     1      -7.682   3.394  67.106  1.00  0.00    -0.079 C  
BRANCH  20  21
HETATM   21  C   UNL     1      -7.805   3.826  68.569  1.00  0.00    -0.067 C  
BRANCH  21  22
HETATM   22  C   UNL     1      -7.130   2.818  69.502  1.00  0.00    -0.040 C  
BRANCH  22  23
HETATM   23  C   UNL     1      -6.337   3.512  70.610  1.00  0.00    -0.027 C  
HETATM   24  C   UNL     1      -6.615   2.875  71.964  1.00  0.00    -0.015 C  
ENDBRANCH  22  23
ENDBRANCH  21  22
ENDBRANCH  20  21
ENDBRANCH  19  20
ENDBRANCH  17  19
ENDBRANCH  13  14
ENDBRANCH  12  13
BRANCH  12  25
HETATM   25  O   UNL     1      -7.995   8.486  67.410  1.00  0.00    -0.101 OA 
BRANCH  25  26
HETATM   26  C   UNL     1      -8.610   9.701  67.415  1.00  0.00    -0.125 C  
HETATM   27  O   UNL     1      -9.539  10.035  68.142  1.00  0.00    -0.138 OA 
BRANCH  26  28
HETATM   28  C   UNL     1      -7.976  10.636  66.390  1.00  0.00    -0.142 C  
BRANCH  28  29
HETATM   29  C   UNL     1      -6.708  11.311  66.937  1.00  0.00    -0.135 C  
HETATM   30  C   UNL     1      -6.877  10.696  69.438  1.00  0.00    -0.095 C  
HETATM   31  C   UNL     1      -5.493  12.623  68.693  1.00  0.00    -0.059 C  
HETATM   32  C   UNL     1      -6.759  11.812  68.398  1.00  0.00    -0.065 C  
ENDBRANCH  28  29
BRANCH  28  33
HETATM   33  N   UNL     1      -8.986  11.591  65.936  1.00  0.00    -0.320 N  
HETATM   34  C   UNL     1      -9.846  11.324  64.909  1.00  0.00    -0.264 C  
HETATM   35  O   UNL     1      -9.847  10.306  64.234  1.00  0.00    -0.329 OA 
HETATM   36  H   UNL     1      -9.051  12.494  66.406  1.00  0.00     0.000 HD 
ENDBRANCH  28  33
ENDBRANCH  26  28
ENDBRANCH  25  26
ENDBRANCH  12  25
ENDBRANCH  11  12
ENDBRANCH  10  11
ENDBRANCH   9  10
ENDBRANCH   8   9
ENDBRANCH   7   8
ENDBRANCH   6   7
ENDBRANCH   5   6
ENDBRANCH   4   5
ENDBRANCH   3   4
ENDBRANCH   2   3
TORSDOF 22
ENDMDL
MODEL      450
REMARK 921   NORMALIZED FREE ENERGY PREDICTED BY IDOCK:   -1.62 KCAL/MOL
REMARK 922        TOTAL FREE ENERGY PREDICTED BY IDOCK:   -7.33 KCAL/MOL
REMARK 923 INTER-LIGAND FREE ENERGY PREDICTED BY IDOCK:   -6.16 KCAL/MOL
REMARK 924 INTRA-LIGAND FREE ENERGY PREDICTED BY IDOCK:   -1.16 KCAL/MOL
REMARK 927      BINDING AFFINITY PREDICTED BY RF-SCORE:    0.00 PKD
ROOT
HETATM    1  C   UNL     1      -6.834   5.421  68.263  1.00  0.00    -0.060 C  
HETATM    2  C   UNL     1      -7.312   6.422  67.224  1.00  0.00    -0.087 C  
ENDROOT
BRANCH   2   3
HETATM    3  C   UNL     1      -6.380   7.630  67.165  1.00  0.00    -0.054 C  
BRANCH   3   4
HETATM    4  C   UNL     1      -6.766   8.693  68.188  1.00  0.00    -0.065 C  
BRANCH   4   5
HETATM    5  C   UNL     1      -5.947   8.536  69.471  1.00  0.00    -0.033 C  
BRANCH   5   6
HETATM    6  C   UNL     1      -6.618   9.266  70.627  1.00  0.00    -0.079 C  
BRANCH   6   7
HETATM    7  C   UNL     1      -7.658   8.400  71.339  1.00  0.00    -0.109 C  
BRANCH   7   8
HETATM    8  C   UNL     1      -9.046   8.934  71.001  1.00  0.00    -0.303 C  
BRANCH   8   9
HETATM    9  C   UNL     1      -9.987   7.888  70.411  1.00  0.00    -0.192 C  
BRANCH   9  10
HETATM   10  C   UNL     1     -10.561   8.443  69.104  1.00  0.00    -0.177 C  
BRANCH  10  11
HETATM   11  C   UNL     1     -10.722   9.956  69.091  1.00  0.00    -0.247 C  
BRANCH  11  12
HETATM   12  C   UNL     1      -9.841  10.728  68.092  1.00  0.00    -0.158 C  
BRANCH  12  13
HETATM   13  C   UNL     1     -10.568  11.240  66.829  1.00  0.00    -0.305 C  
BRANCH  13  14
HETATM   14  C   UNL     1     -11.773  12.144  67.115  1.00  0.00    -0.302 C  
HETATM   15  O   UNL     1     -11.902  13.223  66.144  1.00  0.00    -0.352 OA 
HETATM   16  O   UNL     1     -11.771  15.385  66.931  1.00  0.00    -0.098 OA 
HETATM   17  C   UNL     1     -11.589  13.195  68.245  1.00  0.00    -0.370 C  
HETATM   18  C   UNL     1     -11.756  14.187  67.080  1.00  0.00    -0.403 C  
BRANCH  17  19
HETATM   19  C   UNL     1     -12.649  13.344  69.332  1.00  0.00     0.253 C  
BRANCH  19  20
HETATM   20  C   UNL     1     -12.220  12.616  70.603  1.00  0.00    -0.373 C  
BRANCH  20  21
HETATM   21  C   UNL     1     -13.076  13.033  71.802  1.00  0.00    -0.469 C  
BRANCH  21  22
HETATM   22  C   UNL     1     -12.300  13.960  72.739  1.00  0.00     0.173 C  
BRANCH  22  23
HETATM   23  C   UNL     1     -12.326  15.410  72.253  1.00  0.00    -0.465 C  
HETATM   24  C   UNL     1     -13.727  15.818  71.818  1.00  0.00    -0.324 C  
ENDBRANCH  22  23
ENDBRANCH  21  22
ENDBRANCH  20  21
ENDBRANCH  19  20
ENDBRANCH  17  19
ENDBRANCH  13  14
ENDBRANCH  12  13
BRANCH  12  25
HETATM   25  O   UNL     1      -9.228  11.873  68.729  1.00  0.00    -0.103 OA 
BRANCH  25  26
HETATM   26  C   UNL     1      -8.293  12.561  68.016  1.00  0.00    -0.171 C  
HETATM   27  O   UNL     1      -8.205  12.602  66.794  1.00  0.00    -0.100 OA 
BRANCH  26  28
HETATM   28  C   UNL     1      -7.349  13.319  68.945  1.00  0.00    -0.023 C  
BRANCH  28  29
HETATM   29  C   UNL     1      -7.131  14.768  68.484  1.00  0.00    -0.110 C  
HETATM   30  C   UNL     1      -9.302  15.875  69.334  1.00  0.00    -0.250 C  
HETATM   31  C   UNL     1      -7.969  16.922  67.515  1.00  0.00    -0.186 C  
HETATM   32  C   UNL     1      -8.394  15.588  68.136  1.00  0.00    -0.145 C  
ENDBRANCH  28  29
BRANCH  28  33
HETATM   33  N   UNL     1      -6.105  12.561  69.070  1.00  0.00    -0.075 N  
HETATM   34  C   UNL     1      -5.302  12.278  68.003  1.00  0.00    -0.068 C  
HETATM   35  O   UNL     1      -5.538  12.573  66.842  1.00  0.00    -0.334 OA 
HETATM   36  H   UNL     1      -5.825  12.229  69.994  1.00  0.00     0.000 HD 
ENDBRANCH  28  33
ENDBRANCH  26  28
ENDBRANCH  25  26
ENDBRANCH  12  25
ENDBRANCH  11  12
ENDBRANCH  10  11
ENDBRANCH   9  10
ENDBRANCH   8   9
ENDBRANCH   7   8
ENDBRANCH   6   7
ENDBRANCH   5   6
ENDBRANCH   4   5
ENDBRANCH   3   4
ENDBRANCH   2   3
TORSDOF 22
ENDMDL
MODEL      451
REMARK 921   NORMALIZED FREE ENERGY PREDICTED BY IDOCK:   -1.59 KCAL/MOL
REMARK 922        TOTAL FREE ENERGY PREDICTED BY IDOCK:   -7.24 KCAL/MOL
REMARK 923 INTER-LIGAND FREE ENERGY PREDICTED BY IDOCK:   -5.29 KCAL/MOL
REMARK 924 INTRA-LIGAND FREE ENERGY PREDICTED BY IDOCK:   -1.95 KCAL/MOL
REMARK 927      BINDING AFFINITY PREDICTED BY RF-SCORE:    0.00 PKD
ROOT
HETATM    1  C   UNL     1      -9.336   2.194  74.566  1.00  0.00    -0.100 C  
HETATM    2  C   UNL     1      -9.328   3.470  73.741  1.00  0.00    -0.112 C  
ENDROOT
BRANCH   2   3
HETATM    3  C   UNL     1     -10.276   3.354  72.551  1.00  0.00    -0.217 C  
BRANCH   3   4
HETATM    4  C   UNL     1     -11.570   4.129  72.781  1.00  0.00     0.273 C  
BRANCH   4   5
HETATM    5  C   UNL     1     -11.551   5.455  72.019  1.00  0.00     0.048 C  
BRANCH   5   6
HETATM    6  C   UNL     1     -10.189   6.124  72.144  1.00  0.00    -0.213 C  
BRANCH   6   7
HETATM    7  C   UNL     1      -9.373   6.030  70.853  1.00  0.00    -0.175 C  
BRANCH   7   8
HETATM    8  C   UNL     1     -10.336   5.974  69.673  1.00  0.00    -0.294 C  
BRANCH   8   9
HETATM    9  C   UNL     1      -9.697   5.504  68.371  1.00  0.00    -0.168 C  
BRANCH   9  10
HETATM   10  C   UNL     1     -10.524   6.054  67.205  1.00  0.00    -0.327 C  
BRANCH  10  11
HETATM   11  C   UNL     1     -10.873   7.529  67.333  1.00  0.00    -0.272 C  
BRANCH  11  12
HETATM   12  C   UNL     1      -9.874   8.525  66.716  1.00  0.00    -0.257 C  
BRANCH  12  13
HETATM   13  C   UNL     1      -9.158   8.035  65.438  1.00  0.00     0.096 C  
BRANCH  13  14
HETATM   14  C   UNL     1      -8.066   8.980  64.923  1.00  0.00    -0.137 C  
HETATM   15  O   UNL     1      -7.965   8.976  63.471  1.00  0.00    -0.134 OA 
HETATM   16  O   UNL     1      -5.967   8.300  62.543  1.00  0.00    -0.080 OA 
HETATM   17  C   UNL     1      -6.605   8.456  65.018  1.00  0.00    -0.063 C  
HETATM   18  C   UNL     1      -6.690   8.528  63.482  1.00  0.00    -0.085 C  
BRANCH  17  19
HETATM   19  C   UNL     1      -5.512   9.339  65.611  1.00  0.00    -0.040 C  
BRANCH  19  20
HETATM   20  C   UNL     1      -5.739  10.800  65.235  1.00  0.00    -0.085 C  
BRANCH  20  21
HETATM   21  C   UNL     1      -5.755  11.700  66.474  1.00  0.00    -0.056 C  
BRANCH  21  22
HETATM   22  C   UNL     1      -7.021  11.475  67.303  1.00  0.00    -0.125 C  
BRANCH  22  23
HETATM   23  C   UNL     1      -7.137  12.482  68.447  1.00  0.00    -0.107 C  
HETATM   24  C   UNL     1      -6.409  13.777  68.115  1.00  0.00    -0.125 C  
ENDBRANCH  22  23
ENDBRANCH  21  22
ENDBRANCH  20  21
ENDBRANCH  19  20
ENDBRANCH  17  19
ENDBRANCH  13  14
ENDBRANCH  12  13
BRANCH  12  25
HETATM   25  O   UNL     1     -10.530   9.772  66.389  1.00  0.00    -0.204 OA 
BRANCH  25  26
HETATM   26  C   UNL     1     -10.644  10.699  67.381  1.00  0.00    -0.256 C  
HETATM   27  O   UNL     1     -10.387  10.521  68.567  1.00  0.00    -0.164 OA 
BRANCH  26  28
HETATM   28  C   UNL     1     -11.123  12.036  66.823  1.00  0.00    -0.305 C  
BRANCH  28  29
HETATM   29  C   UNL     1     -10.295  12.481  65.607  1.00  0.00    -0.294 C  
HETATM   30  C   UNL     1     -11.878  11.818  63.680  1.00  0.00    -0.498 C  
HETATM   31  C   UNL     1      -9.446  12.136  63.275  1.00  0.00     0.276 C  
HETATM   32  C   UNL     1     -10.487  11.678  64.301  1.00  0.00    -0.383 C  
ENDBRANCH  28  29
BRANCH  28  33
HETATM   33  N   UNL     1     -11.133  13.020  67.905  1.00  0.00    -0.245 N  
HETATM   34  C   UNL     1     -11.894  14.154  67.865  1.00  0.00    -0.370 C  
HETATM   35  O   UNL     1     -12.602  14.498  66.932  1.00  0.00    -0.094 OA 
HETATM   36  H   UNL     1     -10.546  12.853  68.723  1.00  0.00     0.000 HD 
ENDBRANCH  28  33
ENDBRANCH  26  28
ENDBRANCH  25  26
ENDBRANCH  12  25
ENDBRANCH  11  12
ENDBRANCH  10  11
ENDBRANCH   9  10
ENDBRANCH   8   9
ENDBRANCH   7   8
ENDBRANCH   6   7
ENDBRANCH   5   6
ENDBRANCH   4   5
ENDBRANCH   3   4
ENDBRANCH   2   3
TORSDOF 22
ENDMDL
MODEL      452
REMARK 921   NORMALIZED FREE ENERGY PREDICTED BY IDOCK:   -1.58 KCAL/MOL
REMARK 922        TOTAL FREE ENERGY PREDICTED BY IDOCK:   -7.24 KCAL/MOL
REMARK 923 INTER-LIGAND FREE ENERGY PREDICTED BY IDOCK:   -3.26 KCAL/MOL
REMARK 924 INTRA-LIGAND FREE ENERGY PREDICTED BY IDOCK:   -3.98 KCAL/MOL
REMARK 927      BINDING AFFINITY PREDICTED BY RF-SCORE:    0.00 PKD
ROOT
HETATM    1  C   UNL     1      -9.598  13.084  64.900  1.00  0.00     0.233 C  
HETATM    2  C   UNL     1      -8.994  11.792  65.425  1.00  0.00     0.151 C  
ENDROOT
BRANCH   2   3
HETATM    3  C   UNL     1     -10.078  10.873  65.983  1.00  0.00    -0.303 C  
BRANCH   3   4
HETATM    4  C   UNL     1      -9.934  10.677  67.489  1.00  0.00    -0.201 C  
BRANCH   4   5
HETATM    5  C   UNL     1     -10.151   9.210  67.868  1.00  0.00    -0.246 C  
BRANCH   5   6
HETATM    6  C   UNL     1      -9.323   8.298  66.973  1.00  0.00    -0.203 C  
BRANCH   6   7
HETATM    7  C   UNL     1      -9.893   6.881  66.897  1.00  0.00    -0.240 C  
BRANCH   7   8
HETATM    8  C   UNL     1      -8.733   5.891  66.901  1.00  0.00    -0.111 C  
BRANCH   8   9
HETATM    9  C   UNL     1      -7.359   6.546  66.992  1.00  0.00    -0.079 C  
BRANCH   9  10
HETATM   10  C   UNL     1      -6.530   5.781  68.027  1.00  0.00    -0.043 C  
BRANCH  10  11
HETATM   11  C   UNL     1      -5.259   6.497  68.456  1.00  0.00    -0.011 C  
BRANCH  11  12
HETATM   12  C   UNL     1      -5.339   7.308  69.763  1.00  0.00    -0.022 C  
BRANCH  12  13
HETATM   13  C   UNL     1      -6.251   8.554  69.711  1.00  0.00    -0.035 C  
BRANCH  13  14
HETATM   14  C   UNL     1      -5.643   9.753  68.973  1.00  0.00    -0.035 C  
HETATM   15  O   UNL     1      -5.949  11.020  69.623  1.00  0.00    -0.052 OA 
HETATM   16  O   UNL     1      -7.151  12.572  68.416  1.00  0.00    -0.091 OA 
HETATM   17  C   UNL     1      -6.400  10.231  67.703  1.00  0.00    -0.058 C  
HETATM   18  C   UNL     1      -6.614  11.499  68.548  1.00  0.00    -0.063 C  
BRANCH  17  19
HETATM   19  C   UNL     1      -5.637  10.483  66.406  1.00  0.00    -0.069 C  
BRANCH  19  20
HETATM   20  C   UNL     1      -5.478   9.186  65.617  1.00  0.00    -0.041 C  
BRANCH  20  21
HETATM   21  C   UNL     1      -5.236   9.462  64.130  1.00  0.00    -0.059 C  
BRANCH  21  22
HETATM   22  C   UNL     1      -6.177   8.632  63.255  1.00  0.00    -0.086 C  
BRANCH  22  23
HETATM   23  C   UNL     1      -7.631   8.753  63.710  1.00  0.00    -0.124 C  
HETATM   24  C   UNL     1      -8.545   9.098  62.542  1.00  0.00    -0.220 C  
ENDBRANCH  22  23
ENDBRANCH  21  22
ENDBRANCH  20  21
ENDBRANCH  19  20
ENDBRANCH  17  19
ENDBRANCH  13  14
ENDBRANCH  12  13
BRANCH  12  25
HETATM   25  O   UNL     1      -5.804   6.479  70.853  1.00  0.00    -0.026 OA 
BRANCH  25  26
HETATM   26  C   UNL     1      -6.130   7.103  72.019  1.00  0.00    -0.037 C  
HETATM   27  O   UNL     1      -5.569   8.085  72.493  1.00  0.00    -0.036 OA 
BRANCH  26  28
HETATM   28  C   UNL     1      -7.329   6.428  72.680  1.00  0.00    -0.087 C  
BRANCH  28  29
HETATM   29  C   UNL     1      -8.577   7.325  72.658  1.00  0.00    -0.132 C  
HETATM   30  C   UNL     1     -10.444   5.555  72.859  1.00  0.00    -0.250 C  
HETATM   31  C   UNL     1     -10.926   7.813  71.937  1.00  0.00    -0.294 C  
HETATM   32  C   UNL     1      -9.862   6.718  72.052  1.00  0.00    -0.166 C  
ENDBRANCH  28  29
BRANCH  28  33
HETATM   33  N   UNL     1      -6.947   6.006  74.027  1.00  0.00    -0.080 N  
HETATM   34  C   UNL     1      -7.078   4.718  74.462  1.00  0.00    -0.073 C  
HETATM   35  O   UNL     1      -7.558   3.798  73.818  1.00  0.00    -0.067 OA 
HETATM   36  H   UNL     1      -6.567   6.703  74.668  1.00  0.00     0.000 HD 
ENDBRANCH  28  33
ENDBRANCH  26  28
ENDBRANCH  25  26
ENDBRANCH  12  25
ENDBRANCH  11  12
ENDBRANCH  10  11
ENDBRANCH   9  10
ENDBRANCH   8   9
ENDBRANCH   7   8
ENDBRANCH   6   7
ENDBRANCH   5   6
ENDBRANCH   4   5
ENDBRANCH   3   4
ENDBRANCH   2   3
TORSDOF 22
ENDMDL
MODEL      453
REMARK 921   NORMALIZED FREE ENERGY PREDICTED BY IDOCK:   -1.54 KCAL/MOL
REMARK 922        TOTAL FREE ENERGY PREDICTED BY IDOCK:   -7.14 KCAL/MOL
REMARK 923 INTER-LIGAND FREE ENERGY PREDICTED BY IDOCK:   -5.55 KCAL/MOL
REMARK 924 INTRA-LIGAND FREE ENERGY PREDICTED BY IDOCK:   -1.59 KCAL/MOL
REMARK 927      BINDING AFFINITY PREDICTED BY RF-SCORE:    0.00 PKD
ROOT
HETATM    1  C   UNL     1      -8.162  14.627  67.046  1.00  0.00    -0.188 C  
HETATM    2  C   UNL     1      -9.236  13.767  66.399  1.00  0.00    -0.158 C  
ENDROOT
BRANCH   2   3
HETATM    3  C   UNL     1     -10.546  13.859  67.176  1.00  0.00    -0.277 C  
BRANCH   3   4
HETATM    4  C   UNL     1     -11.683  13.141  66.455  1.00  0.00    -0.433 C  
BRANCH   4   5
HETATM    5  C   UNL     1     -11.742  11.669  66.867  1.00  0.00    -0.133 C  
BRANCH   5   6
HETATM    6  C   UNL     1     -10.391  11.207  67.398  1.00  0.00    -0.231 C  
BRANCH   6   7
HETATM    7  C   UNL     1     -10.499  10.553  68.777  1.00  0.00    -0.216 C  
BRANCH   7   8
HETATM    8  C   UNL     1     -11.974  10.365  69.110  1.00  0.00    -0.056 C  
BRANCH   8   9
HETATM    9  C   UNL     1     -12.232   9.879  70.532  1.00  0.00    -0.260 C  
BRANCH   9  10
HETATM   10  C   UNL     1     -10.881   9.709  71.233  1.00  0.00    -0.366 C  
BRANCH  10  11
HETATM   11  C   UNL     1     -10.761   8.429  72.046  1.00  0.00    -0.387 C  
BRANCH  11  12
HETATM   12  C   UNL     1     -10.417   7.150  71.261  1.00  0.00    -0.205 C  
BRANCH  12  13
HETATM   13  C   UNL     1      -9.810   7.379  69.859  1.00  0.00    -0.178 C  
BRANCH  13  14
HETATM   14  C   UNL     1     -10.194   6.317  68.822  1.00  0.00    -0.178 C  
HETATM   15  O   UNL     1     -10.766   5.124  69.431  1.00  0.00    -0.166 OA 
HETATM   16  O   UNL     1      -9.656   3.129  69.114  1.00  0.00    -0.149 OA 
HETATM   17  C   UNL     1      -9.029   5.459  68.255  1.00  0.00    -0.112 C  
HETATM   18  C   UNL     1      -9.786   4.320  68.963  1.00  0.00    -0.139 C  
BRANCH  17  19
HETATM   19  C   UNL     1      -8.889   5.256  66.750  1.00  0.00    -0.111 C  
BRANCH  19  20
HETATM   20  C   UNL     1      -9.120   6.569  66.008  1.00  0.00    -0.111 C  
BRANCH  20  21
HETATM   21  C   UNL     1      -7.796   7.243  65.638  1.00  0.00    -0.112 C  
BRANCH  21  22
HETATM   22  C   UNL     1      -7.928   8.046  64.342  1.00  0.00    -0.145 C  
BRANCH  22  23
HETATM   23  C   UNL     1      -8.926   9.195  64.486  1.00  0.00    -0.129 C  
HETATM   24  C   UNL     1      -8.246  10.542  64.276  1.00  0.00    -0.062 C  
ENDBRANCH  22  23
ENDBRANCH  21  22
ENDBRANCH  20  21
ENDBRANCH  19  20
ENDBRANCH  17  19
ENDBRANCH  13  14
ENDBRANCH  12  13
BRANCH  12  25
HETATM   25  O   UNL     1      -9.486   6.327  72.002  1.00  0.00    -0.153 OA 
BRANCH  25  26
HETATM   26  C   UNL     1      -8.202   6.768  72.103  1.00  0.00    -0.104 C  
HETATM   27  O   UNL     1      -7.510   7.189  71.182  1.00  0.00    -0.078 OA 
BRANCH  26  28
HETATM   28  C   UNL     1      -7.713   6.695  73.546  1.00  0.00    -0.090 C  
BRANCH  28  29
HETATM   29  C   UNL     1      -8.246   5.449  74.271  1.00  0.00    -0.108 C  
HETATM   30  C   UNL     1      -6.518   3.684  73.523  1.00  0.00    -0.029 C  
HETATM   31  C   UNL     1      -8.761   2.998  74.348  1.00  0.00    -0.082 C  
HETATM   32  C   UNL     1      -7.993   4.085  73.590  1.00  0.00    -0.088 C  
ENDBRANCH  28  29
BRANCH  28  33
HETATM   33  N   UNL     1      -8.057   7.945  74.223  1.00  0.00    -0.225 N  
HETATM   34  C   UNL     1      -7.124   8.887  74.552  1.00  0.00     0.028 C  
HETATM   35  O   UNL     1      -5.921   8.786  74.371  1.00  0.00    -0.121 OA 
HETATM   36  H   UNL     1      -9.034   8.121  74.458  1.00  0.00     0.000 HD 
ENDBRANCH  28  33
ENDBRANCH  26  28
ENDBRANCH  25  26
ENDBRANCH  12  25
ENDBRANCH  11  12
ENDBRANCH  10  11
ENDBRANCH   9  10
ENDBRANCH   8   9
ENDBRANCH   7   8
ENDBRANCH   6   7
ENDBRANCH   5   6
ENDBRANCH   4   5
ENDBRANCH   3   4
ENDBRANCH   2   3
TORSDOF 22
ENDMDL
MODEL      454
REMARK 921   NORMALIZED FREE ENERGY PREDICTED BY IDOCK:   -1.46 KCAL/MOL
REMARK 922        TOTAL FREE ENERGY PREDICTED BY IDOCK:   -6.96 KCAL/MOL
REMARK 923 INTER-LIGAND FREE ENERGY PREDICTED BY IDOCK:   -5.72 KCAL/MOL
REMARK 924 INTRA-LIGAND FREE ENERGY PREDICTED BY IDOCK:   -1.24 KCAL/MOL
REMARK 927      BINDING AFFINITY PREDICTED BY RF-SCORE:    0.00 PKD
ROOT
HETATM    1  C   UNL     1      -7.114  19.220  69.412  1.00  0.00    -0.280 C  
HETATM    2  C   UNL     1      -7.706  17.960  68.803  1.00  0.00    -0.263 C  
ENDROOT
BRANCH   2   3
HETATM    3  C   UNL     1      -8.914  18.294  67.932  1.00  0.00    -0.285 C  
BRANCH   3   4
HETATM    4  C   UNL     1      -9.185  17.205  66.898  1.00  0.00    -0.255 C  
BRANCH   4   5
HETATM    5  C   UNL     1     -10.595  16.637  67.065  1.00  0.00    -0.247 C  
BRANCH   5   6
HETATM    6  C   UNL     1     -10.712  15.286  66.372  1.00  0.00    -0.318 C  
BRANCH   6   7
HETATM    7  C   UNL     1     -11.645  14.327  67.115  1.00  0.00    -0.402 C  
BRANCH   7   8
HETATM    8  C   UNL     1     -10.839  13.600  68.185  1.00  0.00    -0.262 C  
BRANCH   8   9
HETATM    9  C   UNL     1      -9.602  14.360  68.654  1.00  0.00    -0.208 C  
BRANCH   9  10
HETATM   10  C   UNL     1      -8.387  13.441  68.497  1.00  0.00    -0.085 C  
BRANCH  10  11
HETATM   11  C   UNL     1      -8.676  12.154  67.739  1.00  0.00    -0.171 C  
BRANCH  11  12
HETATM   12  C   UNL     1      -7.553  11.101  67.725  1.00  0.00    -0.100 C  
BRANCH  12  13
HETATM   13  C   UNL     1      -7.949   9.708  68.263  1.00  0.00    -0.096 C  
BRANCH  13  14
HETATM   14  C   UNL     1      -9.448   9.399  68.177  1.00  0.00    -0.133 C  
HETATM   15  O   UNL     1     -10.087   9.375  69.486  1.00  0.00    -0.186 OA 
HETATM   16  O   UNL     1     -11.066   7.399  70.157  1.00  0.00    -0.263 OA 
HETATM   17  C   UNL     1      -9.830   7.906  67.972  1.00  0.00    -0.195 C  
HETATM   18  C   UNL     1     -10.456   8.080  69.368  1.00  0.00    -0.220 C  
BRANCH  17  19
HETATM   19  C   UNL     1     -10.837   7.514  66.896  1.00  0.00    -0.174 C  
BRANCH  19  20
HETATM   20  C   UNL     1     -11.054   6.004  66.889  1.00  0.00    -0.253 C  
BRANCH  20  21
HETATM   21  C   UNL     1      -9.780   5.254  67.289  1.00  0.00    -0.163 C  
BRANCH  21  22
HETATM   22  C   UNL     1      -8.878   5.012  66.077  1.00  0.00    -0.130 C  
BRANCH  22  23
HETATM   23  C   UNL     1      -7.679   4.131  66.428  1.00  0.00    -0.090 C  
HETATM   24  C   UNL     1      -8.021   3.161  67.551  1.00  0.00    -0.076 C  
ENDBRANCH  22  23
ENDBRANCH  21  22
ENDBRANCH  20  21
ENDBRANCH  19  20
ENDBRANCH  17  19
ENDBRANCH  13  14
ENDBRANCH  12  13
BRANCH  12  25
HETATM   25  O   UNL     1      -7.041  10.915  66.386  1.00  0.00    -0.127 OA 
BRANCH  25  26
HETATM   26  C   UNL     1      -7.487   9.834  65.688  1.00  0.00    -0.110 C  
HETATM   27  O   UNL     1      -7.338   8.660  66.005  1.00  0.00    -0.082 OA 
BRANCH  26  28
HETATM   28  C   UNL     1      -8.239  10.270  64.433  1.00  0.00    -0.159 C  
BRANCH  28  29
HETATM   29  C   UNL     1      -9.762  10.191  64.620  1.00  0.00    -0.377 C  
HETATM   30  C   UNL     1     -10.544  11.998  62.952  1.00  0.00     0.190 C  
HETATM   31  C   UNL     1     -12.015  11.269  64.819  1.00  0.00     0.574 C  
HETATM   32  C   UNL     1     -10.561  11.496  64.397  1.00  0.00    -0.392 C  
ENDBRANCH  28  29
BRANCH  28  33
HETATM   33  N   UNL     1      -7.757   9.482  63.300  1.00  0.00    -0.121 N  
HETATM   34  C   UNL     1      -6.617   9.794  62.614  1.00  0.00    -0.108 C  
HETATM   35  O   UNL     1      -5.908  10.765  62.826  1.00  0.00    -0.149 OA 
HETATM   36  H   UNL     1      -8.294   8.665  63.008  1.00  0.00     0.000 HD 
ENDBRANCH  28  33
ENDBRANCH  26  28
ENDBRANCH  25  26
ENDBRANCH  12  25
ENDBRANCH  11  12
ENDBRANCH  10  11
ENDBRANCH   9  10
ENDBRANCH   8   9
ENDBRANCH   7   8
ENDBRANCH   6   7
ENDBRANCH   5   6
ENDBRANCH   4   5
ENDBRANCH   3   4
ENDBRANCH   2   3
TORSDOF 22
ENDMDL
MODEL      455
REMARK 921   NORMALIZED FREE ENERGY PREDICTED BY IDOCK:   -1.45 KCAL/MOL
REMARK 922        TOTAL FREE ENERGY PREDICTED BY IDOCK:   -6.93 KCAL/MOL
REMARK 923 INTER-LIGAND FREE ENERGY PREDICTED BY IDOCK:   -4.91 KCAL/MOL
REMARK 924 INTRA-LIGAND FREE ENERGY PREDICTED BY IDOCK:   -2.02 KCAL/MOL
REMARK 927      BINDING AFFINITY PREDICTED BY RF-SCORE:    0.00 PKD
ROOT
HETATM    1  C   UNL     1      -9.336   2.194  74.566  1.00  0.00    -0.100 C  
HETATM    2  C   UNL     1      -9.356   3.458  73.723  1.00  0.00    -0.113 C  
ENDROOT
BRANCH   2   3
HETATM    3  C   UNL     1     -10.302   3.304  72.536  1.00  0.00    -0.186 C  
BRANCH   3   4
HETATM    4  C   UNL     1     -11.612   4.054  72.755  1.00  0.00     0.334 C  
BRANCH   4   5
HETATM    5  C   UNL     1     -11.622   5.370  71.974  1.00  0.00     0.048 C  
BRANCH   5   6
HETATM    6  C   UNL     1     -10.275   6.070  72.088  1.00  0.00    -0.222 C  
BRANCH   6   7
HETATM    7  C   UNL     1      -9.457   5.975  70.798  1.00  0.00    -0.189 C  
BRANCH   7   8
HETATM    8  C   UNL     1     -10.420   5.881  69.620  1.00  0.00    -0.346 C  
BRANCH   8   9
HETATM    9  C   UNL     1      -9.771   5.406  68.324  1.00  0.00    -0.175 C  
BRANCH   9  10
HETATM   10  C   UNL     1     -10.610   5.921  67.151  1.00  0.00    -0.373 C  
BRANCH  10  11
HETATM   11  C   UNL     1     -10.991   7.390  67.259  1.00  0.00    -0.234 C  
BRANCH  11  12
HETATM   12  C   UNL     1      -9.968   8.404  66.716  1.00  0.00    -0.284 C  
BRANCH  12  13
HETATM   13  C   UNL     1      -9.155   7.930  65.491  1.00  0.00     0.057 C  
BRANCH  13  14
HETATM   14  C   UNL     1      -7.665   7.702  65.770  1.00  0.00    -0.100 C  
HETATM   15  O   UNL     1      -6.822   8.724  65.166  1.00  0.00    -0.073 OA 
HETATM   16  O   UNL     1      -5.277   8.042  63.598  1.00  0.00    -0.041 OA 
HETATM   17  C   UNL     1      -6.962   6.622  64.901  1.00  0.00    -0.058 C  
HETATM   18  C   UNL     1      -6.166   7.835  64.387  1.00  0.00    -0.052 C  
BRANCH  17  19
HETATM   19  C   UNL     1      -6.093   5.555  65.559  1.00  0.00    -0.029 C  
BRANCH  19  20
HETATM   20  C   UNL     1      -5.336   6.139  66.748  1.00  0.00    -0.009 C  
BRANCH  20  21
HETATM   21  C   UNL     1      -5.569   5.316  68.018  1.00  0.00    -0.012 C  
BRANCH  21  22
HETATM   22  C   UNL     1      -6.326   4.023  67.708  1.00  0.00    -0.037 C  
BRANCH  22  23
HETATM   23  C   UNL     1      -5.441   2.790  67.890  1.00  0.00    -0.017 C  
HETATM   24  C   UNL     1      -6.266   1.511  67.840  1.00  0.00    -0.024 C  
ENDBRANCH  22  23
ENDBRANCH  21  22
ENDBRANCH  20  21
ENDBRANCH  19  20
ENDBRANCH  17  19
ENDBRANCH  13  14
ENDBRANCH  12  13
BRANCH  12  25
HETATM   25  O   UNL     1     -10.619   9.642  66.347  1.00  0.00    -0.150 OA 
BRANCH  25  26
HETATM   26  C   UNL     1     -10.817  10.563  67.331  1.00  0.00    -0.291 C  
HETATM   27  O   UNL     1     -10.846  10.336  68.535  1.00  0.00    -0.213 OA 
BRANCH  26  28
HETATM   28  C   UNL     1     -10.984  11.960  66.742  1.00  0.00    -0.292 C  
BRANCH  28  29
HETATM   29  C   UNL     1     -10.898  13.052  67.820  1.00  0.00    -0.257 C  
HETATM   30  C   UNL     1      -9.579  14.874  66.555  1.00  0.00    -0.297 C  
HETATM   31  C   UNL     1      -9.650  14.850  69.040  1.00  0.00    -0.204 C  
HETATM   32  C   UNL     1      -9.655  13.970  67.787  1.00  0.00    -0.216 C  
ENDBRANCH  28  29
BRANCH  28  33
HETATM   33  N   UNL     1     -12.229  12.003  65.977  1.00  0.00     0.102 N  
HETATM   34  C   UNL     1     -12.331  12.622  64.764  1.00  0.00    -0.489 C  
HETATM   35  O   UNL     1     -11.435  13.237  64.206  1.00  0.00    -0.364 OA 
HETATM   36  H   UNL     1     -13.058  11.551  66.366  1.00  0.00     0.000 HD 
ENDBRANCH  28  33
ENDBRANCH  26  28
ENDBRANCH  25  26
ENDBRANCH  12  25
ENDBRANCH  11  12
ENDBRANCH  10  11
ENDBRANCH   9  10
ENDBRANCH   8   9
ENDBRANCH   7   8
ENDBRANCH   6   7
ENDBRANCH   5   6
ENDBRANCH   4   5
ENDBRANCH   3   4
ENDBRANCH   2   3
TORSDOF 22
ENDMDL
MODEL      456
REMARK 921   NORMALIZED FREE ENERGY PREDICTED BY IDOCK:   -1.44 KCAL/MOL
REMARK 922        TOTAL FREE ENERGY PREDICTED BY IDOCK:   -6.91 KCAL/MOL
REMARK 923 INTER-LIGAND FREE ENERGY PREDICTED BY IDOCK:   -4.94 KCAL/MOL
REMARK 924 INTRA-LIGAND FREE ENERGY PREDICTED BY IDOCK:   -1.96 KCAL/MOL
REMARK 927      BINDING AFFINITY PREDICTED BY RF-SCORE:    0.00 PKD
ROOT
HETATM    1  C   UNL     1      -9.236   2.195  68.694  1.00  0.00    -0.226 C  
HETATM    2  C   UNL     1      -8.210   3.219  68.234  1.00  0.00    -0.088 C  
ENDROOT
BRANCH   2   3
HETATM    3  C   UNL     1      -8.582   3.783  66.866  1.00  0.00    -0.109 C  
BRANCH   3   4
HETATM    4  C   UNL     1      -8.912   2.676  65.869  1.00  0.00    -0.131 C  
BRANCH   4   5
HETATM    5  C   UNL     1      -7.633   2.048  65.313  1.00  0.00    -0.071 C  
BRANCH   5   6
HETATM    6  C   UNL     1      -6.575   3.116  65.067  1.00  0.00    -0.039 C  
BRANCH   6   7
HETATM    7  C   UNL     1      -6.801   3.869  63.754  1.00  0.00    -0.044 C  
BRANCH   7   8
HETATM    8  C   UNL     1      -6.749   5.365  64.040  1.00  0.00    -0.045 C  
BRANCH   8   9
HETATM    9  C   UNL     1      -5.833   5.745  65.199  1.00  0.00    -0.024 C  
BRANCH   9  10
HETATM   10  C   UNL     1      -6.572   6.753  66.084  1.00  0.00    -0.051 C  
BRANCH  10  11
HETATM   11  C   UNL     1      -5.789   7.192  67.311  1.00  0.00    -0.025 C  
BRANCH  11  12
HETATM   12  C   UNL     1      -5.849   8.690  67.662  1.00  0.00    -0.043 C  
BRANCH  12  13
HETATM   13  C   UNL     1      -5.788   9.653  66.455  1.00  0.00    -0.054 C  
BRANCH  13  14
HETATM   14  C   UNL     1      -6.502   9.140  65.199  1.00  0.00    -0.069 C  
HETATM   15  O   UNL     1      -5.708   9.326  63.992  1.00  0.00    -0.068 OA 
HETATM   16  O   UNL     1      -6.586  10.666  62.335  1.00  0.00    -0.142 OA 
HETATM   17  C   UNL     1      -7.601  10.067  64.609  1.00  0.00    -0.143 C  
HETATM   18  C   UNL     1      -6.627  10.134  63.419  1.00  0.00    -0.132 C  
BRANCH  17  19
HETATM   19  C   UNL     1      -8.970   9.498  64.248  1.00  0.00    -0.248 C  
BRANCH  19  20
HETATM   20  C   UNL     1     -10.081  10.413  64.753  1.00  0.00    -0.387 C  
BRANCH  20  21
HETATM   21  C   UNL     1      -9.710  11.058  66.091  1.00  0.00    -0.257 C  
BRANCH  21  22
HETATM   22  C   UNL     1     -10.855  11.921  66.624  1.00  0.00    -0.315 C  
BRANCH  22  23
HETATM   23  C   UNL     1     -11.135  11.645  68.101  1.00  0.00    -0.298 C  
HETATM   24  C   UNL     1     -10.912  10.176  68.436  1.00  0.00    -0.293 C  
ENDBRANCH  22  23
ENDBRANCH  21  22
ENDBRANCH  20  21
ENDBRANCH  19  20
ENDBRANCH  17  19
ENDBRANCH  13  14
ENDBRANCH  12  13
BRANCH  12  25
HETATM   25  O   UNL     1      -7.057   8.997  68.395  1.00  0.00    -0.074 OA 
BRANCH  25  26
HETATM   26  C   UNL     1      -7.011   8.891  69.753  1.00  0.00    -0.050 C  
HETATM   27  O   UNL     1      -6.341   9.588  70.507  1.00  0.00    -0.061 OA 
BRANCH  26  28
HETATM   28  C   UNL     1      -7.936   7.782  70.244  1.00  0.00    -0.100 C  
BRANCH  28  29
HETATM   29  C   UNL     1      -8.960   7.373  69.173  1.00  0.00    -0.135 C  
HETATM   30  C   UNL     1     -11.060   7.016  70.629  1.00  0.00    -0.307 C  
HETATM   31  C   UNL     1     -10.878   5.967  68.382  1.00  0.00    -0.361 C  
HETATM   32  C   UNL     1     -10.087   6.412  69.616  1.00  0.00    -0.209 C  
ENDBRANCH  28  29
BRANCH  28  33
HETATM   33  N   UNL     1      -8.554   8.207  71.499  1.00  0.00    -0.127 N  
HETATM   34  C   UNL     1      -8.401   7.518  72.668  1.00  0.00    -0.117 C  
HETATM   35  O   UNL     1      -7.787   6.470  72.797  1.00  0.00    -0.101 OA 
HETATM   36  H   UNL     1      -9.124   9.054  71.501  1.00  0.00     0.000 HD 
ENDBRANCH  28  33
ENDBRANCH  26  28
ENDBRANCH  25  26
ENDBRANCH  12  25
ENDBRANCH  11  12
ENDBRANCH  10  11
ENDBRANCH   9  10
ENDBRANCH   8   9
ENDBRANCH   7   8
ENDBRANCH   6   7
ENDBRANCH   5   6
ENDBRANCH   4   5
ENDBRANCH   3   4
ENDBRANCH   2   3
TORSDOF 22
ENDMDL
MODEL      457
REMARK 921   NORMALIZED FREE ENERGY PREDICTED BY IDOCK:   -1.42 KCAL/MOL
REMARK 922        TOTAL FREE ENERGY PREDICTED BY IDOCK:   -6.87 KCAL/MOL
REMARK 923 INTER-LIGAND FREE ENERGY PREDICTED BY IDOCK:   -5.78 KCAL/MOL
REMARK 924 INTRA-LIGAND FREE ENERGY PREDICTED BY IDOCK:   -1.09 KCAL/MOL
REMARK 927      BINDING AFFINITY PREDICTED BY RF-SCORE:    0.00 PKD
ROOT
HETATM    1  C   UNL     1     -10.075  11.099  64.160  1.00  0.00    -0.388 C  
HETATM    2  C   UNL     1      -9.082   9.952  64.253  1.00  0.00    -0.297 C  
ENDROOT
BRANCH   2   3
HETATM    3  C   UNL     1      -7.726  10.448  64.750  1.00  0.00    -0.069 C  
BRANCH   3   4
HETATM    4  C   UNL     1      -6.709   9.314  64.844  1.00  0.00    -0.079 C  
BRANCH   4   5
HETATM    5  C   UNL     1      -7.176   8.247  65.836  1.00  0.00    -0.072 C  
BRANCH   5   6
HETATM    6  C   UNL     1      -6.031   7.830  66.749  1.00  0.00    -0.047 C  
BRANCH   6   7
HETATM    7  C   UNL     1      -6.093   6.347  67.122  1.00  0.00    -0.025 C  
BRANCH   7   8
HETATM    8  C   UNL     1      -7.517   5.851  66.899  1.00  0.00    -0.084 C  
BRANCH   8   9
HETATM    9  C   UNL     1      -8.364   5.803  68.167  1.00  0.00    -0.107 C  
BRANCH   9  10
HETATM   10  C   UNL     1      -7.554   6.426  69.308  1.00  0.00    -0.099 C  
BRANCH  10  11
HETATM   11  C   UNL     1      -8.121   7.740  69.825  1.00  0.00    -0.117 C  
BRANCH  11  12
HETATM   12  C   UNL     1      -9.328   7.636  70.775  1.00  0.00    -0.162 C  
BRANCH  12  13
HETATM   13  C   UNL     1     -10.689   7.384  70.090  1.00  0.00    -0.254 C  
BRANCH  13  14
HETATM   14  C   UNL     1     -11.234   8.582  69.303  1.00  0.00     0.284 C  
HETATM   15  O   UNL     1     -10.352   8.981  68.215  1.00  0.00    -0.198 OA 
HETATM   16  O   UNL     1      -9.474  11.111  68.282  1.00  0.00    -0.168 OA 
HETATM   17  C   UNL     1     -11.041   9.978  69.960  1.00  0.00    -0.350 C  
HETATM   18  C   UNL     1     -10.148  10.215  68.729  1.00  0.00    -0.187 C  
BRANCH  17  19
HETATM   19  C   UNL     1     -12.215  10.946  70.059  1.00  0.00    -0.422 C  
BRANCH  19  20
HETATM   20  C   UNL     1     -11.741  12.317  70.533  1.00  0.00     0.009 C  
BRANCH  20  21
HETATM   21  C   UNL     1     -12.066  13.406  69.507  1.00  0.00    -0.334 C  
BRANCH  21  22
HETATM   22  C   UNL     1     -10.799  13.899  68.805  1.00  0.00    -0.282 C  
BRANCH  22  23
HETATM   23  C   UNL     1     -11.103  14.480  67.424  1.00  0.00    -0.320 C  
HETATM   24  C   UNL     1     -11.863  13.480  66.563  1.00  0.00    -0.441 C  
ENDBRANCH  22  23
ENDBRANCH  21  22
ENDBRANCH  20  21
ENDBRANCH  19  20
ENDBRANCH  17  19
ENDBRANCH  13  14
ENDBRANCH  12  13
BRANCH  12  25
HETATM   25  O   UNL     1      -9.131   6.578  71.741  1.00  0.00    -0.142 OA 
BRANCH  25  26
HETATM   26  C   UNL     1      -9.085   6.930  73.056  1.00  0.00    -0.127 C  
HETATM   27  O   UNL     1      -9.105   8.074  73.497  1.00  0.00    -0.269 OA 
BRANCH  26  28
HETATM   28  C   UNL     1      -9.027   5.694  73.949  1.00  0.00    -0.126 C  
BRANCH  28  29
HETATM   29  C   UNL     1      -8.114   4.605  73.362  1.00  0.00    -0.099 C  
HETATM   30  C   UNL     1      -5.793   5.510  74.037  1.00  0.00    -0.048 C  
HETATM   31  C   UNL     1      -6.030   3.884  72.171  1.00  0.00    -0.009 C  
HETATM   32  C   UNL     1      -6.707   5.049  72.900  1.00  0.00    -0.066 C  
ENDBRANCH  28  29
BRANCH  28  33
HETATM   33  N   UNL     1     -10.390   5.228  74.197  1.00  0.00    -0.257 N  
HETATM   34  C   UNL     1     -10.965   4.212  73.489  1.00  0.00    -0.272 C  
HETATM   35  O   UNL     1     -10.445   3.615  72.558  1.00  0.00    -0.157 OA 
HETATM   36  H   UNL     1     -10.936   5.682  74.931  1.00  0.00     0.000 HD 
ENDBRANCH  28  33
ENDBRANCH  26  28
ENDBRANCH  25  26
ENDBRANCH  12  25
ENDBRANCH  11  12
ENDBRANCH  10  11
ENDBRANCH   9  10
ENDBRANCH   8   9
ENDBRANCH   7   8
ENDBRANCH   6   7
ENDBRANCH   5   6
ENDBRANCH   4   5
ENDBRANCH   3   4
ENDBRANCH   2   3
TORSDOF 22
ENDMDL
MODEL      458
REMARK 921   NORMALIZED FREE ENERGY PREDICTED BY IDOCK:   -1.38 KCAL/MOL
REMARK 922        TOTAL FREE ENERGY PREDICTED BY IDOCK:   -6.76 KCAL/MOL
REMARK 923 INTER-LIGAND FREE ENERGY PREDICTED BY IDOCK:   -5.65 KCAL/MOL
REMARK 924 INTRA-LIGAND FREE ENERGY PREDICTED BY IDOCK:   -1.11 KCAL/MOL
REMARK 927      BINDING AFFINITY PREDICTED BY RF-SCORE:    0.00 PKD
ROOT
HETATM    1  C   UNL     1      -9.364   1.518  67.684  1.00  0.00    -0.133 C  
HETATM    2  C   UNL     1      -8.435   2.644  67.263  1.00  0.00    -0.107 C  
ENDROOT
BRANCH   2   3
HETATM    3  C   UNL     1      -8.948   3.328  65.999  1.00  0.00    -0.145 C  
BRANCH   3   4
HETATM    4  C   UNL     1      -9.278   2.319  64.904  1.00  0.00    -0.126 C  
BRANCH   4   5
HETATM    5  C   UNL     1      -8.003   1.836  64.208  1.00  0.00    -0.069 C  
BRANCH   5   6
HETATM    6  C   UNL     1      -7.034   2.994  64.005  1.00  0.00    -0.044 C  
BRANCH   6   7
HETATM    7  C   UNL     1      -7.408   3.863  62.803  1.00  0.00    -0.049 C  
BRANCH   7   8
HETATM    8  C   UNL     1      -7.314   5.327  63.216  1.00  0.00    -0.050 C  
BRANCH   8   9
HETATM    9  C   UNL     1      -6.267   5.603  64.290  1.00  0.00    -0.025 C  
BRANCH   9  10
HETATM   10  C   UNL     1      -6.888   6.531  65.338  1.00  0.00    -0.048 C  
BRANCH  10  11
HETATM   11  C   UNL     1      -6.081   6.645  66.622  1.00  0.00    -0.033 C  
BRANCH  11  12
HETATM   12  C   UNL     1      -6.007   8.043  67.262  1.00  0.00    -0.050 C  
BRANCH  12  13
HETATM   13  C   UNL     1      -5.937   9.222  66.266  1.00  0.00    -0.059 C  
BRANCH  13  14
HETATM   14  C   UNL     1      -6.680   8.981  64.946  1.00  0.00    -0.069 C  
HETATM   15  O   UNL     1      -5.873   9.323  63.783  1.00  0.00    -0.077 OA 
HETATM   16  O   UNL     1      -6.660  10.982  62.391  1.00  0.00    -0.070 OA 
HETATM   17  C   UNL     1      -7.716  10.064  64.535  1.00  0.00    -0.145 C  
HETATM   18  C   UNL     1      -6.737  10.274  63.366  1.00  0.00    -0.096 C  
BRANCH  17  19
HETATM   19  C   UNL     1      -9.117   9.655  64.093  1.00  0.00    -0.256 C  
BRANCH  19  20
HETATM   20  C   UNL     1     -10.154  10.651  64.605  1.00  0.00    -0.417 C  
BRANCH  20  21
HETATM   21  C   UNL     1     -10.581  11.627  63.505  1.00  0.00    -0.496 C  
BRANCH  21  22
HETATM   22  C   UNL     1     -12.094  11.858  63.530  1.00  0.00    -0.575 C  
BRANCH  22  23
HETATM   23  C   UNL     1     -12.593  12.198  64.934  1.00  0.00    -0.084 C  
HETATM   24  C   UNL     1     -11.740  13.286  65.572  1.00  0.00    -0.376 C  
ENDBRANCH  22  23
ENDBRANCH  21  22
ENDBRANCH  20  21
ENDBRANCH  19  20
ENDBRANCH  17  19
ENDBRANCH  13  14
ENDBRANCH  12  13
BRANCH  12  25
HETATM   25  O   UNL     1      -7.148   8.275  68.121  1.00  0.00    -0.078 OA 
BRANCH  25  26
HETATM   26  C   UNL     1      -7.751   7.184  68.669  1.00  0.00    -0.120 C  
HETATM   27  O   UNL     1      -7.198   6.308  69.325  1.00  0.00    -0.080 OA 
BRANCH  26  28
HETATM   28  C   UNL     1      -9.249   7.189  68.381  1.00  0.00    -0.133 C  
BRANCH  28  29
HETATM   29  C   UNL     1      -9.716   8.529  67.790  1.00  0.00    -0.199 C  
HETATM   30  C   UNL     1      -9.818   9.982  69.920  1.00  0.00    -0.266 C  
HETATM   31  C   UNL     1     -11.099  10.616  67.886  1.00  0.00    -0.371 C  
HETATM   32  C   UNL     1     -10.570   9.435  68.706  1.00  0.00    -0.234 C  
ENDBRANCH  28  29
BRANCH  28  33
HETATM   33  N   UNL     1      -9.964   6.818  69.601  1.00  0.00    -0.171 N  
HETATM   34  C   UNL     1     -10.340   5.534  69.876  1.00  0.00    -0.298 C  
HETATM   35  O   UNL     1     -10.173   4.574  69.138  1.00  0.00    -0.103 OA 
HETATM   36  H   UNL     1     -10.192   7.549  70.276  1.00  0.00     0.000 HD 
ENDBRANCH  28  33
ENDBRANCH  26  28
ENDBRANCH  25  26
ENDBRANCH  12  25
ENDBRANCH  11  12
ENDBRANCH  10  11
ENDBRANCH   9  10
ENDBRANCH   8   9
ENDBRANCH   7   8
ENDBRANCH   6   7
ENDBRANCH   5   6
ENDBRANCH   4   5
ENDBRANCH   3   4
ENDBRANCH   2   3
TORSDOF 22
ENDMDL
MODEL      459
REMARK 921   NORMALIZED FREE ENERGY PREDICTED BY IDOCK:   -1.37 KCAL/MOL
REMARK 922        TOTAL FREE ENERGY PREDICTED BY IDOCK:   -6.75 KCAL/MOL
REMARK 923 INTER-LIGAND FREE ENERGY PREDICTED BY IDOCK:   -5.33 KCAL/MOL
REMARK 924 INTRA-LIGAND FREE ENERGY PREDICTED BY IDOCK:   -1.41 KCAL/MOL
REMARK 927      BINDING AFFINITY PREDICTED BY RF-SCORE:    0.00 PKD
ROOT
HETATM    1  C   UNL     1     -11.186   1.755  74.055  1.00  0.00    -0.224 C  
HETATM    2  C   UNL     1     -11.833   2.966  73.403  1.00  0.00     0.113 C  
ENDROOT
BRANCH   2   3
HETATM    3  C   UNL     1     -10.841   4.121  73.297  1.00  0.00    -0.315 C  
BRANCH   3   4
HETATM    4  C   UNL     1     -10.116   4.122  71.955  1.00  0.00    -0.224 C  
BRANCH   4   5
HETATM    5  C   UNL     1      -8.712   4.715  72.096  1.00  0.00    -0.127 C  
BRANCH   5   6
HETATM    6  C   UNL     1      -7.663   3.611  72.083  1.00  0.00    -0.059 C  
BRANCH   6   7
HETATM    7  C   UNL     1      -7.016   3.438  70.707  1.00  0.00    -0.033 C  
BRANCH   7   8
HETATM    8  C   UNL     1      -7.358   4.654  69.855  1.00  0.00    -0.054 C  
BRANCH   8   9
HETATM    9  C   UNL     1      -6.142   5.446  69.385  1.00  0.00    -0.025 C  
BRANCH   9  10
HETATM   10  C   UNL     1      -6.272   6.880  69.908  1.00  0.00    -0.031 C  
BRANCH  10  11
HETATM   11  C   UNL     1      -6.265   7.940  68.817  1.00  0.00    -0.040 C  
BRANCH  11  12
HETATM   12  C   UNL     1      -7.604   8.650  68.545  1.00  0.00    -0.095 C  
BRANCH  12  13
HETATM   13  C   UNL     1      -7.489  10.074  67.958  1.00  0.00    -0.088 C  
BRANCH  13  14
HETATM   14  C   UNL     1      -8.705  10.969  68.226  1.00  0.00    -0.144 C  
HETATM   15  O   UNL     1      -9.930  10.429  67.653  1.00  0.00    -0.166 OA 
HETATM   16  O   UNL     1     -11.010  11.698  66.060  1.00  0.00    -0.289 OA 
HETATM   17  C   UNL     1      -8.845  12.225  67.321  1.00  0.00    -0.190 C  
HETATM   18  C   UNL     1     -10.115  11.497  66.845  1.00  0.00    -0.212 C  
BRANCH  17  19
HETATM   19  C   UNL     1      -9.119  13.590  67.942  1.00  0.00    -0.204 C  
BRANCH  19  20
HETATM   20  C   UNL     1      -9.112  14.678  66.872  1.00  0.00    -0.272 C  
BRANCH  20  21
HETATM   21  C   UNL     1     -10.346  15.578  66.981  1.00  0.00    -0.279 C  
BRANCH  21  22
HETATM   22  C   UNL     1     -11.465  14.888  67.764  1.00  0.00    -0.353 C  
BRANCH  22  23
HETATM   23  C   UNL     1     -11.874  15.693  68.997  1.00  0.00    -0.379 C  
HETATM   24  C   UNL     1     -11.227  15.135  70.257  1.00  0.00    -0.306 C  
ENDBRANCH  22  23
ENDBRANCH  21  22
ENDBRANCH  20  21
ENDBRANCH  19  20
ENDBRANCH  17  19
ENDBRANCH  13  14
ENDBRANCH  12  13
BRANCH  12  25
HETATM   25  O   UNL     1      -8.420   7.875  67.637  1.00  0.00    -0.126 OA 
BRANCH  25  26
HETATM   26  C   UNL     1      -7.816   7.375  66.523  1.00  0.00    -0.098 C  
HETATM   27  O   UNL     1      -7.072   7.992  65.769  1.00  0.00    -0.062 OA 
BRANCH  26  28
HETATM   28  C   UNL     1      -8.169   5.904  66.327  1.00  0.00    -0.114 C  
BRANCH  28  29
HETATM   29  C   UNL     1      -7.080   5.151  65.546  1.00  0.00    -0.067 C  
HETATM   30  C   UNL     1      -8.196   4.961  63.227  1.00  0.00    -0.109 C  
HETATM   31  C   UNL     1      -6.358   3.421  63.884  1.00  0.00    -0.026 C  
HETATM   32  C   UNL     1      -7.554   4.224  64.404  1.00  0.00    -0.072 C  
ENDBRANCH  28  29
BRANCH  28  33
HETATM   33  N   UNL     1      -9.489   5.815  65.703  1.00  0.00    -0.365 N  
HETATM   34  C   UNL     1     -10.568   5.264  66.333  1.00  0.00    -0.276 C  
HETATM   35  O   UNL     1     -10.555   4.751  67.442  1.00  0.00    -0.023 OA 
HETATM   36  H   UNL     1      -9.608   6.181  64.758  1.00  0.00     0.000 HD 
ENDBRANCH  28  33
ENDBRANCH  26  28
ENDBRANCH  25  26
ENDBRANCH  12  25
ENDBRANCH  11  12
ENDBRANCH  10  11
ENDBRANCH   9  10
ENDBRANCH   8   9
ENDBRANCH   7   8
ENDBRANCH   6   7
ENDBRANCH   5   6
ENDBRANCH   4   5
ENDBRANCH   3   4
ENDBRANCH   2   3
TORSDOF 22
ENDMDL
MODEL      460
REMARK 921   NORMALIZED FREE ENERGY PREDICTED BY IDOCK:   -1.32 KCAL/MOL
REMARK 922        TOTAL FREE ENERGY PREDICTED BY IDOCK:   -6.64 KCAL/MOL
REMARK 923 INTER-LIGAND FREE ENERGY PREDICTED BY IDOCK:   -5.07 KCAL/MOL
REMARK 924 INTRA-LIGAND FREE ENERGY PREDICTED BY IDOCK:   -1.57 KCAL/MOL
REMARK 927      BINDING AFFINITY PREDICTED BY RF-SCORE:    0.00 PKD
ROOT
HETATM    1  C   UNL     1      -9.013   2.402  73.712  1.00  0.00    -0.073 C  
HETATM    2  C   UNL     1      -9.407   2.088  72.278  1.00  0.00    -0.142 C  
ENDROOT
BRANCH   2   3
HETATM    3  C   UNL     1      -8.425   2.718  71.295  1.00  0.00    -0.093 C  
BRANCH   3   4
HETATM    4  C   UNL     1      -8.804   4.158  70.962  1.00  0.00    -0.140 C  
BRANCH   4   5
HETATM    5  C   UNL     1      -9.658   4.216  69.694  1.00  0.00    -0.277 C  
BRANCH   5   6
HETATM    6  C   UNL     1      -9.100   3.281  68.630  1.00  0.00    -0.206 C  
BRANCH   6   7
HETATM    7  C   UNL     1      -8.033   3.953  67.764  1.00  0.00    -0.089 C  
BRANCH   7   8
HETATM    8  C   UNL     1      -8.623   4.213  66.383  1.00  0.00    -0.113 C  
BRANCH   8   9
HETATM    9  C   UNL     1     -10.145   4.123  66.332  1.00  0.00    -0.102 C  
BRANCH   9  10
HETATM   10  C   UNL     1     -10.711   5.546  66.386  1.00  0.00    -0.262 C  
BRANCH  10  11
HETATM   11  C   UNL     1      -9.820   6.593  65.736  1.00  0.00     0.534 C  
BRANCH  11  12
HETATM   12  C   UNL     1      -9.575   7.880  66.545  1.00  0.00    -0.212 C  
BRANCH  12  13
HETATM   13  C   UNL     1     -10.068   7.844  68.008  1.00  0.00    -0.235 C  
BRANCH  13  14
HETATM   14  C   UNL     1      -9.913   9.171  68.761  1.00  0.00    -0.176 C  
HETATM   15  O   UNL     1      -8.523   9.590  68.871  1.00  0.00    -0.117 OA 
HETATM   16  O   UNL     1      -7.641   9.809  70.989  1.00  0.00    -0.311 OA 
HETATM   17  C   UNL     1     -10.005   9.095  70.310  1.00  0.00    -0.246 C  
HETATM   18  C   UNL     1      -8.537   9.551  70.222  1.00  0.00    -0.226 C  
BRANCH  17  19
HETATM   19  C   UNL     1     -10.901  10.065  71.073  1.00  0.00    -0.186 C  
BRANCH  19  20
HETATM   20  C   UNL     1     -12.286   9.461  71.286  1.00  0.00    -0.422 C  
BRANCH  20  21
HETATM   21  C   UNL     1     -12.273   8.410  72.399  1.00  0.00    -0.430 C  
BRANCH  21  22
HETATM   22  C   UNL     1     -10.890   7.771  72.539  1.00  0.00    -0.386 C  
BRANCH  22  23
HETATM   23  C   UNL     1     -10.887   6.640  73.567  1.00  0.00    -0.224 C  
HETATM   24  C   UNL     1     -11.500   5.371  72.990  1.00  0.00    -0.324 C  
ENDBRANCH  22  23
ENDBRANCH  21  22
ENDBRANCH  20  21
ENDBRANCH  19  20
ENDBRANCH  17  19
ENDBRANCH  13  14
ENDBRANCH  12  13
BRANCH  12  25
HETATM   25  O   UNL     1      -8.166   8.206  66.574  1.00  0.00    -0.102 OA 
BRANCH  25  26
HETATM   26  C   UNL     1      -7.668   8.930  65.534  1.00  0.00    -0.088 C  
HETATM   27  O   UNL     1      -8.327   9.496  64.668  1.00  0.00    -0.137 OA 
BRANCH  26  28
HETATM   28  C   UNL     1      -6.144   8.976  65.583  1.00  0.00    -0.055 C  
BRANCH  28  29
HETATM   29  C   UNL     1      -5.529   7.570  65.661  1.00  0.00    -0.029 C  
HETATM   30  C   UNL     1      -5.581   6.884  63.174  1.00  0.00    -0.036 C  
HETATM   31  C   UNL     1      -5.436   5.165  64.964  1.00  0.00    -0.013 C  
HETATM   32  C   UNL     1      -5.999   6.543  64.605  1.00  0.00    -0.034 C  
ENDBRANCH  28  29
BRANCH  28  33
HETATM   33  N   UNL     1      -5.735   9.845  66.686  1.00  0.00    -0.049 N  
HETATM   34  C   UNL     1      -5.415   9.366  67.924  1.00  0.00    -0.037 C  
HETATM   35  O   UNL     1      -5.473   8.195  68.267  1.00  0.00    -0.032 OA 
HETATM   36  H   UNL     1      -5.686  10.851  66.524  1.00  0.00     0.000 HD 
ENDBRANCH  28  33
ENDBRANCH  26  28
ENDBRANCH  25  26
ENDBRANCH  12  25
ENDBRANCH  11  12
ENDBRANCH  10  11
ENDBRANCH   9  10
ENDBRANCH   8   9
ENDBRANCH   7   8
ENDBRANCH   6   7
ENDBRANCH   5   6
ENDBRANCH   4   5
ENDBRANCH   3   4
ENDBRANCH   2   3
TORSDOF 22
ENDMDL
MODEL      461
REMARK 921   NORMALIZED FREE ENERGY PREDICTED BY IDOCK:   -1.30 KCAL/MOL
REMARK 922        TOTAL FREE ENERGY PREDICTED BY IDOCK:   -6.59 KCAL/MOL
REMARK 923 INTER-LIGAND FREE ENERGY PREDICTED BY IDOCK:   -6.91 KCAL/MOL
REMARK 924 INTRA-LIGAND FREE ENERGY PREDICTED BY IDOCK:    0.32 KCAL/MOL
REMARK 927      BINDING AFFINITY PREDICTED BY RF-SCORE:    0.00 PKD
ROOT
HETATM    1  C   UNL     1      -7.792  14.531  66.965  1.00  0.00    -0.015 C  
HETATM    2  C   UNL     1      -9.057  13.990  66.319  1.00  0.00    -0.047 C  
ENDROOT
BRANCH   2   3
HETATM    3  C   UNL     1     -10.227  14.032  67.298  1.00  0.00    -0.260 C  
BRANCH   3   4
HETATM    4  C   UNL     1     -11.493  13.432  66.693  1.00  0.00    -0.376 C  
BRANCH   4   5
HETATM    5  C   UNL     1     -11.728  12.016  67.223  1.00  0.00    -0.339 C  
BRANCH   5   6
HETATM    6  C   UNL     1     -10.472  11.481  67.896  1.00  0.00    -0.211 C  
BRANCH   6   7
HETATM    7  C   UNL     1     -10.765  10.838  69.253  1.00  0.00    -0.268 C  
BRANCH   7   8
HETATM    8  C   UNL     1     -12.277  10.750  69.430  1.00  0.00    -0.242 C  
BRANCH   8   9
HETATM    9  C   UNL     1     -12.711  10.149  70.763  1.00  0.00    -0.397 C  
BRANCH   9  10
HETATM   10  C   UNL     1     -11.454   9.752  71.543  1.00  0.00    -0.393 C  
BRANCH  10  11
HETATM   11  C   UNL     1     -11.551   8.398  72.228  1.00  0.00    -0.453 C  
BRANCH  11  12
HETATM   12  C   UNL     1     -11.234   7.168  71.359  1.00  0.00    -0.251 C  
BRANCH  12  13
HETATM   13  C   UNL     1     -10.457   7.461  70.057  1.00  0.00    -0.233 C  
BRANCH  13  14
HETATM   14  C   UNL     1     -10.686   6.438  68.938  1.00  0.00    -0.288 C  
HETATM   15  O   UNL     1     -10.841   5.082  69.447  1.00  0.00     0.051 OA 
HETATM   16  O   UNL     1      -9.303   3.506  68.766  1.00  0.00    -0.152 OA 
HETATM   17  C   UNL     1      -9.424   5.989  68.150  1.00  0.00    -0.115 C  
HETATM   18  C   UNL     1      -9.757   4.625  68.782  1.00  0.00    -0.160 C  
BRANCH  17  19
HETATM   19  C   UNL     1      -9.438   5.975  66.625  1.00  0.00    -0.167 C  
BRANCH  19  20
HETATM   20  C   UNL     1      -8.655   4.779  66.092  1.00  0.00    -0.115 C  
BRANCH  20  21
HETATM   21  C   UNL     1      -9.591   3.655  65.640  1.00  0.00    -0.142 C  
BRANCH  21  22
HETATM   22  C   UNL     1     -10.689   4.188  64.717  1.00  0.00    -0.151 C  
BRANCH  22  23
HETATM   23  C   UNL     1     -10.485   3.736  63.271  1.00  0.00    -0.227 C  
HETATM   24  C   UNL     1     -10.372   2.221  63.180  1.00  0.00    -0.140 C  
ENDBRANCH  22  23
ENDBRANCH  21  22
ENDBRANCH  20  21
ENDBRANCH  19  20
ENDBRANCH  17  19
ENDBRANCH  13  14
ENDBRANCH  12  13
BRANCH  12  25
HETATM   25  O   UNL     1     -10.467   6.195  72.107  1.00  0.00    -0.194 OA 
BRANCH  25  26
HETATM   26  C   UNL     1      -9.133   6.426  72.251  1.00  0.00    -0.139 C  
HETATM   27  O   UNL     1      -8.382   6.875  71.392  1.00  0.00    -0.114 OA 
BRANCH  26  28
HETATM   28  C   UNL     1      -8.669   6.070  73.660  1.00  0.00    -0.124 C  
BRANCH  28  29
HETATM   29  C   UNL     1      -9.396   4.832  74.208  1.00  0.00    -0.125 C  
HETATM   30  C   UNL     1      -7.609   3.012  73.814  1.00  0.00    -0.056 C  
HETATM   31  C   UNL     1     -10.004   2.404  74.094  1.00  0.00    -0.153 C  
HETATM   32  C   UNL     1      -9.046   3.473  73.560  1.00  0.00    -0.099 C  
ENDBRANCH  28  29
BRANCH  28  33
HETATM   33  N   UNL     1      -8.813   7.248  74.515  1.00  0.00    -0.347 N  
HETATM   34  C   UNL     1      -8.262   8.458  74.203  1.00  0.00    -0.106 C  
HETATM   35  O   UNL     1      -7.564   8.688  73.228  1.00  0.00    -0.364 OA 
HETATM   36  H   UNL     1      -9.348   7.162  75.379  1.00  0.00     0.000 HD 
ENDBRANCH  28  33
ENDBRANCH  26  28
ENDBRANCH  25  26
ENDBRANCH  12  25
ENDBRANCH  11  12
ENDBRANCH  10  11
ENDBRANCH   9  10
ENDBRANCH   8   9
ENDBRANCH   7   8
ENDBRANCH   6   7
ENDBRANCH   5   6
ENDBRANCH   4   5
ENDBRANCH   3   4
ENDBRANCH   2   3
TORSDOF 22
ENDMDL
MODEL      462
REMARK 921   NORMALIZED FREE ENERGY PREDICTED BY IDOCK:   -1.27 KCAL/MOL
REMARK 922        TOTAL FREE ENERGY PREDICTED BY IDOCK:   -6.53 KCAL/MOL
REMARK 923 INTER-LIGAND FREE ENERGY PREDICTED BY IDOCK:   -4.99 KCAL/MOL
REMARK 924 INTRA-LIGAND FREE ENERGY PREDICTED BY IDOCK:   -1.54 KCAL/MOL
REMARK 927      BINDING AFFINITY PREDICTED BY RF-SCORE:    0.00 PKD
ROOT
HETATM    1  C   UNL     1      -9.336   2.194  74.566  1.00  0.00    -0.100 C  
HETATM    2  C   UNL     1      -9.342   3.454  73.717  1.00  0.00    -0.113 C  
ENDROOT
BRANCH   2   3
HETATM    3  C   UNL     1     -10.310   3.314  72.545  1.00  0.00    -0.186 C  
BRANCH   3   4
HETATM    4  C   UNL     1     -11.601   4.092  72.781  1.00  0.00     0.273 C  
BRANCH   4   5
HETATM    5  C   UNL     1     -11.596   5.403  71.993  1.00  0.00     0.048 C  
BRANCH   5   6
HETATM    6  C   UNL     1     -10.233   6.076  72.082  1.00  0.00    -0.222 C  
BRANCH   6   7
HETATM    7  C   UNL     1      -9.438   5.957  70.780  1.00  0.00    -0.192 C  
BRANCH   7   8
HETATM    8  C   UNL     1     -10.421   5.877  69.618  1.00  0.00    -0.346 C  
BRANCH   8   9
HETATM    9  C   UNL     1      -9.802   5.382  68.314  1.00  0.00    -0.196 C  
BRANCH   9  10
HETATM   10  C   UNL     1     -10.649   5.909  67.151  1.00  0.00    -0.373 C  
BRANCH  10  11
HETATM   11  C   UNL     1     -10.772   7.424  67.110  1.00  0.00    -0.400 C  
BRANCH  11  12
HETATM   12  C   UNL     1      -9.548   8.196  66.585  1.00  0.00    -0.229 C  
BRANCH  12  13
HETATM   13  C   UNL     1      -8.741   7.481  65.479  1.00  0.00    -0.062 C  
BRANCH  13  14
HETATM   14  C   UNL     1      -7.340   7.030  65.908  1.00  0.00    -0.075 C  
HETATM   15  O   UNL     1      -6.511   6.636  64.777  1.00  0.00    -0.040 OA 
HETATM   16  O   UNL     1      -5.751   4.460  64.721  1.00  0.00    -0.013 OA 
HETATM   17  C   UNL     1      -7.229   5.589  66.481  1.00  0.00    -0.077 C  
HETATM   18  C   UNL     1      -6.369   5.368  65.224  1.00  0.00    -0.035 C  
BRANCH  17  19
HETATM   19  C   UNL     1      -6.480   5.339  67.786  1.00  0.00    -0.048 C  
BRANCH  19  20
HETATM   20  C   UNL     1      -5.269   6.261  67.894  1.00  0.00    -0.004 C  
BRANCH  20  21
HETATM   21  C   UNL     1      -5.280   7.047  69.209  1.00  0.00    -0.014 C  
BRANCH  21  22
HETATM   22  C   UNL     1      -6.566   6.787  69.996  1.00  0.00    -0.044 C  
BRANCH  22  23
HETATM   23  C   UNL     1      -6.789   7.840  71.083  1.00  0.00    -0.049 C  
HETATM   24  C   UNL     1      -6.684   9.248  70.513  1.00  0.00    -0.078 C  
ENDBRANCH  22  23
ENDBRANCH  21  22
ENDBRANCH  20  21
ENDBRANCH  19  20
ENDBRANCH  17  19
ENDBRANCH  13  14
ENDBRANCH  12  13
BRANCH  12  25
HETATM   25  O   UNL     1      -9.940   9.487  66.065  1.00  0.00    -0.278 OA 
BRANCH  25  26
HETATM   26  C   UNL     1     -10.046  10.515  66.952  1.00  0.00    -0.216 C  
HETATM   27  O   UNL     1     -10.206  10.408  68.163  1.00  0.00    -0.151 OA 
BRANCH  26  28
HETATM   28  C   UNL     1      -9.919  11.860  66.244  1.00  0.00    -0.220 C  
BRANCH  28  29
HETATM   29  C   UNL     1     -10.426  11.796  64.794  1.00  0.00    -0.341 C  
HETATM   30  C   UNL     1     -11.600  14.086  64.595  1.00  0.00    -0.400 C  
HETATM   31  C   UNL     1     -12.174  12.223  63.051  1.00  0.00    -0.130 C  
HETATM   32  C   UNL     1     -11.728  12.566  64.476  1.00  0.00    -0.423 C  
ENDBRANCH  28  29
BRANCH  28  33
HETATM   33  N   UNL     1      -8.534  12.317  66.349  1.00  0.00    -0.403 N  
HETATM   34  C   UNL     1      -8.203  13.615  66.619  1.00  0.00     0.388 C  
HETATM   35  O   UNL     1      -8.996  14.534  66.754  1.00  0.00    -0.246 OA 
HETATM   36  H   UNL     1      -7.783  11.639  66.217  1.00  0.00     0.000 HD 
ENDBRANCH  28  33
ENDBRANCH  26  28
ENDBRANCH  25  26
ENDBRANCH  12  25
ENDBRANCH  11  12
ENDBRANCH  10  11
ENDBRANCH   9  10
ENDBRANCH   8   9
ENDBRANCH   7   8
ENDBRANCH   6   7
ENDBRANCH   5   6
ENDBRANCH   4   5
ENDBRANCH   3   4
ENDBRANCH   2   3
TORSDOF 22
ENDMDL
MODEL      463
REMARK 921   NORMALIZED FREE ENERGY PREDICTED BY IDOCK:   -1.18 KCAL/MOL
REMARK 922        TOTAL FREE ENERGY PREDICTED BY IDOCK:   -6.32 KCAL/MOL
REMARK 923 INTER-LIGAND FREE ENERGY PREDICTED BY IDOCK:   -6.89 KCAL/MOL
REMARK 924 INTRA-LIGAND FREE ENERGY PREDICTED BY IDOCK:    0.56 KCAL/MOL
REMARK 927      BINDING AFFINITY PREDICTED BY RF-SCORE:    0.00 PKD
ROOT
HETATM    1  C   UNL     1      -7.210  19.106  69.724  1.00  0.00     0.109 C  
HETATM    2  C   UNL     1      -7.657  17.844  69.006  1.00  0.00    -0.150 C  
ENDROOT
BRANCH   2   3
HETATM    3  C   UNL     1      -8.846  18.130  68.093  1.00  0.00    -0.289 C  
BRANCH   3   4
HETATM    4  C   UNL     1      -8.877  17.190  66.892  1.00  0.00    -0.255 C  
BRANCH   4   5
HETATM    5  C   UNL     1     -10.286  16.636  66.673  1.00  0.00    -0.304 C  
BRANCH   5   6
HETATM    6  C   UNL     1     -10.271  15.541  65.614  1.00  0.00    -0.403 C  
BRANCH   6   7
HETATM    7  C   UNL     1     -11.355  14.487  65.849  1.00  0.00    -0.341 C  
BRANCH   7   8
HETATM    8  C   UNL     1     -10.979  13.672  67.081  1.00  0.00    -0.299 C  
BRANCH   8   9
HETATM    9  C   UNL     1      -9.962  14.354  67.990  1.00  0.00    -0.225 C  
BRANCH   9  10
HETATM   10  C   UNL     1      -8.746  13.432  68.126  1.00  0.00    -0.179 C  
BRANCH  10  11
HETATM   11  C   UNL     1      -8.721  12.287  67.125  1.00  0.00    -0.193 C  
BRANCH  11  12
HETATM   12  C   UNL     1      -7.801  11.101  67.466  1.00  0.00    -0.117 C  
BRANCH  12  13
HETATM   13  C   UNL     1      -8.526   9.785  67.825  1.00  0.00    -0.121 C  
BRANCH  13  14
HETATM   14  C   UNL     1      -7.913   9.028  69.009  1.00  0.00    -0.102 C  
HETATM   15  O   UNL     1      -7.629   7.635  68.693  1.00  0.00    -0.104 OA 
HETATM   16  O   UNL     1      -8.713   6.019  69.928  1.00  0.00    -0.128 OA 
HETATM   17  C   UNL     1      -8.903   8.566  70.114  1.00  0.00    -0.138 C  
HETATM   18  C   UNL     1      -8.469   7.167  69.642  1.00  0.00    -0.134 C  
BRANCH  17  19
HETATM   19  C   UNL     1      -8.593   8.838  71.583  1.00  0.00    -0.228 C  
BRANCH  19  20
HETATM   20  C   UNL     1      -9.678   8.248  72.478  1.00  0.00    -0.368 C  
BRANCH  20  21
HETATM   21  C   UNL     1     -11.011   8.126  71.735  1.00  0.00    -0.322 C  
BRANCH  21  22
HETATM   22  C   UNL     1     -11.750   9.465  71.703  1.00  0.00    -0.468 C  
BRANCH  22  23
HETATM   23  C   UNL     1     -13.153   9.325  71.112  1.00  0.00    -0.251 C  
HETATM   24  C   UNL     1     -13.734   7.947  71.396  1.00  0.00    -0.328 C  
ENDBRANCH  22  23
ENDBRANCH  21  22
ENDBRANCH  20  21
ENDBRANCH  19  20
ENDBRANCH  17  19
ENDBRANCH  13  14
ENDBRANCH  12  13
BRANCH  12  25
HETATM   25  O   UNL     1      -6.907  10.813  66.366  1.00  0.00    -0.119 OA 
BRANCH  25  26
HETATM   26  C   UNL     1      -7.184   9.719  65.603  1.00  0.00    -0.106 C  
HETATM   27  O   UNL     1      -6.861   8.563  65.856  1.00  0.00    -0.063 OA 
BRANCH  26  28
HETATM   28  C   UNL     1      -7.988  10.107  64.366  1.00  0.00    -0.153 C  
BRANCH  28  29
HETATM   29  C   UNL     1      -9.500  10.109  64.641  1.00  0.00    -0.357 C  
HETATM   30  C   UNL     1     -10.247  12.121  63.208  1.00  0.00    -0.341 C  
HETATM   31  C   UNL     1     -11.657  11.304  65.086  1.00  0.00     0.226 C  
HETATM   32  C   UNL     1     -10.217  11.478  64.596  1.00  0.00    -0.334 C  
ENDBRANCH  28  29
BRANCH  28  33
HETATM   33  N   UNL     1      -7.605   9.229  63.261  1.00  0.00    -0.103 N  
HETATM   34  C   UNL     1      -6.454   9.402  62.546  1.00  0.00    -0.096 C  
HETATM   35  O   UNL     1      -5.652  10.308  62.704  1.00  0.00    -0.104 OA 
HETATM   36  H   UNL     1      -8.223   8.456  63.015  1.00  0.00     0.000 HD 
ENDBRANCH  28  33
ENDBRANCH  26  28
ENDBRANCH  25  26
ENDBRANCH  12  25
ENDBRANCH  11  12
ENDBRANCH  10  11
ENDBRANCH   9  10
ENDBRANCH   8   9
ENDBRANCH   7   8
ENDBRANCH   6   7
ENDBRANCH   5   6
ENDBRANCH   4   5
ENDBRANCH   3   4
ENDBRANCH   2   3
TORSDOF 22
ENDMDL
MODEL      464
REMARK 921   NORMALIZED FREE ENERGY PREDICTED BY IDOCK:   -1.16 KCAL/MOL
REMARK 922        TOTAL FREE ENERGY PREDICTED BY IDOCK:   -6.27 KCAL/MOL
REMARK 923 INTER-LIGAND FREE ENERGY PREDICTED BY IDOCK:   -6.06 KCAL/MOL
REMARK 924 INTRA-LIGAND FREE ENERGY PREDICTED BY IDOCK:   -0.21 KCAL/MOL
REMARK 927      BINDING AFFINITY PREDICTED BY RF-SCORE:    0.00 PKD
ROOT
HETATM    1  C   UNL     1      -6.030  16.354  71.409  1.00  0.00     1.179 C  
HETATM    2  C   UNL     1      -5.133  15.858  70.287  1.00  0.00    -0.143 C  
ENDROOT
BRANCH   2   3
HETATM    3  C   UNL     1      -5.360  16.667  69.013  1.00  0.00    -0.128 C  
BRANCH   3   4
HETATM    4  C   UNL     1      -6.306  15.954  68.051  1.00  0.00    -0.144 C  
BRANCH   4   5
HETATM    5  C   UNL     1      -7.748  16.416  68.266  1.00  0.00    -0.162 C  
BRANCH   5   6
HETATM    6  C   UNL     1      -8.670  15.794  67.225  1.00  0.00    -0.210 C  
BRANCH   6   7
HETATM    7  C   UNL     1      -8.511  14.275  67.140  1.00  0.00    -0.220 C  
BRANCH   7   8
HETATM    8  C   UNL     1      -8.338  13.725  68.551  1.00  0.00    -0.120 C  
BRANCH   8   9
HETATM    9  C   UNL     1      -7.646  12.368  68.608  1.00  0.00    -0.082 C  
BRANCH   9  10
HETATM   10  C   UNL     1      -8.063  11.564  67.373  1.00  0.00    -0.146 C  
BRANCH  10  11
HETATM   11  C   UNL     1      -8.534  10.151  67.681  1.00  0.00    -0.118 C  
BRANCH  11  12
HETATM   12  C   UNL     1      -9.732  10.024  68.639  1.00  0.00    -0.159 C  
BRANCH  12  13
HETATM   13  C   UNL     1      -9.384   9.571  70.075  1.00  0.00    -0.265 C  
BRANCH  13  14
HETATM   14  C   UNL     1      -9.108   8.069  70.215  1.00  0.00    -0.148 C  
HETATM   15  O   UNL     1      -7.688   7.755  70.147  1.00  0.00    -0.086 OA 
HETATM   16  O   UNL     1      -6.982   6.379  68.439  1.00  0.00    -0.074 OA 
HETATM   17  C   UNL     1      -9.352   7.206  68.946  1.00  0.00    -0.139 C  
HETATM   18  C   UNL     1      -7.832   6.984  69.046  1.00  0.00    -0.115 C  
BRANCH  17  19
HETATM   19  C   UNL     1     -10.164   5.918  69.039  1.00  0.00    -0.261 C  
BRANCH  19  20
HETATM   20  C   UNL     1     -10.520   5.612  70.491  1.00  0.00    -0.347 C  
BRANCH  20  21
HETATM   21  C   UNL     1      -9.498   4.667  71.130  1.00  0.00    -0.220 C  
BRANCH  21  22
HETATM   22  C   UNL     1     -10.189   3.604  71.986  1.00  0.00    -0.145 C  
BRANCH  22  23
HETATM   23  C   UNL     1      -9.922   2.193  71.464  1.00  0.00    -0.149 C  
HETATM   24  C   UNL     1      -8.720   2.171  70.530  1.00  0.00    -0.116 C  
ENDBRANCH  22  23
ENDBRANCH  21  22
ENDBRANCH  20  21
ENDBRANCH  19  20
ENDBRANCH  17  19
ENDBRANCH  13  14
ENDBRANCH  12  13
BRANCH  12  25
HETATM   25  O   UNL     1     -10.440  11.281  68.745  1.00  0.00    -0.195 OA 
BRANCH  25  26
HETATM   26  C   UNL     1     -11.726  11.240  69.191  1.00  0.00    -0.341 C  
HETATM   27  O   UNL     1     -12.716  10.984  68.514  1.00  0.00     0.124 OA 
BRANCH  26  28
HETATM   28  C   UNL     1     -11.793  11.539  70.686  1.00  0.00    -0.178 C  
BRANCH  28  29
HETATM   29  C   UNL     1     -12.966  10.813  71.364  1.00  0.00    -0.535 C  
HETATM   30  C   UNL     1     -11.772   8.709  72.263  1.00  0.00    -0.428 C  
HETATM   31  C   UNL     1     -14.236   8.728  71.928  1.00  0.00    -0.467 C  
HETATM   32  C   UNL     1     -12.904   9.269  71.400  1.00  0.00    -0.398 C  
ENDBRANCH  28  29
BRANCH  28  33
HETATM   33  N   UNL     1     -11.828  12.988  70.874  1.00  0.00    -0.364 N  
HETATM   34  C   UNL     1     -12.843  13.624  71.531  1.00  0.00    -0.359 C  
HETATM   35  O   UNL     1     -13.839  13.084  71.986  1.00  0.00    -0.396 OA 
HETATM   36  H   UNL     1     -11.061  13.548  70.500  1.00  0.00     0.000 HD 
ENDBRANCH  28  33
ENDBRANCH  26  28
ENDBRANCH  25  26
ENDBRANCH  12  25
ENDBRANCH  11  12
ENDBRANCH  10  11
ENDBRANCH   9  10
ENDBRANCH   8   9
ENDBRANCH   7   8
ENDBRANCH   6   7
ENDBRANCH   5   6
ENDBRANCH   4   5
ENDBRANCH   3   4
ENDBRANCH   2   3
TORSDOF 22
ENDMDL
MODEL      465
REMARK 921   NORMALIZED FREE ENERGY PREDICTED BY IDOCK:   -1.12 KCAL/MOL
REMARK 922        TOTAL FREE ENERGY PREDICTED BY IDOCK:   -6.18 KCAL/MOL
REMARK 923 INTER-LIGAND FREE ENERGY PREDICTED BY IDOCK:   -4.35 KCAL/MOL
REMARK 924 INTRA-LIGAND FREE ENERGY PREDICTED BY IDOCK:   -1.83 KCAL/MOL
REMARK 927      BINDING AFFINITY PREDICTED BY RF-SCORE:    0.00 PKD
ROOT
HETATM    1  C   UNL     1      -7.989   7.148  68.942  1.00  0.00    -0.120 C  
HETATM    2  C   UNL     1      -7.375   7.973  67.823  1.00  0.00    -0.093 C  
ENDROOT
BRANCH   2   3
HETATM    3  C   UNL     1      -5.994   8.487  68.221  1.00  0.00    -0.046 C  
BRANCH   3   4
HETATM    4  C   UNL     1      -6.008   9.131  69.604  1.00  0.00    -0.032 C  
BRANCH   4   5
HETATM    5  C   UNL     1      -5.161  10.405  69.617  1.00  0.00    -0.038 C  
BRANCH   5   6
HETATM    6  C   UNL     1      -6.013  11.617  69.263  1.00  0.00    -0.071 C  
BRANCH   6   7
HETATM    7  C   UNL     1      -6.424  11.630  67.789  1.00  0.00    -0.067 C  
BRANCH   7   8
HETATM    8  C   UNL     1      -5.983  12.954  67.175  1.00  0.00     0.195 C  
BRANCH   8   9
HETATM    9  C   UNL     1      -5.436  13.956  68.187  1.00  0.00    -0.120 C  
BRANCH   9  10
HETATM   10  C   UNL     1      -6.562  14.927  68.556  1.00  0.00    -0.093 C  
BRANCH  10  11
HETATM   11  C   UNL     1      -7.768  14.262  69.202  1.00  0.00    -0.011 C  
BRANCH  11  12
HETATM   12  C   UNL     1      -9.142  14.878  68.880  1.00  0.00    -0.191 C  
BRANCH  12  13
HETATM   13  C   UNL     1     -10.304  14.406  69.781  1.00  0.00     0.198 C  
BRANCH  13  14
HETATM   14  C   UNL     1     -11.046  13.169  69.261  1.00  0.00    -0.145 C  
HETATM   15  O   UNL     1     -12.477  13.226  69.524  1.00  0.00    -0.138 OA 
HETATM   16  O   UNL     1     -13.383  11.576  70.854  1.00  0.00     0.108 OA 
HETATM   17  C   UNL     1     -10.945  11.889  70.137  1.00  0.00     0.599 C  
HETATM   18  C   UNL     1     -12.460  12.114  70.292  1.00  0.00    -0.087 C  
BRANCH  17  19
HETATM   19  C   UNL     1     -10.588  10.550  69.499  1.00  0.00    -0.278 C  
BRANCH  19  20
HETATM   20  C   UNL     1      -9.788  10.763  68.218  1.00  0.00    -0.177 C  
BRANCH  20  21
HETATM   21  C   UNL     1     -10.246   9.813  67.108  1.00  0.00    -0.288 C  
BRANCH  21  22
HETATM   22  C   UNL     1     -10.042  10.437  65.726  1.00  0.00    -0.329 C  
BRANCH  22  23
HETATM   23  C   UNL     1      -8.561  10.535  65.360  1.00  0.00    -0.188 C  
HETATM   24  C   UNL     1      -7.970   9.157  65.093  1.00  0.00    -0.117 C  
ENDBRANCH  22  23
ENDBRANCH  21  22
ENDBRANCH  20  21
ENDBRANCH  19  20
ENDBRANCH  17  19
ENDBRANCH  13  14
ENDBRANCH  12  13
BRANCH  12  25
HETATM   25  O   UNL     1      -9.090  16.321  68.966  1.00  0.00    -0.244 OA 
BRANCH  25  26
HETATM   26  C   UNL     1      -9.923  17.027  68.151  1.00  0.00    -0.287 C  
HETATM   27  O   UNL     1     -11.072  17.365  68.414  1.00  0.00    -0.220 OA 
BRANCH  26  28
HETATM   28  C   UNL     1      -9.229  17.379  66.838  1.00  0.00    -0.256 C  
BRANCH  28  29
HETATM   29  C   UNL     1      -7.713  17.556  67.019  1.00  0.00    -0.239 C  
HETATM   30  C   UNL     1      -7.600  20.038  67.717  1.00  0.00    -0.328 C  
HETATM   31  C   UNL     1      -5.607  18.891  66.774  1.00  0.00    -0.161 C  
HETATM   32  C   UNL     1      -7.136  18.962  66.735  1.00  0.00    -0.222 C  
ENDBRANCH  28  29
BRANCH  28  33
HETATM   33  N   UNL     1      -9.881  18.554  66.263  1.00  0.00    -0.351 N  
HETATM   34  C   UNL     1     -10.765  18.474  65.224  1.00  0.00     0.517 C  
HETATM   35  O   UNL     1     -11.074  17.450  64.635  1.00  0.00    -1.029 OA 
HETATM   36  H   UNL     1      -9.668  19.473  66.653  1.00  0.00     0.000 HD 
ENDBRANCH  28  33
ENDBRANCH  26  28
ENDBRANCH  25  26
ENDBRANCH  12  25
ENDBRANCH  11  12
ENDBRANCH  10  11
ENDBRANCH   9  10
ENDBRANCH   8   9
ENDBRANCH   7   8
ENDBRANCH   6   7
ENDBRANCH   5   6
ENDBRANCH   4   5
ENDBRANCH   3   4
ENDBRANCH   2   3
TORSDOF 22
ENDMDL
MODEL      466
REMARK 921   NORMALIZED FREE ENERGY PREDICTED BY IDOCK:   -1.11 KCAL/MOL
REMARK 922        TOTAL FREE ENERGY PREDICTED BY IDOCK:   -6.15 KCAL/MOL
REMARK 923 INTER-LIGAND FREE ENERGY PREDICTED BY IDOCK:   -5.82 KCAL/MOL
REMARK 924 INTRA-LIGAND FREE ENERGY PREDICTED BY IDOCK:   -0.33 KCAL/MOL
REMARK 927      BINDING AFFINITY PREDICTED BY RF-SCORE:    0.00 PKD
ROOT
HETATM    1  C   UNL     1      -9.181   7.359  66.186  1.00  0.00    -0.148 C  
HETATM    2  C   UNL     1      -8.321   8.609  66.273  1.00  0.00    -0.124 C  
ENDROOT
BRANCH   2   3
HETATM    3  C   UNL     1      -8.950   9.756  65.487  1.00  0.00    -0.214 C  
BRANCH   3   4
HETATM    4  C   UNL     1     -10.363  10.067  65.973  1.00  0.00    -0.222 C  
BRANCH   4   5
HETATM    5  C   UNL     1     -10.340  10.581  67.414  1.00  0.00    -0.269 C  
BRANCH   5   6
HETATM    6  C   UNL     1     -11.368   9.843  68.261  1.00  0.00    -0.045 C  
BRANCH   6   7
HETATM    7  C   UNL     1     -12.321  10.796  68.985  1.00  0.00     0.127 C  
BRANCH   7   8
HETATM    8  C   UNL     1     -11.697  11.184  70.320  1.00  0.00    -0.431 C  
BRANCH   8   9
HETATM    9  C   UNL     1     -11.372   9.997  71.221  1.00  0.00    -0.336 C  
BRANCH   9  10
HETATM   10  C   UNL     1     -10.385   9.089  70.481  1.00  0.00    -0.266 C  
BRANCH  10  11
HETATM   11  C   UNL     1      -8.928   9.333  70.842  1.00  0.00    -0.273 C  
BRANCH  11  12
HETATM   12  C   UNL     1      -7.940   9.431  69.665  1.00  0.00    -0.109 C  
BRANCH  12  13
HETATM   13  C   UNL     1      -7.062  10.702  69.644  1.00  0.00    -0.143 C  
BRANCH  13  14
HETATM   14  C   UNL     1      -7.270  11.595  68.415  1.00  0.00    -0.088 C  
HETATM   15  O   UNL     1      -6.074  11.695  67.591  1.00  0.00    -0.054 OA 
HETATM   16  O   UNL     1      -5.148  13.787  67.308  1.00  0.00    -0.315 OA 
HETATM   17  C   UNL     1      -7.218  13.128  68.663  1.00  0.00    -0.106 C  
HETATM   18  C   UNL     1      -5.974  13.032  67.761  1.00  0.00    -0.145 C  
BRANCH  17  19
HETATM   19  C   UNL     1      -8.311  14.033  68.104  1.00  0.00    -0.164 C  
BRANCH  19  20
HETATM   20  C   UNL     1      -9.683  13.588  68.603  1.00  0.00    -0.104 C  
BRANCH  20  21
HETATM   21  C   UNL     1     -10.707  13.551  67.466  1.00  0.00    -0.266 C  
BRANCH  21  22
HETATM   22  C   UNL     1     -10.867  14.930  66.822  1.00  0.00    -0.320 C  
BRANCH  22  23
HETATM   23  C   UNL     1     -11.156  14.828  65.325  1.00  0.00    -0.374 C  
HETATM   24  C   UNL     1     -10.369  13.690  64.690  1.00  0.00    -0.407 C  
ENDBRANCH  22  23
ENDBRANCH  21  22
ENDBRANCH  20  21
ENDBRANCH  19  20
ENDBRANCH  17  19
ENDBRANCH  13  14
ENDBRANCH  12  13
BRANCH  12  25
HETATM   25  O   UNL     1      -7.048   8.293  69.649  1.00  0.00    -0.054 OA 
BRANCH  25  26
HETATM   26  C   UNL     1      -7.027   7.497  70.754  1.00  0.00    -0.048 C  
HETATM   27  O   UNL     1      -6.177   7.513  71.637  1.00  0.00    -0.036 OA 
BRANCH  26  28
HETATM   28  C   UNL     1      -8.236   6.566  70.777  1.00  0.00    -0.125 C  
BRANCH  28  29
HETATM   29  C   UNL     1      -8.115   5.496  71.873  1.00  0.00    -0.115 C  
HETATM   30  C   UNL     1      -6.024   4.216  71.067  1.00  0.00    -0.014 C  
HETATM   31  C   UNL     1      -7.648   3.150  72.620  1.00  0.00    -0.054 C  
HETATM   32  C   UNL     1      -7.501   4.139  71.460  1.00  0.00    -0.059 C  
ENDBRANCH  28  29
BRANCH  28  33
HETATM   33  N   UNL     1      -8.420   6.002  69.440  1.00  0.00    -0.114 N  
HETATM   34  C   UNL     1      -9.550   5.330  69.072  1.00  0.00    -0.144 C  
HETATM   35  O   UNL     1     -10.497   5.082  69.803  1.00  0.00    -0.263 OA 
HETATM   36  H   UNL     1      -7.673   6.117  68.754  1.00  0.00     0.000 HD 
ENDBRANCH  28  33
ENDBRANCH  26  28
ENDBRANCH  25  26
ENDBRANCH  12  25
ENDBRANCH  11  12
ENDBRANCH  10  11
ENDBRANCH   9  10
ENDBRANCH   8   9
ENDBRANCH   7   8
ENDBRANCH   6   7
ENDBRANCH   5   6
ENDBRANCH   4   5
ENDBRANCH   3   4
ENDBRANCH   2   3
TORSDOF 22
ENDMDL
MODEL      467
REMARK 921   NORMALIZED FREE ENERGY PREDICTED BY IDOCK:   -1.01 KCAL/MOL
REMARK 922        TOTAL FREE ENERGY PREDICTED BY IDOCK:   -5.94 KCAL/MOL
REMARK 923 INTER-LIGAND FREE ENERGY PREDICTED BY IDOCK:   -6.01 KCAL/MOL
REMARK 924 INTRA-LIGAND FREE ENERGY PREDICTED BY IDOCK:    0.07 KCAL/MOL
REMARK 927      BINDING AFFINITY PREDICTED BY RF-SCORE:    0.00 PKD
ROOT
HETATM    1  C   UNL     1      -5.593  18.749  71.622  1.00  0.00    -0.005 C  
HETATM    2  C   UNL     1      -6.082  20.154  71.311  1.00  0.00    -0.261 C  
ENDROOT
BRANCH   2   3
HETATM    3  C   UNL     1      -5.129  20.860  70.350  1.00  0.00    -0.325 C  
BRANCH   3   4
HETATM    4  C   UNL     1      -5.680  20.890  68.927  1.00  0.00    -0.379 C  
BRANCH   4   5
HETATM    5  C   UNL     1      -6.933  20.019  68.812  1.00  0.00    -0.309 C  
BRANCH   5   6
HETATM    6  C   UNL     1      -6.559  18.543  68.809  1.00  0.00    -0.267 C  
BRANCH   6   7
HETATM    7  C   UNL     1      -5.898  18.110  67.499  1.00  0.00    -0.153 C  
BRANCH   7   8
HETATM    8  C   UNL     1      -6.757  18.599  66.339  1.00  0.00    -0.236 C  
BRANCH   8   9
HETATM    9  C   UNL     1      -7.620  17.513  65.705  1.00  0.00     0.042 C  
BRANCH   9  10
HETATM   10  C   UNL     1      -7.674  16.321  66.667  1.00  0.00    -0.286 C  
BRANCH  10  11
HETATM   11  C   UNL     1      -8.599  15.202  66.216  1.00  0.00    -0.020 C  
BRANCH  11  12
HETATM   12  C   UNL     1      -8.908  14.109  67.256  1.00  0.00    -0.218 C  
BRANCH  12  13
HETATM   13  C   UNL     1      -7.715  13.207  67.640  1.00  0.00    -0.168 C  
BRANCH  13  14
HETATM   14  C   UNL     1      -7.848  11.751  67.177  1.00  0.00    -0.166 C  
HETATM   15  O   UNL     1      -8.526  10.915  68.157  1.00  0.00    -0.121 OA 
HETATM   16  O   UNL     1      -7.350   9.138  69.038  1.00  0.00    -0.071 OA 
HETATM   17  C   UNL     1      -6.576  10.869  67.316  1.00  0.00    -0.078 C  
HETATM   18  C   UNL     1      -7.457  10.104  68.320  1.00  0.00    -0.082 C  
BRANCH  17  19
HETATM   19  C   UNL     1      -6.103  10.016  66.144  1.00  0.00    -0.074 C  
BRANCH  19  20
HETATM   20  C   UNL     1      -7.136   8.943  65.810  1.00  0.00    -0.084 C  
BRANCH  20  21
HETATM   21  C   UNL     1      -6.582   7.925  64.809  1.00  0.00    -0.048 C  
BRANCH  21  22
HETATM   22  C   UNL     1      -6.945   6.496  65.217  1.00  0.00    -0.052 C  
BRANCH  22  23
HETATM   23  C   UNL     1      -7.982   5.883  64.276  1.00  0.00    -0.122 C  
HETATM   24  C   UNL     1      -8.000   6.603  62.934  1.00  0.00    -0.083 C  
ENDBRANCH  22  23
ENDBRANCH  21  22
ENDBRANCH  20  21
ENDBRANCH  19  20
ENDBRANCH  17  19
ENDBRANCH  13  14
ENDBRANCH  12  13
BRANCH  12  25
HETATM   25  O   UNL     1      -9.415  14.694  68.478  1.00  0.00    -0.205 OA 
BRANCH  25  26
HETATM   26  C   UNL     1     -10.750  14.958  68.540  1.00  0.00    -0.245 C  
HETATM   27  O   UNL     1     -11.586  14.645  67.700  1.00  0.00    -0.334 OA 
BRANCH  26  28
HETATM   28  C   UNL     1     -11.100  15.694  69.830  1.00  0.00    -0.319 C  
BRANCH  28  29
HETATM   29  C   UNL     1     -12.082  14.894  70.700  1.00  0.00    -0.366 C  
HETATM   30  C   UNL     1     -12.278  16.444  72.754  1.00  0.00    -0.516 C  
HETATM   31  C   UNL     1     -12.861  14.032  72.920  1.00  0.00    -0.365 C  
HETATM   32  C   UNL     1     -11.942  15.046  72.232  1.00  0.00    -0.447 C  
ENDBRANCH  28  29
BRANCH  28  33
HETATM   33  N   UNL     1     -11.588  17.030  69.491  1.00  0.00     0.200 N  
HETATM   34  C   UNL     1     -10.808  17.968  68.878  1.00  0.00     0.462 C  
HETATM   35  O   UNL     1      -9.629  17.829  68.588  1.00  0.00    -0.309 OA 
HETATM   36  H   UNL     1     -12.552  17.272  69.722  1.00  0.00     0.000 HD 
ENDBRANCH  28  33
ENDBRANCH  26  28
ENDBRANCH  25  26
ENDBRANCH  12  25
ENDBRANCH  11  12
ENDBRANCH  10  11
ENDBRANCH   9  10
ENDBRANCH   8   9
ENDBRANCH   7   8
ENDBRANCH   6   7
ENDBRANCH   5   6
ENDBRANCH   4   5
ENDBRANCH   3   4
ENDBRANCH   2   3
TORSDOF 22
ENDMDL
MODEL      468
REMARK 921   NORMALIZED FREE ENERGY PREDICTED BY IDOCK:   -0.97 KCAL/MOL
REMARK 922        TOTAL FREE ENERGY PREDICTED BY IDOCK:   -5.83 KCAL/MOL
REMARK 923 INTER-LIGAND FREE ENERGY PREDICTED BY IDOCK:   -5.41 KCAL/MOL
REMARK 924 INTRA-LIGAND FREE ENERGY PREDICTED BY IDOCK:   -0.43 KCAL/MOL
REMARK 927      BINDING AFFINITY PREDICTED BY RF-SCORE:    0.00 PKD
ROOT
HETATM    1  C   UNL     1      -6.151  16.350  71.508  1.00  0.00     1.672 C  
HETATM    2  C   UNL     1      -5.126  15.843  70.507  1.00  0.00    -0.169 C  
ENDROOT
BRANCH   2   3
HETATM    3  C   UNL     1      -5.323  16.506  69.146  1.00  0.00    -0.128 C  
BRANCH   3   4
HETATM    4  C   UNL     1      -6.180  15.650  68.219  1.00  0.00    -0.120 C  
BRANCH   4   5
HETATM    5  C   UNL     1      -7.656  16.037  68.333  1.00  0.00    -0.145 C  
BRANCH   5   6
HETATM    6  C   UNL     1      -8.468  15.380  67.225  1.00  0.00    -0.214 C  
BRANCH   6   7
HETATM    7  C   UNL     1      -8.209  13.875  67.125  1.00  0.00    -0.128 C  
BRANCH   7   8
HETATM    8  C   UNL     1      -8.219  13.288  68.532  1.00  0.00    -0.084 C  
BRANCH   8   9
HETATM    9  C   UNL     1      -7.452  11.976  68.661  1.00  0.00    -0.113 C  
BRANCH   9  10
HETATM   10  C   UNL     1      -7.626  11.188  67.359  1.00  0.00    -0.113 C  
BRANCH  10  11
HETATM   11  C   UNL     1      -8.176   9.783  67.552  1.00  0.00    -0.114 C  
BRANCH  11  12
HETATM   12  C   UNL     1      -9.486   9.666  68.351  1.00  0.00    -0.137 C  
BRANCH  12  13
HETATM   13  C   UNL     1      -9.375   8.914  69.696  1.00  0.00    -0.163 C  
BRANCH  13  14
HETATM   14  C   UNL     1      -9.020   7.428  69.563  1.00  0.00    -0.144 C  
HETATM   15  O   UNL     1     -10.200   6.575  69.527  1.00  0.00    -0.174 OA 
HETATM   16  O   UNL     1     -10.433   5.009  71.202  1.00  0.00    -0.205 OA 
HETATM   17  C   UNL     1      -8.554   6.715  70.863  1.00  0.00    -0.134 C  
HETATM   18  C   UNL     1      -9.849   5.910  70.650  1.00  0.00    -0.183 C  
BRANCH  17  19
HETATM   19  C   UNL     1      -7.293   5.857  70.856  1.00  0.00    -0.086 C  
BRANCH  19  20
HETATM   20  C   UNL     1      -6.897   5.496  69.427  1.00  0.00    -0.061 C  
BRANCH  20  21
HETATM   21  C   UNL     1      -6.871   3.980  69.219  1.00  0.00    -0.046 C  
BRANCH  21  22
HETATM   22  C   UNL     1      -8.212   3.473  68.686  1.00  0.00    -0.081 C  
BRANCH  22  23
HETATM   23  C   UNL     1      -8.198   3.321  67.164  1.00  0.00    -0.083 C  
HETATM   24  C   UNL     1      -9.565   3.628  66.569  1.00  0.00    -0.159 C  
ENDBRANCH  22  23
ENDBRANCH  21  22
ENDBRANCH  20  21
ENDBRANCH  19  20
ENDBRANCH  17  19
ENDBRANCH  13  14
ENDBRANCH  12  13
BRANCH  12  25
HETATM   25  O   UNL     1     -10.033  10.974  68.635  1.00  0.00    -0.185 OA 
BRANCH  25  26
HETATM   26  C   UNL     1     -11.363  11.050  68.919  1.00  0.00    -0.280 C  
HETATM   27  O   UNL     1     -12.281  10.839  68.133  1.00  0.00    -0.399 OA 
BRANCH  26  28
HETATM   28  C   UNL     1     -11.587  11.420  70.382  1.00  0.00    -0.172 C  
BRANCH  28  29
HETATM   29  C   UNL     1     -12.784  10.669  70.987  1.00  0.00    -0.512 C  
HETATM   30  C   UNL     1     -11.567   8.827  72.325  1.00  0.00    -0.391 C  
HETATM   31  C   UNL     1     -13.945   8.552  71.656  1.00  0.00    -0.463 C  
HETATM   32  C   UNL     1     -12.599   9.156  71.245  1.00  0.00    -0.351 C  
ENDBRANCH  28  29
BRANCH  28  33
HETATM   33  N   UNL     1     -11.708  12.873  70.486  1.00  0.00    -0.507 N  
HETATM   34  C   UNL     1     -12.604  13.482  71.318  1.00  0.00    -0.341 C  
HETATM   35  O   UNL     1     -13.421  12.908  72.021  1.00  0.00    -0.494 OA 
HETATM   36  H   UNL     1     -11.097  13.457  69.913  1.00  0.00     0.000 HD 
ENDBRANCH  28  33
ENDBRANCH  26  28
ENDBRANCH  25  26
ENDBRANCH  12  25
ENDBRANCH  11  12
ENDBRANCH  10  11
ENDBRANCH   9  10
ENDBRANCH   8   9
ENDBRANCH   7   8
ENDBRANCH   6   7
ENDBRANCH   5   6
ENDBRANCH   4   5
ENDBRANCH   3   4
ENDBRANCH   2   3
TORSDOF 22
ENDMDL
MODEL      469
REMARK 921   NORMALIZED FREE ENERGY PREDICTED BY IDOCK:   -0.96 KCAL/MOL
REMARK 922        TOTAL FREE ENERGY PREDICTED BY IDOCK:   -5.80 KCAL/MOL
REMARK 923 INTER-LIGAND FREE ENERGY PREDICTED BY IDOCK:   -5.10 KCAL/MOL
REMARK 924 INTRA-LIGAND FREE ENERGY PREDICTED BY IDOCK:   -0.70 KCAL/MOL
REMARK 927      BINDING AFFINITY PREDICTED BY RF-SCORE:    0.00 PKD
ROOT
HETATM    1  C   UNL     1      -9.020   2.378  73.766  1.00  0.00    -0.073 C  
HETATM    2  C   UNL     1      -9.329   1.979  72.332  1.00  0.00    -0.132 C  
ENDROOT
BRANCH   2   3
HETATM    3  C   UNL     1      -8.320   2.596  71.368  1.00  0.00    -0.082 C  
BRANCH   3   4
HETATM    4  C   UNL     1      -8.741   3.994  70.926  1.00  0.00    -0.118 C  
BRANCH   4   5
HETATM    5  C   UNL     1      -9.550   3.932  69.628  1.00  0.00    -0.259 C  
BRANCH   5   6
HETATM    6  C   UNL     1      -8.922   2.944  68.654  1.00  0.00    -0.191 C  
BRANCH   6   7
HETATM    7  C   UNL     1      -7.853   3.593  67.773  1.00  0.00    -0.077 C  
BRANCH   7   8
HETATM    8  C   UNL     1      -8.399   3.708  66.354  1.00  0.00    -0.105 C  
BRANCH   8   9
HETATM    9  C   UNL     1      -9.904   3.483  66.248  1.00  0.00     0.057 C  
BRANCH   9  10
HETATM   10  C   UNL     1     -10.593   4.851  66.237  1.00  0.00    -0.307 C  
BRANCH  10  11
HETATM   11  C   UNL     1      -9.756   5.962  65.621  1.00  0.00     0.250 C  
BRANCH  11  12
HETATM   12  C   UNL     1      -9.657   7.270  66.427  1.00  0.00    -0.104 C  
BRANCH  12  13
HETATM   13  C   UNL     1     -10.212   7.203  67.866  1.00  0.00    -0.231 C  
BRANCH  13  14
HETATM   14  C   UNL     1     -10.349   8.565  68.556  1.00  0.00    -0.198 C  
HETATM   15  O   UNL     1      -9.086   9.288  68.617  1.00  0.00    -0.132 OA 
HETATM   16  O   UNL     1      -8.251   9.799  70.703  1.00  0.00    -0.246 OA 
HETATM   17  C   UNL     1     -10.403   8.545  70.109  1.00  0.00    -0.214 C  
HETATM   18  C   UNL     1      -9.075   9.312  69.968  1.00  0.00    -0.210 C  
BRANCH  17  19
HETATM   19  C   UNL     1     -11.484   9.327  70.849  1.00  0.00    -0.367 C  
BRANCH  19  20
HETATM   20  C   UNL     1     -12.582   8.388  71.341  1.00  0.00    -0.299 C  
BRANCH  20  21
HETATM   21  C   UNL     1     -12.358   7.981  72.800  1.00  0.00    -0.065 C  
BRANCH  21  22
HETATM   22  C   UNL     1     -10.883   8.104  73.186  1.00  0.00    -0.028 C  
BRANCH  22  23
HETATM   23  C   UNL     1     -10.122   6.800  72.944  1.00  0.00    -0.201 C  
HETATM   24  C   UNL     1     -10.542   5.726  73.938  1.00  0.00    -0.266 C  
ENDBRANCH  22  23
ENDBRANCH  21  22
ENDBRANCH  20  21
ENDBRANCH  19  20
ENDBRANCH  17  19
ENDBRANCH  13  14
ENDBRANCH  12  13
BRANCH  12  25
HETATM   25  O   UNL     1      -8.283   7.713  66.517  1.00  0.00    -0.117 OA 
BRANCH  25  26
HETATM   26  C   UNL     1      -7.682   8.133  65.369  1.00  0.00    -0.101 C  
HETATM   27  O   UNL     1      -6.923   7.471  64.669  1.00  0.00    -0.049 OA 
BRANCH  26  28
HETATM   28  C   UNL     1      -8.094   9.563  65.031  1.00  0.00    -0.125 C  
BRANCH  28  29
HETATM   29  C   UNL     1      -7.789  10.535  66.181  1.00  0.00    -0.145 C  
HETATM   30  C   UNL     1      -5.274  10.964  65.793  1.00  0.00    -0.133 C  
HETATM   31  C   UNL     1      -6.306  11.381  68.015  1.00  0.00    -0.053 C  
HETATM   32  C   UNL     1      -6.358  10.498  66.766  1.00  0.00    -0.079 C  
ENDBRANCH  28  29
BRANCH  28  33
HETATM   33  N   UNL     1      -9.501   9.565  64.633  1.00  0.00    -0.441 N  
HETATM   34  C   UNL     1     -10.448  10.312  65.274  1.00  0.00    -0.029 C  
HETATM   35  O   UNL     1     -10.253  11.011  66.256  1.00  0.00    -0.230 OA 
HETATM   36  H   UNL     1      -9.787   8.985  63.844  1.00  0.00     0.000 HD 
ENDBRANCH  28  33
ENDBRANCH  26  28
ENDBRANCH  25  26
ENDBRANCH  12  25
ENDBRANCH  11  12
ENDBRANCH  10  11
ENDBRANCH   9  10
ENDBRANCH   8   9
ENDBRANCH   7   8
ENDBRANCH   6   7
ENDBRANCH   5   6
ENDBRANCH   4   5
ENDBRANCH   3   4
ENDBRANCH   2   3
TORSDOF 22
ENDMDL
MODEL      470
REMARK 921   NORMALIZED FREE ENERGY PREDICTED BY IDOCK:   -0.91 KCAL/MOL
REMARK 922        TOTAL FREE ENERGY PREDICTED BY IDOCK:   -5.70 KCAL/MOL
REMARK 923 INTER-LIGAND FREE ENERGY PREDICTED BY IDOCK:   -3.56 KCAL/MOL
REMARK 924 INTRA-LIGAND FREE ENERGY PREDICTED BY IDOCK:   -2.13 KCAL/MOL
REMARK 927      BINDING AFFINITY PREDICTED BY RF-SCORE:    0.00 PKD
ROOT
HETATM    1  C   UNL     1     -10.927  19.479  68.273  1.00  0.00     0.270 C  
HETATM    2  C   UNL     1     -11.161  18.618  67.043  1.00  0.00     0.060 C  
ENDROOT
BRANCH   2   3
HETATM    3  C   UNL     1      -9.854  17.996  66.560  1.00  0.00    -0.353 C  
BRANCH   3   4
HETATM    4  C   UNL     1      -9.468  16.775  67.390  1.00  0.00    -0.236 C  
BRANCH   4   5
HETATM    5  C   UNL     1     -10.305  15.559  66.989  1.00  0.00    -0.279 C  
BRANCH   5   6
HETATM    6  C   UNL     1     -11.132  15.067  68.169  1.00  0.00    -0.296 C  
BRANCH   6   7
HETATM    7  C   UNL     1     -10.818  13.615  68.536  1.00  0.00    -0.275 C  
BRANCH   7   8
HETATM    8  C   UNL     1     -11.834  12.711  67.846  1.00  0.00    -0.388 C  
BRANCH   8   9
HETATM    9  C   UNL     1     -11.273  11.943  66.654  1.00  0.00    -0.384 C  
BRANCH   9  10
HETATM   10  C   UNL     1     -11.067  10.485  67.077  1.00  0.00    -0.183 C  
BRANCH  10  11
HETATM   11  C   UNL     1      -9.675   9.945  66.784  1.00  0.00    -0.244 C  
BRANCH  11  12
HETATM   12  C   UNL     1      -8.560  10.991  66.603  1.00  0.00    -0.157 C  
BRANCH  12  13
HETATM   13  C   UNL     1      -7.499  11.027  67.725  1.00  0.00    -0.094 C  
BRANCH  13  14
HETATM   14  C   UNL     1      -7.752  10.034  68.866  1.00  0.00    -0.089 C  
HETATM   15  O   UNL     1      -6.980  10.349  70.060  1.00  0.00    -0.137 OA 
HETATM   16  O   UNL     1      -5.467   8.774  70.796  1.00  0.00    -0.027 OA 
HETATM   17  C   UNL     1      -7.018   8.668  68.762  1.00  0.00    -0.063 C  
HETATM   18  C   UNL     1      -6.310   9.176  70.031  1.00  0.00    -0.039 C  
BRANCH  17  19
HETATM   19  C   UNL     1      -7.787   7.367  68.969  1.00  0.00    -0.120 C  
BRANCH  19  20
HETATM   20  C   UNL     1      -6.872   6.164  68.760  1.00  0.00    -0.066 C  
BRANCH  20  21
HETATM   21  C   UNL     1      -7.660   4.937  68.292  1.00  0.00    -0.078 C  
BRANCH  21  22
HETATM   22  C   UNL     1      -8.683   4.504  69.344  1.00  0.00    -0.117 C  
BRANCH  22  23
HETATM   23  C   UNL     1      -9.748   3.580  68.754  1.00  0.00    -0.027 C  
HETATM   24  C   UNL     1      -9.633   2.173  69.326  1.00  0.00    -0.046 C  
ENDBRANCH  22  23
ENDBRANCH  21  22
ENDBRANCH  20  21
ENDBRANCH  19  20
ENDBRANCH  17  19
ENDBRANCH  13  14
ENDBRANCH  12  13
BRANCH  12  25
HETATM   25  O   UNL     1      -7.858  10.782  65.355  1.00  0.00    -0.111 OA 
BRANCH  25  26
HETATM   26  C   UNL     1      -8.486  10.041  64.400  1.00  0.00    -0.173 C  
HETATM   27  O   UNL     1      -9.361  10.438  63.639  1.00  0.00    -0.243 OA 
BRANCH  26  28
HETATM   28  C   UNL     1      -7.939   8.616  64.370  1.00  0.00    -0.146 C  
BRANCH  28  29
HETATM   29  C   UNL     1      -8.826   7.644  65.164  1.00  0.00     0.171 C  
HETATM   30  C   UNL     1      -7.551   5.429  64.806  1.00  0.00    -0.084 C  
HETATM   31  C   UNL     1      -9.952   5.424  65.451  1.00  0.00     0.282 C  
HETATM   32  C   UNL     1      -8.876   6.181  64.667  1.00  0.00     0.318 C  
ENDBRANCH  28  29
BRANCH  28  33
HETATM   33  N   UNL     1      -6.551   8.636  64.831  1.00  0.00    -0.068 N  
HETATM   34  C   UNL     1      -5.507   8.974  64.018  1.00  0.00    -0.061 C  
HETATM   35  O   UNL     1      -5.595   9.248  62.831  1.00  0.00    -0.079 OA 
HETATM   36  H   UNL     1      -6.355   8.387  65.801  1.00  0.00     0.000 HD 
ENDBRANCH  28  33
ENDBRANCH  26  28
ENDBRANCH  25  26
ENDBRANCH  12  25
ENDBRANCH  11  12
ENDBRANCH  10  11
ENDBRANCH   9  10
ENDBRANCH   8   9
ENDBRANCH   7   8
ENDBRANCH   6   7
ENDBRANCH   5   6
ENDBRANCH   4   5
ENDBRANCH   3   4
ENDBRANCH   2   3
TORSDOF 22
ENDMDL
MODEL      471
REMARK 921   NORMALIZED FREE ENERGY PREDICTED BY IDOCK:   -0.75 KCAL/MOL
REMARK 922        TOTAL FREE ENERGY PREDICTED BY IDOCK:   -5.33 KCAL/MOL
REMARK 923 INTER-LIGAND FREE ENERGY PREDICTED BY IDOCK:   -6.70 KCAL/MOL
REMARK 924 INTRA-LIGAND FREE ENERGY PREDICTED BY IDOCK:    1.37 KCAL/MOL
REMARK 927      BINDING AFFINITY PREDICTED BY RF-SCORE:    0.00 PKD
ROOT
HETATM    1  C   UNL     1     -11.666  16.165  71.236  1.00  0.00    -0.480 C  
HETATM    2  C   UNL     1     -12.835  15.414  70.619  1.00  0.00    -0.484 C  
ENDROOT
BRANCH   2   3
HETATM    3  C   UNL     1     -12.340  14.304  69.696  1.00  0.00    -0.312 C  
BRANCH   3   4
HETATM    4  C   UNL     1     -11.408  14.841  68.614  1.00  0.00    -0.305 C  
BRANCH   4   5
HETATM    5  C   UNL     1     -11.994  14.595  67.222  1.00  0.00    -0.312 C  
BRANCH   5   6
HETATM    6  C   UNL     1     -11.666  13.187  66.744  1.00  0.00    -0.439 C  
BRANCH   6   7
HETATM    7  C   UNL     1     -10.260  12.745  67.156  1.00  0.00    -0.235 C  
BRANCH   7   8
HETATM    8  C   UNL     1     -10.009  11.348  66.600  1.00  0.00    -0.239 C  
BRANCH   8   9
HETATM    9  C   UNL     1     -10.395  10.222  67.553  1.00  0.00    -0.276 C  
BRANCH   9  10
HETATM   10  C   UNL     1      -9.457   9.038  67.300  1.00  0.00    -0.189 C  
BRANCH  10  11
HETATM   11  C   UNL     1      -8.400   8.843  68.377  1.00  0.00    -0.125 C  
BRANCH  11  12
HETATM   12  C   UNL     1      -7.189   7.972  67.998  1.00  0.00    -0.094 C  
BRANCH  12  13
HETATM   13  C   UNL     1      -6.998   6.699  68.851  1.00  0.00    -0.079 C  
BRANCH  13  14
HETATM   14  C   UNL     1      -8.262   6.232  69.583  1.00  0.00    -0.124 C  
HETATM   15  O   UNL     1      -8.098   4.922  70.198  1.00  0.00    -0.071 OA 
HETATM   16  O   UNL     1      -9.485   3.227  69.482  1.00  0.00    -0.164 OA 
HETATM   17  C   UNL     1      -9.399   5.661  68.690  1.00  0.00    -0.142 C  
HETATM   18  C   UNL     1      -9.082   4.365  69.458  1.00  0.00    -0.115 C  
BRANCH  17  19
HETATM   19  C   UNL     1     -10.834   6.145  68.874  1.00  0.00    -0.406 C  
BRANCH  19  20
HETATM   20  C   UNL     1     -11.226   6.113  70.349  1.00  0.00    -0.423 C  
BRANCH  20  21
HETATM   21  C   UNL     1     -11.779   7.465  70.810  1.00  0.00    -0.305 C  
BRANCH  21  22
HETATM   22  C   UNL     1     -11.616   7.641  72.321  1.00  0.00    -0.370 C  
BRANCH  22  23
HETATM   23  C   UNL     1     -10.263   8.256  72.678  1.00  0.00    -0.368 C  
HETATM   24  C   UNL     1      -9.307   7.201  73.219  1.00  0.00    -0.205 C  
ENDBRANCH  22  23
ENDBRANCH  21  22
ENDBRANCH  20  21
ENDBRANCH  19  20
ENDBRANCH  17  19
ENDBRANCH  13  14
ENDBRANCH  12  13
BRANCH  12  25
HETATM   25  O   UNL     1      -7.271   7.555  66.615  1.00  0.00    -0.079 OA 
BRANCH  25  26
HETATM   26  C   UNL     1      -6.368   6.630  66.185  1.00  0.00    -0.042 C  
HETATM   27  O   UNL     1      -5.150   6.702  66.304  1.00  0.00    -0.015 OA 
BRANCH  26  28
HETATM   28  C   UNL     1      -7.073   5.443  65.536  1.00  0.00    -0.067 C  
BRANCH  28  29
HETATM   29  C   UNL     1      -6.115   4.611  64.668  1.00  0.00    -0.029 C  
HETATM   30  C   UNL     1      -5.543   6.314  62.816  1.00  0.00    -0.022 C  
HETATM   31  C   UNL     1      -5.238   3.876  62.439  1.00  0.00    -0.005 C  
HETATM   32  C   UNL     1      -6.091   4.927  63.155  1.00  0.00    -0.021 C  
ENDBRANCH  28  29
BRANCH  28  33
HETATM   33  N   UNL     1      -8.238   5.933  64.800  1.00  0.00    -0.136 N  
HETATM   34  C   UNL     1      -8.223   7.095  64.083  1.00  0.00     0.054 C  
HETATM   35  O   UNL     1      -7.280   7.868  64.007  1.00  0.00    -0.075 OA 
HETATM   36  H   UNL     1      -9.098   5.384  64.823  1.00  0.00     0.000 HD 
ENDBRANCH  28  33
ENDBRANCH  26  28
ENDBRANCH  25  26
ENDBRANCH  12  25
ENDBRANCH  11  12
ENDBRANCH  10  11
ENDBRANCH   9  10
ENDBRANCH   8   9
ENDBRANCH   7   8
ENDBRANCH   6   7
ENDBRANCH   5   6
ENDBRANCH   4   5
ENDBRANCH   3   4
ENDBRANCH   2   3
TORSDOF 22
ENDMDL
MODEL      472
REMARK 921   NORMALIZED FREE ENERGY PREDICTED BY IDOCK:   -0.68 KCAL/MOL
REMARK 922        TOTAL FREE ENERGY PREDICTED BY IDOCK:   -5.17 KCAL/MOL
REMARK 923 INTER-LIGAND FREE ENERGY PREDICTED BY IDOCK:   -4.15 KCAL/MOL
REMARK 924 INTRA-LIGAND FREE ENERGY PREDICTED BY IDOCK:   -1.03 KCAL/MOL
REMARK 927      BINDING AFFINITY PREDICTED BY RF-SCORE:    0.00 PKD
ROOT
HETATM    1  C   UNL     1     -13.155  13.006  71.243  1.00  0.00    -0.263 C  
HETATM    2  C   UNL     1     -12.184  12.159  70.436  1.00  0.00    -0.378 C  
ENDROOT
BRANCH   2   3
HETATM    3  C   UNL     1     -12.932  11.283  69.435  1.00  0.00     0.929 C  
BRANCH   3   4
HETATM    4  C   UNL     1     -11.981  10.619  68.444  1.00  0.00     0.108 C  
BRANCH   4   5
HETATM    5  C   UNL     1     -10.525  10.820  68.870  1.00  0.00    -0.228 C  
BRANCH   5   6
HETATM    6  C   UNL     1      -9.582  10.522  67.712  1.00  0.00    -0.173 C  
BRANCH   6   7
HETATM    7  C   UNL     1     -10.023  11.200  66.413  1.00  0.00    -0.257 C  
BRANCH   7   8
HETATM    8  C   UNL     1      -9.263  10.565  65.254  1.00  0.00    -0.238 C  
BRANCH   8   9
HETATM    9  C   UNL     1      -7.748  10.714  65.349  1.00  0.00    -0.051 C  
BRANCH   9  10
HETATM   10  C   UNL     1      -7.238   9.753  66.426  1.00  0.00    -0.095 C  
BRANCH  10  11
HETATM   11  C   UNL     1      -5.821  10.045  66.897  1.00  0.00    -0.051 C  
BRANCH  11  12
HETATM   12  C   UNL     1      -5.686  10.939  68.143  1.00  0.00    -0.046 C  
BRANCH  12  13
HETATM   13  C   UNL     1      -6.999  11.582  68.640  1.00  0.00    -0.089 C  
BRANCH  13  14
HETATM   14  C   UNL     1      -7.293  12.964  68.045  1.00  0.00    -0.120 C  
HETATM   15  O   UNL     1      -6.180  13.889  68.208  1.00  0.00    -0.089 OA 
HETATM   16  O   UNL     1      -6.555  15.802  69.437  1.00  0.00    -0.152 OA 
HETATM   17  C   UNL     1      -8.188  13.904  68.900  1.00  0.00     0.051 C  
HETATM   18  C   UNL     1      -6.904  14.753  68.953  1.00  0.00    -0.105 C  
BRANCH  17  19
HETATM   19  C   UNL     1      -9.371  14.624  68.263  1.00  0.00    -0.199 C  
BRANCH  19  20
HETATM   20  C   UNL     1      -9.021  15.089  66.853  1.00  0.00    -0.276 C  
BRANCH  20  21
HETATM   21  C   UNL     1      -9.167  16.607  66.712  1.00  0.00    -0.259 C  
BRANCH  21  22
HETATM   22  C   UNL     1      -7.852  17.249  66.265  1.00  0.00    -0.344 C  
BRANCH  22  23
HETATM   23  C   UNL     1      -7.259  18.146  67.352  1.00  0.00    -0.208 C  
HETATM   24  C   UNL     1      -5.747  17.986  67.432  1.00  0.00    -0.152 C  
ENDBRANCH  22  23
ENDBRANCH  21  22
ENDBRANCH  20  21
ENDBRANCH  19  20
ENDBRANCH  17  19
ENDBRANCH  13  14
ENDBRANCH  12  13
BRANCH  12  25
HETATM   25  O   UNL     1      -5.125  10.196  69.250  1.00  0.00    -0.036 OA 
BRANCH  25  26
HETATM   26  C   UNL     1      -5.900  10.045  70.360  1.00  0.00    -0.071 C  
HETATM   27  O   UNL     1      -5.976  10.831  71.298  1.00  0.00    -0.349 OA 
BRANCH  26  28
HETATM   28  C   UNL     1      -6.705   8.751  70.289  1.00  0.00    -0.041 C  
BRANCH  28  29
HETATM   29  C   UNL     1      -7.142   8.269  71.682  1.00  0.00    -0.084 C  
HETATM   30  C   UNL     1      -9.650   7.823  71.271  1.00  0.00    -0.178 C  
HETATM   31  C   UNL     1      -8.785   8.195  73.572  1.00  0.00    -0.317 C  
HETATM   32  C   UNL     1      -8.601   8.568  72.098  1.00  0.00    -0.242 C  
ENDBRANCH  28  29
BRANCH  28  33
HETATM   33  N   UNL     1      -5.929   7.754  69.553  1.00  0.00    -0.029 N  
HETATM   34  C   UNL     1      -6.416   6.514  69.252  1.00  0.00    -0.040 C  
HETATM   35  O   UNL     1      -7.507   6.081  69.590  1.00  0.00    -0.076 OA 
HETATM   36  H   UNL     1      -4.985   7.995  69.251  1.00  0.00     0.000 HD 
ENDBRANCH  28  33
ENDBRANCH  26  28
ENDBRANCH  25  26
ENDBRANCH  12  25
ENDBRANCH  11  12
ENDBRANCH  10  11
ENDBRANCH   9  10
ENDBRANCH   8   9
ENDBRANCH   7   8
ENDBRANCH   6   7
ENDBRANCH   5   6
ENDBRANCH   4   5
ENDBRANCH   3   4
ENDBRANCH   2   3
TORSDOF 22
ENDMDL
MODEL      473
REMARK 921   NORMALIZED FREE ENERGY PREDICTED BY IDOCK:   -0.65 KCAL/MOL
REMARK 922        TOTAL FREE ENERGY PREDICTED BY IDOCK:   -5.11 KCAL/MOL
REMARK 923 INTER-LIGAND FREE ENERGY PREDICTED BY IDOCK:   -5.14 KCAL/MOL
REMARK 924 INTRA-LIGAND FREE ENERGY PREDICTED BY IDOCK:    0.03 KCAL/MOL
REMARK 927      BINDING AFFINITY PREDICTED BY RF-SCORE:    0.00 PKD
ROOT
HETATM    1  C   UNL     1      -9.946   4.897  70.907  1.00  0.00    -0.287 C  
HETATM    2  C   UNL     1      -8.699   4.415  71.630  1.00  0.00    -0.138 C  
ENDROOT
BRANCH   2   3
HETATM    3  C   UNL     1      -8.798   4.694  73.127  1.00  0.00    -0.111 C  
BRANCH   3   4
HETATM    4  C   UNL     1      -8.468   6.147  73.455  1.00  0.00    -0.119 C  
BRANCH   4   5
HETATM    5  C   UNL     1      -7.438   6.705  72.470  1.00  0.00    -0.089 C  
BRANCH   5   6
HETATM    6  C   UNL     1      -7.687   8.187  72.220  1.00  0.00    -0.155 C  
BRANCH   6   7
HETATM    7  C   UNL     1      -7.257   8.622  70.818  1.00  0.00    -0.067 C  
BRANCH   7   8
HETATM    8  C   UNL     1      -8.354   9.498  70.224  1.00  0.00    -0.221 C  
BRANCH   8   9
HETATM    9  C   UNL     1      -7.960  10.191  68.924  1.00  0.00    -0.110 C  
BRANCH   9  10
HETATM   10  C   UNL     1      -7.224  11.487  69.277  1.00  0.00    -0.048 C  
BRANCH  10  11
HETATM   11  C   UNL     1      -7.752  12.717  68.554  1.00  0.00    -0.114 C  
BRANCH  11  12
HETATM   12  C   UNL     1      -9.283  12.869  68.493  1.00  0.00    -0.062 C  
BRANCH  12  13
HETATM   13  C   UNL     1      -9.946  13.400  69.783  1.00  0.00     1.405 C  
BRANCH  13  14
HETATM   14  C   UNL     1     -11.469  13.224  69.831  1.00  0.00    -0.100 C  
HETATM   15  O   UNL     1     -12.175  14.309  69.164  1.00  0.00    -0.316 OA 
HETATM   16  O   UNL     1     -13.610  15.587  70.437  1.00  0.00    -0.228 OA 
HETATM   17  C   UNL     1     -12.162  13.606  71.168  1.00  0.00    -0.326 C  
HETATM   18  C   UNL     1     -12.816  14.689  70.292  1.00  0.00    -0.206 C  
BRANCH  17  19
HETATM   19  C   UNL     1     -13.163  12.653  71.812  1.00  0.00    -0.457 C  
BRANCH  19  20
HETATM   20  C   UNL     1     -12.888  11.215  71.382  1.00  0.00    -0.544 C  
BRANCH  20  21
HETATM   21  C   UNL     1     -14.106  10.318  71.616  1.00  0.00     0.438 C  
BRANCH  21  22
HETATM   22  C   UNL     1     -13.712   9.030  72.342  1.00  0.00    -0.539 C  
BRANCH  22  23
HETATM   23  C   UNL     1     -12.500   8.361  71.695  1.00  0.00    -0.363 C  
HETATM   24  C   UNL     1     -11.358   8.213  72.692  1.00  0.00    -0.450 C  
ENDBRANCH  22  23
ENDBRANCH  21  22
ENDBRANCH  20  21
ENDBRANCH  19  20
ENDBRANCH  17  19
ENDBRANCH  13  14
ENDBRANCH  12  13
BRANCH  12  25
HETATM   25  O   UNL     1      -9.668  13.755  67.416  1.00  0.00    -0.226 OA 
BRANCH  25  26
HETATM   26  C   UNL     1      -9.668  13.244  66.154  1.00  0.00    -0.250 C  
HETATM   27  O   UNL     1      -8.895  12.397  65.719  1.00  0.00     0.163 OA 
BRANCH  26  28
HETATM   28  C   UNL     1     -10.792  13.853  65.320  1.00  0.00    -0.333 C  
BRANCH  28  29
HETATM   29  C   UNL     1     -10.537  15.337  65.011  1.00  0.00    -0.444 C  
HETATM   30  C   UNL     1      -8.552  15.822  66.586  1.00  0.00    -0.322 C  
HETATM   31  C   UNL     1      -9.974  17.671  65.726  1.00  0.00    -0.029 C  
HETATM   32  C   UNL     1      -9.971  16.202  66.160  1.00  0.00    -0.357 C  
ENDBRANCH  28  29
BRANCH  28  33
HETATM   33  N   UNL     1     -12.063  13.617  66.002  1.00  0.00    -0.414 N  
HETATM   34  C   UNL     1     -13.250  14.113  65.544  1.00  0.00     0.068 C  
HETATM   35  O   UNL     1     -13.387  14.830  64.565  1.00  0.00     0.210 OA 
HETATM   36  H   UNL     1     -12.064  13.058  66.856  1.00  0.00     0.000 HD 
ENDBRANCH  28  33
ENDBRANCH  26  28
ENDBRANCH  25  26
ENDBRANCH  12  25
ENDBRANCH  11  12
ENDBRANCH  10  11
ENDBRANCH   9  10
ENDBRANCH   8   9
ENDBRANCH   7   8
ENDBRANCH   6   7
ENDBRANCH   5   6
ENDBRANCH   4   5
ENDBRANCH   3   4
ENDBRANCH   2   3
TORSDOF 22
ENDMDL
MODEL      474
REMARK 921   NORMALIZED FREE ENERGY PREDICTED BY IDOCK:   -0.55 KCAL/MOL
REMARK 922        TOTAL FREE ENERGY PREDICTED BY IDOCK:   -4.88 KCAL/MOL
REMARK 923 INTER-LIGAND FREE ENERGY PREDICTED BY IDOCK:   -4.50 KCAL/MOL
REMARK 924 INTRA-LIGAND FREE ENERGY PREDICTED BY IDOCK:   -0.38 KCAL/MOL
REMARK 927      BINDING AFFINITY PREDICTED BY RF-SCORE:    0.00 PKD
ROOT
HETATM    1  C   UNL     1      -6.187  13.766  73.110  1.00  0.00     1.244 C  
HETATM    2  C   UNL     1      -5.256  13.173  72.065  1.00  0.00    -0.048 C  
ENDROOT
BRANCH   2   3
HETATM    3  C   UNL     1      -5.134  14.099  70.858  1.00  0.00    -0.112 C  
BRANCH   3   4
HETATM    4  C   UNL     1      -6.063  13.677  69.724  1.00  0.00    -0.126 C  
BRANCH   4   5
HETATM    5  C   UNL     1      -7.337  14.523  69.723  1.00  0.00     0.044 C  
BRANCH   5   6
HETATM    6  C   UNL     1      -7.774  14.829  68.297  1.00  0.00    -0.120 C  
BRANCH   6   7
HETATM    7  C   UNL     1      -7.454  13.687  67.331  1.00  0.00    -0.139 C  
BRANCH   7   8
HETATM    8  C   UNL     1      -7.818  12.368  68.003  1.00  0.00    -0.141 C  
BRANCH   8   9
HETATM    9  C   UNL     1      -7.068  11.161  67.448  1.00  0.00    -0.102 C  
BRANCH   9  10
HETATM   10  C   UNL     1      -7.027  11.282  65.922  1.00  0.00     0.220 C  
BRANCH  10  11
HETATM   11  C   UNL     1      -7.897  10.268  65.196  1.00  0.00    -0.138 C  
BRANCH  11  12
HETATM   12  C   UNL     1      -9.412  10.355  65.457  1.00  0.00    -0.215 C  
BRANCH  12  13
HETATM   13  C   UNL     1      -9.863   9.935  66.874  1.00  0.00    -0.252 C  
BRANCH  13  14
HETATM   14  C   UNL     1      -9.380   8.544  67.305  1.00  0.00    -0.149 C  
HETATM   15  O   UNL     1      -8.471   7.946  66.337  1.00  0.00    -0.124 OA 
HETATM   16  O   UNL     1      -9.116   5.963  65.355  1.00  0.00    -0.075 OA 
HETATM   17  C   UNL     1     -10.376   7.373  67.082  1.00  0.00    -0.377 C  
HETATM   18  C   UNL     1      -9.289   6.896  66.102  1.00  0.00    -0.042 C  
BRANCH  17  19
HETATM   19  C   UNL     1     -10.661   6.384  68.208  1.00  0.00    -0.312 C  
BRANCH  19  20
HETATM   20  C   UNL     1      -9.517   5.384  68.345  1.00  0.00    -0.153 C  
BRANCH  20  21
HETATM   21  C   UNL     1      -9.801   4.356  69.444  1.00  0.00    -0.239 C  
BRANCH  21  22
HETATM   22  C   UNL     1      -8.507   3.713  69.947  1.00  0.00    -0.091 C  
BRANCH  22  23
HETATM   23  C   UNL     1      -8.127   4.217  71.339  1.00  0.00    -0.077 C  
HETATM   24  C   UNL     1      -7.314   5.501  71.255  1.00  0.00    -0.085 C  
ENDBRANCH  22  23
ENDBRANCH  21  22
ENDBRANCH  20  21
ENDBRANCH  19  20
ENDBRANCH  17  19
ENDBRANCH  13  14
ENDBRANCH  12  13
BRANCH  12  25
HETATM   25  O   UNL     1      -9.894  11.701  65.235  1.00  0.00    -0.239 OA 
BRANCH  25  26
HETATM   26  C   UNL     1     -11.201  11.954  65.523  1.00  0.00    -0.299 C  
HETATM   27  O   UNL     1     -12.157  11.251  65.213  1.00  0.00     0.294 OA 
BRANCH  26  28
HETATM   28  C   UNL     1     -11.341  13.247  66.322  1.00  0.00    -0.309 C  
BRANCH  28  29
HETATM   29  C   UNL     1     -11.930  12.997  67.719  1.00  0.00    -0.344 C  
HETATM   30  C   UNL     1     -11.653  15.332  68.781  1.00  0.00    -0.379 C  
HETATM   31  C   UNL     1     -11.914  13.311  70.205  1.00  0.00    -0.388 C  
HETATM   32  C   UNL     1     -11.351  13.836  68.881  1.00  0.00    -0.328 C  
ENDBRANCH  28  29
BRANCH  28  33
HETATM   33  N   UNL     1     -12.115  14.205  65.534  1.00  0.00    -0.395 N  
HETATM   34  C   UNL     1     -11.536  15.083  64.662  1.00  0.00    -0.386 C  
HETATM   35  O   UNL     1     -10.336  15.205  64.473  1.00  0.00    -0.114 OA 
HETATM   36  H   UNL     1     -13.130  14.218  65.639  1.00  0.00     0.000 HD 
ENDBRANCH  28  33
ENDBRANCH  26  28
ENDBRANCH  25  26
ENDBRANCH  12  25
ENDBRANCH  11  12
ENDBRANCH  10  11
ENDBRANCH   9  10
ENDBRANCH   8   9
ENDBRANCH   7   8
ENDBRANCH   6   7
ENDBRANCH   5   6
ENDBRANCH   4   5
ENDBRANCH   3   4
ENDBRANCH   2   3
TORSDOF 22
ENDMDL
MODEL      475
REMARK 921   NORMALIZED FREE ENERGY PREDICTED BY IDOCK:   -0.38 KCAL/MOL
REMARK 922        TOTAL FREE ENERGY PREDICTED BY IDOCK:   -4.49 KCAL/MOL
REMARK 923 INTER-LIGAND FREE ENERGY PREDICTED BY IDOCK:   -5.50 KCAL/MOL
REMARK 924 INTRA-LIGAND FREE ENERGY PREDICTED BY IDOCK:    1.01 KCAL/MOL
REMARK 927      BINDING AFFINITY PREDICTED BY RF-SCORE:    0.00 PKD
ROOT
HETATM    1  C   UNL     1      -9.929  11.150  64.797  1.00  0.00    -0.339 C  
HETATM    2  C   UNL     1      -8.688  10.444  65.319  1.00  0.00    -0.192 C  
ENDROOT
BRANCH   2   3
HETATM    3  C   UNL     1      -7.789  11.415  66.078  1.00  0.00     0.127 C  
BRANCH   3   4
HETATM    4  C   UNL     1      -6.774  10.683  66.950  1.00  0.00    -0.091 C  
BRANCH   4   5
HETATM    5  C   UNL     1      -7.342   9.350  67.442  1.00  0.00    -0.087 C  
BRANCH   5   6
HETATM    6  C   UNL     1      -6.771   8.997  68.809  1.00  0.00    -0.054 C  
BRANCH   6   7
HETATM    7  C   UNL     1      -6.227   7.568  68.862  1.00  0.00    -0.035 C  
BRANCH   7   8
HETATM    8  C   UNL     1      -6.915   6.747  67.778  1.00  0.00    -0.083 C  
BRANCH   8   9
HETATM    9  C   UNL     1      -8.127   5.961  68.268  1.00  0.00    -0.109 C  
BRANCH   9  10
HETATM   10  C   UNL     1      -8.139   6.006  69.799  1.00  0.00    -0.114 C  
BRANCH  10  11
HETATM   11  C   UNL     1      -9.194   6.933  70.384  1.00  0.00    -0.156 C  
BRANCH  11  12
HETATM   12  C   UNL     1      -9.910   6.439  71.654  1.00  0.00    -0.167 C  
BRANCH  12  13
HETATM   13  C   UNL     1     -11.417   6.142  71.490  1.00  0.00    -0.325 C  
BRANCH  13  14
HETATM   14  C   UNL     1     -12.190   7.211  70.708  1.00  0.00    -0.264 C  
HETATM   15  O   UNL     1     -11.504   7.614  69.489  1.00  0.00     0.096 OA 
HETATM   16  O   UNL     1     -10.876   9.823  69.300  1.00  0.00    -0.219 OA 
HETATM   17  C   UNL     1     -12.079   8.666  71.242  1.00  0.00    -0.333 C  
HETATM   18  C   UNL     1     -11.381   8.898  69.890  1.00  0.00     0.017 C  
BRANCH  17  19
HETATM   19  C   UNL     1     -13.336   9.510  71.434  1.00  0.00    -0.435 C  
BRANCH  19  20
HETATM   20  C   UNL     1     -12.988  10.853  72.069  1.00  0.00    -0.418 C  
BRANCH  20  21
HETATM   21  C   UNL     1     -12.369  11.811  71.048  1.00  0.00    -0.386 C  
BRANCH  21  22
HETATM   22  C   UNL     1     -13.244  13.051  70.853  1.00  0.00     0.113 C  
BRANCH  22  23
HETATM   23  C   UNL     1     -12.508  14.151  70.088  1.00  0.00    -0.391 C  
HETATM   24  C   UNL     1     -12.659  15.497  70.782  1.00  0.00    -0.505 C  
ENDBRANCH  22  23
ENDBRANCH  21  22
ENDBRANCH  20  21
ENDBRANCH  19  20
ENDBRANCH  17  19
ENDBRANCH  13  14
ENDBRANCH  12  13
BRANCH  12  25
HETATM   25  O   UNL     1      -9.287   5.234  72.158  1.00  0.00    -0.139 OA 
BRANCH  25  26
HETATM   26  C   UNL     1      -9.686   4.787  73.381  1.00  0.00    -0.136 C  
HETATM   27  O   UNL     1     -10.438   5.372  74.153  1.00  0.00    -0.265 OA 
BRANCH  26  28
HETATM   28  C   UNL     1      -9.085   3.417  73.681  1.00  0.00    -0.093 C  
BRANCH  28  29
HETATM   29  C   UNL     1      -7.897   3.097  72.760  1.00  0.00    -0.063 C  
HETATM   30  C   UNL     1      -5.919   3.541  74.357  1.00  0.00    -0.012 C  
HETATM   31  C   UNL     1      -5.594   3.566  71.892  1.00  0.00    -0.008 C  
HETATM   32  C   UNL     1      -6.585   3.871  73.020  1.00  0.00    -0.037 C  
ENDBRANCH  28  29
BRANCH  28  33
HETATM   33  N   UNL     1     -10.147   2.414  73.620  1.00  0.00    -0.101 N  
HETATM   34  C   UNL     1     -10.482   1.762  72.468  1.00  0.00    -0.156 C  
HETATM   35  O   UNL     1      -9.984   1.962  71.371  1.00  0.00    -0.141 OA 
HETATM   36  H   UNL     1     -10.660   2.192  74.474  1.00  0.00     0.000 HD 
ENDBRANCH  28  33
ENDBRANCH  26  28
ENDBRANCH  25  26
ENDBRANCH  12  25
ENDBRANCH  11  12
ENDBRANCH  10  11
ENDBRANCH   9  10
ENDBRANCH   8   9
ENDBRANCH   7   8
ENDBRANCH   6   7
ENDBRANCH   5   6
ENDBRANCH   4   5
ENDBRANCH   3   4
ENDBRANCH   2   3
TORSDOF 22
ENDMDL
MODEL      476
REMARK 921   NORMALIZED FREE ENERGY PREDICTED BY IDOCK:   -0.37 KCAL/MOL
REMARK 922        TOTAL FREE ENERGY PREDICTED BY IDOCK:   -4.47 KCAL/MOL
REMARK 923 INTER-LIGAND FREE ENERGY PREDICTED BY IDOCK:   -3.53 KCAL/MOL
REMARK 924 INTRA-LIGAND FREE ENERGY PREDICTED BY IDOCK:   -0.94 KCAL/MOL
REMARK 927      BINDING AFFINITY PREDICTED BY RF-SCORE:    0.00 PKD
ROOT
HETATM    1  C   UNL     1     -13.309  13.642  71.020  1.00  0.00    -0.111 C  
HETATM    2  C   UNL     1     -12.296  12.672  70.435  1.00  0.00    -0.315 C  
ENDROOT
BRANCH   2   3
HETATM    3  C   UNL     1     -12.969  11.702  69.467  1.00  0.00     0.976 C  
BRANCH   3   4
HETATM    4  C   UNL     1     -11.955  10.796  68.776  1.00  0.00    -0.157 C  
BRANCH   4   5
HETATM    5  C   UNL     1     -10.624  10.796  69.532  1.00  0.00    -0.235 C  
BRANCH   5   6
HETATM    6  C   UNL     1      -9.541  10.113  68.707  1.00  0.00    -0.170 C  
BRANCH   6   7
HETATM    7  C   UNL     1      -9.443  10.680  67.289  1.00  0.00    -0.178 C  
BRANCH   7   8
HETATM    8  C   UNL     1      -8.691   9.679  66.419  1.00  0.00    -0.148 C  
BRANCH   8   9
HETATM    9  C   UNL     1      -7.279   9.372  66.906  1.00  0.00    -0.087 C  
BRANCH   9  10
HETATM   10  C   UNL     1      -7.380   8.405  68.090  1.00  0.00    -0.096 C  
BRANCH  10  11
HETATM   11  C   UNL     1      -6.045   8.083  68.744  1.00  0.00    -0.040 C  
BRANCH  11  12
HETATM   12  C   UNL     1      -5.658   8.938  69.964  1.00  0.00    -0.028 C  
BRANCH  12  13
HETATM   13  C   UNL     1      -6.504  10.214  70.172  1.00  0.00    -0.118 C  
BRANCH  13  14
HETATM   14  C   UNL     1      -5.999  11.440  69.401  1.00  0.00    -0.066 C  
HETATM   15  O   UNL     1      -5.152  12.300  70.216  1.00  0.00    -0.079 OA 
HETATM   16  O   UNL     1      -5.860  14.464  70.571  1.00  0.00    -0.143 OA 
HETATM   17  C   UNL     1      -7.010  12.609  69.234  1.00  0.00     0.040 C  
HETATM   18  C   UNL     1      -5.986  13.358  70.104  1.00  0.00    -0.139 C  
BRANCH  17  19
HETATM   19  C   UNL     1      -7.229  13.242  67.863  1.00  0.00    -0.137 C  
BRANCH  19  20
HETATM   20  C   UNL     1      -7.255  14.764  67.974  1.00  0.00    -0.145 C  
BRANCH  20  21
HETATM   21  C   UNL     1      -8.562  15.342  67.424  1.00  0.00    -0.197 C  
BRANCH  21  22
HETATM   22  C   UNL     1      -9.235  16.257  68.448  1.00  0.00    -0.203 C  
BRANCH  22  23
HETATM   23  C   UNL     1     -10.757  16.118  68.421  1.00  0.00    -0.298 C  
HETATM   24  C   UNL     1     -11.410  17.351  67.811  1.00  0.00     0.370 C  
ENDBRANCH  22  23
ENDBRANCH  21  22
ENDBRANCH  20  21
ENDBRANCH  19  20
ENDBRANCH  17  19
ENDBRANCH  13  14
ENDBRANCH  12  13
BRANCH  12  25
HETATM   25  O   UNL     1      -5.745   8.163  71.182  1.00  0.00    -0.033 OA 
BRANCH  25  26
HETATM   26  C   UNL     1      -6.876   8.294  71.930  1.00  0.00    -0.082 C  
HETATM   27  O   UNL     1      -7.093   9.171  72.759  1.00  0.00    -0.267 OA 
BRANCH  26  28
HETATM   28  C   UNL     1      -7.883   7.200  71.590  1.00  0.00    -0.097 C  
BRANCH  28  29
HETATM   29  C   UNL     1      -9.301   7.559  72.059  1.00  0.00    -0.165 C  
HETATM   30  C   UNL     1     -10.699   6.696  70.068  1.00  0.00    -0.287 C  
HETATM   31  C   UNL     1     -11.618   8.407  71.620  1.00  0.00    -0.348 C  
HETATM   32  C   UNL     1     -10.338   7.886  70.960  1.00  0.00    -0.221 C  
ENDBRANCH  28  29
BRANCH  28  33
HETATM   33  N   UNL     1      -7.400   5.931  72.134  1.00  0.00    -0.092 N  
HETATM   34  C   UNL     1      -8.031   4.741  71.905  1.00  0.00    -0.105 C  
HETATM   35  O   UNL     1      -9.068   4.600  71.276  1.00  0.00    -0.126 OA 
HETATM   36  H   UNL     1      -6.557   5.935  72.710  1.00  0.00     0.000 HD 
ENDBRANCH  28  33
ENDBRANCH  26  28
ENDBRANCH  25  26
ENDBRANCH  12  25
ENDBRANCH  11  12
ENDBRANCH  10  11
ENDBRANCH   9  10
ENDBRANCH   8   9
ENDBRANCH   7   8
ENDBRANCH   6   7
ENDBRANCH   5   6
ENDBRANCH   4   5
ENDBRANCH   3   4
ENDBRANCH   2   3
TORSDOF 22
ENDMDL
MODEL      477
REMARK 921   NORMALIZED FREE ENERGY PREDICTED BY IDOCK:   -0.33 KCAL/MOL
REMARK 922        TOTAL FREE ENERGY PREDICTED BY IDOCK:   -4.37 KCAL/MOL
REMARK 923 INTER-LIGAND FREE ENERGY PREDICTED BY IDOCK:   -5.57 KCAL/MOL
REMARK 924 INTRA-LIGAND FREE ENERGY PREDICTED BY IDOCK:    1.20 KCAL/MOL
REMARK 927      BINDING AFFINITY PREDICTED BY RF-SCORE:    0.00 PKD
ROOT
HETATM    1  C   UNL     1     -10.041  14.105  65.054  1.00  0.00    -0.326 C  
HETATM    2  C   UNL     1      -9.744  13.184  66.226  1.00  0.00    -0.269 C  
ENDROOT
BRANCH   2   3
HETATM    3  C   UNL     1     -10.911  12.234  66.479  1.00  0.00    -0.320 C  
BRANCH   3   4
HETATM    4  C   UNL     1     -10.815  11.573  67.851  1.00  0.00    -0.257 C  
BRANCH   4   5
HETATM    5  C   UNL     1     -10.665  10.057  67.713  1.00  0.00    -0.333 C  
BRANCH   5   6
HETATM    6  C   UNL     1     -10.265   9.687  66.291  1.00  0.00    -0.286 C  
BRANCH   6   7
HETATM    7  C   UNL     1     -10.030   8.184  66.124  1.00  0.00    -0.017 C  
BRANCH   7   8
HETATM    8  C   UNL     1      -8.534   7.913  66.232  1.00  0.00    -0.139 C  
BRANCH   8   9
HETATM    9  C   UNL     1      -7.948   8.208  67.609  1.00  0.00    -0.122 C  
BRANCH   9  10
HETATM   10  C   UNL     1      -7.380   6.905  68.178  1.00  0.00    -0.097 C  
BRANCH  10  11
HETATM   11  C   UNL     1      -7.080   6.957  69.668  1.00  0.00    -0.068 C  
BRANCH  11  12
HETATM   12  C   UNL     1      -7.490   8.246  70.403  1.00  0.00    -0.067 C  
BRANCH  12  13
HETATM   13  C   UNL     1      -7.948   9.408  69.493  1.00  0.00    -0.098 C  
BRANCH  13  14
HETATM   14  C   UNL     1      -6.833  10.388  69.109  1.00  0.00    -0.066 C  
HETATM   15  O   UNL     1      -6.741  11.515  70.027  1.00  0.00    -0.075 OA 
HETATM   16  O   UNL     1      -7.080  13.624  69.161  1.00  0.00    -0.104 OA 
HETATM   17  C   UNL     1      -7.154  11.370  67.948  1.00  0.00    -0.075 C  
HETATM   18  C   UNL     1      -7.008  12.422  69.062  1.00  0.00    -0.071 C  
BRANCH  17  19
HETATM   19  C   UNL     1      -6.164  11.551  66.802  1.00  0.00    -0.140 C  
BRANCH  19  20
HETATM   20  C   UNL     1      -5.133  10.426  66.800  1.00  0.00    -0.041 C  
BRANCH  20  21
HETATM   21  C   UNL     1      -5.386   9.438  65.657  1.00  0.00    -0.040 C  
BRANCH  21  22
HETATM   22  C   UNL     1      -5.200  10.111  64.296  1.00  0.00    -0.107 C  
BRANCH  22  23
HETATM   23  C   UNL     1      -5.292   9.105  63.148  1.00  0.00    -0.068 C  
HETATM   24  C   UNL     1      -6.719   8.608  62.967  1.00  0.00    -0.090 C  
ENDBRANCH  22  23
ENDBRANCH  21  22
ENDBRANCH  20  21
ENDBRANCH  19  20
ENDBRANCH  17  19
ENDBRANCH  13  14
ENDBRANCH  12  13
BRANCH  12  25
HETATM   25  O   UNL     1      -8.562   7.984  71.338  1.00  0.00    -0.119 OA 
BRANCH  25  26
HETATM   26  C   UNL     1      -9.833   7.978  70.849  1.00  0.00    -0.175 C  
HETATM   27  O   UNL     1     -10.358   8.872  70.194  1.00  0.00    -0.193 OA 
BRANCH  26  28
HETATM   28  C   UNL     1     -10.546   6.676  71.203  1.00  0.00    -0.228 C  
BRANCH  28  29
HETATM   29  C   UNL     1     -10.255   6.238  72.647  1.00  0.00    -0.203 C  
HETATM   30  C   UNL     1     -10.004   3.689  72.333  1.00  0.00    -0.235 C  
HETATM   31  C   UNL     1     -10.533   4.649  74.565  1.00  0.00    -0.306 C  
HETATM   32  C   UNL     1     -10.730   4.824  73.056  1.00  0.00    -0.302 C  
ENDBRANCH  28  29
BRANCH  28  33
HETATM   33  N   UNL     1     -10.193   5.662  70.211  1.00  0.00    -0.222 N  
HETATM   34  C   UNL     1     -10.720   5.645  68.952  1.00  0.00    -0.209 C  
HETATM   35  O   UNL     1     -11.561   6.422  68.526  1.00  0.00    -0.100 OA 
HETATM   36  H   UNL     1      -9.524   4.936  70.471  1.00  0.00     0.000 HD 
ENDBRANCH  28  33
ENDBRANCH  26  28
ENDBRANCH  25  26
ENDBRANCH  12  25
ENDBRANCH  11  12
ENDBRANCH  10  11
ENDBRANCH   9  10
ENDBRANCH   8   9
ENDBRANCH   7   8
ENDBRANCH   6   7
ENDBRANCH   5   6
ENDBRANCH   4   5
ENDBRANCH   3   4
ENDBRANCH   2   3
TORSDOF 22
ENDMDL
MODEL      478
REMARK 921   NORMALIZED FREE ENERGY PREDICTED BY IDOCK:   -0.18 KCAL/MOL
REMARK 922        TOTAL FREE ENERGY PREDICTED BY IDOCK:   -4.02 KCAL/MOL
REMARK 923 INTER-LIGAND FREE ENERGY PREDICTED BY IDOCK:   -3.81 KCAL/MOL
REMARK 924 INTRA-LIGAND FREE ENERGY PREDICTED BY IDOCK:   -0.21 KCAL/MOL
REMARK 927      BINDING AFFINITY PREDICTED BY RF-SCORE:    0.00 PKD
ROOT
HETATM    1  C   UNL     1     -10.981   3.640  63.671  1.00  0.00    -0.100 C  
HETATM    2  C   UNL     1     -11.174   4.452  64.942  1.00  0.00     0.246 C  
ENDROOT
BRANCH   2   3
HETATM    3  C   UNL     1      -9.894   4.470  65.773  1.00  0.00    -0.231 C  
BRANCH   3   4
HETATM    4  C   UNL     1      -8.680   4.042  64.953  1.00  0.00    -0.118 C  
BRANCH   4   5
HETATM    5  C   UNL     1      -8.090   5.234  64.196  1.00  0.00    -0.121 C  
BRANCH   5   6
HETATM    6  C   UNL     1      -8.163   6.496  65.045  1.00  0.00    -0.115 C  
BRANCH   6   7
HETATM    7  C   UNL     1      -7.501   6.318  66.413  1.00  0.00    -0.086 C  
BRANCH   7   8
HETATM    8  C   UNL     1      -8.477   6.782  67.487  1.00  0.00    -0.121 C  
BRANCH   8   9
HETATM    9  C   UNL     1      -9.381   7.930  67.050  1.00  0.00    -0.200 C  
BRANCH   9  10
HETATM   10  C   UNL     1      -9.119   9.124  67.974  1.00  0.00    -0.136 C  
BRANCH  10  11
HETATM   11  C   UNL     1      -7.835   9.877  67.665  1.00  0.00    -0.098 C  
BRANCH  11  12
HETATM   12  C   UNL     1      -7.482  11.043  68.607  1.00  0.00    -0.112 C  
BRANCH  12  13
HETATM   13  C   UNL     1      -7.599  10.732  70.115  1.00  0.00     0.497 C  
BRANCH  13  14
HETATM   14  C   UNL     1      -6.501   9.809  70.658  1.00  0.00    -0.109 C  
HETATM   15  O   UNL     1      -5.470   9.528  69.668  1.00  0.00    -0.034 OA 
HETATM   16  O   UNL     1      -5.166   7.331  69.041  1.00  0.00    -0.014 OA 
HETATM   17  C   UNL     1      -6.846   8.294  70.716  1.00  0.00    -0.039 C  
HETATM   18  C   UNL     1      -5.715   8.199  69.676  1.00  0.00    -0.026 C  
BRANCH  17  19
HETATM   19  C   UNL     1      -6.576   7.496  71.988  1.00  0.00    -0.050 C  
BRANCH  19  20
HETATM   20  C   UNL     1      -7.548   7.902  73.092  1.00  0.00    -0.165 C  
BRANCH  20  21
HETATM   21  C   UNL     1      -8.617   6.830  73.320  1.00  0.00    -0.136 C  
BRANCH  21  22
HETATM   22  C   UNL     1      -9.495   6.654  72.079  1.00  0.00    -0.148 C  
BRANCH  22  23
HETATM   23  C   UNL     1     -10.848   6.034  72.425  1.00  0.00    -0.288 C  
HETATM   24  C   UNL     1     -10.717   5.024  73.557  1.00  0.00    -0.339 C  
ENDBRANCH  22  23
ENDBRANCH  21  22
ENDBRANCH  20  21
ENDBRANCH  19  20
ENDBRANCH  17  19
ENDBRANCH  13  14
ENDBRANCH  12  13
BRANCH  12  25
HETATM   25  O   UNL     1      -6.133  11.506  68.367  1.00  0.00    -0.046 OA 
BRANCH  25  26
HETATM   26  C   UNL     1      -5.984  12.703  67.734  1.00  0.00    -0.126 C  
HETATM   27  O   UNL     1      -5.228  12.933  66.796  1.00  0.00    -0.149 OA 
BRANCH  26  28
HETATM   28  C   UNL     1      -6.912  13.755  68.334  1.00  0.00    -0.103 C  
BRANCH  28  29
HETATM   29  C   UNL     1      -7.813  14.399  67.268  1.00  0.00    -0.188 C  
HETATM   30  C   UNL     1     -10.094  14.349  68.475  1.00  0.00    -0.244 C  
HETATM   31  C   UNL     1      -9.969  14.540  65.999  1.00  0.00    -0.343 C  
HETATM   32  C   UNL     1      -9.291  13.946  67.237  1.00  0.00    -0.231 C  
ENDBRANCH  28  29
BRANCH  28  33
HETATM   33  N   UNL     1      -6.107  14.727  69.071  1.00  0.00    -0.091 N  
HETATM   34  C   UNL     1      -5.721  15.923  68.537  1.00  0.00    -0.100 C  
HETATM   35  O   UNL     1      -5.953  16.297  67.398  1.00  0.00    -0.146 OA 
HETATM   36  H   UNL     1      -5.822  14.503  70.025  1.00  0.00     0.000 HD 
ENDBRANCH  28  33
ENDBRANCH  26  28
ENDBRANCH  25  26
ENDBRANCH  12  25
ENDBRANCH  11  12
ENDBRANCH  10  11
ENDBRANCH   9  10
ENDBRANCH   8   9
ENDBRANCH   7   8
ENDBRANCH   6   7
ENDBRANCH   5   6
ENDBRANCH   4   5
ENDBRANCH   3   4
ENDBRANCH   2   3
TORSDOF 22
ENDMDL
MODEL      479
REMARK 921   NORMALIZED FREE ENERGY PREDICTED BY IDOCK:    0.10 KCAL/MOL
REMARK 922        TOTAL FREE ENERGY PREDICTED BY IDOCK:   -3.39 KCAL/MOL
REMARK 923 INTER-LIGAND FREE ENERGY PREDICTED BY IDOCK:   -3.75 KCAL/MOL
REMARK 924 INTRA-LIGAND FREE ENERGY PREDICTED BY IDOCK:    0.36 KCAL/MOL
REMARK 927      BINDING AFFINITY PREDICTED BY RF-SCORE:    0.00 PKD
ROOT
HETATM    1  C   UNL     1      -6.568   5.128  67.491  1.00  0.00    -0.054 C  
HETATM    2  C   UNL     1      -6.682   5.603  66.052  1.00  0.00    -0.056 C  
ENDROOT
BRANCH   2   3
HETATM    3  C   UNL     1      -5.904   6.899  65.845  1.00  0.00    -0.035 C  
BRANCH   3   4
HETATM    4  C   UNL     1      -6.529   8.063  66.608  1.00  0.00    -0.055 C  
BRANCH   4   5
HETATM    5  C   UNL     1      -6.635   7.739  68.100  1.00  0.00    -0.059 C  
BRANCH   5   6
HETATM    6  C   UNL     1      -7.692   8.613  68.763  1.00  0.00    -0.097 C  
BRANCH   6   7
HETATM    7  C   UNL     1      -9.111   8.094  68.524  1.00  0.00    -0.136 C  
BRANCH   7   8
HETATM    8  C   UNL     1      -9.900   9.166  67.780  1.00  0.00    -0.214 C  
BRANCH   8   9
HETATM    9  C   UNL     1     -10.577   8.668  66.508  1.00  0.00     0.020 C  
BRANCH   9  10
HETATM   10  C   UNL     1     -10.656   9.835  65.519  1.00  0.00     0.475 C  
BRANCH  10  11
HETATM   11  C   UNL     1     -11.247  11.107  66.107  1.00  0.00    -0.059 C  
BRANCH  11  12
HETATM   12  C   UNL     1     -10.246  12.214  66.486  1.00  0.00    -0.206 C  
BRANCH  12  13
HETATM   13  C   UNL     1     -10.063  13.329  65.433  1.00  0.00    -0.267 C  
BRANCH  13  14
HETATM   14  C   UNL     1     -10.877  14.599  65.708  1.00  0.00    -0.323 C  
HETATM   15  O   UNL     1     -12.097  14.661  64.915  1.00  0.00    -0.401 OA 
HETATM   16  O   UNL     1     -12.326  16.424  63.448  1.00  0.00     0.379 OA 
HETATM   17  C   UNL     1     -10.374  15.898  65.019  1.00  0.00    -0.193 C  
HETATM   18  C   UNL     1     -11.722  15.796  64.284  1.00  0.00    -0.162 C  
BRANCH  17  19
HETATM   19  C   UNL     1     -10.214  17.181  65.828  1.00  0.00    -0.234 C  
BRANCH  19  20
HETATM   20  C   UNL     1      -8.975  17.104  66.717  1.00  0.00    -0.263 C  
BRANCH  20  21
HETATM   21  C   UNL     1      -8.355  18.488  66.932  1.00  0.00    -0.270 C  
BRANCH  21  22
HETATM   22  C   UNL     1      -9.129  19.565  66.170  1.00  0.00    -0.349 C  
BRANCH  22  23
HETATM   23  C   UNL     1     -10.276  20.137  67.004  1.00  0.00    -0.558 C  
HETATM   24  C   UNL     1      -9.831  20.409  68.435  1.00  0.00    -0.178 C  
ENDBRANCH  22  23
ENDBRANCH  21  22
ENDBRANCH  20  21
ENDBRANCH  19  20
ENDBRANCH  17  19
ENDBRANCH  13  14
ENDBRANCH  12  13
BRANCH  12  25
HETATM   25  O   UNL     1     -10.634  12.853  67.725  1.00  0.00    -0.216 OA 
BRANCH  25  26
HETATM   26  C   UNL     1      -9.640  13.359  68.507  1.00  0.00    -0.141 C  
HETATM   27  O   UNL     1      -8.511  13.659  68.133  1.00  0.00    -0.159 OA 
BRANCH  26  28
HETATM   28  C   UNL     1     -10.116  13.535  69.946  1.00  0.00     1.480 C  
BRANCH  28  29
HETATM   29  C   UNL     1     -11.458  12.828  70.197  1.00  0.00     0.005 C  
HETATM   30  C   UNL     1     -10.662  10.397  70.536  1.00  0.00    -0.096 C  
HETATM   31  C   UNL     1     -13.014  10.888  69.898  1.00  0.00     0.161 C  
HETATM   32  C   UNL     1     -11.562  11.352  69.750  1.00  0.00    -0.407 C  
ENDBRANCH  28  29
BRANCH  28  33
HETATM   33  N   UNL     1     -10.151  14.963  70.258  1.00  0.00    -0.432 N  
HETATM   34  C   UNL     1     -11.162  15.785  69.846  1.00  0.00    -0.334 C  
HETATM   35  O   UNL     1     -12.107  15.450  69.148  1.00  0.00    -0.315 OA 
HETATM   36  H   UNL     1      -9.389  15.363  70.806  1.00  0.00     0.000 HD 
ENDBRANCH  28  33
ENDBRANCH  26  28
ENDBRANCH  25  26
ENDBRANCH  12  25
ENDBRANCH  11  12
ENDBRANCH  10  11
ENDBRANCH   9  10
ENDBRANCH   8   9
ENDBRANCH   7   8
ENDBRANCH   6   7
ENDBRANCH   5   6
ENDBRANCH   4   5
ENDBRANCH   3   4
ENDBRANCH   2   3
TORSDOF 22
ENDMDL
MODEL      480
REMARK 921   NORMALIZED FREE ENERGY PREDICTED BY IDOCK:    0.17 KCAL/MOL
REMARK 922        TOTAL FREE ENERGY PREDICTED BY IDOCK:   -3.22 KCAL/MOL
REMARK 923 INTER-LIGAND FREE ENERGY PREDICTED BY IDOCK:   -3.88 KCAL/MOL
REMARK 924 INTRA-LIGAND FREE ENERGY PREDICTED BY IDOCK:    0.66 KCAL/MOL
REMARK 927      BINDING AFFINITY PREDICTED BY RF-SCORE:    0.00 PKD
ROOT
HETATM    1  C   UNL     1      -8.979  12.423  65.383  1.00  0.00     0.572 C  
HETATM    2  C   UNL     1      -9.118  11.479  66.566  1.00  0.00    -0.199 C  
ENDROOT
BRANCH   2   3
HETATM    3  C   UNL     1     -10.522  10.885  66.625  1.00  0.00    -0.307 C  
BRANCH   3   4
HETATM    4  C   UNL     1     -10.898  10.460  68.041  1.00  0.00    -0.319 C  
BRANCH   4   5
HETATM    5  C   UNL     1     -10.904   8.935  68.166  1.00  0.00    -0.062 C  
BRANCH   5   6
HETATM    6  C   UNL     1     -10.633   8.287  66.814  1.00  0.00    -0.226 C  
BRANCH   6   7
HETATM    7  C   UNL     1     -10.224   6.818  66.943  1.00  0.00    -0.300 C  
BRANCH   7   8
HETATM    8  C   UNL     1      -8.721   6.755  67.194  1.00  0.00    -0.119 C  
BRANCH   8   9
HETATM    9  C   UNL     1      -8.140   8.026  67.803  1.00  0.00    -0.128 C  
BRANCH   9  10
HETATM   10  C   UNL     1      -7.774   7.735  69.262  1.00  0.00    -0.100 C  
BRANCH  10  11
HETATM   11  C   UNL     1      -8.269   8.784  70.246  1.00  0.00    -0.120 C  
BRANCH  11  12
HETATM   12  C   UNL     1      -8.564   8.295  71.675  1.00  0.00    -0.155 C  
BRANCH  12  13
HETATM   13  C   UNL     1      -8.411   6.774  71.898  1.00  0.00    -0.116 C  
BRANCH  13  14
HETATM   14  C   UNL     1      -9.708   5.976  71.721  1.00  0.00    -0.151 C  
HETATM   15  O   UNL     1      -9.465   4.607  71.287  1.00  0.00    -0.141 OA 
HETATM   16  O   UNL     1     -10.349   3.960  69.260  1.00  0.00     0.476 OA 
HETATM   17  C   UNL     1     -10.504   6.240  70.413  1.00  0.00    -0.277 C  
HETATM   18  C   UNL     1     -10.150   4.769  70.133  1.00  0.00    -0.240 C  
BRANCH  17  19
HETATM   19  C   UNL     1     -12.004   6.508  70.470  1.00  0.00    -0.322 C  
BRANCH  19  20
HETATM   20  C   UNL     1     -12.329   7.513  71.572  1.00  0.00    -0.367 C  
BRANCH  20  21
HETATM   21  C   UNL     1     -12.720   8.874  70.990  1.00  0.00    -0.102 C  
BRANCH  21  22
HETATM   22  C   UNL     1     -11.668   9.936  71.315  1.00  0.00    -0.472 C  
BRANCH  22  23
HETATM   23  C   UNL     1     -12.290  11.324  71.469  1.00  0.00    -0.222 C  
HETATM   24  C   UNL     1     -11.843  12.254  70.350  1.00  0.00    -0.259 C  
ENDBRANCH  22  23
ENDBRANCH  21  22
ENDBRANCH  20  21
ENDBRANCH  19  20
ENDBRANCH  17  19
ENDBRANCH  13  14
ENDBRANCH  12  13
BRANCH  12  25
HETATM   25  O   UNL     1      -7.703   8.957  72.631  1.00  0.00    -0.366 OA 
BRANCH  25  26
HETATM   26  C   UNL     1      -6.504   8.373  72.905  1.00  0.00    -0.093 C  
HETATM   27  O   UNL     1      -6.336   7.326  73.520  1.00  0.00    -0.064 OA 
BRANCH  26  28
HETATM   28  C   UNL     1      -5.355   9.190  72.320  1.00  0.00    -0.075 C  
BRANCH  28  29
HETATM   29  C   UNL     1      -5.587  10.701  72.477  1.00  0.00     0.733 C  
HETATM   30  C   UNL     1      -6.188  11.349  70.053  1.00  0.00    -0.148 C  
HETATM   31  C   UNL     1      -5.369  13.060  71.660  1.00  0.00    -0.077 C  
HETATM   32  C   UNL     1      -5.268  11.587  71.252  1.00  0.00    -0.060 C  
ENDBRANCH  28  29
BRANCH  28  33
HETATM   33  N   UNL     1      -5.147   8.781  70.932  1.00  0.00    -0.027 N  
HETATM   34  C   UNL     1      -5.140   7.472  70.540  1.00  0.00    -0.023 C  
HETATM   35  O   UNL     1      -5.256   6.511  71.284  1.00  0.00    -0.024 OA 
HETATM   36  H   UNL     1      -5.002   9.503  70.226  1.00  0.00     0.000 HD 
ENDBRANCH  28  33
ENDBRANCH  26  28
ENDBRANCH  25  26
ENDBRANCH  12  25
ENDBRANCH  11  12
ENDBRANCH  10  11
ENDBRANCH   9  10
ENDBRANCH   8   9
ENDBRANCH   7   8
ENDBRANCH   6   7
ENDBRANCH   5   6
ENDBRANCH   4   5
ENDBRANCH   3   4
ENDBRANCH   2   3
TORSDOF 22
ENDMDL
MODEL      481
REMARK 921   NORMALIZED FREE ENERGY PREDICTED BY IDOCK:    0.35 KCAL/MOL
REMARK 922        TOTAL FREE ENERGY PREDICTED BY IDOCK:   -2.81 KCAL/MOL
REMARK 923 INTER-LIGAND FREE ENERGY PREDICTED BY IDOCK:   -5.50 KCAL/MOL
REMARK 924 INTRA-LIGAND FREE ENERGY PREDICTED BY IDOCK:    2.69 KCAL/MOL
REMARK 927      BINDING AFFINITY PREDICTED BY RF-SCORE:    0.00 PKD
ROOT
HETATM    1  C   UNL     1     -11.488  14.836  64.931  1.00  0.00    -0.412 C  
HETATM    2  C   UNL     1     -10.248  15.541  65.454  1.00  0.00    -0.409 C  
ENDROOT
BRANCH   2   3
HETATM    3  C   UNL     1     -10.577  16.965  65.892  1.00  0.00    -0.239 C  
BRANCH   3   4
HETATM    4  C   UNL     1     -10.992  17.025  67.359  1.00  0.00    -0.065 C  
BRANCH   4   5
HETATM    5  C   UNL     1      -9.795  16.758  68.273  1.00  0.00    -0.257 C  
BRANCH   5   6
HETATM    6  C   UNL     1      -9.335  15.312  68.143  1.00  0.00    -0.198 C  
BRANCH   6   7
HETATM    7  C   UNL     1      -7.811  15.183  68.133  1.00  0.00    -0.126 C  
BRANCH   7   8
HETATM    8  C   UNL     1      -7.444  13.748  68.494  1.00  0.00    -0.119 C  
BRANCH   8   9
HETATM    9  C   UNL     1      -6.227  13.630  69.406  1.00  0.00    -0.109 C  
BRANCH   9  10
HETATM   10  C   UNL     1      -5.151  12.827  68.668  1.00  0.00    -0.058 C  
BRANCH  10  11
HETATM   11  C   UNL     1      -5.640  12.165  67.389  1.00  0.00    -0.128 C  
BRANCH  11  12
HETATM   12  C   UNL     1      -6.647  11.013  67.557  1.00  0.00    -0.068 C  
BRANCH  12  13
HETATM   13  C   UNL     1      -6.725  10.026  66.371  1.00  0.00    -0.088 C  
BRANCH  13  14
HETATM   14  C   UNL     1      -8.143   9.787  65.839  1.00  0.00    -0.114 C  
HETATM   15  O   UNL     1      -8.343  10.356  64.513  1.00  0.00    -0.166 OA 
HETATM   16  O   UNL     1      -9.957  11.985  64.285  1.00  0.00    -0.276 OA 
HETATM   17  C   UNL     1      -9.252  10.721  66.398  1.00  0.00    -0.191 C  
HETATM   18  C   UNL     1      -9.320  11.189  64.933  1.00  0.00    -0.194 C  
BRANCH  17  19
HETATM   19  C   UNL     1     -10.561  10.133  66.913  1.00  0.00    -0.267 C  
BRANCH  19  20
HETATM   20  C   UNL     1     -10.680  10.329  68.422  1.00  0.00    -0.263 C  
BRANCH  20  21
HETATM   21  C   UNL     1     -10.800   8.989  69.152  1.00  0.00    -0.110 C  
BRANCH  21  22
HETATM   22  C   UNL     1     -10.122   7.867  68.363  1.00  0.00    -0.218 C  
BRANCH  22  23
HETATM   23  C   UNL     1     -11.021   7.335  67.246  1.00  0.00    -0.284 C  
HETATM   24  C   UNL     1     -10.566   5.958  66.784  1.00  0.00    -0.368 C  
ENDBRANCH  22  23
ENDBRANCH  21  22
ENDBRANCH  20  21
ENDBRANCH  19  20
ENDBRANCH  17  19
ENDBRANCH  13  14
ENDBRANCH  12  13
BRANCH  12  25
HETATM   25  O   UNL     1      -6.348  10.239  68.742  1.00  0.00    -0.047 OA 
BRANCH  25  26
HETATM   26  C   UNL     1      -6.800   8.955  68.782  1.00  0.00    -0.062 C  
HETATM   27  O   UNL     1      -7.711   8.490  68.107  1.00  0.00    -0.099 OA 
BRANCH  26  28
HETATM   28  C   UNL     1      -6.000   8.128  69.785  1.00  0.00    -0.029 C  
BRANCH  28  29
HETATM   29  C   UNL     1      -6.874   7.081  70.493  1.00  0.00    -0.057 C  
HETATM   30  C   UNL     1      -5.368   4.994  70.308  1.00  0.00    -0.004 C  
HETATM   31  C   UNL     1      -7.814   4.767  70.692  1.00  0.00    -0.069 C  
HETATM   32  C   UNL     1      -6.734   5.617  70.016  1.00  0.00    -0.048 C  
ENDBRANCH  28  29
BRANCH  28  33
HETATM   33  N   UNL     1      -5.325   9.037  70.711  1.00  0.00    -0.027 N  
HETATM   34  C   UNL     1      -5.884   9.437  71.891  1.00  0.00    -0.014 C  
HETATM   35  O   UNL     1      -7.000   9.133  72.285  1.00  0.00    -0.317 OA 
HETATM   36  H   UNL     1      -4.398   9.386  70.465  1.00  0.00     0.000 HD 
ENDBRANCH  28  33
ENDBRANCH  26  28
ENDBRANCH  25  26
ENDBRANCH  12  25
ENDBRANCH  11  12
ENDBRANCH  10  11
ENDBRANCH   9  10
ENDBRANCH   8   9
ENDBRANCH   7   8
ENDBRANCH   6   7
ENDBRANCH   5   6
ENDBRANCH   4   5
ENDBRANCH   3   4
ENDBRANCH   2   3
TORSDOF 22
ENDMDL
MODEL      482
REMARK 921   NORMALIZED FREE ENERGY PREDICTED BY IDOCK:    0.40 KCAL/MOL
REMARK 922        TOTAL FREE ENERGY PREDICTED BY IDOCK:   -2.70 KCAL/MOL
REMARK 923 INTER-LIGAND FREE ENERGY PREDICTED BY IDOCK:   -4.32 KCAL/MOL
REMARK 924 INTRA-LIGAND FREE ENERGY PREDICTED BY IDOCK:    1.62 KCAL/MOL
REMARK 927      BINDING AFFINITY PREDICTED BY RF-SCORE:    0.00 PKD
ROOT
HETATM    1  C   UNL     1      -6.495   5.062  67.454  1.00  0.00    -0.045 C  
HETATM    2  C   UNL     1      -6.395   5.510  66.005  1.00  0.00    -0.035 C  
ENDROOT
BRANCH   2   3
HETATM    3  C   UNL     1      -5.421   6.676  65.864  1.00  0.00    -0.018 C  
BRANCH   3   4
HETATM    4  C   UNL     1      -5.900   7.909  66.625  1.00  0.00    -0.044 C  
BRANCH   4   5
HETATM    5  C   UNL     1      -6.052   7.602  68.116  1.00  0.00    -0.040 C  
BRANCH   5   6
HETATM    6  C   UNL     1      -7.147   8.464  68.730  1.00  0.00    -0.068 C  
BRANCH   6   7
HETATM    7  C   UNL     1      -8.547   7.906  68.464  1.00  0.00    -0.128 C  
BRANCH   7   8
HETATM    8  C   UNL     1      -9.309   8.903  67.598  1.00  0.00    -0.156 C  
BRANCH   8   9
HETATM    9  C   UNL     1      -9.902   8.298  66.330  1.00  0.00    -0.227 C  
BRANCH   9  10
HETATM   10  C   UNL     1     -10.029   9.408  65.282  1.00  0.00     0.079 C  
BRANCH  10  11
HETATM   11  C   UNL     1     -10.572  10.718  65.830  1.00  0.00    -0.216 C  
BRANCH  11  12
HETATM   12  C   UNL     1      -9.602  11.914  65.832  1.00  0.00    -0.231 C  
BRANCH  12  13
HETATM   13  C   UNL     1      -9.998  13.087  64.908  1.00  0.00    -0.151 C  
BRANCH  13  14
HETATM   14  C   UNL     1     -10.998  14.071  65.528  1.00  0.00    -0.309 C  
HETATM   15  O   UNL     1     -12.325  13.962  64.939  1.00  0.00    -0.408 OA 
HETATM   16  O   UNL     1     -13.175  15.822  63.877  1.00  0.00    -0.121 OA 
HETATM   17  C   UNL     1     -10.909  15.542  65.035  1.00  0.00    -0.468 C  
HETATM   18  C   UNL     1     -12.315  15.235  64.488  1.00  0.00    -0.133 C  
BRANCH  17  19
HETATM   19  C   UNL     1     -10.880  16.687  66.042  1.00  0.00    -0.041 C  
BRANCH  19  20
HETATM   20  C   UNL     1      -9.530  16.745  66.750  1.00  0.00    -0.261 C  
BRANCH  20  21
HETATM   21  C   UNL     1      -9.187  18.173  67.185  1.00  0.00    -0.256 C  
BRANCH  21  22
HETATM   22  C   UNL     1      -7.717  18.288  67.591  1.00  0.00    -0.230 C  
BRANCH  22  23
HETATM   23  C   UNL     1      -6.917  19.127  66.595  1.00  0.00    -0.216 C  
HETATM   24  C   UNL     1      -7.675  20.388  66.205  1.00  0.00    -0.146 C  
ENDBRANCH  22  23
ENDBRANCH  21  22
ENDBRANCH  20  21
ENDBRANCH  19  20
ENDBRANCH  17  19
ENDBRANCH  13  14
ENDBRANCH  12  13
BRANCH  12  25
HETATM   25  O   UNL     1      -9.451  12.450  67.167  1.00  0.00    -0.189 OA 
BRANCH  25  26
HETATM   26  C   UNL     1      -8.306  13.134  67.442  1.00  0.00    -0.188 C  
HETATM   27  O   UNL     1      -7.641  13.780  66.639  1.00  0.00     0.480 OA 
BRANCH  26  28
HETATM   28  C   UNL     1      -7.944  13.017  68.920  1.00  0.00     0.169 C  
BRANCH  28  29
HETATM   29  C   UNL     1      -7.121  14.221  69.406  1.00  0.00    -0.086 C  
HETATM   30  C   UNL     1      -8.991  15.960  69.782  1.00  0.00     0.134 C  
HETATM   31  C   UNL     1      -6.632  16.678  69.460  1.00  0.00    -0.212 C  
HETATM   32  C   UNL     1      -7.676  15.625  69.075  1.00  0.00    -0.199 C  
ENDBRANCH  28  29
BRANCH  28  33
HETATM   33  N   UNL     1      -7.275  11.736  69.140  1.00  0.00    -0.261 N  
HETATM   34  C   UNL     1      -5.970  11.516  68.803  1.00  0.00    -0.047 C  
HETATM   35  O   UNL     1      -5.237  12.322  68.251  1.00  0.00    -0.051 OA 
HETATM   36  H   UNL     1      -7.806  10.974  69.563  1.00  0.00     0.000 HD 
ENDBRANCH  28  33
ENDBRANCH  26  28
ENDBRANCH  25  26
ENDBRANCH  12  25
ENDBRANCH  11  12
ENDBRANCH  10  11
ENDBRANCH   9  10
ENDBRANCH   8   9
ENDBRANCH   7   8
ENDBRANCH   6   7
ENDBRANCH   5   6
ENDBRANCH   4   5
ENDBRANCH   3   4
ENDBRANCH   2   3
TORSDOF 22
ENDMDL
MODEL      483
REMARK 921   NORMALIZED FREE ENERGY PREDICTED BY IDOCK:    0.49 KCAL/MOL
REMARK 922        TOTAL FREE ENERGY PREDICTED BY IDOCK:   -2.50 KCAL/MOL
REMARK 923 INTER-LIGAND FREE ENERGY PREDICTED BY IDOCK:   -3.25 KCAL/MOL
REMARK 924 INTRA-LIGAND FREE ENERGY PREDICTED BY IDOCK:    0.76 KCAL/MOL
REMARK 927      BINDING AFFINITY PREDICTED BY RF-SCORE:    0.00 PKD
ROOT
HETATM    1  C   UNL     1     -10.978  10.367  64.423  1.00  0.00     1.095 C  
HETATM    2  C   UNL     1     -10.581  10.305  62.957  1.00  0.00     1.275 C  
ENDROOT
BRANCH   2   3
HETATM    3  C   UNL     1      -9.538  11.371  62.632  1.00  0.00    -0.173 C  
BRANCH   3   4
HETATM    4  C   UNL     1      -9.789  12.662  63.405  1.00  0.00     0.593 C  
BRANCH   4   5
HETATM    5  C   UNL     1     -11.289  12.930  63.542  1.00  0.00    -0.408 C  
BRANCH   5   6
HETATM    6  C   UNL     1     -11.546  14.026  64.567  1.00  0.00    -0.403 C  
BRANCH   6   7
HETATM    7  C   UNL     1     -10.323  14.302  65.444  1.00  0.00    -0.391 C  
BRANCH   7   8
HETATM    8  C   UNL     1     -10.231  15.804  65.689  1.00  0.00    -0.407 C  
BRANCH   8   9
HETATM    9  C   UNL     1      -9.052  16.219  66.562  1.00  0.00    -0.302 C  
BRANCH   9  10
HETATM   10  C   UNL     1      -9.583  16.552  67.960  1.00  0.00    -0.227 C  
BRANCH  10  11
HETATM   11  C   UNL     1      -8.680  16.089  69.093  1.00  0.00    -0.248 C  
BRANCH  11  12
HETATM   12  C   UNL     1      -7.192  16.468  68.980  1.00  0.00    -0.219 C  
BRANCH  12  13
HETATM   13  C   UNL     1      -6.238  15.301  68.639  1.00  0.00    -0.088 C  
BRANCH  13  14
HETATM   14  C   UNL     1      -6.845  13.908  68.841  1.00  0.00    -0.109 C  
HETATM   15  O   UNL     1      -5.931  12.993  69.510  1.00  0.00    -0.095 OA 
HETATM   16  O   UNL     1      -5.292  11.098  68.364  1.00  0.00    -0.043 OA 
HETATM   17  C   UNL     1      -6.853  12.977  67.597  1.00  0.00    -0.155 C  
HETATM   18  C   UNL     1      -5.899  12.137  68.465  1.00  0.00    -0.053 C  
BRANCH  17  19
HETATM   19  C   UNL     1      -8.128  12.239  67.200  1.00  0.00    -0.173 C  
BRANCH  19  20
HETATM   20  C   UNL     1      -9.265  12.579  68.159  1.00  0.00    -0.209 C  
BRANCH  20  21
HETATM   21  C   UNL     1     -10.504  11.723  67.882  1.00  0.00    -0.219 C  
BRANCH  21  22
HETATM   22  C   UNL     1     -10.620  10.577  68.890  1.00  0.00    -0.243 C  
BRANCH  22  23
HETATM   23  C   UNL     1      -9.264  10.213  69.493  1.00  0.00    -0.223 C  
HETATM   24  C   UNL     1      -8.750   8.894  68.931  1.00  0.00    -0.136 C  
ENDBRANCH  22  23
ENDBRANCH  21  22
ENDBRANCH  20  21
ENDBRANCH  19  20
ENDBRANCH  17  19
ENDBRANCH  13  14
ENDBRANCH  12  13
BRANCH  12  25
HETATM   25  O   UNL     1      -6.998  17.489  67.973  1.00  0.00    -0.186 OA 
BRANCH  25  26
HETATM   26  C   UNL     1      -6.386  18.642  68.361  1.00  0.00    -0.212 C  
HETATM   27  O   UNL     1      -5.276  18.733  68.873  1.00  0.00    -0.189 OA 
BRANCH  26  28
HETATM   28  C   UNL     1      -7.264  19.852  68.054  1.00  0.00    -0.292 C  
BRANCH  28  29
HETATM   29  C   UNL     1      -8.754  19.554  68.284  1.00  0.00    -0.380 C  
HETATM   30  C   UNL     1      -9.781  20.558  66.140  1.00  0.00    -0.164 C  
HETATM   31  C   UNL     1     -11.173  20.198  68.168  1.00  0.00     0.884 C  
HETATM   32  C   UNL     1      -9.767  20.547  67.670  1.00  0.00    -0.501 C  
ENDBRANCH  28  29
BRANCH  28  33
HETATM   33  N   UNL     1      -6.972  20.313  66.698  1.00  0.00    -0.238 N  
HETATM   34  C   UNL     1      -6.500  19.483  65.721  1.00  0.00    -0.227 C  
HETATM   35  O   UNL     1      -6.229  18.301  65.867  1.00  0.00    -0.191 OA 
HETATM   36  H   UNL     1      -7.126  21.296  66.471  1.00  0.00     0.000 HD 
ENDBRANCH  28  33
ENDBRANCH  26  28
ENDBRANCH  25  26
ENDBRANCH  12  25
ENDBRANCH  11  12
ENDBRANCH  10  11
ENDBRANCH   9  10
ENDBRANCH   8   9
ENDBRANCH   7   8
ENDBRANCH   6   7
ENDBRANCH   5   6
ENDBRANCH   4   5
ENDBRANCH   3   4
ENDBRANCH   2   3
TORSDOF 22
ENDMDL
MODEL      484
REMARK 921   NORMALIZED FREE ENERGY PREDICTED BY IDOCK:    0.51 KCAL/MOL
REMARK 922        TOTAL FREE ENERGY PREDICTED BY IDOCK:   -2.46 KCAL/MOL
REMARK 923 INTER-LIGAND FREE ENERGY PREDICTED BY IDOCK:   -2.64 KCAL/MOL
REMARK 924 INTRA-LIGAND FREE ENERGY PREDICTED BY IDOCK:    0.18 KCAL/MOL
REMARK 927      BINDING AFFINITY PREDICTED BY RF-SCORE:    0.00 PKD
ROOT
HETATM    1  C   UNL     1     -11.328   7.657  70.452  1.00  0.00    -0.235 C  
HETATM    2  C   UNL     1     -10.676   6.478  71.156  1.00  0.00    -0.285 C  
ENDROOT
BRANCH   2   3
HETATM    3  C   UNL     1     -11.506   6.039  72.359  1.00  0.00    -0.357 C  
BRANCH   3   4
HETATM    4  C   UNL     1     -11.579   4.520  72.472  1.00  0.00     0.331 C  
BRANCH   4   5
HETATM    5  C   UNL     1     -10.200   3.892  72.256  1.00  0.00    -0.216 C  
BRANCH   5   6
HETATM    6  C   UNL     1      -9.876   3.816  70.770  1.00  0.00    -0.173 C  
BRANCH   6   7
HETATM    7  C   UNL     1      -8.370   3.845  70.499  1.00  0.00    -0.083 C  
BRANCH   7   8
HETATM    8  C   UNL     1      -8.095   4.862  69.398  1.00  0.00    -0.078 C  
BRANCH   8   9
HETATM    9  C   UNL     1      -6.682   4.794  68.829  1.00  0.00    -0.050 C  
BRANCH   9  10
HETATM   10  C   UNL     1      -6.100   6.211  68.818  1.00  0.00    -0.028 C  
BRANCH  10  11
HETATM   11  C   UNL     1      -7.141   7.307  68.647  1.00  0.00    -0.084 C  
BRANCH  11  12
HETATM   12  C   UNL     1      -7.068   8.121  67.342  1.00  0.00    -0.083 C  
BRANCH  12  13
HETATM   13  C   UNL     1      -5.653   8.286  66.745  1.00  0.00    -0.033 C  
BRANCH  13  14
HETATM   14  C   UNL     1      -5.554   7.953  65.251  1.00  0.00    -0.037 C  
HETATM   15  O   UNL     1      -5.167   9.105  64.449  1.00  0.00    -0.052 OA 
HETATM   16  O   UNL     1      -6.648   9.827  62.837  1.00  0.00    -0.103 OA 
HETATM   17  C   UNL     1      -6.899   7.875  64.475  1.00  0.00    -0.062 C  
HETATM   18  C   UNL     1      -6.313   9.089  63.732  1.00  0.00    -0.088 C  
BRANCH  17  19
HETATM   19  C   UNL     1      -7.192   6.685  63.568  1.00  0.00    -0.065 C  
BRANCH  19  20
HETATM   20  C   UNL     1      -6.287   5.508  63.918  1.00  0.00    -0.022 C  
BRANCH  20  21
HETATM   21  C   UNL     1      -6.733   4.826  65.215  1.00  0.00    -0.048 C  
BRANCH  21  22
HETATM   22  C   UNL     1      -6.701   3.303  65.076  1.00  0.00    -0.041 C  
BRANCH  22  23
HETATM   23  C   UNL     1      -7.985   2.658  65.599  1.00  0.00    -0.082 C  
HETATM   24  C   UNL     1      -9.195   3.540  65.321  1.00  0.00    -0.153 C  
ENDBRANCH  22  23
ENDBRANCH  21  22
ENDBRANCH  20  21
ENDBRANCH  19  20
ENDBRANCH  17  19
ENDBRANCH  13  14
ENDBRANCH  12  13
BRANCH  12  25
HETATM   25  O   UNL     1      -7.900   7.525  66.319  1.00  0.00    -0.096 OA 
BRANCH  25  26
HETATM   26  C   UNL     1      -9.232   7.805  66.353  1.00  0.00    -0.180 C  
HETATM   27  O   UNL     1     -10.126   7.020  66.647  1.00  0.00    -0.200 OA 
BRANCH  26  28
HETATM   28  C   UNL     1      -9.490   9.265  65.990  1.00  0.00    -0.247 C  
BRANCH  28  29
HETATM   29  C   UNL     1     -10.068  10.057  67.174  1.00  0.00    -0.265 C  
HETATM   30  C   UNL     1      -9.007  12.374  66.764  1.00  0.00    -0.205 C  
HETATM   31  C   UNL     1      -9.844  11.739  69.018  1.00  0.00     0.079 C  
HETATM   32  C   UNL     1      -9.200  11.206  67.734  1.00  0.00    -0.153 C  
ENDBRANCH  28  29
BRANCH  28  33
HETATM   33  N   UNL     1     -10.337   9.310  64.799  1.00  0.00     0.687 N  
HETATM   34  C   UNL     1     -10.168  10.233  63.807  1.00  0.00     0.279 C  
HETATM   35  O   UNL     1      -9.344  11.135  63.813  1.00  0.00    -0.214 OA 
HETATM   36  H   UNL     1     -11.087   8.623  64.705  1.00  0.00     0.000 HD 
ENDBRANCH  28  33
ENDBRANCH  26  28
ENDBRANCH  25  26
ENDBRANCH  12  25
ENDBRANCH  11  12
ENDBRANCH  10  11
ENDBRANCH   9  10
ENDBRANCH   8   9
ENDBRANCH   7   8
ENDBRANCH   6   7
ENDBRANCH   5   6
ENDBRANCH   4   5
ENDBRANCH   3   4
ENDBRANCH   2   3
TORSDOF 22
ENDMDL
MODEL      485
REMARK 921   NORMALIZED FREE ENERGY PREDICTED BY IDOCK:    0.83 KCAL/MOL
REMARK 922        TOTAL FREE ENERGY PREDICTED BY IDOCK:   -1.73 KCAL/MOL
REMARK 923 INTER-LIGAND FREE ENERGY PREDICTED BY IDOCK:   -1.55 KCAL/MOL
REMARK 924 INTRA-LIGAND FREE ENERGY PREDICTED BY IDOCK:   -0.17 KCAL/MOL
REMARK 927      BINDING AFFINITY PREDICTED BY RF-SCORE:    0.00 PKD
ROOT
HETATM    1  C   UNL     1      -7.979   7.203  68.892  1.00  0.00    -0.120 C  
HETATM    2  C   UNL     1      -7.471   8.063  67.746  1.00  0.00    -0.094 C  
ENDROOT
BRANCH   2   3
HETATM    3  C   UNL     1      -6.109   8.664  68.081  1.00  0.00    -0.051 C  
BRANCH   3   4
HETATM    4  C   UNL     1      -6.103   9.321  69.458  1.00  0.00    -0.040 C  
BRANCH   4   5
HETATM    5  C   UNL     1      -5.233  10.579  69.455  1.00  0.00    -0.038 C  
BRANCH   5   6
HETATM    6  C   UNL     1      -6.077  11.812  69.163  1.00  0.00    -0.076 C  
BRANCH   6   7
HETATM    7  C   UNL     1      -6.454  11.924  67.684  1.00  0.00    -0.089 C  
BRANCH   7   8
HETATM    8  C   UNL     1      -5.977  13.275  67.163  1.00  0.00     0.460 C  
BRANCH   8   9
HETATM    9  C   UNL     1      -5.307  14.146  68.221  1.00  0.00    -0.113 C  
BRANCH   9  10
HETATM   10  C   UNL     1      -6.380  15.031  68.862  1.00  0.00    -0.090 C  
BRANCH  10  11
HETATM   11  C   UNL     1      -7.559  14.260  69.435  1.00  0.00     0.077 C  
BRANCH  11  12
HETATM   12  C   UNL     1      -8.925  14.968  69.393  1.00  0.00    -0.112 C  
BRANCH  12  13
HETATM   13  C   UNL     1     -10.077  14.225  70.106  1.00  0.00     0.956 C  
BRANCH  13  14
HETATM   14  C   UNL     1     -10.827  13.223  69.221  1.00  0.00    -0.023 C  
HETATM   15  O   UNL     1     -11.539  12.218  69.997  1.00  0.00    -0.260 OA 
HETATM   16  O   UNL     1     -10.935  10.014  69.695  1.00  0.00    -0.237 OA 
HETATM   17  C   UNL     1      -9.968  12.102  68.573  1.00  0.00    -0.180 C  
HETATM   18  C   UNL     1     -10.832  11.195  69.467  1.00  0.00    -0.188 C  
BRANCH  17  19
HETATM   19  C   UNL     1     -10.100  11.799  67.084  1.00  0.00    -0.224 C  
BRANCH  19  20
HETATM   20  C   UNL     1     -10.379  13.077  66.299  1.00  0.00    -0.291 C  
BRANCH  20  21
HETATM   21  C   UNL     1     -11.711  13.709  66.714  1.00  0.00    -0.426 C  
BRANCH  21  22
HETATM   22  C   UNL     1     -11.625  15.236  66.700  1.00  0.00    -0.036 C  
BRANCH  22  23
HETATM   23  C   UNL     1     -11.463  15.783  65.282  1.00  0.00     0.024 C  
HETATM   24  C   UNL     1     -12.732  15.577  64.466  1.00  0.00     0.505 C  
ENDBRANCH  22  23
ENDBRANCH  21  22
ENDBRANCH  20  21
ENDBRANCH  19  20
ENDBRANCH  17  19
ENDBRANCH  13  14
ENDBRANCH  12  13
BRANCH  12  25
HETATM   25  O   UNL     1      -8.837  16.287  69.981  1.00  0.00     0.527 OA 
BRANCH  25  26
HETATM   26  C   UNL     1      -9.684  17.243  69.507  1.00  0.00     0.217 C  
HETATM   27  O   UNL     1     -10.787  17.520  69.966  1.00  0.00     0.350 OA 
BRANCH  26  28
HETATM   28  C   UNL     1      -9.072  17.968  68.312  1.00  0.00    -0.278 C  
BRANCH  28  29
HETATM   29  C   UNL     1      -7.536  17.950  68.355  1.00  0.00    -0.272 C  
HETATM   30  C   UNL     1      -7.071  20.064  69.761  1.00  0.00    -0.044 C  
HETATM   31  C   UNL     1      -5.317  19.111  68.279  1.00  0.00    -0.185 C  
HETATM   32  C   UNL     1      -6.824  19.319  68.447  1.00  0.00    -0.309 C  
ENDBRANCH  28  29
BRANCH  28  33
HETATM   33  N   UNL     1      -9.630  19.317  68.244  1.00  0.00    -0.348 N  
HETATM   34  C   UNL     1     -10.621  19.663  67.370  1.00  0.00    -0.460 C  
HETATM   35  O   UNL     1     -11.115  18.925  66.532  1.00  0.00    -0.086 OA 
HETATM   36  H   UNL     1      -9.265  20.030  68.876  1.00  0.00     0.000 HD 
ENDBRANCH  28  33
ENDBRANCH  26  28
ENDBRANCH  25  26
ENDBRANCH  12  25
ENDBRANCH  11  12
ENDBRANCH  10  11
ENDBRANCH   9  10
ENDBRANCH   8   9
ENDBRANCH   7   8
ENDBRANCH   6   7
ENDBRANCH   5   6
ENDBRANCH   4   5
ENDBRANCH   3   4
ENDBRANCH   2   3
TORSDOF 22
ENDMDL
MODEL      486
REMARK 921   NORMALIZED FREE ENERGY PREDICTED BY IDOCK:    1.00 KCAL/MOL
REMARK 922        TOTAL FREE ENERGY PREDICTED BY IDOCK:   -1.33 KCAL/MOL
REMARK 923 INTER-LIGAND FREE ENERGY PREDICTED BY IDOCK:   -4.08 KCAL/MOL
REMARK 924 INTRA-LIGAND FREE ENERGY PREDICTED BY IDOCK:    2.75 KCAL/MOL
REMARK 927      BINDING AFFINITY PREDICTED BY RF-SCORE:    0.00 PKD
ROOT
HETATM    1  C   UNL     1      -9.986  11.766  64.013  1.00  0.00    -0.320 C  
HETATM    2  C   UNL     1      -8.882  11.006  64.729  1.00  0.00    -0.041 C  
ENDROOT
BRANCH   2   3
HETATM    3  C   UNL     1      -8.109  11.928  65.668  1.00  0.00     0.833 C  
BRANCH   3   4
HETATM    4  C   UNL     1      -7.034  11.173  66.444  1.00  0.00    -0.093 C  
BRANCH   4   5
HETATM    5  C   UNL     1      -7.556   9.812  66.910  1.00  0.00    -0.095 C  
BRANCH   5   6
HETATM    6  C   UNL     1      -6.920   9.422  68.237  1.00  0.00    -0.071 C  
BRANCH   6   7
HETATM    7  C   UNL     1      -6.178   8.087  68.159  1.00  0.00    -0.046 C  
BRANCH   7   8
HETATM    8  C   UNL     1      -6.824   7.236  67.072  1.00  0.00    -0.076 C  
BRANCH   8   9
HETATM    9  C   UNL     1      -7.760   6.155  67.603  1.00  0.00    -0.098 C  
BRANCH   9  10
HETATM   10  C   UNL     1      -7.503   5.996  69.105  1.00  0.00    -0.086 C  
BRANCH  10  11
HETATM   11  C   UNL     1      -8.546   6.666  69.987  1.00  0.00    -0.140 C  
BRANCH  11  12
HETATM   12  C   UNL     1      -9.231   5.771  71.037  1.00  0.00    -0.149 C  
BRANCH  12  13
HETATM   13  C   UNL     1     -10.650   5.287  70.667  1.00  0.00    -0.263 C  
BRANCH  13  14
HETATM   14  C   UNL     1     -11.535   6.359  70.018  1.00  0.00    -0.428 C  
HETATM   15  O   UNL     1     -11.003   6.824  68.745  1.00  0.00    -0.239 OA 
HETATM   16  O   UNL     1     -10.458   9.057  68.571  1.00  0.00    -0.211 OA 
HETATM   17  C   UNL     1     -11.402   7.797  70.591  1.00  0.00    -0.275 C  
HETATM   18  C   UNL     1     -10.868   8.097  69.179  1.00  0.00    -0.016 C  
BRANCH  17  19
HETATM   19  C   UNL     1     -12.649   8.595  70.956  1.00  0.00    -0.079 C  
BRANCH  19  20
HETATM   20  C   UNL     1     -12.274   9.850  71.739  1.00  0.00    -0.425 C  
BRANCH  20  21
HETATM   21  C   UNL     1     -13.386  10.900  71.680  1.00  0.00    -0.364 C  
BRANCH  21  22
HETATM   22  C   UNL     1     -12.807  12.314  71.605  1.00  0.00    -0.378 C  
BRANCH  22  23
HETATM   23  C   UNL     1     -13.219  13.162  72.808  1.00  0.00    -0.043 C  
HETATM   24  C   UNL     1     -12.471  14.488  72.828  1.00  0.00    -0.331 C  
ENDBRANCH  22  23
ENDBRANCH  21  22
ENDBRANCH  20  21
ENDBRANCH  19  20
ENDBRANCH  17  19
ENDBRANCH  13  14
ENDBRANCH  12  13
BRANCH  12  25
HETATM   25  O   UNL     1      -8.433   4.596  71.307  1.00  0.00    -0.101 OA 
BRANCH  25  26
HETATM   26  C   UNL     1      -8.802   3.434  70.699  1.00  0.00    -0.082 C  
HETATM   27  O   UNL     1      -9.749   3.291  69.933  1.00  0.00    -0.144 OA 
BRANCH  26  28
HETATM   28  C   UNL     1      -7.855   2.298  71.076  1.00  0.00    -0.046 C  
BRANCH  28  29
HETATM   29  C   UNL     1      -7.004   2.646  72.308  1.00  0.00    -0.027 C  
HETATM   30  C   UNL     1      -8.837   2.870  74.110  1.00  0.00    -0.078 C  
HETATM   31  C   UNL     1      -6.611   3.932  74.422  1.00  0.00    -0.041 C  
HETATM   32  C   UNL     1      -7.666   3.535  73.385  1.00  0.00    -0.066 C  
ENDBRANCH  28  29
BRANCH  28  33
HETATM   33  N   UNL     1      -7.055   1.945  69.904  1.00  0.00    -0.033 N  
HETATM   34  C   UNL     1      -5.883   2.574  69.593  1.00  0.00    -0.023 C  
HETATM   35  O   UNL     1      -5.397   3.510  70.208  1.00  0.00    -0.007 OA 
HETATM   36  H   UNL     1      -7.386   1.197  69.294  1.00  0.00     0.000 HD 
ENDBRANCH  28  33
ENDBRANCH  26  28
ENDBRANCH  25  26
ENDBRANCH  12  25
ENDBRANCH  11  12
ENDBRANCH  10  11
ENDBRANCH   9  10
ENDBRANCH   8   9
ENDBRANCH   7   8
ENDBRANCH   6   7
ENDBRANCH   5   6
ENDBRANCH   4   5
ENDBRANCH   3   4
ENDBRANCH   2   3
TORSDOF 22
ENDMDL
MODEL      487
REMARK 921   NORMALIZED FREE ENERGY PREDICTED BY IDOCK:    1.09 KCAL/MOL
REMARK 922        TOTAL FREE ENERGY PREDICTED BY IDOCK:   -1.13 KCAL/MOL
REMARK 923 INTER-LIGAND FREE ENERGY PREDICTED BY IDOCK:   -2.50 KCAL/MOL
REMARK 924 INTRA-LIGAND FREE ENERGY PREDICTED BY IDOCK:    1.37 KCAL/MOL
REMARK 927      BINDING AFFINITY PREDICTED BY RF-SCORE:    0.00 PKD
ROOT
HETATM    1  C   UNL     1      -6.494   5.066  67.455  1.00  0.00    -0.045 C  
HETATM    2  C   UNL     1      -6.366   5.510  66.007  1.00  0.00    -0.035 C  
ENDROOT
BRANCH   2   3
HETATM    3  C   UNL     1      -5.370   6.659  65.877  1.00  0.00    -0.018 C  
BRANCH   3   4
HETATM    4  C   UNL     1      -5.850   7.909  66.609  1.00  0.00    -0.044 C  
BRANCH   4   5
HETATM    5  C   UNL     1      -6.068   7.618  68.095  1.00  0.00    -0.040 C  
BRANCH   5   6
HETATM    6  C   UNL     1      -7.154   8.523  68.663  1.00  0.00    -0.072 C  
BRANCH   6   7
HETATM    7  C   UNL     1      -8.561   8.023  68.333  1.00  0.00    -0.127 C  
BRANCH   7   8
HETATM    8  C   UNL     1      -9.238   9.045  67.427  1.00  0.00    -0.158 C  
BRANCH   8   9
HETATM    9  C   UNL     1      -9.786   8.458  66.130  1.00  0.00    -0.223 C  
BRANCH   9  10
HETATM   10  C   UNL     1      -9.803   9.566  65.072  1.00  0.00    -0.015 C  
BRANCH  10  11
HETATM   11  C   UNL     1     -10.334  10.898  65.577  1.00  0.00    -0.316 C  
BRANCH  11  12
HETATM   12  C   UNL     1      -9.323  12.057  65.644  1.00  0.00    -0.078 C  
BRANCH  12  13
HETATM   13  C   UNL     1      -9.592  13.224  64.668  1.00  0.00     0.403 C  
BRANCH  13  14
HETATM   14  C   UNL     1     -10.615  14.249  65.173  1.00  0.00    -0.406 C  
HETATM   15  O   UNL     1     -10.235  15.618  64.855  1.00  0.00    -0.418 OA 
HETATM   16  O   UNL     1      -9.893  17.065  66.616  1.00  0.00    -0.264 OA 
HETATM   17  C   UNL     1     -10.552  14.592  66.687  1.00  0.00    -0.283 C  
HETATM   18  C   UNL     1     -10.169  15.984  66.154  1.00  0.00    -0.324 C  
BRANCH  17  19
HETATM   19  C   UNL     1     -11.824  14.587  67.528  1.00  0.00    -0.404 C  
BRANCH  19  20
HETATM   20  C   UNL     1     -11.795  13.446  68.540  1.00  0.00    -0.401 C  
BRANCH  20  21
HETATM   21  C   UNL     1     -12.613  13.786  69.790  1.00  0.00    -0.083 C  
BRANCH  21  22
HETATM   22  C   UNL     1     -12.320  12.803  70.925  1.00  0.00    -0.356 C  
BRANCH  22  23
HETATM   23  C   UNL     1     -11.566  13.471  72.074  1.00  0.00     2.225 C  
HETATM   24  C   UNL     1     -12.167  14.829  72.411  1.00  0.00    -0.371 C  
ENDBRANCH  22  23
ENDBRANCH  21  22
ENDBRANCH  20  21
ENDBRANCH  19  20
ENDBRANCH  17  19
ENDBRANCH  13  14
ENDBRANCH  12  13
BRANCH  12  25
HETATM   25  O   UNL     1      -9.270  12.616  66.977  1.00  0.00    -0.199 OA 
BRANCH  25  26
HETATM   26  C   UNL     1      -8.128  13.262  67.341  1.00  0.00    -0.175 C  
HETATM   27  O   UNL     1      -7.370  13.866  66.589  1.00  0.00     0.548 OA 
BRANCH  26  28
HETATM   28  C   UNL     1      -7.902  13.162  68.847  1.00  0.00     0.118 C  
BRANCH  28  29
HETATM   29  C   UNL     1      -7.083  14.346  69.385  1.00  0.00    -0.113 C  
HETATM   30  C   UNL     1      -8.917  16.153  69.571  1.00  0.00    -0.004 C  
HETATM   31  C   UNL     1      -6.516  16.786  69.443  1.00  0.00    -0.229 C  
HETATM   32  C   UNL     1      -7.558  15.762  68.986  1.00  0.00    -0.191 C  
ENDBRANCH  28  29
BRANCH  28  33
HETATM   33  N   UNL     1      -7.302  11.863  69.147  1.00  0.00    -0.301 N  
HETATM   34  C   UNL     1      -5.981  11.592  68.932  1.00  0.00    -0.050 C  
HETATM   35  O   UNL     1      -5.173  12.362  68.434  1.00  0.00    -0.051 OA 
HETATM   36  H   UNL     1      -7.895  11.128  69.534  1.00  0.00     0.000 HD 
ENDBRANCH  28  33
ENDBRANCH  26  28
ENDBRANCH  25  26
ENDBRANCH  12  25
ENDBRANCH  11  12
ENDBRANCH  10  11
ENDBRANCH   9  10
ENDBRANCH   8   9
ENDBRANCH   7   8
ENDBRANCH   6   7
ENDBRANCH   5   6
ENDBRANCH   4   5
ENDBRANCH   3   4
ENDBRANCH   2   3
TORSDOF 22
ENDMDL
MODEL      488
REMARK 921   NORMALIZED FREE ENERGY PREDICTED BY IDOCK:    1.31 KCAL/MOL
REMARK 922        TOTAL FREE ENERGY PREDICTED BY IDOCK:   -0.62 KCAL/MOL
REMARK 923 INTER-LIGAND FREE ENERGY PREDICTED BY IDOCK:   -2.91 KCAL/MOL
REMARK 924 INTRA-LIGAND FREE ENERGY PREDICTED BY IDOCK:    2.29 KCAL/MOL
REMARK 927      BINDING AFFINITY PREDICTED BY RF-SCORE:    0.00 PKD
ROOT
HETATM    1  C   UNL     1      -9.153   2.643  73.541  1.00  0.00    -0.089 C  
HETATM    2  C   UNL     1      -9.775   2.688  72.155  1.00  0.00    -0.216 C  
ENDROOT
BRANCH   2   3
HETATM    3  C   UNL     1      -8.911   3.505  71.199  1.00  0.00    -0.136 C  
BRANCH   3   4
HETATM    4  C   UNL     1      -9.527   4.869  70.904  1.00  0.00    -0.227 C  
BRANCH   4   5
HETATM    5  C   UNL     1     -10.088   4.914  69.481  1.00  0.00    -0.286 C  
BRANCH   5   6
HETATM    6  C   UNL     1      -9.121   4.259  68.504  1.00  0.00    -0.175 C  
BRANCH   6   7
HETATM    7  C   UNL     1      -7.994   5.203  68.077  1.00  0.00    -0.091 C  
BRANCH   7   8
HETATM    8  C   UNL     1      -8.241   5.629  66.634  1.00  0.00    -0.105 C  
BRANCH   8   9
HETATM    9  C   UNL     1      -9.693   5.499  66.188  1.00  0.00    -0.147 C  
BRANCH   9  10
HETATM   10  C   UNL     1     -10.375   6.858  66.373  1.00  0.00     0.031 C  
BRANCH  10  11
HETATM   11  C   UNL     1      -9.414   7.999  66.667  1.00  0.00    -0.273 C  
BRANCH  11  12
HETATM   12  C   UNL     1      -9.674   8.797  67.958  1.00  0.00    -0.157 C  
BRANCH  12  13
HETATM   13  C   UNL     1     -10.772   8.222  68.880  1.00  0.00    -0.089 C  
BRANCH  13  14
HETATM   14  C   UNL     1     -11.170   9.142  70.040  1.00  0.00    -0.150 C  
HETATM   15  O   UNL     1     -10.018   9.624  70.789  1.00  0.00    -0.270 OA 
HETATM   16  O   UNL     1      -9.888   9.063  73.021  1.00  0.00     0.394 OA 
HETATM   17  C   UNL     1     -11.699   8.440  71.322  1.00  0.00    -0.325 C  
HETATM   18  C   UNL     1     -10.425   9.043  71.940  1.00  0.00    -0.303 C  
BRANCH  17  19
HETATM   19  C   UNL     1     -12.987   8.921  71.983  1.00  0.00    -0.454 C  
BRANCH  19  20
HETATM   20  C   UNL     1     -14.179   8.106  71.491  1.00  0.00    -0.502 C  
BRANCH  20  21
HETATM   21  C   UNL     1     -14.018   6.621  71.827  1.00  0.00    -0.075 C  
BRANCH  21  22
HETATM   22  C   UNL     1     -12.560   6.281  72.139  1.00  0.00    -0.035 C  
BRANCH  22  23
HETATM   23  C   UNL     1     -12.443   5.283  73.291  1.00  0.00     1.042 C  
HETATM   24  C   UNL     1     -11.138   5.473  74.052  1.00  0.00     0.286 C  
ENDBRANCH  22  23
ENDBRANCH  21  22
ENDBRANCH  20  21
ENDBRANCH  19  20
ENDBRANCH  17  19
ENDBRANCH  13  14
ENDBRANCH  12  13
BRANCH  12  25
HETATM   25  O   UNL     1      -8.466   8.907  68.745  1.00  0.00    -0.128 OA 
BRANCH  25  26
HETATM   26  C   UNL     1      -7.758  10.067  68.648  1.00  0.00    -0.086 C  
HETATM   27  O   UNL     1      -8.228  11.186  68.478  1.00  0.00    -0.135 OA 
BRANCH  26  28
HETATM   28  C   UNL     1      -6.263   9.805  68.803  1.00  0.00    -0.042 C  
BRANCH  28  29
HETATM   29  C   UNL     1      -5.428  11.065  68.522  1.00  0.00    -0.043 C  
HETATM   30  C   UNL     1      -7.136  12.911  69.098  1.00  0.00     0.033 C  
HETATM   31  C   UNL     1      -5.187  13.395  67.633  1.00  0.00    -0.004 C  
HETATM   32  C   UNL     1      -6.195  12.320  68.047  1.00  0.00    -0.073 C  
ENDBRANCH  28  29
BRANCH  28  33
HETATM   33  N   UNL     1      -5.894   8.671  67.957  1.00  0.00    -0.042 N  
HETATM   34  C   UNL     1      -5.481   7.473  68.467  1.00  0.00    -0.026 C  
HETATM   35  O   UNL     1      -5.328   7.223  69.653  1.00  0.00    -0.015 OA 
HETATM   36  H   UNL     1      -5.948   8.778  66.943  1.00  0.00     0.000 HD 
ENDBRANCH  28  33
ENDBRANCH  26  28
ENDBRANCH  25  26
ENDBRANCH  12  25
ENDBRANCH  11  12
ENDBRANCH  10  11
ENDBRANCH   9  10
ENDBRANCH   8   9
ENDBRANCH   7   8
ENDBRANCH   6   7
ENDBRANCH   5   6
ENDBRANCH   4   5
ENDBRANCH   3   4
ENDBRANCH   2   3
TORSDOF 22
ENDMDL
MODEL      489
REMARK 921   NORMALIZED FREE ENERGY PREDICTED BY IDOCK:    1.33 KCAL/MOL
REMARK 922        TOTAL FREE ENERGY PREDICTED BY IDOCK:   -0.59 KCAL/MOL
REMARK 923 INTER-LIGAND FREE ENERGY PREDICTED BY IDOCK:   -5.33 KCAL/MOL
REMARK 924 INTRA-LIGAND FREE ENERGY PREDICTED BY IDOCK:    4.74 KCAL/MOL
REMARK 927      BINDING AFFINITY PREDICTED BY RF-SCORE:    0.00 PKD
ROOT
HETATM    1  C   UNL     1      -8.059  14.381  68.107  1.00  0.00    -0.137 C  
HETATM    2  C   UNL     1      -9.293  13.755  67.480  1.00  0.00    -0.222 C  
ENDROOT
BRANCH   2   3
HETATM    3  C   UNL     1     -10.547  14.119  68.271  1.00  0.00    -0.254 C  
BRANCH   3   4
HETATM    4  C   UNL     1     -11.809  13.980  67.425  1.00  0.00    -0.445 C  
BRANCH   4   5
HETATM    5  C   UNL     1     -11.916  12.572  66.836  1.00  0.00    -0.306 C  
BRANCH   5   6
HETATM    6  C   UNL     1     -10.548  11.904  66.797  1.00  0.00    -0.264 C  
BRANCH   6   7
HETATM    7  C   UNL     1     -10.318  10.977  67.992  1.00  0.00    -0.209 C  
BRANCH   7   8
HETATM    8  C   UNL     1     -11.669  10.644  68.615  1.00  0.00    -0.228 C  
BRANCH   8   9
HETATM    9  C   UNL     1     -11.574   9.921  69.954  1.00  0.00    -0.184 C  
BRANCH   9  10
HETATM   10  C   UNL     1     -10.106   9.909  70.390  1.00  0.00    -0.258 C  
BRANCH  10  11
HETATM   11  C   UNL     1      -9.747   8.768  71.330  1.00  0.00    -0.335 C  
BRANCH  11  12
HETATM   12  C   UNL     1      -9.391   7.424  70.669  1.00  0.00    -0.160 C  
BRANCH  12  13
HETATM   13  C   UNL     1      -9.340   7.440  69.126  1.00  0.00    -0.146 C  
BRANCH  13  14
HETATM   14  C   UNL     1      -9.679   6.097  68.467  1.00  0.00    -0.127 C  
HETATM   15  O   UNL     1     -10.546   5.273  69.298  1.00  0.00    -0.225 OA 
HETATM   16  O   UNL     1      -9.735   3.227  69.982  1.00  0.00    -0.147 OA 
HETATM   17  C   UNL     1      -8.580   5.000  68.540  1.00  0.00    -0.097 C  
HETATM   18  C   UNL     1      -9.637   4.278  69.396  1.00  0.00    -0.197 C  
BRANCH  17  19
HETATM   19  C   UNL     1      -8.181   4.232  67.285  1.00  0.00    -0.100 C  
BRANCH  19  20
HETATM   20  C   UNL     1      -8.848   4.834  66.052  1.00  0.00    -0.123 C  
BRANCH  20  21
HETATM   21  C   UNL     1      -9.760   3.819  65.357  1.00  0.00    -0.157 C  
BRANCH  21  22
HETATM   22  C   UNL     1      -9.066   3.193  64.145  1.00  0.00    -0.109 C  
BRANCH  22  23
HETATM   23  C   UNL     1      -9.558   3.801  62.832  1.00  0.00    -0.124 C  
HETATM   24  C   UNL     1     -10.992   3.382  62.536  1.00  0.00    -0.078 C  
ENDBRANCH  22  23
ENDBRANCH  21  22
ENDBRANCH  20  21
ENDBRANCH  19  20
ENDBRANCH  17  19
ENDBRANCH  13  14
ENDBRANCH  12  13
BRANCH  12  25
HETATM   25  O   UNL     1      -8.109   6.946  71.137  1.00  0.00    -0.108 OA 
BRANCH  25  26
HETATM   26  C   UNL     1      -7.000   7.620  70.722  1.00  0.00    -0.047 C  
HETATM   27  O   UNL     1      -6.782   8.017  69.583  1.00  0.00    -0.037 OA 
BRANCH  26  28
HETATM   28  C   UNL     1      -6.037   7.849  71.883  1.00  0.00    -0.040 C  
BRANCH  28  29
HETATM   29  C   UNL     1      -6.567   7.250  73.196  1.00  0.00    -0.064 C  
HETATM   30  C   UNL     1      -6.158   4.737  72.777  1.00  0.00    -0.025 C  
HETATM   31  C   UNL     1      -7.818   5.491  74.467  1.00  0.00    -0.097 C  
HETATM   32  C   UNL     1      -7.172   5.830  73.121  1.00  0.00    -0.090 C  
ENDBRANCH  28  29
BRANCH  28  33
HETATM   33  N   UNL     1      -5.747   9.279  71.979  1.00  0.00    -0.073 N  
HETATM   34  C   UNL     1      -5.603  10.078  70.881  1.00  0.00    -0.082 C  
HETATM   35  O   UNL     1      -5.651   9.701  69.720  1.00  0.00    -0.033 OA 
HETATM   36  H   UNL     1      -5.648   9.697  72.904  1.00  0.00     0.000 HD 
ENDBRANCH  28  33
ENDBRANCH  26  28
ENDBRANCH  25  26
ENDBRANCH  12  25
ENDBRANCH  11  12
ENDBRANCH  10  11
ENDBRANCH   9  10
ENDBRANCH   8   9
ENDBRANCH   7   8
ENDBRANCH   6   7
ENDBRANCH   5   6
ENDBRANCH   4   5
ENDBRANCH   3   4
ENDBRANCH   2   3
TORSDOF 22
ENDMDL
MODEL      490
REMARK 921   NORMALIZED FREE ENERGY PREDICTED BY IDOCK:    1.73 KCAL/MOL
REMARK 922        TOTAL FREE ENERGY PREDICTED BY IDOCK:    0.34 KCAL/MOL
REMARK 923 INTER-LIGAND FREE ENERGY PREDICTED BY IDOCK:   -0.62 KCAL/MOL
REMARK 924 INTRA-LIGAND FREE ENERGY PREDICTED BY IDOCK:    0.96 KCAL/MOL
REMARK 927      BINDING AFFINITY PREDICTED BY RF-SCORE:    0.00 PKD
ROOT
HETATM    1  C   UNL     1     -10.054  14.195  65.028  1.00  0.00    -0.326 C  
HETATM    2  C   UNL     1      -9.938  13.229  66.195  1.00  0.00    -0.295 C  
ENDROOT
BRANCH   2   3
HETATM    3  C   UNL     1     -11.248  12.478  66.410  1.00  0.00    -0.353 C  
BRANCH   3   4
HETATM    4  C   UNL     1     -11.412  12.029  67.859  1.00  0.00    -0.396 C  
BRANCH   4   5
HETATM    5  C   UNL     1     -11.447  10.502  67.954  1.00  0.00    -0.190 C  
BRANCH   5   6
HETATM    6  C   UNL     1     -11.215   9.876  66.585  1.00  0.00     0.517 C  
BRANCH   6   7
HETATM    7  C   UNL     1     -10.882   8.386  66.674  1.00  0.00     0.327 C  
BRANCH   7   8
HETATM    8  C   UNL     1      -9.378   8.237  66.868  1.00  0.00    -0.222 C  
BRANCH   8   9
HETATM    9  C   UNL     1      -8.715   9.439  67.533  1.00  0.00    -0.123 C  
BRANCH   9  10
HETATM   10  C   UNL     1      -8.239   9.014  68.925  1.00  0.00    -0.120 C  
BRANCH  10  11
HETATM   11  C   UNL     1      -8.622   9.981  70.034  1.00  0.00    -0.122 C  
BRANCH  11  12
HETATM   12  C   UNL     1      -8.746   9.386  71.449  1.00  0.00     0.339 C  
BRANCH  12  13
HETATM   13  C   UNL     1      -8.703   7.844  71.522  1.00  0.00    -0.150 C  
BRANCH  13  14
HETATM   14  C   UNL     1      -9.919   7.146  70.901  1.00  0.00    -0.189 C  
HETATM   15  O   UNL     1     -11.146   7.400  71.643  1.00  0.00    -0.233 OA 
HETATM   16  O   UNL     1     -12.233   5.584  72.555  1.00  0.00    -0.134 OA 
HETATM   17  C   UNL     1     -10.063   5.627  71.196  1.00  0.00    -0.262 C  
HETATM   18  C   UNL     1     -11.335   6.093  71.930  1.00  0.00    -0.296 C  
BRANCH  17  19
HETATM   19  C   UNL     1     -10.337   4.648  70.060  1.00  0.00    -0.037 C  
BRANCH  19  20
HETATM   20  C   UNL     1      -9.788   5.189  68.742  1.00  0.00    -0.235 C  
BRANCH  20  21
HETATM   21  C   UNL     1      -8.394   4.629  68.445  1.00  0.00    -0.091 C  
BRANCH  21  22
HETATM   22  C   UNL     1      -8.342   3.120  68.688  1.00  0.00    -0.085 C  
BRANCH  22  23
HETATM   23  C   UNL     1      -6.928   2.648  69.028  1.00  0.00    -0.044 C  
HETATM   24  C   UNL     1      -6.408   3.334  70.284  1.00  0.00    -0.028 C  
ENDBRANCH  22  23
ENDBRANCH  21  22
ENDBRANCH  20  21
ENDBRANCH  19  20
ENDBRANCH  17  19
ENDBRANCH  13  14
ENDBRANCH  12  13
BRANCH  12  25
HETATM   25  O   UNL     1      -7.697   9.887  72.309  1.00  0.00     1.412 OA 
BRANCH  25  26
HETATM   26  C   UNL     1      -6.488   9.263  72.252  1.00  0.00     0.273 C  
HETATM   27  O   UNL     1      -6.269   8.088  72.525  1.00  0.00    -0.055 OA 
BRANCH  26  28
HETATM   28  C   UNL     1      -5.403  10.222  71.770  1.00  0.00     0.025 C  
BRANCH  28  29
HETATM   29  C   UNL     1      -5.753  11.686  72.079  1.00  0.00     1.070 C  
HETATM   30  C   UNL     1      -5.949  12.647  69.692  1.00  0.00    -0.122 C  
HETATM   31  C   UNL     1      -5.540  14.143  71.635  1.00  0.00    -0.221 C  
HETATM   32  C   UNL     1      -5.276  12.748  71.062  1.00  0.00    -0.165 C  
ENDBRANCH  28  29
BRANCH  28  33
HETATM   33  N   UNL     1      -5.155   9.977  70.350  1.00  0.00    -0.036 N  
HETATM   34  C   UNL     1      -5.269   8.739  69.784  1.00  0.00    -0.030 C  
HETATM   35  O   UNL     1      -5.538   7.709  70.382  1.00  0.00    -0.023 OA 
HETATM   36  H   UNL     1      -4.885  10.763  69.758  1.00  0.00     0.000 HD 
ENDBRANCH  28  33
ENDBRANCH  26  28
ENDBRANCH  25  26
ENDBRANCH  12  25
ENDBRANCH  11  12
ENDBRANCH  10  11
ENDBRANCH   9  10
ENDBRANCH   8   9
ENDBRANCH   7   8
ENDBRANCH   6   7
ENDBRANCH   5   6
ENDBRANCH   4   5
ENDBRANCH   3   4
ENDBRANCH   2   3
TORSDOF 22
ENDMDL
MODEL      491
REMARK 921   NORMALIZED FREE ENERGY PREDICTED BY IDOCK:    1.75 KCAL/MOL
REMARK 922        TOTAL FREE ENERGY PREDICTED BY IDOCK:    0.39 KCAL/MOL
REMARK 923 INTER-LIGAND FREE ENERGY PREDICTED BY IDOCK:   -0.70 KCAL/MOL
REMARK 924 INTRA-LIGAND FREE ENERGY PREDICTED BY IDOCK:    1.09 KCAL/MOL
REMARK 927      BINDING AFFINITY PREDICTED BY RF-SCORE:    0.00 PKD
ROOT
HETATM    1  C   UNL     1     -12.636  12.589  70.381  1.00  0.00    -0.099 C  
HETATM    2  C   UNL     1     -11.782  11.815  69.390  1.00  0.00    -0.405 C  
ENDROOT
BRANCH   2   3
HETATM    3  C   UNL     1     -12.641  11.238  68.268  1.00  0.00     1.441 C  
BRANCH   3   4
HETATM    4  C   UNL     1     -11.788  10.650  67.148  1.00  0.00     1.106 C  
BRANCH   4   5
HETATM    5  C   UNL     1     -10.326  10.531  67.584  1.00  0.00    -0.257 C  
BRANCH   5   6
HETATM    6  C   UNL     1      -9.417  10.389  66.371  1.00  0.00    -0.209 C  
BRANCH   6   7
HETATM    7  C   UNL     1      -9.720  11.427  65.289  1.00  0.00    -0.276 C  
BRANCH   7   8
HETATM    8  C   UNL     1      -8.962  11.044  64.023  1.00  0.00    -0.050 C  
BRANCH   8   9
HETATM    9  C   UNL     1      -7.469  10.814  64.240  1.00  0.00     0.351 C  
BRANCH   9  10
HETATM   10  C   UNL     1      -7.294   9.511  65.026  1.00  0.00    -0.110 C  
BRANCH  10  11
HETATM   11  C   UNL     1      -5.930   9.362  65.683  1.00  0.00    -0.059 C  
BRANCH  11  12
HETATM   12  C   UNL     1      -5.802   9.896  67.121  1.00  0.00    -0.051 C  
BRANCH  12  13
HETATM   13  C   UNL     1      -7.108  10.438  67.743  1.00  0.00    -0.084 C  
BRANCH  13  14
HETATM   14  C   UNL     1      -7.396  11.910  67.427  1.00  0.00    -0.145 C  
HETATM   15  O   UNL     1      -6.299  12.553  66.717  1.00  0.00    -0.111 OA 
HETATM   16  O   UNL     1      -5.273  14.346  67.740  1.00  0.00    -0.258 OA 
HETATM   17  C   UNL     1      -7.212  12.912  68.601  1.00  0.00    -0.098 C  
HETATM   18  C   UNL     1      -6.090  13.458  67.699  1.00  0.00    -0.122 C  
BRANCH  17  19
HETATM   19  C   UNL     1      -8.299  13.936  68.912  1.00  0.00     0.074 C  
BRANCH  19  20
HETATM   20  C   UNL     1      -9.288  14.037  67.755  1.00  0.00    -0.205 C  
BRANCH  20  21
HETATM   21  C   UNL     1      -9.225  15.413  67.084  1.00  0.00    -0.226 C  
BRANCH  21  22
HETATM   22  C   UNL     1      -9.419  15.298  65.571  1.00  0.00    -0.141 C  
BRANCH  22  23
HETATM   23  C   UNL     1     -10.348  16.387  65.034  1.00  0.00     0.030 C  
HETATM   24  C   UNL     1     -11.727  15.824  64.718  1.00  0.00    -0.081 C  
ENDBRANCH  22  23
ENDBRANCH  21  22
ENDBRANCH  20  21
ENDBRANCH  19  20
ENDBRANCH  17  19
ENDBRANCH  13  14
ENDBRANCH  12  13
BRANCH  12  25
HETATM   25  O   UNL     1      -5.298   8.869  68.006  1.00  0.00    -0.034 OA 
BRANCH  25  26
HETATM   26  C   UNL     1      -5.752   8.870  69.290  1.00  0.00    -0.035 C  
HETATM   27  O   UNL     1      -5.803   9.842  70.036  1.00  0.00    -0.039 OA 
BRANCH  26  28
HETATM   28  C   UNL     1      -6.227   7.479  69.699  1.00  0.00    -0.031 C  
BRANCH  28  29
HETATM   29  C   UNL     1      -7.757   7.410  69.831  1.00  0.00    -0.099 C  
HETATM   30  C   UNL     1      -8.264   5.298  68.437  1.00  0.00    -0.090 C  
HETATM   31  C   UNL     1     -10.034   6.990  68.872  1.00  0.00    -0.160 C  
HETATM   32  C   UNL     1      -8.532   6.790  68.646  1.00  0.00    -0.123 C  
ENDBRANCH  28  29
BRANCH  28  33
HETATM   33  N   UNL     1      -5.527   7.083  70.920  1.00  0.00    -0.027 N  
HETATM   34  C   UNL     1      -5.890   5.995  71.661  1.00  0.00    -0.027 C  
HETATM   35  O   UNL     1      -6.843   5.267  71.429  1.00  0.00    -0.048 OA 
HETATM   36  H   UNL     1      -4.733   7.644  71.232  1.00  0.00     0.000 HD 
ENDBRANCH  28  33
ENDBRANCH  26  28
ENDBRANCH  25  26
ENDBRANCH  12  25
ENDBRANCH  11  12
ENDBRANCH  10  11
ENDBRANCH   9  10
ENDBRANCH   8   9
ENDBRANCH   7   8
ENDBRANCH   6   7
ENDBRANCH   5   6
ENDBRANCH   4   5
ENDBRANCH   3   4
ENDBRANCH   2   3
TORSDOF 22
ENDMDL
MODEL      492
REMARK 921   NORMALIZED FREE ENERGY PREDICTED BY IDOCK:    3.26 KCAL/MOL
REMARK 922        TOTAL FREE ENERGY PREDICTED BY IDOCK:    3.83 KCAL/MOL
REMARK 923 INTER-LIGAND FREE ENERGY PREDICTED BY IDOCK:   -4.37 KCAL/MOL
REMARK 924 INTRA-LIGAND FREE ENERGY PREDICTED BY IDOCK:    8.20 KCAL/MOL
REMARK 927      BINDING AFFINITY PREDICTED BY RF-SCORE:    0.00 PKD
ROOT
HETATM    1  C   UNL     1      -8.276  13.730  68.554  1.00  0.00    -0.124 C  
HETATM    2  C   UNL     1      -9.551  13.161  67.954  1.00  0.00    -0.218 C  
ENDROOT
BRANCH   2   3
HETATM    3  C   UNL     1     -10.776  13.633  68.732  1.00  0.00    -0.265 C  
BRANCH   3   4
HETATM    4  C   UNL     1     -12.015  13.709  67.846  1.00  0.00    -0.382 C  
BRANCH   4   5
HETATM    5  C   UNL     1     -11.988  12.612  66.780  1.00  0.00    -0.362 C  
BRANCH   5   6
HETATM    6  C   UNL     1     -10.582  12.046  66.630  1.00  0.00    -0.266 C  
BRANCH   6   7
HETATM    7  C   UNL     1     -10.283  10.947  67.652  1.00  0.00    -0.214 C  
BRANCH   7   8
HETATM    8  C   UNL     1     -11.606  10.375  68.147  1.00  0.00    -0.056 C  
BRANCH   8   9
HETATM    9  C   UNL     1     -11.464   9.410  69.320  1.00  0.00     0.234 C  
BRANCH   9  10
HETATM   10  C   UNL     1     -10.037   9.523  69.864  1.00  0.00    -0.262 C  
BRANCH  10  11
HETATM   11  C   UNL     1      -9.550   8.281  70.594  1.00  0.00    -0.190 C  
BRANCH  11  12
HETATM   12  C   UNL     1      -8.902   7.187  69.725  1.00  0.00    -0.142 C  
BRANCH  12  13
HETATM   13  C   UNL     1      -8.845   7.493  68.212  1.00  0.00    -0.125 C  
BRANCH  13  14
HETATM   14  C   UNL     1      -8.785   6.250  67.317  1.00  0.00    -0.105 C  
HETATM   15  O   UNL     1      -7.682   6.300  66.367  1.00  0.00    -0.096 OA 
HETATM   16  O   UNL     1      -8.206   6.264  64.123  1.00  0.00    -0.102 OA 
HETATM   17  C   UNL     1      -9.791   6.208  66.134  1.00  0.00    -0.007 C  
HETATM   18  C   UNL     1      -8.502   6.259  65.294  1.00  0.00    -0.111 C  
BRANCH  17  19
HETATM   19  C   UNL     1     -10.632   4.960  65.887  1.00  0.00    -0.280 C  
BRANCH  19  20
HETATM   20  C   UNL     1     -10.178   4.248  64.616  1.00  0.00    -0.134 C  
BRANCH  20  21
HETATM   21  C   UNL     1      -9.688   2.828  64.914  1.00  0.00     0.012 C  
BRANCH  21  22
HETATM   22  C   UNL     1      -8.404   2.850  65.747  1.00  0.00    -0.092 C  
BRANCH  22  23
HETATM   23  C   UNL     1      -7.156   2.771  64.868  1.00  0.00    -0.053 C  
HETATM   24  C   UNL     1      -5.890   2.765  65.713  1.00  0.00    -0.019 C  
ENDBRANCH  22  23
ENDBRANCH  21  22
ENDBRANCH  20  21
ENDBRANCH  19  20
ENDBRANCH  17  19
ENDBRANCH  13  14
ENDBRANCH  12  13
BRANCH  12  25
HETATM   25  O   UNL     1      -7.549   6.921  70.161  1.00  0.00    -0.094 OA 
BRANCH  25  26
HETATM   26  C   UNL     1      -6.611   7.877  69.913  1.00  0.00    -0.037 C  
HETATM   27  O   UNL     1      -6.025   8.053  68.851  1.00  0.00    -0.037 OA 
BRANCH  26  28
HETATM   28  C   UNL     1      -6.381   8.746  71.146  1.00  0.00    -0.054 C  
BRANCH  28  29
HETATM   29  C   UNL     1      -7.345   8.389  72.289  1.00  0.00    -0.126 C  
HETATM   30  C   UNL     1      -5.909   9.008  74.341  1.00  0.00    -0.123 C  
HETATM   31  C   UNL     1      -7.816   7.428  74.554  1.00  0.00    -0.193 C  
HETATM   32  C   UNL     1      -6.709   7.924  73.619  1.00  0.00    -0.112 C  
ENDBRANCH  28  29
BRANCH  28  33
HETATM   33  N   UNL     1      -6.454  10.152  70.751  1.00  0.00    -0.073 N  
HETATM   34  C   UNL     1      -6.792  10.547  69.488  1.00  0.00    -0.098 C  
HETATM   35  O   UNL     1      -7.022   9.800  68.550  1.00  0.00    -0.063 OA 
HETATM   36  H   UNL     1      -6.243  10.868  71.447  1.00  0.00     0.000 HD 
ENDBRANCH  28  33
ENDBRANCH  26  28
ENDBRANCH  25  26
ENDBRANCH  12  25
ENDBRANCH  11  12
ENDBRANCH  10  11
ENDBRANCH   9  10
ENDBRANCH   8   9
ENDBRANCH   7   8
ENDBRANCH   6   7
ENDBRANCH   5   6
ENDBRANCH   4   5
ENDBRANCH   3   4
ENDBRANCH   2   3
TORSDOF 22
ENDMDL
MODEL      493
REMARK 921   NORMALIZED FREE ENERGY PREDICTED BY IDOCK:    3.56 KCAL/MOL
REMARK 922        TOTAL FREE ENERGY PREDICTED BY IDOCK:    4.51 KCAL/MOL
REMARK 923 INTER-LIGAND FREE ENERGY PREDICTED BY IDOCK:   -3.24 KCAL/MOL
REMARK 924 INTRA-LIGAND FREE ENERGY PREDICTED BY IDOCK:    7.75 KCAL/MOL
REMARK 927      BINDING AFFINITY PREDICTED BY RF-SCORE:    0.00 PKD
ROOT
HETATM    1  C   UNL     1      -9.155   2.646  73.543  1.00  0.00    -0.089 C  
HETATM    2  C   UNL     1      -9.791   2.649  72.163  1.00  0.00    -0.235 C  
ENDROOT
BRANCH   2   3
HETATM    3  C   UNL     1      -8.956   3.468  71.183  1.00  0.00    -0.158 C  
BRANCH   3   4
HETATM    4  C   UNL     1      -9.610   4.810  70.867  1.00  0.00    -0.245 C  
BRANCH   4   5
HETATM    5  C   UNL     1     -10.197   4.809  69.454  1.00  0.00    -0.166 C  
BRANCH   5   6
HETATM    6  C   UNL     1      -9.229   4.160  68.473  1.00  0.00    -0.200 C  
BRANCH   6   7
HETATM    7  C   UNL     1      -8.150   5.131  67.989  1.00  0.00    -0.098 C  
BRANCH   7   8
HETATM    8  C   UNL     1      -8.446   5.499  66.540  1.00  0.00    -0.113 C  
BRANCH   8   9
HETATM    9  C   UNL     1      -9.901   5.296  66.132  1.00  0.00    -0.186 C  
BRANCH   9  10
HETATM   10  C   UNL     1     -10.632   6.635  66.279  1.00  0.00     0.317 C  
BRANCH  10  11
HETATM   11  C   UNL     1      -9.709   7.825  66.490  1.00  0.00    -0.265 C  
BRANCH  11  12
HETATM   12  C   UNL     1      -9.962   8.672  67.751  1.00  0.00    -0.190 C  
BRANCH  12  13
HETATM   13  C   UNL     1     -10.996   8.090  68.740  1.00  0.00     0.140 C  
BRANCH  13  14
HETATM   14  C   UNL     1     -11.403   9.049  69.866  1.00  0.00    -0.001 C  
HETATM   15  O   UNL     1     -10.254   9.633  70.543  1.00  0.00    -0.264 OA 
HETATM   16  O   UNL     1     -10.011   9.202  72.794  1.00  0.00     0.383 OA 
HETATM   17  C   UNL     1     -11.844   8.389  71.202  1.00  0.00    -0.314 C  
HETATM   18  C   UNL     1     -10.585   9.094  71.737  1.00  0.00    -0.313 C  
BRANCH  17  19
HETATM   19  C   UNL     1     -13.132   8.834  71.888  1.00  0.00    -0.420 C  
BRANCH  19  20
HETATM   20  C   UNL     1     -14.293   7.927  71.490  1.00  0.00    -0.563 C  
BRANCH  20  21
HETATM   21  C   UNL     1     -14.034   6.475  71.902  1.00  0.00     0.067 C  
BRANCH  21  22
HETATM   22  C   UNL     1     -12.548   6.235  72.175  1.00  0.00    -0.035 C  
BRANCH  22  23
HETATM   23  C   UNL     1     -12.334   5.314  73.377  1.00  0.00     1.182 C  
HETATM   24  C   UNL     1     -10.855   5.010  73.577  1.00  0.00    -0.369 C  
ENDBRANCH  22  23
ENDBRANCH  21  22
ENDBRANCH  20  21
ENDBRANCH  19  20
ENDBRANCH  17  19
ENDBRANCH  13  14
ENDBRANCH  12  13
BRANCH  12  25
HETATM   25  O   UNL     1      -8.733   8.878  68.485  1.00  0.00    -0.132 OA 
BRANCH  25  26
HETATM   26  C   UNL     1      -8.086  10.063  68.304  1.00  0.00    -0.104 C  
HETATM   27  O   UNL     1      -8.615  11.150  68.098  1.00  0.00    -0.128 OA 
BRANCH  26  28
HETATM   28  C   UNL     1      -6.575   9.879  68.412  1.00  0.00    -0.055 C  
BRANCH  28  29
HETATM   29  C   UNL     1      -6.195   8.884  69.520  1.00  0.00    -0.043 C  
HETATM   30  C   UNL     1      -8.333   7.442  69.623  1.00  0.00    -0.132 C  
HETATM   31  C   UNL     1      -6.760   7.523  71.547  1.00  0.00    -0.049 C  
HETATM   32  C   UNL     1      -7.350   8.331  70.386  1.00  0.00    -0.055 C  
ENDBRANCH  28  29
BRANCH  28  33
HETATM   33  N   UNL     1      -5.952  11.191  68.579  1.00  0.00    -0.043 N  
HETATM   34  C   UNL     1      -5.852  11.812  69.791  1.00  0.00    -0.114 C  
HETATM   35  O   UNL     1      -6.296  11.383  70.845  1.00  0.00    -0.244 OA 
HETATM   36  H   UNL     1      -5.577  11.663  67.755  1.00  0.00     0.000 HD 
ENDBRANCH  28  33
ENDBRANCH  26  28
ENDBRANCH  25  26
ENDBRANCH  12  25
ENDBRANCH  11  12
ENDBRANCH  10  11
ENDBRANCH   9  10
ENDBRANCH   8   9
ENDBRANCH   7   8
ENDBRANCH   6   7
ENDBRANCH   5   6
ENDBRANCH   4   5
ENDBRANCH   3   4
ENDBRANCH   2   3
TORSDOF 22
ENDMDL
MODEL      494
REMARK 921   NORMALIZED FREE ENERGY PREDICTED BY IDOCK:    4.10 KCAL/MOL
REMARK 922        TOTAL FREE ENERGY PREDICTED BY IDOCK:    5.75 KCAL/MOL
REMARK 923 INTER-LIGAND FREE ENERGY PREDICTED BY IDOCK:   -0.17 KCAL/MOL
REMARK 924 INTRA-LIGAND FREE ENERGY PREDICTED BY IDOCK:    5.92 KCAL/MOL
REMARK 927      BINDING AFFINITY PREDICTED BY RF-SCORE:    0.00 PKD
ROOT
HETATM    1  C   UNL     1     -11.096  10.362  64.323  1.00  0.00     1.525 C  
HETATM    2  C   UNL     1     -10.297  10.340  63.031  1.00  0.00     0.734 C  
ENDROOT
BRANCH   2   3
HETATM    3  C   UNL     1      -9.301  11.495  62.988  1.00  0.00    -0.293 C  
BRANCH   3   4
HETATM    4  C   UNL     1      -9.841  12.734  63.694  1.00  0.00     0.452 C  
BRANCH   4   5
HETATM    5  C   UNL     1     -11.367  12.681  63.794  1.00  0.00    -0.529 C  
BRANCH   5   6
HETATM    6  C   UNL     1     -11.889  13.840  64.631  1.00  0.00    -0.427 C  
BRANCH   6   7
HETATM    7  C   UNL     1     -10.772  14.566  65.384  1.00  0.00    -0.372 C  
BRANCH   7   8
HETATM    8  C   UNL     1     -11.095  16.055  65.412  1.00  0.00    -0.159 C  
BRANCH   8   9
HETATM    9  C   UNL     1     -10.148  16.879  66.279  1.00  0.00    -0.335 C  
BRANCH   9  10
HETATM   10  C   UNL     1     -10.908  17.320  67.534  1.00  0.00    -0.206 C  
BRANCH  10  11
HETATM   11  C   UNL     1     -10.064  17.332  68.798  1.00  0.00    -0.337 C  
BRANCH  11  12
HETATM   12  C   UNL     1      -8.601  17.786  68.639  1.00  0.00    -0.262 C  
BRANCH  12  13
HETATM   13  C   UNL     1      -7.547  16.851  69.273  1.00  0.00    -0.086 C  
BRANCH  13  14
HETATM   14  C   UNL     1      -8.099  15.497  69.737  1.00  0.00     0.003 C  
HETATM   15  O   UNL     1      -7.427  15.000  70.929  1.00  0.00     0.851 OA 
HETATM   16  O   UNL     1      -6.307  12.992  70.761  1.00  0.00    -0.018 OA 
HETATM   17  C   UNL     1      -7.609  14.250  68.950  1.00  0.00    -0.113 C  
HETATM   18  C   UNL     1      -6.973  13.890  70.305  1.00  0.00     0.465 C  
BRANCH  17  19
HETATM   19  C   UNL     1      -8.612  13.216  68.450  1.00  0.00    -0.124 C  
BRANCH  19  20
HETATM   20  C   UNL     1     -10.041  13.698  68.684  1.00  0.00    -0.182 C  
BRANCH  20  21
HETATM   21  C   UNL     1     -11.048  12.554  68.535  1.00  0.00    -0.297 C  
BRANCH  21  22
HETATM   22  C   UNL     1     -10.365  11.194  68.685  1.00  0.00    -0.219 C  
BRANCH  22  23
HETATM   23  C   UNL     1     -11.368  10.088  69.014  1.00  0.00    -0.136 C  
HETATM   24  C   UNL     1     -10.876   8.735  68.516  1.00  0.00    -0.016 C  
ENDBRANCH  22  23
ENDBRANCH  21  22
ENDBRANCH  20  21
ENDBRANCH  19  20
ENDBRANCH  17  19
ENDBRANCH  13  14
ENDBRANCH  12  13
BRANCH  12  25
HETATM   25  O   UNL     1      -8.259  17.933  67.242  1.00  0.00    -0.212 OA 
BRANCH  25  26
HETATM   26  C   UNL     1      -8.469  19.151  66.670  1.00  0.00    -0.310 C  
HETATM   27  O   UNL     1      -9.005  19.356  65.586  1.00  0.00    -0.307 OA 
BRANCH  26  28
HETATM   28  C   UNL     1      -7.961  20.271  67.573  1.00  0.00    -0.311 C  
BRANCH  28  29
HETATM   29  C   UNL     1      -6.766  19.821  68.429  1.00  0.00    -0.324 C  
HETATM   30  C   UNL     1      -7.660  20.311  70.799  1.00  0.00     1.292 C  
HETATM   31  C   UNL     1      -5.218  20.112  70.378  1.00  0.00    -0.281 C  
HETATM   32  C   UNL     1      -6.553  20.555  69.772  1.00  0.00     0.057 C  
ENDBRANCH  28  29
BRANCH  28  33
HETATM   33  N   UNL     1      -9.079  20.777  68.368  1.00  0.00     0.520 N  
HETATM   34  C   UNL     1     -10.381  20.655  67.973  1.00  0.00     0.118 C  
HETATM   35  O   UNL     1     -10.758  20.165  66.919  1.00  0.00    -0.331 OA 
HETATM   36  H   UNL     1      -8.879  21.241  69.255  1.00  0.00     0.000 HD 
ENDBRANCH  28  33
ENDBRANCH  26  28
ENDBRANCH  25  26
ENDBRANCH  12  25
ENDBRANCH  11  12
ENDBRANCH  10  11
ENDBRANCH   9  10
ENDBRANCH   8   9
ENDBRANCH   7   8
ENDBRANCH   6   7
ENDBRANCH   5   6
ENDBRANCH   4   5
ENDBRANCH   3   4
ENDBRANCH   2   3
TORSDOF 22
ENDMDL
MODEL      495
REMARK 921   NORMALIZED FREE ENERGY PREDICTED BY IDOCK:    4.65 KCAL/MOL
REMARK 922        TOTAL FREE ENERGY PREDICTED BY IDOCK:    7.02 KCAL/MOL
REMARK 923 INTER-LIGAND FREE ENERGY PREDICTED BY IDOCK:    3.72 KCAL/MOL
REMARK 924 INTRA-LIGAND FREE ENERGY PREDICTED BY IDOCK:    3.30 KCAL/MOL
REMARK 927      BINDING AFFINITY PREDICTED BY RF-SCORE:    0.00 PKD
ROOT
HETATM    1  C   UNL     1      -9.037   4.881  73.631  1.00  0.00    -0.119 C  
HETATM    2  C   UNL     1      -9.007   6.396  73.744  1.00  0.00    -0.137 C  
ENDROOT
BRANCH   2   3
HETATM    3  C   UNL     1      -9.735   7.042  72.569  1.00  0.00    -0.170 C  
BRANCH   3   4
HETATM    4  C   UNL     1      -9.256   6.486  71.231  1.00  0.00    -0.155 C  
BRANCH   4   5
HETATM    5  C   UNL     1      -9.562   4.990  71.125  1.00  0.00    -0.226 C  
BRANCH   5   6
HETATM    6  C   UNL     1      -9.248   4.479  69.726  1.00  0.00    -0.191 C  
BRANCH   6   7
HETATM    7  C   UNL     1      -8.483   5.505  68.887  1.00  0.00    -0.101 C  
BRANCH   7   8
HETATM    8  C   UNL     1      -9.492   6.341  68.107  1.00  0.00    -0.113 C  
BRANCH   8   9
HETATM    9  C   UNL     1      -8.905   7.609  67.495  1.00  0.00    -0.124 C  
BRANCH   9  10
HETATM   10  C   UNL     1      -8.953   8.718  68.550  1.00  0.00    -0.138 C  
BRANCH  10  11
HETATM   11  C   UNL     1     -10.304   9.407  68.665  1.00  0.00    -0.227 C  
BRANCH  11  12
HETATM   12  C   UNL     1     -10.411  10.811  68.043  1.00  0.00    -0.194 C  
BRANCH  12  13
HETATM   13  C   UNL     1     -11.460  10.957  66.918  1.00  0.00     0.121 C  
BRANCH  13  14
HETATM   14  C   UNL     1     -11.113  10.205  65.628  1.00  0.00     0.934 C  
HETATM   15  O   UNL     1     -10.020   9.260  65.810  1.00  0.00    -0.299 OA 
HETATM   16  O   UNL     1      -8.108   9.589  64.566  1.00  0.00    -0.126 OA 
HETATM   17  C   UNL     1     -10.257  10.982  64.590  1.00  0.00    -0.392 C  
HETATM   18  C   UNL     1      -9.226   9.885  64.913  1.00  0.00    -0.246 C  
BRANCH  17  19
HETATM   19  C   UNL     1     -10.674  11.016  63.123  1.00  0.00     0.026 C  
BRANCH  19  20
HETATM   20  C   UNL     1     -11.720  12.102  62.888  1.00  0.00     0.180 C  
BRANCH  20  21
HETATM   21  C   UNL     1     -11.992  12.903  64.165  1.00  0.00    -0.491 C  
BRANCH  21  22
HETATM   22  C   UNL     1     -10.779  13.751  64.554  1.00  0.00    -0.405 C  
BRANCH  22  23
HETATM   23  C   UNL     1     -10.773  14.082  66.046  1.00  0.00    -0.294 C  
HETATM   24  C   UNL     1     -12.159  14.497  66.522  1.00  0.00    -0.330 C  
ENDBRANCH  22  23
ENDBRANCH  21  22
ENDBRANCH  20  21
ENDBRANCH  19  20
ENDBRANCH  17  19
ENDBRANCH  13  14
ENDBRANCH  12  13
BRANCH  12  25
HETATM   25  O   UNL     1     -10.725  11.797  69.053  1.00  0.00    -0.214 OA 
BRANCH  25  26
HETATM   26  C   UNL     1     -10.374  11.512  70.338  1.00  0.00     2.140 C  
HETATM   27  O   UNL     1      -9.267  11.143  70.718  1.00  0.00     2.875 OA 
BRANCH  26  28
HETATM   28  C   UNL     1     -11.550  11.732  71.285  1.00  0.00     1.481 C  
BRANCH  28  29
HETATM   29  C   UNL     1     -12.776  10.898  70.880  1.00  0.00    -0.464 C  
HETATM   30  C   UNL     1     -13.349   9.765  73.127  1.00  0.00     1.383 C  
HETATM   31  C   UNL     1     -14.144   8.801  70.977  1.00  0.00     0.001 C  
HETATM   32  C   UNL     1     -13.006   9.577  71.648  1.00  0.00    -0.483 C  
ENDBRANCH  28  29
BRANCH  28  33
HETATM   33  N   UNL     1     -11.828  13.165  71.364  1.00  0.00     0.135 N  
HETATM   34  C   UNL     1     -12.469  13.849  70.370  1.00  0.00    -0.334 C  
HETATM   35  O   UNL     1     -12.836  13.373  69.306  1.00  0.00     0.413 OA 
HETATM   36  H   UNL     1     -11.532  13.676  72.196  1.00  0.00     0.000 HD 
ENDBRANCH  28  33
ENDBRANCH  26  28
ENDBRANCH  25  26
ENDBRANCH  12  25
ENDBRANCH  11  12
ENDBRANCH  10  11
ENDBRANCH   9  10
ENDBRANCH   8   9
ENDBRANCH   7   8
ENDBRANCH   6   7
ENDBRANCH   5   6
ENDBRANCH   4   5
ENDBRANCH   3   4
ENDBRANCH   2   3
TORSDOF 22
ENDMDL
MODEL      496
REMARK 921   NORMALIZED FREE ENERGY PREDICTED BY IDOCK:    4.78 KCAL/MOL
REMARK 922        TOTAL FREE ENERGY PREDICTED BY IDOCK:    7.32 KCAL/MOL
REMARK 923 INTER-LIGAND FREE ENERGY PREDICTED BY IDOCK:    3.42 KCAL/MOL
REMARK 924 INTRA-LIGAND FREE ENERGY PREDICTED BY IDOCK:    3.90 KCAL/MOL
REMARK 927      BINDING AFFINITY PREDICTED BY RF-SCORE:    0.00 PKD
ROOT
HETATM    1  C   UNL     1      -8.766  10.728  64.458  1.00  0.00    -0.097 C  
HETATM    2  C   UNL     1      -7.424  10.588  65.159  1.00  0.00    -0.036 C  
ENDROOT
BRANCH   2   3
HETATM    3  C   UNL     1      -6.740  11.946  65.297  1.00  0.00     2.775 C  
BRANCH   3   4
HETATM    4  C   UNL     1      -7.683  12.998  65.873  1.00  0.00     2.759 C  
BRANCH   4   5
HETATM    5  C   UNL     1      -8.331  12.497  67.165  1.00  0.00    -0.179 C  
BRANCH   5   6
HETATM    6  C   UNL     1      -8.532  13.647  68.143  1.00  0.00    -0.175 C  
BRANCH   6   7
HETATM    7  C   UNL     1      -7.455  13.683  69.229  1.00  0.00     0.188 C  
BRANCH   7   8
HETATM    8  C   UNL     1      -6.095  13.481  68.570  1.00  0.00    -0.090 C  
BRANCH   8   9
HETATM    9  C   UNL     1      -5.602  12.038  68.594  1.00  0.00    -0.052 C  
BRANCH   9  10
HETATM   10  C   UNL     1      -6.181  11.354  69.836  1.00  0.00    -0.143 C  
BRANCH  10  11
HETATM   11  C   UNL     1      -5.959   9.850  69.876  1.00  0.00    -0.045 C  
BRANCH  11  12
HETATM   12  C   UNL     1      -6.627   9.030  68.757  1.00  0.00    -0.053 C  
BRANCH  12  13
HETATM   13  C   UNL     1      -5.733   7.951  68.106  1.00  0.00    -0.033 C  
BRANCH  13  14
HETATM   14  C   UNL     1      -6.468   7.027  67.127  1.00  0.00    -0.053 C  
HETATM   15  O   UNL     1      -6.779   5.731  67.712  1.00  0.00    -0.054 OA 
HETATM   16  O   UNL     1      -5.860   3.865  66.718  1.00  0.00    -0.022 OA 
HETATM   17  C   UNL     1      -5.588   6.324  66.057  1.00  0.00    -0.014 C  
HETATM   18  C   UNL     1      -6.036   5.056  66.807  1.00  0.00    -0.026 C  
BRANCH  17  19
HETATM   19  C   UNL     1      -6.003   6.344  64.589  1.00  0.00    -0.023 C  
BRANCH  19  20
HETATM   20  C   UNL     1      -6.326   4.935  64.103  1.00  0.00    -0.026 C  
BRANCH  20  21
HETATM   21  C   UNL     1      -7.797   4.805  63.699  1.00  0.00    -0.085 C  
BRANCH  21  22
HETATM   22  C   UNL     1      -8.297   6.080  63.019  1.00  0.00     0.014 C  
BRANCH  22  23
HETATM   23  C   UNL     1      -7.368   7.266  63.280  1.00  0.00    -0.086 C  
HETATM   24  C   UNL     1      -7.909   8.538  62.643  1.00  0.00    -0.140 C  
ENDBRANCH  22  23
ENDBRANCH  21  22
ENDBRANCH  20  21
ENDBRANCH  19  20
ENDBRANCH  17  19
ENDBRANCH  13  14
ENDBRANCH  12  13
BRANCH  12  25
HETATM   25  O   UNL     1      -7.815   8.366  69.247  1.00  0.00    -0.099 OA 
BRANCH  25  26
HETATM   26  C   UNL     1      -8.869   9.150  69.604  1.00  0.00    -0.151 C  
HETATM   27  O   UNL     1      -8.823  10.348  69.859  1.00  0.00    -0.059 OA 
BRANCH  26  28
HETATM   28  C   UNL     1     -10.164   8.342  69.630  1.00  0.00    -0.209 C  
BRANCH  28  29
HETATM   29  C   UNL     1     -11.375   9.185  69.201  1.00  0.00     0.275 C  
HETATM   30  C   UNL     1     -10.482  10.234  67.018  1.00  0.00    -0.304 C  
HETATM   31  C   UNL     1     -12.379  11.272  68.245  1.00  0.00     0.514 C  
HETATM   32  C   UNL     1     -11.080  10.477  68.405  1.00  0.00    -0.335 C  
ENDBRANCH  28  29
BRANCH  28  33
HETATM   33  N   UNL     1     -10.318   7.744  70.955  1.00  0.00    -0.202 N  
HETATM   34  C   UNL     1      -9.689   6.589  71.323  1.00  0.00    -0.173 C  
HETATM   35  O   UNL     1      -8.979   5.909  70.598  1.00  0.00    -0.142 OA 
HETATM   36  H   UNL     1     -10.922   8.210  71.634  1.00  0.00     0.000 HD 
ENDBRANCH  28  33
ENDBRANCH  26  28
ENDBRANCH  25  26
ENDBRANCH  12  25
ENDBRANCH  11  12
ENDBRANCH  10  11
ENDBRANCH   9  10
ENDBRANCH   8   9
ENDBRANCH   7   8
ENDBRANCH   6   7
ENDBRANCH   5   6
ENDBRANCH   4   5
ENDBRANCH   3   4
ENDBRANCH   2   3
TORSDOF 22
ENDMDL
MODEL      497
REMARK 921   NORMALIZED FREE ENERGY PREDICTED BY IDOCK:    6.49 KCAL/MOL
REMARK 922        TOTAL FREE ENERGY PREDICTED BY IDOCK:   11.22 KCAL/MOL
REMARK 923 INTER-LIGAND FREE ENERGY PREDICTED BY IDOCK:   -4.06 KCAL/MOL
REMARK 924 INTRA-LIGAND FREE ENERGY PREDICTED BY IDOCK:   15.29 KCAL/MOL
REMARK 927      BINDING AFFINITY PREDICTED BY RF-SCORE:    0.00 PKD
ROOT
HETATM    1  C   UNL     1     -10.447   4.478  65.495  1.00  0.00    -0.241 C  
HETATM    2  C   UNL     1      -9.759   5.173  66.658  1.00  0.00    -0.181 C  
ENDROOT
BRANCH   2   3
HETATM    3  C   UNL     1      -8.246   4.989  66.582  1.00  0.00    -0.108 C  
BRANCH   3   4
HETATM    4  C   UNL     1      -7.792   4.613  65.175  1.00  0.00    -0.090 C  
BRANCH   4   5
HETATM    5  C   UNL     1      -7.745   5.847  64.272  1.00  0.00    -0.106 C  
BRANCH   5   6
HETATM    6  C   UNL     1      -7.854   7.121  65.101  1.00  0.00    -0.124 C  
BRANCH   6   7
HETATM    7  C   UNL     1      -7.117   7.012  66.437  1.00  0.00    -0.074 C  
BRANCH   7   8
HETATM    8  C   UNL     1      -7.971   6.191  67.396  1.00  0.00    -0.105 C  
BRANCH   8   9
HETATM    9  C   UNL     1      -9.294   6.853  67.770  1.00  0.00    -0.120 C  
BRANCH   9  10
HETATM   10  C   UNL     1      -9.078   7.664  69.051  1.00  0.00    -0.144 C  
BRANCH  10  11
HETATM   11  C   UNL     1      -8.109   8.825  68.894  1.00  0.00    -0.114 C  
BRANCH  11  12
HETATM   12  C   UNL     1      -7.942   9.747  70.116  1.00  0.00    -0.186 C  
BRANCH  12  13
HETATM   13  C   UNL     1      -7.901   9.029  71.484  1.00  0.00    -0.033 C  
BRANCH  13  14
HETATM   14  C   UNL     1      -6.659   8.158  71.705  1.00  0.00    -0.058 C  
HETATM   15  O   UNL     1      -5.715   8.243  70.599  1.00  0.00    -0.029 OA 
HETATM   16  O   UNL     1      -5.244   6.302  69.449  1.00  0.00    -0.011 OA 
HETATM   17  C   UNL     1      -6.830   6.638  71.431  1.00  0.00    -0.062 C  
HETATM   18  C   UNL     1      -5.813   6.926  70.312  1.00  0.00    -0.024 C  
BRANCH  17  19
HETATM   19  C   UNL     1      -6.342   5.616  72.453  1.00  0.00    -0.052 C  
BRANCH  19  20
HETATM   20  C   UNL     1      -7.217   5.647  73.703  1.00  0.00    -0.087 C  
BRANCH  20  21
HETATM   21  C   UNL     1      -8.680   5.341  73.368  1.00  0.00    -0.115 C  
BRANCH  21  22
HETATM   22  C   UNL     1      -9.607   6.437  73.896  1.00  0.00    -0.199 C  
BRANCH  22  23
HETATM   23  C   UNL     1     -11.069   6.165  73.539  1.00  0.00    -0.004 C  
HETATM   24  C   UNL     1     -11.258   6.075  72.031  1.00  0.00    -0.341 C  
ENDBRANCH  22  23
ENDBRANCH  21  22
ENDBRANCH  20  21
ENDBRANCH  19  20
ENDBRANCH  17  19
ENDBRANCH  13  14
ENDBRANCH  12  13
BRANCH  12  25
HETATM   25  O   UNL     1      -6.731  10.530  70.006  1.00  0.00    -0.124 OA 
BRANCH  25  26
HETATM   26  C   UNL     1      -6.752  11.603  69.167  1.00  0.00    -0.109 C  
HETATM   27  O   UNL     1      -5.792  12.060  68.557  1.00  0.00    -0.052 OA 
BRANCH  26  28
HETATM   28  C   UNL     1      -8.161  12.176  69.053  1.00  0.00     0.290 C  
BRANCH  28  29
HETATM   29  C   UNL     1      -8.809  11.842  67.700  1.00  0.00    -0.162 C  
HETATM   30  C   UNL     1     -11.188  11.187  68.456  1.00  0.00    -0.318 C  
HETATM   31  C   UNL     1     -10.300  10.434  66.259  1.00  0.00    -0.270 C  
HETATM   32  C   UNL     1      -9.923  10.769  67.705  1.00  0.00    -0.195 C  
ENDBRANCH  28  29
BRANCH  28  33
HETATM   33  N   UNL     1      -8.108  13.611  69.327  1.00  0.00    -0.237 N  
HETATM   34  C   UNL     1      -7.265  14.459  68.667  1.00  0.00    -0.123 C  
HETATM   35  O   UNL     1      -6.443  14.127  67.826  1.00  0.00    -0.156 OA 
HETATM   36  H   UNL     1      -8.728  13.996  70.041  1.00  0.00     0.000 HD 
ENDBRANCH  28  33
ENDBRANCH  26  28
ENDBRANCH  25  26
ENDBRANCH  12  25
ENDBRANCH  11  12
ENDBRANCH  10  11
ENDBRANCH   9  10
ENDBRANCH   8   9
ENDBRANCH   7   8
ENDBRANCH   6   7
ENDBRANCH   5   6
ENDBRANCH   4   5
ENDBRANCH   3   4
ENDBRANCH   2   3
TORSDOF 22
ENDMDL
MODEL      498
REMARK 921   NORMALIZED FREE ENERGY PREDICTED BY IDOCK:    6.82 KCAL/MOL
REMARK 922        TOTAL FREE ENERGY PREDICTED BY IDOCK:   11.97 KCAL/MOL
REMARK 923 INTER-LIGAND FREE ENERGY PREDICTED BY IDOCK:    7.84 KCAL/MOL
REMARK 924 INTRA-LIGAND FREE ENERGY PREDICTED BY IDOCK:    4.14 KCAL/MOL
REMARK 927      BINDING AFFINITY PREDICTED BY RF-SCORE:    0.00 PKD
ROOT
HETATM    1  C   UNL     1      -8.762  10.774  64.423  1.00  0.00    -0.087 C  
HETATM    2  C   UNL     1      -7.397  10.748  65.090  1.00  0.00     0.154 C  
ENDROOT
BRANCH   2   3
HETATM    3  C   UNL     1      -6.748  12.128  65.051  1.00  0.00     4.613 C  
BRANCH   3   4
HETATM    4  C   UNL     1      -7.725  13.225  65.463  1.00  0.00     4.828 C  
BRANCH   4   5
HETATM    5  C   UNL     1      -8.412  12.872  66.784  1.00  0.00    -0.023 C  
BRANCH   5   6
HETATM    6  C   UNL     1      -8.632  14.124  67.623  1.00  0.00    -0.191 C  
BRANCH   6   7
HETATM    7  C   UNL     1      -7.595  14.269  68.738  1.00  0.00    -0.130 C  
BRANCH   7   8
HETATM    8  C   UNL     1      -6.217  13.968  68.160  1.00  0.00    -0.132 C  
BRANCH   8   9
HETATM    9  C   UNL     1      -5.795  12.508  68.292  1.00  0.00    -0.062 C  
BRANCH   9  10
HETATM   10  C   UNL     1      -6.452  11.931  69.550  1.00  0.00    -0.113 C  
BRANCH  10  11
HETATM   11  C   UNL     1      -6.406  10.413  69.632  1.00  0.00    -0.068 C  
BRANCH  11  12
HETATM   12  C   UNL     1      -7.182   9.645  68.547  1.00  0.00    -0.070 C  
BRANCH  12  13
HETATM   13  C   UNL     1      -6.434   8.447  67.922  1.00  0.00    -0.057 C  
BRANCH  13  14
HETATM   14  C   UNL     1      -7.034   7.078  68.263  1.00  0.00    -0.080 C  
HETATM   15  O   UNL     1      -6.250   6.358  69.257  1.00  0.00    -0.031 OA 
HETATM   16  O   UNL     1      -5.347   4.331  68.636  1.00  0.00    -0.010 OA 
HETATM   17  C   UNL     1      -6.769   5.939  67.240  1.00  0.00    -0.061 C  
HETATM   18  C   UNL     1      -5.988   5.331  68.419  1.00  0.00    -0.021 C  
BRANCH  17  19
HETATM   19  C   UNL     1      -7.919   5.064  66.753  1.00  0.00    -0.104 C  
BRANCH  19  20
HETATM   20  C   UNL     1      -7.735   3.624  67.223  1.00  0.00    -0.079 C  
BRANCH  20  21
HETATM   21  C   UNL     1      -8.826   3.216  68.217  1.00  0.00    -0.163 C  
BRANCH  21  22
HETATM   22  C   UNL     1     -10.152   3.910  67.896  1.00  0.00     0.252 C  
BRANCH  22  23
HETATM   23  C   UNL     1      -9.953   5.123  66.988  1.00  0.00    -0.222 C  
HETATM   24  C   UNL     1     -11.269   5.848  66.744  1.00  0.00     0.026 C  
ENDBRANCH  22  23
ENDBRANCH  21  22
ENDBRANCH  20  21
ENDBRANCH  19  20
ENDBRANCH  17  19
ENDBRANCH  13  14
ENDBRANCH  12  13
BRANCH  12  25
HETATM   25  O   UNL     1      -8.434   9.144  69.070  1.00  0.00    -0.127 OA 
BRANCH  25  26
HETATM   26  C   UNL     1      -9.387  10.059  69.401  1.00  0.00    -0.223 C  
HETATM   27  O   UNL     1      -9.196  11.250  69.626  1.00  0.00     0.436 OA 
BRANCH  26  28
HETATM   28  C   UNL     1     -10.770   9.415  69.440  1.00  0.00    -0.217 C  
BRANCH  28  29
HETATM   29  C   UNL     1     -11.868  10.386  68.978  1.00  0.00    -0.094 C  
HETATM   30  C   UNL     1     -10.814  11.309  66.811  1.00  0.00    -0.334 C  
HETATM   31  C   UNL     1     -12.608  12.566  67.987  1.00  0.00     1.213 C  
HETATM   32  C   UNL     1     -11.411  11.630  68.182  1.00  0.00    -0.358 C  
ENDBRANCH  28  29
BRANCH  28  33
HETATM   33  N   UNL     1     -11.002   8.880  70.780  1.00  0.00    -0.240 N  
HETATM   34  C   UNL     1     -10.510   7.672  71.188  1.00  0.00    -0.208 C  
HETATM   35  O   UNL     1      -9.876   6.894  70.492  1.00  0.00    -0.179 OA 
HETATM   36  H   UNL     1     -11.553   9.431  71.439  1.00  0.00     0.000 HD 
ENDBRANCH  28  33
ENDBRANCH  26  28
ENDBRANCH  25  26
ENDBRANCH  12  25
ENDBRANCH  11  12
ENDBRANCH  10  11
ENDBRANCH   9  10
ENDBRANCH   8   9
ENDBRANCH   7   8
ENDBRANCH   6   7
ENDBRANCH   5   6
ENDBRANCH   4   5
ENDBRANCH   3   4
ENDBRANCH   2   3
TORSDOF 22
ENDMDL
MODEL      499
REMARK 921   NORMALIZED FREE ENERGY PREDICTED BY IDOCK:    8.66 KCAL/MOL
REMARK 922        TOTAL FREE ENERGY PREDICTED BY IDOCK:   16.17 KCAL/MOL
REMARK 923 INTER-LIGAND FREE ENERGY PREDICTED BY IDOCK:   -0.24 KCAL/MOL
REMARK 924 INTRA-LIGAND FREE ENERGY PREDICTED BY IDOCK:   16.41 KCAL/MOL
REMARK 927      BINDING AFFINITY PREDICTED BY RF-SCORE:    0.00 PKD
ROOT
HETATM    1  C   UNL     1      -9.124   2.683  73.503  1.00  0.00    -0.089 C  
HETATM    2  C   UNL     1      -9.643   2.604  72.076  1.00  0.00    -0.205 C  
ENDROOT
BRANCH   2   3
HETATM    3  C   UNL     1      -8.702   3.325  71.116  1.00  0.00    -0.125 C  
BRANCH   3   4
HETATM    4  C   UNL     1      -9.319   4.614  70.580  1.00  0.00    -0.220 C  
BRANCH   4   5
HETATM    5  C   UNL     1      -9.726   4.452  69.114  1.00  0.00    -0.240 C  
BRANCH   5   6
HETATM    6  C   UNL     1      -8.613   3.782  68.321  1.00  0.00    -0.116 C  
BRANCH   6   7
HETATM    7  C   UNL     1      -7.664   4.795  67.678  1.00  0.00    -0.086 C  
BRANCH   7   8
HETATM    8  C   UNL     1      -7.840   4.731  66.165  1.00  0.00    -0.099 C  
BRANCH   8   9
HETATM    9  C   UNL     1      -9.215   4.244  65.720  1.00  0.00    -0.146 C  
BRANCH   9  10
HETATM   10  C   UNL     1      -9.844   5.325  64.837  1.00  0.00     0.494 C  
BRANCH  10  11
HETATM   11  C   UNL     1      -8.838   6.278  64.211  1.00  0.00     0.542 C  
BRANCH  11  12
HETATM   12  C   UNL     1      -8.892   7.741  64.688  1.00  0.00     0.475 C  
BRANCH  12  13
HETATM   13  C   UNL     1      -9.933   8.037  65.790  1.00  0.00     0.620 C  
BRANCH  13  14
HETATM   14  C   UNL     1      -9.894   9.473  66.328  1.00  0.00    -0.266 C  
HETATM   15  O   UNL     1      -8.551  10.035  66.319  1.00  0.00    -0.127 OA 
HETATM   16  O   UNL     1      -7.643  10.660  68.343  1.00  0.00    -0.091 OA 
HETATM   17  C   UNL     1      -9.939   9.628  67.874  1.00  0.00    -0.201 C  
HETATM   18  C   UNL     1      -8.527  10.203  67.659  1.00  0.00    -0.118 C  
BRANCH  17  19
HETATM   19  C   UNL     1     -10.909  10.613  68.517  1.00  0.00    -0.275 C  
BRANCH  19  20
HETATM   20  C   UNL     1     -12.160   9.890  69.010  1.00  0.00     0.739 C  
BRANCH  20  21
HETATM   21  C   UNL     1     -11.819   8.847  70.077  1.00  0.00     0.327 C  
BRANCH  21  22
HETATM   22  C   UNL     1     -10.325   8.516  70.069  1.00  0.00    -0.213 C  
BRANCH  22  23
HETATM   23  C   UNL     1      -9.764   8.382  71.485  1.00  0.00    -0.276 C  
HETATM   24  C   UNL     1     -10.665   7.513  72.351  1.00  0.00    -0.311 C  
ENDBRANCH  22  23
ENDBRANCH  21  22
ENDBRANCH  20  21
ENDBRANCH  19  20
ENDBRANCH  17  19
ENDBRANCH  13  14
ENDBRANCH  12  13
BRANCH  12  25
HETATM   25  O   UNL     1      -7.603   8.165  65.189  1.00  0.00    -0.086 OA 
BRANCH  25  26
HETATM   26  C   UNL     1      -6.935   9.114  64.475  1.00  0.00    -0.090 C  
HETATM   27  O   UNL     1      -7.393   9.776  63.551  1.00  0.00    -0.114 OA 
BRANCH  26  28
HETATM   28  C   UNL     1      -5.508   9.276  64.990  1.00  0.00    -0.046 C  
BRANCH  28  29
HETATM   29  C   UNL     1      -5.330   8.669  66.391  1.00  0.00    -0.031 C  
HETATM   30  C   UNL     1      -7.403   7.136  66.516  1.00  0.00    -0.083 C  
HETATM   31  C   UNL     1      -6.252   7.891  68.587  1.00  0.00    -0.040 C  
HETATM   32  C   UNL     1      -6.619   8.285  67.153  1.00  0.00    -0.058 C  
ENDBRANCH  28  29
BRANCH  28  33
HETATM   33  N   UNL     1      -5.142  10.690  64.924  1.00  0.00    -0.139 N  
HETATM   34  C   UNL     1      -5.586  11.610  65.831  1.00  0.00     0.582 C  
HETATM   35  O   UNL     1      -6.355  11.383  66.752  1.00  0.00    -0.123 OA 
HETATM   36  H   UNL     1      -4.530  11.002  64.170  1.00  0.00     0.000 HD 
ENDBRANCH  28  33
ENDBRANCH  26  28
ENDBRANCH  25  26
ENDBRANCH  12  25
ENDBRANCH  11  12
ENDBRANCH  10  11
ENDBRANCH   9  10
ENDBRANCH   8   9
ENDBRANCH   7   8
ENDBRANCH   6   7
ENDBRANCH   5   6
ENDBRANCH   4   5
ENDBRANCH   3   4
ENDBRANCH   2   3
TORSDOF 22
ENDMDL
MODEL      500
REMARK 921   NORMALIZED FREE ENERGY PREDICTED BY IDOCK:    8.97 KCAL/MOL
REMARK 922        TOTAL FREE ENERGY PREDICTED BY IDOCK:   16.88 KCAL/MOL
REMARK 923 INTER-LIGAND FREE ENERGY PREDICTED BY IDOCK:    7.61 KCAL/MOL
REMARK 924 INTRA-LIGAND FREE ENERGY PREDICTED BY IDOCK:    9.27 KCAL/MOL
REMARK 927      BINDING AFFINITY PREDICTED BY RF-SCORE:    0.00 PKD
ROOT
HETATM    1  C   UNL     1     -11.292  10.168  64.131  1.00  0.00     3.622 C  
HETATM    2  C   UNL     1     -10.628   9.860  62.799  1.00  0.00     2.495 C  
ENDROOT
BRANCH   2   3
HETATM    3  C   UNL     1      -9.408  10.751  62.582  1.00  0.00    -0.340 C  
BRANCH   3   4
HETATM    4  C   UNL     1      -9.588  12.123  63.225  1.00  0.00     0.132 C  
BRANCH   4   5
HETATM    5  C   UNL     1     -11.064  12.393  63.524  1.00  0.00    -0.521 C  
BRANCH   5   6
HETATM    6  C   UNL     1     -11.220  13.679  64.324  1.00  0.00    -0.355 C  
BRANCH   6   7
HETATM    7  C   UNL     1      -9.876  14.342  64.632  1.00  0.00     0.432 C  
BRANCH   7   8
HETATM    8  C   UNL     1     -10.085  15.850  64.704  1.00  0.00     0.892 C  
BRANCH   8   9
HETATM    9  C   UNL     1      -9.141  16.562  65.667  1.00  0.00     0.164 C  
BRANCH   9  10
HETATM   10  C   UNL     1      -9.860  16.727  67.010  1.00  0.00    -0.262 C  
BRANCH  10  11
HETATM   11  C   UNL     1      -8.928  16.968  68.187  1.00  0.00    -0.227 C  
BRANCH  11  12
HETATM   12  C   UNL     1      -7.814  18.010  67.976  1.00  0.00    -0.256 C  
BRANCH  12  13
HETATM   13  C   UNL     1      -6.391  17.541  68.351  1.00  0.00    -0.177 C  
BRANCH  13  14
HETATM   14  C   UNL     1      -6.329  16.141  68.973  1.00  0.00    -0.148 C  
HETATM   15  O   UNL     1      -5.125  15.416  68.593  1.00  0.00    -0.089 OA 
HETATM   16  O   UNL     1      -5.392  13.444  67.430  1.00  0.00    -0.337 OA 
HETATM   17  C   UNL     1      -7.195  15.047  68.287  1.00  0.00    -0.113 C  
HETATM   18  C   UNL     1      -5.819  14.427  67.985  1.00  0.00    -0.143 C  
BRANCH  17  19
HETATM   19  C   UNL     1      -8.100  14.150  69.125  1.00  0.00     0.132 C  
BRANCH  19  20
HETATM   20  C   UNL     1      -9.148  14.980  69.860  1.00  0.00     0.231 C  
BRANCH  20  21
HETATM   21  C   UNL     1     -10.393  14.150  70.183  1.00  0.00     0.850 C  
BRANCH  21  22
HETATM   22  C   UNL     1     -11.452  14.996  70.893  1.00  0.00    -0.330 C  
BRANCH  22  23
HETATM   23  C   UNL     1     -12.374  15.703  69.900  1.00  0.00    -0.260 C  
HETATM   24  C   UNL     1     -13.250  14.703  69.157  1.00  0.00     1.816 C  
ENDBRANCH  22  23
ENDBRANCH  21  22
ENDBRANCH  20  21
ENDBRANCH  19  20
ENDBRANCH  17  19
ENDBRANCH  13  14
ENDBRANCH  12  13
BRANCH  12  25
HETATM   25  O   UNL     1      -7.774  18.445  66.597  1.00  0.00    -0.218 OA 
BRANCH  25  26
HETATM   26  C   UNL     1      -8.322  19.658  66.306  1.00  0.00    -0.352 C  
HETATM   27  O   UNL     1      -9.004  19.923  65.322  1.00  0.00     0.036 OA 
BRANCH  26  28
HETATM   28  C   UNL     1      -7.994  20.678  67.393  1.00  0.00    -0.264 C  
BRANCH  28  29
HETATM   29  C   UNL     1      -6.781  20.250  68.234  1.00  0.00    -0.331 C  
HETATM   30  C   UNL     1      -7.912  19.780  70.505  1.00  0.00     1.374 C  
HETATM   31  C   UNL     1      -5.474  20.246  70.371  1.00  0.00    -0.333 C  
HETATM   32  C   UNL     1      -6.836  20.560  69.747  1.00  0.00     0.302 C  
ENDBRANCH  28  29
BRANCH  28  33
HETATM   33  N   UNL     1      -9.195  20.914  68.193  1.00  0.00     0.326 N  
HETATM   34  C   UNL     1     -10.450  20.614  67.747  1.00  0.00     0.212 C  
HETATM   35  O   UNL     1     -10.722  20.171  66.642  1.00  0.00    -0.353 OA 
HETATM   36  H   UNL     1      -9.090  21.318  69.124  1.00  0.00     0.000 HD 
ENDBRANCH  28  33
ENDBRANCH  26  28
ENDBRANCH  25  26
ENDBRANCH  12  25
ENDBRANCH  11  12
ENDBRANCH  10  11
ENDBRANCH   9  10
ENDBRANCH   8   9
ENDBRANCH   7   8
ENDBRANCH   6   7
ENDBRANCH   5   6
ENDBRANCH   4   5
ENDBRANCH   3   4
ENDBRANCH   2   3
TORSDOF 22
ENDMDL
MODEL      501
REMARK 921   NORMALIZED FREE ENERGY PREDICTED BY IDOCK:   15.21 KCAL/MOL
REMARK 922        TOTAL FREE ENERGY PREDICTED BY IDOCK:   31.15 KCAL/MOL
REMARK 923 INTER-LIGAND FREE ENERGY PREDICTED BY IDOCK:    1.20 KCAL/MOL
REMARK 924 INTRA-LIGAND FREE ENERGY PREDICTED BY IDOCK:   29.95 KCAL/MOL
REMARK 927      BINDING AFFINITY PREDICTED BY RF-SCORE:    0.00 PKD
ROOT
HETATM    1  C   UNL     1      -9.868   5.838  70.528  1.00  0.00    -0.240 C  
HETATM    2  C   UNL     1      -8.753   6.037  71.542  1.00  0.00    -0.132 C  
ENDROOT
BRANCH   2   3
HETATM    3  C   UNL     1      -9.078   7.191  72.486  1.00  0.00    -0.148 C  
BRANCH   3   4
HETATM    4  C   UNL     1      -8.987   8.541  71.782  1.00  0.00    -0.288 C  
BRANCH   4   5
HETATM    5  C   UNL     1      -8.110   8.443  70.531  1.00  0.00    -0.107 C  
BRANCH   5   6
HETATM    6  C   UNL     1      -8.093   9.771  69.786  1.00  0.00    -0.174 C  
BRANCH   6   7
HETATM    7  C   UNL     1      -7.202   9.730  68.543  1.00  0.00    -0.070 C  
BRANCH   7   8
HETATM    8  C   UNL     1      -7.759  10.709  67.516  1.00  0.00    -0.101 C  
BRANCH   8   9
HETATM    9  C   UNL     1      -6.856  10.917  66.304  1.00  0.00    -0.123 C  
BRANCH   9  10
HETATM   10  C   UNL     1      -6.013  12.174  66.544  1.00  0.00     0.518 C  
BRANCH  10  11
HETATM   11  C   UNL     1      -6.831  13.432  66.789  1.00  0.00     1.289 C  
BRANCH  11  12
HETATM   12  C   UNL     1      -8.227  13.230  67.408  1.00  0.00    -0.183 C  
BRANCH  12  13
HETATM   13  C   UNL     1      -9.084  14.509  67.535  1.00  0.00    -0.193 C  
BRANCH  13  14
HETATM   14  C   UNL     1     -10.470  14.284  68.151  1.00  0.00    -0.246 C  
HETATM   15  O   UNL     1     -11.546  14.740  67.282  1.00  0.00    -0.370 OA 
HETATM   16  O   UNL     1     -12.922  16.408  68.079  1.00  0.00     2.279 OA 
HETATM   17  C   UNL     1     -10.916  15.310  69.229  1.00  0.00    -0.261 C  
HETATM   18  C   UNL     1     -11.990  15.648  68.179  1.00  0.00     0.059 C  
BRANCH  17  19
HETATM   19  C   UNL     1     -11.490  14.825  70.557  1.00  0.00    -0.300 C  
BRANCH  19  20
HETATM   20  C   UNL     1     -11.312  13.316  70.699  1.00  0.00     0.780 C  
BRANCH  20  21
HETATM   21  C   UNL     1     -12.656  12.585  70.628  1.00  0.00    -0.237 C  
BRANCH  21  22
HETATM   22  C   UNL     1     -12.739  11.478  71.680  1.00  0.00    -0.396 C  
BRANCH  22  23
HETATM   23  C   UNL     1     -12.075  10.187  71.200  1.00  0.00    -0.485 C  
HETATM   24  C   UNL     1     -11.226   9.565  72.300  1.00  0.00     0.617 C  
ENDBRANCH  22  23
ENDBRANCH  21  22
ENDBRANCH  20  21
ENDBRANCH  19  20
ENDBRANCH  17  19
ENDBRANCH  13  14
ENDBRANCH  12  13
BRANCH  12  25
HETATM   25  O   UNL     1      -8.994  12.273  66.642  1.00  0.00    -0.204 OA 
BRANCH  25  26
HETATM   26  C   UNL     1      -9.447  11.166  67.295  1.00  0.00    -0.164 C  
HETATM   27  O   UNL     1      -8.945  10.664  68.295  1.00  0.00    -0.133 OA 
BRANCH  26  28
HETATM   28  C   UNL     1     -10.705  10.618  66.628  1.00  0.00    -0.181 C  
BRANCH  28  29
HETATM   29  C   UNL     1     -10.519  10.439  65.112  1.00  0.00    -0.158 C  
HETATM   30  C   UNL     1     -10.852  12.866  64.299  1.00  0.00    -0.423 C  
HETATM   31  C   UNL     1     -11.147  10.951  62.741  1.00  0.00     1.073 C  
HETATM   32  C   UNL     1     -11.301  11.407  64.195  1.00  0.00    -0.263 C  
ENDBRANCH  28  29
BRANCH  28  33
HETATM   33  N   UNL     1     -11.833  11.481  66.972  1.00  0.00    -0.012 N  
HETATM   34  C   UNL     1     -12.507  12.222  66.043  1.00  0.00     0.585 C  
HETATM   35  O   UNL     1     -12.230  12.289  64.855  1.00  0.00    -0.410 OA 
HETATM   36  H   UNL     1     -12.131  11.533  67.947  1.00  0.00     0.000 HD 
ENDBRANCH  28  33
ENDBRANCH  26  28
ENDBRANCH  25  26
ENDBRANCH  12  25
ENDBRANCH  11  12
ENDBRANCH  10  11
ENDBRANCH   9  10
ENDBRANCH   8   9
ENDBRANCH   7   8
ENDBRANCH   6   7
ENDBRANCH   5   6
ENDBRANCH   4   5
ENDBRANCH   3   4
ENDBRANCH   2   3
TORSDOF 22
ENDMDL
MODEL      502
REMARK 921   NORMALIZED FREE ENERGY PREDICTED BY IDOCK:   15.86 KCAL/MOL
REMARK 922        TOTAL FREE ENERGY PREDICTED BY IDOCK:   32.64 KCAL/MOL
REMARK 923 INTER-LIGAND FREE ENERGY PREDICTED BY IDOCK:   22.22 KCAL/MOL
REMARK 924 INTRA-LIGAND FREE ENERGY PREDICTED BY IDOCK:   10.42 KCAL/MOL
REMARK 927      BINDING AFFINITY PREDICTED BY RF-SCORE:    0.00 PKD
ROOT
HETATM    1  C   UNL     1      -6.522   5.282  67.583  1.00  0.00    -0.048 C  
HETATM    2  C   UNL     1      -6.234   5.880  66.216  1.00  0.00    -0.037 C  
ENDROOT
BRANCH   2   3
HETATM    3  C   UNL     1      -5.286   7.070  66.332  1.00  0.00    -0.022 C  
BRANCH   3   4
HETATM    4  C   UNL     1      -5.717   8.031  67.436  1.00  0.00    -0.038 C  
BRANCH   4   5
HETATM    5  C   UNL     1      -5.772   7.316  68.788  1.00  0.00    -0.022 C  
BRANCH   5   6
HETATM    6  C   UNL     1      -7.082   7.621  69.501  1.00  0.00    -0.064 C  
BRANCH   6   7
HETATM    7  C   UNL     1      -8.299   7.105  68.732  1.00  0.00    -0.126 C  
BRANCH   7   8
HETATM    8  C   UNL     1      -8.837   8.235  67.861  1.00  0.00    -0.138 C  
BRANCH   8   9
HETATM    9  C   UNL     1      -8.423   8.140  66.396  1.00  0.00    -0.133 C  
BRANCH   9  10
HETATM   10  C   UNL     1      -8.179   9.559  65.874  1.00  0.00    -0.115 C  
BRANCH  10  11
HETATM   11  C   UNL     1      -9.403  10.461  65.934  1.00  0.00    -0.224 C  
BRANCH  11  12
HETATM   12  C   UNL     1      -9.384  11.569  67.002  1.00  0.00    -0.178 C  
BRANCH  12  13
HETATM   13  C   UNL     1      -8.561  12.824  66.637  1.00  0.00    -0.015 C  
BRANCH  13  14
HETATM   14  C   UNL     1      -9.399  14.091  66.424  1.00  0.00    -0.221 C  
HETATM   15  O   UNL     1     -10.293  13.981  65.280  1.00  0.00    -0.342 OA 
HETATM   16  O   UNL     1     -10.002  15.479  63.552  1.00  0.00     4.062 OA 
HETATM   17  C   UNL     1      -8.677  15.282  65.735  1.00  0.00     0.620 C  
HETATM   18  C   UNL     1      -9.714  15.014  64.629  1.00  0.00     1.058 C  
BRANCH  17  19
HETATM   19  C   UNL     1      -8.769  16.683  66.333  1.00  0.00    -0.345 C  
BRANCH  19  20
HETATM   20  C   UNL     1      -7.784  17.624  65.646  1.00  0.00     0.292 C  
BRANCH  20  21
HETATM   21  C   UNL     1      -8.403  19.005  65.409  1.00  0.00     1.061 C  
BRANCH  21  22
HETATM   22  C   UNL     1      -9.908  18.989  65.683  1.00  0.00     0.288 C  
BRANCH  22  23
HETATM   23  C   UNL     1     -10.233  19.468  67.098  1.00  0.00    -0.542 C  
HETATM   24  C   UNL     1      -9.722  20.884  67.329  1.00  0.00    -0.361 C  
ENDBRANCH  22  23
ENDBRANCH  21  22
ENDBRANCH  20  21
ENDBRANCH  19  20
ENDBRANCH  17  19
ENDBRANCH  13  14
ENDBRANCH  12  13
BRANCH  12  25
HETATM   25  O   UNL     1     -10.728  12.011  67.306  1.00  0.00    -0.219 OA 
BRANCH  25  26
HETATM   26  C   UNL     1     -10.862  13.107  68.103  1.00  0.00    -0.251 C  
HETATM   27  O   UNL     1      -9.963  13.871  68.436  1.00  0.00    -0.225 OA 
BRANCH  26  28
HETATM   28  C   UNL     1     -12.315  13.293  68.531  1.00  0.00     0.134 C  
BRANCH  28  29
HETATM   29  C   UNL     1     -12.608  12.613  69.879  1.00  0.00     0.166 C  
HETATM   30  C   UNL     1     -10.225  11.939  70.604  1.00  0.00     4.127 C  
HETATM   31  C   UNL     1     -12.216  10.799  71.561  1.00  0.00    -0.302 C  
HETATM   32  C   UNL     1     -11.653  11.477  70.309  1.00  0.00    -0.305 C  
ENDBRANCH  28  29
BRANCH  28  33
HETATM   33  N   UNL     1     -13.186  12.831  67.452  1.00  0.00     3.421 N  
HETATM   34  C   UNL     1     -13.309  11.513  67.115  1.00  0.00     8.479 C  
HETATM   35  O   UNL     1     -12.692  10.591  67.626  1.00  0.00     2.781 OA 
HETATM   36  H   UNL     1     -13.725  13.522  66.929  1.00  0.00     0.000 HD 
ENDBRANCH  28  33
ENDBRANCH  26  28
ENDBRANCH  25  26
ENDBRANCH  12  25
ENDBRANCH  11  12
ENDBRANCH  10  11
ENDBRANCH   9  10
ENDBRANCH   8   9
ENDBRANCH   7   8
ENDBRANCH   6   7
ENDBRANCH   5   6
ENDBRANCH   4   5
ENDBRANCH   3   4
ENDBRANCH   2   3
TORSDOF 22
ENDMDL
MODEL      503
REMARK 921   NORMALIZED FREE ENERGY PREDICTED BY IDOCK:   31.70 KCAL/MOL
REMARK 922        TOTAL FREE ENERGY PREDICTED BY IDOCK:   68.84 KCAL/MOL
REMARK 923 INTER-LIGAND FREE ENERGY PREDICTED BY IDOCK:    3.87 KCAL/MOL
REMARK 924 INTRA-LIGAND FREE ENERGY PREDICTED BY IDOCK:   64.98 KCAL/MOL
REMARK 927      BINDING AFFINITY PREDICTED BY RF-SCORE:    0.00 PKD
ROOT
HETATM    1  C   UNL     1      -6.564   5.377  67.544  1.00  0.00    -0.053 C  
HETATM    2  C   UNL     1      -6.147   6.032  66.238  1.00  0.00    -0.032 C  
ENDROOT
BRANCH   2   3
HETATM    3  C   UNL     1      -5.313   7.283  66.500  1.00  0.00    -0.023 C  
BRANCH   3   4
HETATM    4  C   UNL     1      -6.040   8.267  67.411  1.00  0.00    -0.052 C  
BRANCH   4   5
HETATM    5  C   UNL     1      -6.697   7.537  68.585  1.00  0.00    -0.054 C  
BRANCH   5   6
HETATM    6  C   UNL     1      -8.120   8.036  68.796  1.00  0.00    -0.125 C  
BRANCH   6   7
HETATM    7  C   UNL     1      -8.921   8.086  67.493  1.00  0.00    -0.143 C  
BRANCH   7   8
HETATM    8  C   UNL     1      -8.895   9.514  66.963  1.00  0.00    -0.139 C  
BRANCH   8   9
HETATM    9  C   UNL     1      -7.776   9.785  65.962  1.00  0.00    -0.104 C  
BRANCH   9  10
HETATM   10  C   UNL     1      -7.168  11.154  66.282  1.00  0.00    -0.048 C  
BRANCH  10  11
HETATM   11  C   UNL     1      -8.114  12.323  66.047  1.00  0.00     0.762 C  
BRANCH  11  12
HETATM   12  C   UNL     1      -8.893  12.829  67.274  1.00  0.00    -0.198 C  
BRANCH  12  13
HETATM   13  C   UNL     1      -8.027  13.426  68.406  1.00  0.00    -0.139 C  
BRANCH  13  14
HETATM   14  C   UNL     1      -8.392  14.865  68.790  1.00  0.00    -0.170 C  
HETATM   15  O   UNL     1      -9.236  15.510  67.794  1.00  0.00    -0.179 OA 
HETATM   16  O   UNL     1      -8.413  17.399  66.761  1.00  0.00    -0.229 OA 
HETATM   17  C   UNL     1      -7.296  15.939  68.544  1.00  0.00    -0.127 C  
HETATM   18  C   UNL     1      -8.328  16.478  67.537  1.00  0.00    -0.164 C  
BRANCH  17  19
HETATM   19  C   UNL     1      -6.937  16.933  69.644  1.00  0.00     0.062 C  
BRANCH  19  20
HETATM   20  C   UNL     1      -5.907  17.941  69.141  1.00  0.00    -0.213 C  
BRANCH  20  21
HETATM   21  C   UNL     1      -6.571  19.076  68.357  1.00  0.00    -0.272 C  
BRANCH  21  22
HETATM   22  C   UNL     1      -7.637  18.537  67.401  1.00  0.00    -0.224 C  
BRANCH  22  23
HETATM   23  C   UNL     1      -8.859  18.006  68.153  1.00  0.00    -0.277 C  
HETATM   24  C   UNL     1      -9.468  19.084  69.039  1.00  0.00    -0.327 C  
ENDBRANCH  22  23
ENDBRANCH  21  22
ENDBRANCH  20  21
ENDBRANCH  19  20
ENDBRANCH  17  19
ENDBRANCH  13  14
ENDBRANCH  12  13
BRANCH  12  25
HETATM   25  O   UNL     1      -9.854  13.840  66.889  1.00  0.00    -0.250 OA 
BRANCH  25  26
HETATM   26  C   UNL     1     -10.304  14.680  67.863  1.00  0.00    -0.237 C  
HETATM   27  O   UNL     1     -10.500  14.383  69.036  1.00  0.00    -0.239 OA 
BRANCH  26  28
HETATM   28  C   UNL     1     -10.524  16.085  67.311  1.00  0.00    -0.308 C  
BRANCH  28  29
HETATM   29  C   UNL     1     -11.864  16.207  66.569  1.00  0.00     1.139 C  
HETATM   30  C   UNL     1     -13.109  14.139  67.483  1.00  0.00     2.393 C  
HETATM   31  C   UNL     1     -13.804  15.199  65.344  1.00  0.00     2.807 C  
HETATM   32  C   UNL     1     -12.607  14.890  66.248  1.00  0.00     0.490 C  
ENDBRANCH  28  29
BRANCH  28  33
HETATM   33  N   UNL     1      -9.374  16.451  66.485  1.00  0.00    -0.254 N  
HETATM   34  C   UNL     1      -8.915  15.664  65.467  1.00  0.00     0.523 C  
HETATM   35  O   UNL     1      -9.366  14.571  65.159  1.00  0.00     0.273 OA 
HETATM   36  H   UNL     1      -8.893  17.330  66.678  1.00  0.00     0.000 HD 
ENDBRANCH  28  33
ENDBRANCH  26  28
ENDBRANCH  25  26
ENDBRANCH  12  25
ENDBRANCH  11  12
ENDBRANCH  10  11
ENDBRANCH   9  10
ENDBRANCH   8   9
ENDBRANCH   7   8
ENDBRANCH   6   7
ENDBRANCH   5   6
ENDBRANCH   4   5
ENDBRANCH   3   4
ENDBRANCH   2   3
TORSDOF 22
ENDMDL
