MODEL        1
REMARK 921   NORMALIZED FREE ENERGY PREDICTED BY IDOCK:   -4.45 KCAL/MOL
REMARK 922        TOTAL FREE ENERGY PREDICTED BY IDOCK:   -5.69 KCAL/MOL
REMARK 923 INTER-LIGAND FREE ENERGY PREDICTED BY IDOCK:   -5.23 KCAL/MOL
REMARK 924 INTRA-LIGAND FREE ENERGY PREDICTED BY IDOCK:   -0.46 KCAL/MOL
REMARK 927      BINDING AFFINITY PREDICTED BY RF-SCORE:    0.00 PKD
ROOT
HETATM    1  N   UNL     1     -11.556  16.233  63.835  1.00  0.00    -1.573 NA 
HETATM    2  H2  UNL     1     -11.889  15.372  63.402  1.00  0.00     0.000 HD 
HETATM    3  C   UNL     1     -11.103  16.019  65.205  1.00  0.00    -0.283 C  
HETATM    4  H1  UNL     1     -12.260  16.971  63.818  1.00  0.00     0.000 HD 
ENDROOT
BRANCH   3   5
HETATM    5  C   UNL     1     -10.048  14.914  65.231  1.00  0.00    -0.380 C  
BRANCH   5   6
HETATM    6  C   UNL     1     -10.636  13.583  65.724  1.00  0.00    -0.283 C  
BRANCH   6   7
HETATM    7  CA  UNL     1     -10.948  12.582  64.603  1.00  0.00    -0.310 C  
HETATM    8  N   UNL     1     -10.037  12.757  63.436  1.00  0.00    -0.610 NA 
HETATM    9  C   UNL     1     -12.399  12.747  64.125  1.00  0.00    -0.407 C  
HETATM   10  OXT UNL     1     -13.385  12.346  64.721  1.00  0.00    -0.718 OA 
HETATM   11  O   UNL     1     -12.455  13.441  62.957  1.00  0.00    -0.667 OA 
HETATM   12  H1  UNL     1     -10.245  12.091  62.691  1.00  0.00     0.000 HD 
HETATM   13  H2  UNL     1      -9.058  12.705  63.719  1.00  0.00     0.000 HD 
ENDBRANCH   6   7
ENDBRANCH   5   6
ENDBRANCH   3   5
TORSDOF 3
ENDMDL
MODEL        2
REMARK 921   NORMALIZED FREE ENERGY PREDICTED BY IDOCK:   -4.16 KCAL/MOL
REMARK 922        TOTAL FREE ENERGY PREDICTED BY IDOCK:   -5.35 KCAL/MOL
REMARK 923 INTER-LIGAND FREE ENERGY PREDICTED BY IDOCK:   -5.22 KCAL/MOL
REMARK 924 INTRA-LIGAND FREE ENERGY PREDICTED BY IDOCK:   -0.13 KCAL/MOL
REMARK 927      BINDING AFFINITY PREDICTED BY RF-SCORE:    0.00 PKD
ROOT
HETATM    1  N   UNL     1     -12.110  11.450  62.986  1.00  0.00    -0.873 NA 
HETATM    2  H2  UNL     1     -13.053  11.070  63.069  1.00  0.00     0.000 HD 
HETATM    3  C   UNL     1     -12.015  12.805  63.516  1.00  0.00    -0.555 C  
HETATM    4  H1  UNL     1     -11.771  11.433  62.024  1.00  0.00     0.000 HD 
ENDROOT
BRANCH   3   5
HETATM    5  C   UNL     1     -12.523  12.831  64.957  1.00  0.00    -0.572 C  
BRANCH   5   6
HETATM    6  C   UNL     1     -11.770  13.870  65.803  1.00  0.00    -0.369 C  
BRANCH   6   7
HETATM    7  CA  UNL     1     -10.658  14.608  65.044  1.00  0.00    -0.439 C  
HETATM    8  N   UNL     1      -9.388  14.644  65.822  1.00  0.00    -0.518 NA 
HETATM    9  C   UNL     1     -11.087  16.051  64.735  1.00  0.00    -0.365 C  
HETATM   10  OXT UNL     1     -11.866  16.379  63.856  1.00  0.00    -1.034 OA 
HETATM   11  O   UNL     1     -10.512  16.930  65.599  1.00  0.00    -0.494 OA 
HETATM   12  H1  UNL     1      -8.648  15.134  65.318  1.00  0.00     0.000 HD 
HETATM   13  H2  UNL     1      -9.092  13.705  66.094  1.00  0.00     0.000 HD 
ENDBRANCH   6   7
ENDBRANCH   5   6
ENDBRANCH   3   5
TORSDOF 3
ENDMDL
MODEL        3
REMARK 921   NORMALIZED FREE ENERGY PREDICTED BY IDOCK:   -4.12 KCAL/MOL
REMARK 922        TOTAL FREE ENERGY PREDICTED BY IDOCK:   -5.30 KCAL/MOL
REMARK 923 INTER-LIGAND FREE ENERGY PREDICTED BY IDOCK:   -4.80 KCAL/MOL
REMARK 924 INTRA-LIGAND FREE ENERGY PREDICTED BY IDOCK:   -0.50 KCAL/MOL
REMARK 927      BINDING AFFINITY PREDICTED BY RF-SCORE:    0.00 PKD
ROOT
HETATM    1  N   UNL     1      -9.711  12.560  63.512  1.00  0.00    -0.631 NA 
HETATM    2  H2  UNL     1      -9.821  13.281  64.225  1.00  0.00     0.000 HD 
HETATM    3  C   UNL     1     -10.683  11.484  63.663  1.00  0.00    -0.424 C  
HETATM    4  H1  UNL     1      -8.768  12.171  63.501  1.00  0.00     0.000 HD 
ENDROOT
BRANCH   3   5
HETATM    5  C   UNL     1     -12.096  12.067  63.680  1.00  0.00    -0.627 C  
BRANCH   5   6
HETATM    6  C   UNL     1     -12.447  12.657  65.054  1.00  0.00    -0.556 C  
BRANCH   6   7
HETATM    7  CA  UNL     1     -12.500  14.191  65.082  1.00  0.00    -0.439 C  
HETATM    8  N   UNL     1     -12.342  14.775  63.720  1.00  0.00    -1.082 NA 
HETATM    9  C   UNL     1     -11.393  14.750  65.990  1.00  0.00    -0.332 C  
HETATM   10  OXT UNL     1     -11.420  14.754  67.209  1.00  0.00    -0.350 OA 
HETATM   11  O   UNL     1     -10.345  15.211  65.257  1.00  0.00    -0.360 OA 
HETATM   12  H1  UNL     1     -12.377  15.794  63.739  1.00  0.00     0.000 HD 
HETATM   13  H2  UNL     1     -13.028  14.391  63.069  1.00  0.00     0.000 HD 
ENDBRANCH   6   7
ENDBRANCH   5   6
ENDBRANCH   3   5
TORSDOF 3
ENDMDL
MODEL        4
REMARK 921   NORMALIZED FREE ENERGY PREDICTED BY IDOCK:   -4.08 KCAL/MOL
REMARK 922        TOTAL FREE ENERGY PREDICTED BY IDOCK:   -5.25 KCAL/MOL
REMARK 923 INTER-LIGAND FREE ENERGY PREDICTED BY IDOCK:   -5.00 KCAL/MOL
REMARK 924 INTRA-LIGAND FREE ENERGY PREDICTED BY IDOCK:   -0.25 KCAL/MOL
REMARK 927      BINDING AFFINITY PREDICTED BY RF-SCORE:    0.00 PKD
ROOT
HETATM    1  N   UNL     1     -11.661  11.362  63.201  1.00  0.00    -0.873 NA 
HETATM    2  H2  UNL     1     -11.557  12.306  62.830  1.00  0.00     0.000 HD 
HETATM    3  C   UNL     1     -10.570  11.001  64.099  1.00  0.00    -0.342 C  
HETATM    4  H1  UNL     1     -11.740  10.664  62.460  1.00  0.00     0.000 HD 
ENDROOT
BRANCH   3   5
HETATM    5  C   UNL     1     -10.451  12.045  65.208  1.00  0.00    -0.323 C  
BRANCH   5   6
HETATM    6  C   UNL     1     -10.434  13.473  64.640  1.00  0.00    -0.439 C  
BRANCH   6   7
HETATM    7  CA  UNL     1     -11.454  14.418  65.290  1.00  0.00    -0.350 C  
HETATM    8  N   UNL     1     -12.856  14.010  64.988  1.00  0.00    -0.732 NA 
HETATM    9  C   UNL     1     -11.243  15.858  64.797  1.00  0.00    -0.355 C  
HETATM   10  OXT UNL     1     -10.354  16.605  65.172  1.00  0.00    -0.630 OA 
HETATM   11  O   UNL     1     -12.158  16.191  63.849  1.00  0.00    -0.956 OA 
HETATM   12  H1  UNL     1     -13.534  14.638  65.420  1.00  0.00     0.000 HD 
HETATM   13  H2  UNL     1     -13.026  13.040  65.253  1.00  0.00     0.000 HD 
ENDBRANCH   6   7
ENDBRANCH   5   6
ENDBRANCH   3   5
TORSDOF 3
ENDMDL
MODEL        5
REMARK 921   NORMALIZED FREE ENERGY PREDICTED BY IDOCK:   -3.97 KCAL/MOL
REMARK 922        TOTAL FREE ENERGY PREDICTED BY IDOCK:   -5.12 KCAL/MOL
REMARK 923 INTER-LIGAND FREE ENERGY PREDICTED BY IDOCK:   -5.04 KCAL/MOL
REMARK 924 INTRA-LIGAND FREE ENERGY PREDICTED BY IDOCK:   -0.08 KCAL/MOL
REMARK 927      BINDING AFFINITY PREDICTED BY RF-SCORE:    0.00 PKD
ROOT
HETATM    1  N   UNL     1     -11.205  11.442  63.100  1.00  0.00    -0.854 NA 
HETATM    2  H2  UNL     1     -11.239  10.659  63.752  1.00  0.00     0.000 HD 
HETATM    3  C   UNL     1     -12.059  12.547  63.522  1.00  0.00    -0.562 C  
HETATM    4  H1  UNL     1     -11.449  11.163  62.150  1.00  0.00     0.000 HD 
ENDROOT
BRANCH   3   5
HETATM    5  C   UNL     1     -11.692  12.965  64.945  1.00  0.00    -0.388 C  
BRANCH   5   6
HETATM    6  C   UNL     1     -10.667  14.110  64.951  1.00  0.00    -0.444 C  
BRANCH   6   7
HETATM    7  CA  UNL     1     -11.277  15.496  65.198  1.00  0.00    -0.318 C  
HETATM    8  N   UNL     1     -11.252  16.339  63.969  1.00  0.00    -1.342 NA 
HETATM    9  C   UNL     1     -10.513  16.228  66.313  1.00  0.00    -0.308 C  
HETATM   10  OXT UNL     1     -10.621  15.998  67.506  1.00  0.00    -0.302 OA 
HETATM   11  O   UNL     1      -9.659  17.151  65.798  1.00  0.00    -0.525 OA 
HETATM   12  H1  UNL     1     -11.658  17.261  64.134  1.00  0.00     0.000 HD 
HETATM   13  H2  UNL     1     -11.705  15.868  63.186  1.00  0.00     0.000 HD 
ENDBRANCH   6   7
ENDBRANCH   5   6
ENDBRANCH   3   5
TORSDOF 3
ENDMDL
MODEL        6
REMARK 921   NORMALIZED FREE ENERGY PREDICTED BY IDOCK:   -3.86 KCAL/MOL
REMARK 922        TOTAL FREE ENERGY PREDICTED BY IDOCK:   -4.99 KCAL/MOL
REMARK 923 INTER-LIGAND FREE ENERGY PREDICTED BY IDOCK:   -4.68 KCAL/MOL
REMARK 924 INTRA-LIGAND FREE ENERGY PREDICTED BY IDOCK:   -0.31 KCAL/MOL
REMARK 927      BINDING AFFINITY PREDICTED BY RF-SCORE:    0.00 PKD
ROOT
HETATM    1  N   UNL     1     -14.105   9.039  73.160  1.00  0.00    -1.223 NA 
HETATM    2  H2  UNL     1     -13.953  10.040  73.281  1.00  0.00     0.000 HD 
HETATM    3  C   UNL     1     -13.363   8.503  72.024  1.00  0.00    -0.369 C  
HETATM    4  H1  UNL     1     -15.094   8.809  73.062  1.00  0.00     0.000 HD 
ENDROOT
BRANCH   3   5
HETATM    5  C   UNL     1     -11.881   8.847  72.170  1.00  0.00    -0.417 C  
BRANCH   5   6
HETATM    6  C   UNL     1     -11.407   9.789  71.053  1.00  0.00    -0.460 C  
BRANCH   6   7
HETATM    7  CA  UNL     1     -12.539  10.568  70.368  1.00  0.00    -0.286 C  
HETATM    8  N   UNL     1     -12.255  10.798  68.923  1.00  0.00    -0.795 NA 
HETATM    9  C   UNL     1     -12.747  11.928  71.052  1.00  0.00    -0.258 C  
HETATM   10  OXT UNL     1     -13.313  12.098  72.119  1.00  0.00    -0.522 OA 
HETATM   11  O   UNL     1     -12.179  12.931  70.332  1.00  0.00    -0.354 OA 
HETATM   12  H1  UNL     1     -13.008  11.315  68.467  1.00  0.00     0.000 HD 
HETATM   13  H2  UNL     1     -12.060   9.922  68.438  1.00  0.00     0.000 HD 
ENDBRANCH   6   7
ENDBRANCH   5   6
ENDBRANCH   3   5
TORSDOF 3
ENDMDL
MODEL        7
REMARK 921   NORMALIZED FREE ENERGY PREDICTED BY IDOCK:   -3.84 KCAL/MOL
REMARK 922        TOTAL FREE ENERGY PREDICTED BY IDOCK:   -4.97 KCAL/MOL
REMARK 923 INTER-LIGAND FREE ENERGY PREDICTED BY IDOCK:   -4.84 KCAL/MOL
REMARK 924 INTRA-LIGAND FREE ENERGY PREDICTED BY IDOCK:   -0.13 KCAL/MOL
REMARK 927      BINDING AFFINITY PREDICTED BY RF-SCORE:    0.00 PKD
ROOT
HETATM    1  N   UNL     1     -11.512  16.396  63.893  1.00  0.00    -1.618 NA 
HETATM    2  H2  UNL     1     -12.451  16.669  63.602  1.00  0.00     0.000 HD 
HETATM    3  C   UNL     1     -11.523  15.206  64.737  1.00  0.00    -0.383 C  
HETATM    4  H1  UNL     1     -11.022  17.152  64.372  1.00  0.00     0.000 HD 
ENDROOT
BRANCH   3   5
HETATM    5  C   UNL     1     -12.257  14.074  64.019  1.00  0.00    -0.395 C  
BRANCH   5   6
HETATM    6  C   UNL     1     -12.459  12.860  64.938  1.00  0.00    -0.540 C  
BRANCH   6   7
HETATM    7  CA  UNL     1     -11.311  12.627  65.931  1.00  0.00    -0.334 C  
HETATM    8  N   UNL     1     -10.615  11.334  65.677  1.00  0.00    -0.259 NA 
HETATM    9  C   UNL     1     -11.840  12.628  67.373  1.00  0.00    -0.328 C  
HETATM   10  OXT UNL     1     -12.150  13.623  68.007  1.00  0.00    -0.354 OA 
HETATM   11  O   UNL     1     -11.960  11.361  67.852  1.00  0.00    -0.626 OA 
HETATM   12  H1  UNL     1      -9.852  11.179  66.337  1.00  0.00     0.000 HD 
HETATM   13  H2  UNL     1     -10.291  11.269  64.712  1.00  0.00     0.000 HD 
ENDBRANCH   6   7
ENDBRANCH   5   6
ENDBRANCH   3   5
TORSDOF 3
ENDMDL
MODEL        8
REMARK 921   NORMALIZED FREE ENERGY PREDICTED BY IDOCK:   -3.83 KCAL/MOL
REMARK 922        TOTAL FREE ENERGY PREDICTED BY IDOCK:   -4.96 KCAL/MOL
REMARK 923 INTER-LIGAND FREE ENERGY PREDICTED BY IDOCK:   -4.96 KCAL/MOL
REMARK 924 INTRA-LIGAND FREE ENERGY PREDICTED BY IDOCK:   -0.00 KCAL/MOL
REMARK 927      BINDING AFFINITY PREDICTED BY RF-SCORE:    0.00 PKD
ROOT
HETATM    1  N   UNL     1     -12.143  10.988  68.158  1.00  0.00    -0.780 NA 
HETATM    2  H2  UNL     1     -11.504  10.456  67.568  1.00  0.00     0.000 HD 
HETATM    3  C   UNL     1     -11.842  12.415  68.148  1.00  0.00    -0.315 C  
HETATM    4  H1  UNL     1     -12.153  10.646  69.119  1.00  0.00     0.000 HD 
ENDROOT
BRANCH   3   5
HETATM    5  C   UNL     1     -11.828  12.926  66.708  1.00  0.00    -0.452 C  
BRANCH   5   6
HETATM    6  C   UNL     1     -10.956  12.042  65.803  1.00  0.00    -0.351 C  
BRANCH   6   7
HETATM    7  CA  UNL     1     -10.767  12.593  64.383  1.00  0.00    -0.359 C  
HETATM    8  N   UNL     1      -9.949  13.839  64.378  1.00  0.00    -0.728 NA 
HETATM    9  C   UNL     1     -12.128  12.895  63.738  1.00  0.00    -0.508 C  
HETATM   10  OXT UNL     1     -12.890  12.059  63.282  1.00  0.00    -0.732 OA 
HETATM   11  O   UNL     1     -12.403  14.226  63.773  1.00  0.00    -0.735 OA 
HETATM   12  H1  UNL     1      -9.822  14.206  63.434  1.00  0.00     0.000 HD 
HETATM   13  H2  UNL     1      -9.052  13.697  64.844  1.00  0.00     0.000 HD 
ENDBRANCH   6   7
ENDBRANCH   5   6
ENDBRANCH   3   5
TORSDOF 3
ENDMDL
MODEL        9
REMARK 921   NORMALIZED FREE ENERGY PREDICTED BY IDOCK:   -3.83 KCAL/MOL
REMARK 922        TOTAL FREE ENERGY PREDICTED BY IDOCK:   -4.96 KCAL/MOL
REMARK 923 INTER-LIGAND FREE ENERGY PREDICTED BY IDOCK:   -4.81 KCAL/MOL
REMARK 924 INTRA-LIGAND FREE ENERGY PREDICTED BY IDOCK:   -0.15 KCAL/MOL
REMARK 927      BINDING AFFINITY PREDICTED BY RF-SCORE:    0.00 PKD
ROOT
HETATM    1  N   UNL     1     -11.710  16.257  63.758  1.00  0.00    -1.488 NA 
HETATM    2  H2  UNL     1     -10.929  16.412  63.120  1.00  0.00     0.000 HD 
HETATM    3  C   UNL     1     -11.512  15.079  64.594  1.00  0.00    -0.381 C  
HETATM    4  H1  UNL     1     -12.600  16.183  63.265  1.00  0.00     0.000 HD 
ENDROOT
BRANCH   3   5
HETATM    5  C   UNL     1     -10.179  15.190  65.332  1.00  0.00    -0.402 C  
BRANCH   5   6
HETATM    6  C   UNL     1     -10.301  14.728  66.792  1.00  0.00    -0.268 C  
BRANCH   6   7
HETATM    7  CA  UNL     1     -11.731  14.365  67.217  1.00  0.00    -0.404 C  
HETATM    8  N   UNL     1     -12.133  15.071  68.466  1.00  0.00    -0.584 NA 
HETATM    9  C   UNL     1     -11.855  12.851  67.445  1.00  0.00    -0.360 C  
HETATM   10  OXT UNL     1     -11.933  12.012  66.563  1.00  0.00    -0.616 OA 
HETATM   11  O   UNL     1     -11.827  12.550  68.770  1.00  0.00    -0.306 OA 
HETATM   12  H1  UNL     1     -13.083  14.830  68.749  1.00  0.00     0.000 HD 
HETATM   13  H2  UNL     1     -12.017  16.081  68.377  1.00  0.00     0.000 HD 
ENDBRANCH   6   7
ENDBRANCH   5   6
ENDBRANCH   3   5
TORSDOF 3
ENDMDL
MODEL       10
REMARK 921   NORMALIZED FREE ENERGY PREDICTED BY IDOCK:   -3.79 KCAL/MOL
REMARK 922        TOTAL FREE ENERGY PREDICTED BY IDOCK:   -4.91 KCAL/MOL
REMARK 923 INTER-LIGAND FREE ENERGY PREDICTED BY IDOCK:   -4.67 KCAL/MOL
REMARK 924 INTRA-LIGAND FREE ENERGY PREDICTED BY IDOCK:   -0.24 KCAL/MOL
REMARK 927      BINDING AFFINITY PREDICTED BY RF-SCORE:    0.00 PKD
ROOT
HETATM    1  N   UNL     1     -11.375  16.595  63.961  1.00  0.00    -1.530 NA 
HETATM    2  H2  UNL     1     -11.795  15.825  63.442  1.00  0.00     0.000 HD 
HETATM    3  C   UNL     1     -10.823  16.161  65.239  1.00  0.00    -0.336 C  
HETATM    4  H1  UNL     1     -12.032  17.361  64.113  1.00  0.00     0.000 HD 
ENDROOT
BRANCH   3   5
HETATM    5  C   UNL     1      -9.839  15.015  65.011  1.00  0.00    -0.062 C  
BRANCH   5   6
HETATM    6  C   UNL     1     -10.417  13.671  65.481  1.00  0.00    -0.314 C  
BRANCH   6   7
HETATM    7  CA  UNL     1     -11.943  13.671  65.651  1.00  0.00    -0.395 C  
HETATM    8  N   UNL     1     -12.380  12.729  66.720  1.00  0.00    -0.368 NA 
HETATM    9  C   UNL     1     -12.630  13.275  64.335  1.00  0.00    -0.214 C  
HETATM   10  OXT UNL     1     -12.765  14.004  63.366  1.00  0.00    -0.796 OA 
HETATM   11  O   UNL     1     -13.040  11.980  64.366  1.00  0.00    -0.655 OA 
HETATM   12  H1  UNL     1     -13.394  12.729  66.833  1.00  0.00     0.000 HD 
HETATM   13  H2  UNL     1     -11.908  12.924  67.604  1.00  0.00     0.000 HD 
ENDBRANCH   6   7
ENDBRANCH   5   6
ENDBRANCH   3   5
TORSDOF 3
ENDMDL
MODEL       11
REMARK 921   NORMALIZED FREE ENERGY PREDICTED BY IDOCK:   -3.75 KCAL/MOL
REMARK 922        TOTAL FREE ENERGY PREDICTED BY IDOCK:   -4.87 KCAL/MOL
REMARK 923 INTER-LIGAND FREE ENERGY PREDICTED BY IDOCK:   -4.78 KCAL/MOL
REMARK 924 INTRA-LIGAND FREE ENERGY PREDICTED BY IDOCK:   -0.08 KCAL/MOL
REMARK 927      BINDING AFFINITY PREDICTED BY RF-SCORE:    0.00 PKD
ROOT
HETATM    1  N   UNL     1     -11.970  10.748  71.028  1.00  0.00    -0.328 NA 
HETATM    2  H2  UNL     1     -11.064  11.107  71.329  1.00  0.00     0.000 HD 
HETATM    3  C   UNL     1     -13.078  11.430  71.687  1.00  0.00    -0.393 C  
HETATM    4  H1  UNL     1     -12.052   9.742  71.172  1.00  0.00     0.000 HD 
ENDROOT
BRANCH   3   5
HETATM    5  C   UNL     1     -12.955  12.938  71.470  1.00  0.00    -0.388 C  
BRANCH   5   6
HETATM    6  C   UNL     1     -13.838  13.724  72.451  1.00  0.00    -0.681 C  
BRANCH   6   7
HETATM    7  CA  UNL     1     -14.040  15.197  72.071  1.00  0.00    -0.559 C  
HETATM    8  N   UNL     1     -13.900  15.414  70.603  1.00  0.00    -0.837 NA 
HETATM    9  C   UNL     1     -13.018  16.084  72.799  1.00  0.00    -0.431 C  
HETATM   10  OXT UNL     1     -13.080  16.408  73.974  1.00  0.00    -0.673 OA 
HETATM   11  O   UNL     1     -11.999  16.439  71.972  1.00  0.00    -0.493 OA 
HETATM   12  H1  UNL     1     -14.034  16.393  70.350  1.00  0.00     0.000 HD 
HETATM   13  H2  UNL     1     -14.527  14.805  70.076  1.00  0.00     0.000 HD 
ENDBRANCH   6   7
ENDBRANCH   5   6
ENDBRANCH   3   5
TORSDOF 3
ENDMDL
MODEL       12
REMARK 921   NORMALIZED FREE ENERGY PREDICTED BY IDOCK:   -3.71 KCAL/MOL
REMARK 922        TOTAL FREE ENERGY PREDICTED BY IDOCK:   -4.82 KCAL/MOL
REMARK 923 INTER-LIGAND FREE ENERGY PREDICTED BY IDOCK:   -4.79 KCAL/MOL
REMARK 924 INTRA-LIGAND FREE ENERGY PREDICTED BY IDOCK:   -0.03 KCAL/MOL
REMARK 927      BINDING AFFINITY PREDICTED BY RF-SCORE:    0.00 PKD
ROOT
HETATM    1  N   UNL     1      -9.709  17.865  65.916  1.00  0.00    -0.544 NA 
HETATM    2  H2  UNL     1     -10.611  18.339  65.885  1.00  0.00     0.000 HD 
HETATM    3  C   UNL     1      -9.836  16.465  66.302  1.00  0.00    -0.314 C  
HETATM    4  H1  UNL     1      -9.049  18.334  66.537  1.00  0.00     0.000 HD 
ENDROOT
BRANCH   3   5
HETATM    5  C   UNL     1     -10.823  15.763  65.371  1.00  0.00    -0.376 C  
BRANCH   5   6
HETATM    6  C   UNL     1     -10.288  14.401  64.902  1.00  0.00    -0.419 C  
BRANCH   6   7
HETATM    7  CA  UNL     1     -11.378  13.426  64.435  1.00  0.00    -0.391 C  
HETATM    8  N   UNL     1     -12.137  13.963  63.270  1.00  0.00    -1.003 NA 
HETATM    9  C   UNL     1     -12.365  13.137  65.576  1.00  0.00    -0.474 C  
HETATM   10  OXT UNL     1     -12.149  12.398  66.522  1.00  0.00    -0.599 OA 
HETATM   11  O   UNL     1     -13.514  13.847  65.422  1.00  0.00    -0.672 OA 
HETATM   12  H1  UNL     1     -12.861  13.316  62.959  1.00  0.00     0.000 HD 
HETATM   13  H2  UNL     1     -11.512  14.218  62.504  1.00  0.00     0.000 HD 
ENDBRANCH   6   7
ENDBRANCH   5   6
ENDBRANCH   3   5
TORSDOF 3
ENDMDL
MODEL       13
REMARK 921   NORMALIZED FREE ENERGY PREDICTED BY IDOCK:   -3.69 KCAL/MOL
REMARK 922        TOTAL FREE ENERGY PREDICTED BY IDOCK:   -4.80 KCAL/MOL
REMARK 923 INTER-LIGAND FREE ENERGY PREDICTED BY IDOCK:   -4.73 KCAL/MOL
REMARK 924 INTRA-LIGAND FREE ENERGY PREDICTED BY IDOCK:   -0.07 KCAL/MOL
REMARK 927      BINDING AFFINITY PREDICTED BY RF-SCORE:    0.00 PKD
ROOT
HETATM    1  N   UNL     1     -10.085  20.095  65.945  1.00  0.00    -0.562 NA 
HETATM    2  H2  UNL     1     -10.259  19.989  64.946  1.00  0.00     0.000 HD 
HETATM    3  C   UNL     1     -10.481  18.913  66.701  1.00  0.00    -0.428 C  
HETATM    4  H1  UNL     1     -10.545  20.920  66.331  1.00  0.00     0.000 HD 
ENDROOT
BRANCH   3   5
HETATM    5  C   UNL     1      -9.791  17.678  66.123  1.00  0.00    -0.253 C  
BRANCH   5   6
HETATM    6  C   UNL     1     -10.682  16.430  66.232  1.00  0.00    -0.161 C  
BRANCH   6   7
HETATM    7  CA  UNL     1     -10.837  15.655  64.917  1.00  0.00    -0.418 C  
HETATM    8  N   UNL     1     -11.658  16.406  63.925  1.00  0.00    -1.602 NA 
HETATM    9  C   UNL     1     -11.498  14.291  65.172  1.00  0.00    -0.351 C  
HETATM   10  OXT UNL     1     -10.938  13.317  65.648  1.00  0.00    -0.277 OA 
HETATM   11  O   UNL     1     -12.815  14.314  64.834  1.00  0.00    -0.680 OA 
HETATM   12  H1  UNL     1     -11.761  15.891  63.051  1.00  0.00     0.000 HD 
HETATM   13  H2  UNL     1     -11.282  17.341  63.764  1.00  0.00     0.000 HD 
ENDBRANCH   6   7
ENDBRANCH   5   6
ENDBRANCH   3   5
TORSDOF 3
ENDMDL
MODEL       14
REMARK 921   NORMALIZED FREE ENERGY PREDICTED BY IDOCK:   -3.69 KCAL/MOL
REMARK 922        TOTAL FREE ENERGY PREDICTED BY IDOCK:   -4.80 KCAL/MOL
REMARK 923 INTER-LIGAND FREE ENERGY PREDICTED BY IDOCK:   -4.58 KCAL/MOL
REMARK 924 INTRA-LIGAND FREE ENERGY PREDICTED BY IDOCK:   -0.22 KCAL/MOL
REMARK 927      BINDING AFFINITY PREDICTED BY RF-SCORE:    0.00 PKD
ROOT
HETATM    1  N   UNL     1     -11.981  11.988  67.354  1.00  0.00    -0.585 NA 
HETATM    2  H2  UNL     1     -11.244  11.941  66.651  1.00  0.00     0.000 HD 
HETATM    3  C   UNL     1     -11.948  13.240  68.102  1.00  0.00    -0.304 C  
HETATM    4  H1  UNL     1     -11.947  11.201  68.001  1.00  0.00     0.000 HD 
ENDROOT
BRANCH   3   5
HETATM    5  C   UNL     1     -11.999  14.420  67.133  1.00  0.00    -0.419 C  
BRANCH   5   6
HETATM    6  C   UNL     1     -12.454  13.981  65.732  1.00  0.00    -0.523 C  
BRANCH   6   7
HETATM    7  CA  UNL     1     -11.412  14.222  64.631  1.00  0.00    -0.385 C  
HETATM    8  N   UNL     1     -10.205  13.367  64.816  1.00  0.00    -0.553 NA 
HETATM    9  C   UNL     1     -10.975  15.695  64.617  1.00  0.00    -0.325 C  
HETATM   10  OXT UNL     1     -11.631  16.617  64.161  1.00  0.00    -1.102 OA 
HETATM   11  O   UNL     1      -9.768  15.854  65.221  1.00  0.00    -0.385 OA 
HETATM   12  H1  UNL     1      -9.512  13.527  64.084  1.00  0.00     0.000 HD 
HETATM   13  H2  UNL     1     -10.455  12.380  64.882  1.00  0.00     0.000 HD 
ENDBRANCH   6   7
ENDBRANCH   5   6
ENDBRANCH   3   5
TORSDOF 3
ENDMDL
MODEL       15
REMARK 921   NORMALIZED FREE ENERGY PREDICTED BY IDOCK:   -3.69 KCAL/MOL
REMARK 922        TOTAL FREE ENERGY PREDICTED BY IDOCK:   -4.80 KCAL/MOL
REMARK 923 INTER-LIGAND FREE ENERGY PREDICTED BY IDOCK:   -4.81 KCAL/MOL
REMARK 924 INTRA-LIGAND FREE ENERGY PREDICTED BY IDOCK:    0.02 KCAL/MOL
REMARK 927      BINDING AFFINITY PREDICTED BY RF-SCORE:    0.00 PKD
ROOT
HETATM    1  N   UNL     1     -11.289  16.694  64.201  1.00  0.00    -1.437 NA 
HETATM    2  H2  UNL     1     -12.266  16.814  64.466  1.00  0.00     0.000 HD 
HETATM    3  C   UNL     1     -10.585  15.779  65.093  1.00  0.00    -0.411 C  
HETATM    4  H1  UNL     1     -10.790  17.582  64.157  1.00  0.00     0.000 HD 
ENDROOT
BRANCH   3   5
HETATM    5  C   UNL     1     -11.333  14.448  65.158  1.00  0.00    -0.359 C  
BRANCH   5   6
HETATM    6  C   UNL     1     -12.138  14.189  63.875  1.00  0.00    -0.301 C  
BRANCH   6   7
HETATM    7  CA  UNL     1     -12.200  12.712  63.462  1.00  0.00    -0.547 C  
HETATM    8  N   UNL     1     -13.270  11.977  64.193  1.00  0.00    -0.682 NA 
HETATM    9  C   UNL     1     -10.854  12.022  63.733  1.00  0.00    -0.420 C  
HETATM   10  OXT UNL     1      -9.852  12.144  63.048  1.00  0.00    -0.365 OA 
HETATM   11  O   UNL     1     -10.904  11.278  64.869  1.00  0.00    -0.291 OA 
HETATM   12  H1  UNL     1     -13.311  10.995  63.918  1.00  0.00     0.000 HD 
HETATM   13  H2  UNL     1     -14.176  12.432  64.082  1.00  0.00     0.000 HD 
ENDBRANCH   6   7
ENDBRANCH   5   6
ENDBRANCH   3   5
TORSDOF 3
ENDMDL
MODEL       16
REMARK 921   NORMALIZED FREE ENERGY PREDICTED BY IDOCK:   -3.67 KCAL/MOL
REMARK 922        TOTAL FREE ENERGY PREDICTED BY IDOCK:   -4.78 KCAL/MOL
REMARK 923 INTER-LIGAND FREE ENERGY PREDICTED BY IDOCK:   -4.47 KCAL/MOL
REMARK 924 INTRA-LIGAND FREE ENERGY PREDICTED BY IDOCK:   -0.31 KCAL/MOL
REMARK 927      BINDING AFFINITY PREDICTED BY RF-SCORE:    0.00 PKD
ROOT
HETATM    1  N   UNL     1     -12.019  12.236  67.208  1.00  0.00    -0.559 NA 
HETATM    2  H2  UNL     1     -11.420  12.031  66.409  1.00  0.00     0.000 HD 
HETATM    3  C   UNL     1     -11.443  13.254  68.080  1.00  0.00    -0.309 C  
HETATM    4  H1  UNL     1     -12.234  11.401  67.753  1.00  0.00     0.000 HD 
ENDROOT
BRANCH   3   5
HETATM    5  C   UNL     1     -11.121  14.506  67.264  1.00  0.00    -0.317 C  
BRANCH   5   6
HETATM    6  C   UNL     1     -12.105  14.689  66.098  1.00  0.00    -0.213 C  
BRANCH   6   7
HETATM    7  CA  UNL     1     -11.436  14.755  64.718  1.00  0.00    -0.410 C  
HETATM    8  N   UNL     1     -11.981  15.870  63.892  1.00  0.00    -1.249 NA 
HETATM    9  C   UNL     1     -11.638  13.435  63.960  1.00  0.00    -0.385 C  
HETATM   10  OXT UNL     1     -11.028  12.400  64.175  1.00  0.00    -0.312 OA 
HETATM   11  O   UNL     1     -12.623  13.549  63.030  1.00  0.00    -0.716 OA 
HETATM   12  H1  UNL     1     -11.536  15.914  62.975  1.00  0.00     0.000 HD 
HETATM   13  H2  UNL     1     -11.914  16.763  64.381  1.00  0.00     0.000 HD 
ENDBRANCH   6   7
ENDBRANCH   5   6
ENDBRANCH   3   5
TORSDOF 3
ENDMDL
MODEL       17
REMARK 921   NORMALIZED FREE ENERGY PREDICTED BY IDOCK:   -3.66 KCAL/MOL
REMARK 922        TOTAL FREE ENERGY PREDICTED BY IDOCK:   -4.76 KCAL/MOL
REMARK 923 INTER-LIGAND FREE ENERGY PREDICTED BY IDOCK:   -4.75 KCAL/MOL
REMARK 924 INTRA-LIGAND FREE ENERGY PREDICTED BY IDOCK:   -0.01 KCAL/MOL
REMARK 927      BINDING AFFINITY PREDICTED BY RF-SCORE:    0.00 PKD
ROOT
HETATM    1  N   UNL     1      -8.168  11.396  62.355  1.00  0.00    -0.610 NA 
HETATM    2  H2  UNL     1      -7.628  11.834  63.101  1.00  0.00     0.000 HD 
HETATM    3  C   UNL     1      -9.463  10.915  62.824  1.00  0.00    -0.333 C  
HETATM    4  H1  UNL     1      -7.659  10.631  61.910  1.00  0.00     0.000 HD 
ENDROOT
BRANCH   3   5
HETATM    5  C   UNL     1     -10.225  12.060  63.490  1.00  0.00    -0.477 C  
BRANCH   5   6
HETATM    6  C   UNL     1     -11.728  11.755  63.590  1.00  0.00    -0.517 C  
BRANCH   6   7
HETATM    7  CA  UNL     1     -12.530  12.809  64.366  1.00  0.00    -0.399 C  
HETATM    8  N   UNL     1     -12.502  14.136  63.689  1.00  0.00    -1.071 NA 
HETATM    9  C   UNL     1     -11.971  12.969  65.788  1.00  0.00    -0.429 C  
HETATM   10  OXT UNL     1     -12.157  12.190  66.708  1.00  0.00    -0.609 OA 
HETATM   11  O   UNL     1     -11.199  14.083  65.889  1.00  0.00    -0.303 OA 
HETATM   12  H1  UNL     1     -13.035  14.836  64.204  1.00  0.00     0.000 HD 
HETATM   13  H2  UNL     1     -12.818  14.066  62.721  1.00  0.00     0.000 HD 
ENDBRANCH   6   7
ENDBRANCH   5   6
ENDBRANCH   3   5
TORSDOF 3
ENDMDL
MODEL       18
REMARK 921   NORMALIZED FREE ENERGY PREDICTED BY IDOCK:   -3.66 KCAL/MOL
REMARK 922        TOTAL FREE ENERGY PREDICTED BY IDOCK:   -4.75 KCAL/MOL
REMARK 923 INTER-LIGAND FREE ENERGY PREDICTED BY IDOCK:   -4.17 KCAL/MOL
REMARK 924 INTRA-LIGAND FREE ENERGY PREDICTED BY IDOCK:   -0.58 KCAL/MOL
REMARK 927      BINDING AFFINITY PREDICTED BY RF-SCORE:    0.00 PKD
ROOT
HETATM    1  N   UNL     1     -11.307  11.403  63.228  1.00  0.00    -0.848 NA 
HETATM    2  H2  UNL     1     -10.954  11.215  64.166  1.00  0.00     0.000 HD 
HETATM    3  C   UNL     1     -12.460  12.297  63.243  1.00  0.00    -0.375 C  
HETATM    4  H1  UNL     1     -11.544  10.546  62.727  1.00  0.00     0.000 HD 
ENDROOT
BRANCH   3   5
HETATM    5  C   UNL     1     -12.104  13.580  63.993  1.00  0.00    -0.494 C  
BRANCH   5   6
HETATM    6  C   UNL     1     -12.344  13.437  65.504  1.00  0.00    -0.528 C  
BRANCH   6   7
HETATM    7  CA  UNL     1     -11.085  13.086  66.308  1.00  0.00    -0.289 C  
HETATM    8  N   UNL     1      -9.844  13.281  65.505  1.00  0.00    -0.476 NA 
HETATM    9  C   UNL     1     -11.140  11.626  66.783  1.00  0.00    -0.309 C  
HETATM   10  OXT UNL     1     -11.815  11.216  67.713  1.00  0.00    -0.608 OA 
HETATM   11  O   UNL     1     -10.364  10.827  66.004  1.00  0.00    -0.248 OA 
HETATM   12  H1  UNL     1      -9.007  13.048  66.039  1.00  0.00     0.000 HD 
HETATM   13  H2  UNL     1      -9.791  14.226  65.125  1.00  0.00     0.000 HD 
ENDBRANCH   6   7
ENDBRANCH   5   6
ENDBRANCH   3   5
TORSDOF 3
ENDMDL
MODEL       19
REMARK 921   NORMALIZED FREE ENERGY PREDICTED BY IDOCK:   -3.64 KCAL/MOL
REMARK 922        TOTAL FREE ENERGY PREDICTED BY IDOCK:   -4.74 KCAL/MOL
REMARK 923 INTER-LIGAND FREE ENERGY PREDICTED BY IDOCK:   -4.57 KCAL/MOL
REMARK 924 INTRA-LIGAND FREE ENERGY PREDICTED BY IDOCK:   -0.17 KCAL/MOL
REMARK 927      BINDING AFFINITY PREDICTED BY RF-SCORE:    0.00 PKD
ROOT
HETATM    1  N   UNL     1     -12.020  11.517  67.670  1.00  0.00    -0.634 NA 
HETATM    2  H2  UNL     1     -11.928  11.134  66.730  1.00  0.00     0.000 HD 
HETATM    3  C   UNL     1     -10.940  12.441  67.996  1.00  0.00    -0.225 C  
HETATM    4  H1  UNL     1     -12.072  10.786  68.381  1.00  0.00     0.000 HD 
ENDROOT
BRANCH   3   5
HETATM    5  C   UNL     1     -10.862  13.536  66.932  1.00  0.00    -0.286 C  
BRANCH   5   6
HETATM    6  C   UNL     1     -12.036  13.448  65.945  1.00  0.00    -0.486 C  
BRANCH   6   7
HETATM    7  CA  UNL     1     -11.616  13.469  64.468  1.00  0.00    -0.381 C  
HETATM    8  N   UNL     1     -12.427  14.437  63.676  1.00  0.00    -1.086 NA 
HETATM    9  C   UNL     1     -11.769  12.072  63.846  1.00  0.00    -0.446 C  
HETATM   10  OXT UNL     1     -11.005  11.138  64.022  1.00  0.00    -0.364 OA 
HETATM   11  O   UNL     1     -12.899  11.991  63.095  1.00  0.00    -0.661 OA 
HETATM   12  H1  UNL     1     -12.147  14.451  62.695  1.00  0.00     0.000 HD 
HETATM   13  H2  UNL     1     -12.395  15.371  64.085  1.00  0.00     0.000 HD 
ENDBRANCH   6   7
ENDBRANCH   5   6
ENDBRANCH   3   5
TORSDOF 3
ENDMDL
MODEL       20
REMARK 921   NORMALIZED FREE ENERGY PREDICTED BY IDOCK:   -3.63 KCAL/MOL
REMARK 922        TOTAL FREE ENERGY PREDICTED BY IDOCK:   -4.72 KCAL/MOL
REMARK 923 INTER-LIGAND FREE ENERGY PREDICTED BY IDOCK:   -4.65 KCAL/MOL
REMARK 924 INTRA-LIGAND FREE ENERGY PREDICTED BY IDOCK:   -0.07 KCAL/MOL
REMARK 927      BINDING AFFINITY PREDICTED BY RF-SCORE:    0.00 PKD
ROOT
HETATM    1  N   UNL     1     -11.796  10.937  68.190  1.00  0.00    -0.753 NA 
HETATM    2  H2  UNL     1     -11.806  10.369  67.342  1.00  0.00     0.000 HD 
HETATM    3  C   UNL     1     -11.167  12.235  67.975  1.00  0.00    -0.269 C  
HETATM    4  H1  UNL     1     -11.340  10.459  68.967  1.00  0.00     0.000 HD 
ENDROOT
BRANCH   3   5
HETATM    5  C   UNL     1     -11.851  12.950  66.811  1.00  0.00    -0.452 C  
BRANCH   5   6
HETATM    6  C   UNL     1     -11.327  14.385  66.643  1.00  0.00    -0.359 C  
BRANCH   6   7
HETATM    7  CA  UNL     1     -10.714  14.671  65.266  1.00  0.00    -0.381 C  
HETATM    8  N   UNL     1      -9.519  15.557  65.365  1.00  0.00    -0.308 NA 
HETATM    9  C   UNL     1     -11.747  15.339  64.345  1.00  0.00    -0.285 C  
HETATM   10  OXT UNL     1     -12.665  14.762  63.786  1.00  0.00    -0.767 OA 
HETATM   11  O   UNL     1     -11.535  16.679  64.259  1.00  0.00    -1.075 OA 
HETATM   12  H1  UNL     1      -9.111  15.747  64.450  1.00  0.00     0.000 HD 
HETATM   13  H2  UNL     1      -8.826  15.176  66.009  1.00  0.00     0.000 HD 
ENDBRANCH   6   7
ENDBRANCH   5   6
ENDBRANCH   3   5
TORSDOF 3
ENDMDL
MODEL       21
REMARK 921   NORMALIZED FREE ENERGY PREDICTED BY IDOCK:   -3.59 KCAL/MOL
REMARK 922        TOTAL FREE ENERGY PREDICTED BY IDOCK:   -4.68 KCAL/MOL
REMARK 923 INTER-LIGAND FREE ENERGY PREDICTED BY IDOCK:   -4.43 KCAL/MOL
REMARK 924 INTRA-LIGAND FREE ENERGY PREDICTED BY IDOCK:   -0.25 KCAL/MOL
REMARK 927      BINDING AFFINITY PREDICTED BY RF-SCORE:    0.00 PKD
ROOT
HETATM    1  N   UNL     1      -8.691  12.963  66.475  1.00  0.00    -0.428 NA 
HETATM    2  H2  UNL     1      -8.993  13.860  66.095  1.00  0.00     0.000 HD 
HETATM    3  C   UNL     1      -9.745  11.957  66.410  1.00  0.00    -0.221 C  
HETATM    4  H1  UNL     1      -8.354  13.045  67.434  1.00  0.00     0.000 HD 
ENDROOT
BRANCH   3   5
HETATM    5  C   UNL     1     -10.251  11.834  64.973  1.00  0.00    -0.314 C  
BRANCH   5   6
HETATM    6  C   UNL     1     -10.308  13.202  64.276  1.00  0.00    -0.361 C  
BRANCH   6   7
HETATM    7  CA  UNL     1     -11.568  14.017  64.598  1.00  0.00    -0.392 C  
HETATM    8  N   UNL     1     -12.451  14.165  63.406  1.00  0.00    -1.116 NA 
HETATM    9  C   UNL     1     -11.187  15.417  65.105  1.00  0.00    -0.350 C  
HETATM   10  OXT UNL     1     -10.771  15.669  66.224  1.00  0.00    -0.308 OA 
HETATM   11  O   UNL     1     -11.334  16.350  64.128  1.00  0.00    -0.941 OA 
HETATM   12  H1  UNL     1     -13.288  14.707  63.620  1.00  0.00     0.000 HD 
HETATM   13  H2  UNL     1     -12.688  13.257  63.004  1.00  0.00     0.000 HD 
ENDBRANCH   6   7
ENDBRANCH   5   6
ENDBRANCH   3   5
TORSDOF 3
ENDMDL
MODEL       22
REMARK 921   NORMALIZED FREE ENERGY PREDICTED BY IDOCK:   -3.58 KCAL/MOL
REMARK 922        TOTAL FREE ENERGY PREDICTED BY IDOCK:   -4.66 KCAL/MOL
REMARK 923 INTER-LIGAND FREE ENERGY PREDICTED BY IDOCK:   -4.60 KCAL/MOL
REMARK 924 INTRA-LIGAND FREE ENERGY PREDICTED BY IDOCK:   -0.06 KCAL/MOL
REMARK 927      BINDING AFFINITY PREDICTED BY RF-SCORE:    0.00 PKD
ROOT
HETATM    1  N   UNL     1     -12.381  14.325  67.176  1.00  0.00    -0.586 NA 
HETATM    2  H2  UNL     1     -12.883  13.479  67.446  1.00  0.00     0.000 HD 
HETATM    3  C   UNL     1     -10.969  14.265  67.536  1.00  0.00    -0.289 C  
HETATM    4  H1  UNL     1     -12.801  15.165  67.575  1.00  0.00     0.000 HD 
ENDROOT
BRANCH   3   5
HETATM    5  C   UNL     1     -10.341  13.006  66.938  1.00  0.00    -0.246 C  
BRANCH   5   6
HETATM    6  C   UNL     1     -11.303  12.298  65.972  1.00  0.00    -0.398 C  
BRANCH   6   7
HETATM    7  CA  UNL     1     -11.025  12.584  64.490  1.00  0.00    -0.323 C  
HETATM    8  N   UNL     1     -10.135  13.766  64.312  1.00  0.00    -0.734 NA 
HETATM    9  C   UNL     1     -12.340  12.840  63.737  1.00  0.00    -0.446 C  
HETATM   10  OXT UNL     1     -13.132  11.978  63.394  1.00  0.00    -0.747 OA 
HETATM   11  O   UNL     1     -12.536  14.169  63.530  1.00  0.00    -0.834 OA 
HETATM   12  H1  UNL     1      -9.950  13.956  63.326  1.00  0.00     0.000 HD 
HETATM   13  H2  UNL     1      -9.267  13.661  64.839  1.00  0.00     0.000 HD 
ENDBRANCH   6   7
ENDBRANCH   5   6
ENDBRANCH   3   5
TORSDOF 3
ENDMDL
MODEL       23
REMARK 921   NORMALIZED FREE ENERGY PREDICTED BY IDOCK:   -3.56 KCAL/MOL
REMARK 922        TOTAL FREE ENERGY PREDICTED BY IDOCK:   -4.64 KCAL/MOL
REMARK 923 INTER-LIGAND FREE ENERGY PREDICTED BY IDOCK:   -4.26 KCAL/MOL
REMARK 924 INTRA-LIGAND FREE ENERGY PREDICTED BY IDOCK:   -0.38 KCAL/MOL
REMARK 927      BINDING AFFINITY PREDICTED BY RF-SCORE:    0.00 PKD
ROOT
HETATM    1  N   UNL     1     -12.403  13.261  62.834  1.00  0.00    -0.823 NA 
HETATM    2  H2  UNL     1     -11.612  13.791  62.469  1.00  0.00     0.000 HD 
HETATM    3  C   UNL     1     -11.984  12.028  63.490  1.00  0.00    -0.507 C  
HETATM    4  H1  UNL     1     -13.090  13.048  62.110  1.00  0.00     0.000 HD 
ENDROOT
BRANCH   3   5
HETATM    5  C   UNL     1     -10.956  12.347  64.575  1.00  0.00    -0.355 C  
BRANCH   5   6
HETATM    6  C   UNL     1     -11.618  12.498  65.953  1.00  0.00    -0.454 C  
BRANCH   6   7
HETATM    7  CA  UNL     1     -12.122  13.916  66.254  1.00  0.00    -0.451 C  
HETATM    8  N   UNL     1     -13.409  14.204  65.560  1.00  0.00    -0.666 NA 
HETATM    9  C   UNL     1     -11.082  14.960  65.817  1.00  0.00    -0.342 C  
HETATM   10  OXT UNL     1     -10.057  15.226  66.422  1.00  0.00    -0.253 OA 
HETATM   11  O   UNL     1     -11.429  15.533  64.634  1.00  0.00    -0.410 OA 
HETATM   12  H1  UNL     1     -13.745  15.147  65.760  1.00  0.00     0.000 HD 
HETATM   13  H2  UNL     1     -14.116  13.503  65.783  1.00  0.00     0.000 HD 
ENDBRANCH   6   7
ENDBRANCH   5   6
ENDBRANCH   3   5
TORSDOF 3
ENDMDL
MODEL       24
REMARK 921   NORMALIZED FREE ENERGY PREDICTED BY IDOCK:   -3.47 KCAL/MOL
REMARK 922        TOTAL FREE ENERGY PREDICTED BY IDOCK:   -4.54 KCAL/MOL
REMARK 923 INTER-LIGAND FREE ENERGY PREDICTED BY IDOCK:   -4.24 KCAL/MOL
REMARK 924 INTRA-LIGAND FREE ENERGY PREDICTED BY IDOCK:   -0.30 KCAL/MOL
REMARK 927      BINDING AFFINITY PREDICTED BY RF-SCORE:    0.00 PKD
ROOT
HETATM    1  N   UNL     1     -12.487  13.750  63.095  1.00  0.00    -1.074 NA 
HETATM    2  H2  UNL     1     -11.925  14.131  62.333  1.00  0.00     0.000 HD 
HETATM    3  C   UNL     1     -12.180  12.349  63.358  1.00  0.00    -0.523 C  
HETATM    4  H1  UNL     1     -13.488  13.856  62.925  1.00  0.00     0.000 HD 
ENDROOT
BRANCH   3   5
HETATM    5  C   UNL     1     -10.682  12.191  63.613  1.00  0.00    -0.518 C  
BRANCH   5   6
HETATM    6  C   UNL     1     -10.358  12.220  65.115  1.00  0.00    -0.316 C  
BRANCH   6   7
HETATM    7  CA  UNL     1     -10.249  13.633  65.704  1.00  0.00    -0.304 C  
HETATM    8  N   UNL     1      -8.998  13.807  66.496  1.00  0.00    -0.453 NA 
HETATM    9  C   UNL     1     -11.452  13.931  66.612  1.00  0.00    -0.355 C  
HETATM   10  OXT UNL     1     -12.574  14.211  66.222  1.00  0.00    -0.449 OA 
HETATM   11  O   UNL     1     -11.120  13.805  67.924  1.00  0.00    -0.252 OA 
HETATM   12  H1  UNL     1      -8.925  14.746  66.888  1.00  0.00     0.000 HD 
HETATM   13  H2  UNL     1      -8.173  13.569  65.945  1.00  0.00     0.000 HD 
ENDBRANCH   6   7
ENDBRANCH   5   6
ENDBRANCH   3   5
TORSDOF 3
ENDMDL
MODEL       25
REMARK 921   NORMALIZED FREE ENERGY PREDICTED BY IDOCK:   -3.46 KCAL/MOL
REMARK 922        TOTAL FREE ENERGY PREDICTED BY IDOCK:   -4.53 KCAL/MOL
REMARK 923 INTER-LIGAND FREE ENERGY PREDICTED BY IDOCK:   -4.46 KCAL/MOL
REMARK 924 INTRA-LIGAND FREE ENERGY PREDICTED BY IDOCK:   -0.07 KCAL/MOL
REMARK 927      BINDING AFFINITY PREDICTED BY RF-SCORE:    0.00 PKD
ROOT
HETATM    1  N   UNL     1     -14.090   8.934  73.228  1.00  0.00    -1.248 NA 
HETATM    2  H2  UNL     1     -14.301   9.827  73.673  1.00  0.00     0.000 HD 
HETATM    3  C   UNL     1     -13.870   9.073  71.793  1.00  0.00    -0.399 C  
HETATM    4  H1  UNL     1     -14.817   8.239  73.397  1.00  0.00     0.000 HD 
ENDROOT
BRANCH   3   5
HETATM    5  C   UNL     1     -12.781  10.115  71.539  1.00  0.00    -0.541 C  
BRANCH   5   6
HETATM    6  C   UNL     1     -11.682   9.569  70.613  1.00  0.00    -0.330 C  
BRANCH   6   7
HETATM    7  CA  UNL     1     -10.969  10.646  69.784  1.00  0.00    -0.280 C  
HETATM    8  N   UNL     1     -11.477  12.012  70.098  1.00  0.00    -0.526 NA 
HETATM    9  C   UNL     1     -11.159  10.383  68.283  1.00  0.00    -0.281 C  
HETATM   10  OXT UNL     1     -10.566   9.533  67.638  1.00  0.00    -0.248 OA 
HETATM   11  O   UNL     1     -12.113  11.197  67.758  1.00  0.00    -0.606 OA 
HETATM   12  H1  UNL     1     -11.003  12.728  69.547  1.00  0.00     0.000 HD 
HETATM   13  H2  UNL     1     -11.417  12.211  71.097  1.00  0.00     0.000 HD 
ENDBRANCH   6   7
ENDBRANCH   5   6
ENDBRANCH   3   5
TORSDOF 3
ENDMDL
MODEL       26
REMARK 921   NORMALIZED FREE ENERGY PREDICTED BY IDOCK:   -3.44 KCAL/MOL
REMARK 922        TOTAL FREE ENERGY PREDICTED BY IDOCK:   -4.50 KCAL/MOL
REMARK 923 INTER-LIGAND FREE ENERGY PREDICTED BY IDOCK:   -4.37 KCAL/MOL
REMARK 924 INTRA-LIGAND FREE ENERGY PREDICTED BY IDOCK:   -0.13 KCAL/MOL
REMARK 927      BINDING AFFINITY PREDICTED BY RF-SCORE:    0.00 PKD
ROOT
HETATM    1  N   UNL     1     -10.350  10.717  62.668  1.00  0.00    -0.759 NA 
HETATM    2  H2  UNL     1     -10.513  11.160  61.764  1.00  0.00     0.000 HD 
HETATM    3  C   UNL     1     -10.689  11.598  63.780  1.00  0.00    -0.419 C  
HETATM    4  H1  UNL     1      -9.389  10.391  62.770  1.00  0.00     0.000 HD 
ENDROOT
BRANCH   3   5
HETATM    5  C   UNL     1     -12.128  12.087  63.628  1.00  0.00    -0.627 C  
BRANCH   5   6
HETATM    6  C   UNL     1     -12.648  12.727  64.925  1.00  0.00    -0.541 C  
BRANCH   6   7
HETATM    7  CA  UNL     1     -11.603  12.804  66.048  1.00  0.00    -0.383 C  
HETATM    8  N   UNL     1     -11.967  11.935  67.202  1.00  0.00    -0.603 NA 
HETATM    9  C   UNL     1     -11.456  14.250  66.547  1.00  0.00    -0.360 C  
HETATM   10  OXT UNL     1     -10.855  15.137  65.963  1.00  0.00    -0.322 OA 
HETATM   11  O   UNL     1     -12.122  14.435  67.717  1.00  0.00    -0.356 OA 
HETATM   12  H1  UNL     1     -11.273  11.985  67.948  1.00  0.00     0.000 HD 
HETATM   13  H2  UNL     1     -12.125  10.971  66.907  1.00  0.00     0.000 HD 
ENDBRANCH   6   7
ENDBRANCH   5   6
ENDBRANCH   3   5
TORSDOF 3
ENDMDL
MODEL       27
REMARK 921   NORMALIZED FREE ENERGY PREDICTED BY IDOCK:   -3.41 KCAL/MOL
REMARK 922        TOTAL FREE ENERGY PREDICTED BY IDOCK:   -4.46 KCAL/MOL
REMARK 923 INTER-LIGAND FREE ENERGY PREDICTED BY IDOCK:   -4.36 KCAL/MOL
REMARK 924 INTRA-LIGAND FREE ENERGY PREDICTED BY IDOCK:   -0.10 KCAL/MOL
REMARK 927      BINDING AFFINITY PREDICTED BY RF-SCORE:    0.00 PKD
ROOT
HETATM    1  N   UNL     1     -12.073  10.842  68.151  1.00  0.00    -0.790 NA 
HETATM    2  H2  UNL     1     -12.061  10.534  67.179  1.00  0.00     0.000 HD 
HETATM    3  C   UNL     1     -11.284  12.051  68.355  1.00  0.00    -0.262 C  
HETATM    4  H1  UNL     1     -11.756  10.113  68.789  1.00  0.00     0.000 HD 
ENDROOT
BRANCH   3   5
HETATM    5  C   UNL     1     -11.760  13.143  67.398  1.00  0.00    -0.419 C  
BRANCH   5   6
HETATM    6  C   UNL     1     -12.007  12.590  65.986  1.00  0.00    -0.456 C  
BRANCH   6   7
HETATM    7  CA  UNL     1     -11.153  13.253  64.896  1.00  0.00    -0.328 C  
HETATM    8  N   UNL     1      -9.725  13.368  65.305  1.00  0.00    -0.531 NA 
HETATM    9  C   UNL     1     -11.688  14.657  64.574  1.00  0.00    -0.401 C  
HETATM   10  OXT UNL     1     -12.680  14.894  63.904  1.00  0.00    -0.789 OA 
HETATM   11  O   UNL     1     -10.934  15.618  65.170  1.00  0.00    -0.384 OA 
HETATM   12  H1  UNL     1      -9.157  13.808  64.580  1.00  0.00     0.000 HD 
HETATM   13  H2  UNL     1      -9.342  12.462  65.578  1.00  0.00     0.000 HD 
ENDBRANCH   6   7
ENDBRANCH   5   6
ENDBRANCH   3   5
TORSDOF 3
ENDMDL
MODEL       28
REMARK 921   NORMALIZED FREE ENERGY PREDICTED BY IDOCK:   -3.40 KCAL/MOL
REMARK 922        TOTAL FREE ENERGY PREDICTED BY IDOCK:   -4.45 KCAL/MOL
REMARK 923 INTER-LIGAND FREE ENERGY PREDICTED BY IDOCK:   -4.32 KCAL/MOL
REMARK 924 INTRA-LIGAND FREE ENERGY PREDICTED BY IDOCK:   -0.13 KCAL/MOL
REMARK 927      BINDING AFFINITY PREDICTED BY RF-SCORE:    0.00 PKD
ROOT
HETATM    1  N   UNL     1     -10.094  14.151  69.217  1.00  0.00    -0.435 NA 
HETATM    2  H2  UNL     1      -9.887  13.641  68.359  1.00  0.00     0.000 HD 
HETATM    3  C   UNL     1      -9.901  15.588  69.063  1.00  0.00    -0.235 C  
HETATM    4  H1  UNL     1      -9.544  13.814  70.007  1.00  0.00     0.000 HD 
ENDROOT
BRANCH   3   5
HETATM    5  C   UNL     1     -10.726  16.094  67.880  1.00  0.00    -0.321 C  
BRANCH   5   6
HETATM    6  C   UNL     1     -11.120  14.947  66.936  1.00  0.00    -0.337 C  
BRANCH   6   7
HETATM    7  CA  UNL     1     -10.529  15.067  65.524  1.00  0.00    -0.365 C  
HETATM    8  N   UNL     1      -9.348  15.976  65.495  1.00  0.00    -0.355 NA 
HETATM    9  C   UNL     1     -11.585  15.600  64.543  1.00  0.00    -0.262 C  
HETATM   10  OXT UNL     1     -12.501  14.945  64.074  1.00  0.00    -0.807 OA 
HETATM   11  O   UNL     1     -11.395  16.921  64.287  1.00  0.00    -1.202 OA 
HETATM   12  H1  UNL     1      -8.955  16.055  64.557  1.00  0.00     0.000 HD 
HETATM   13  H2  UNL     1      -8.640  15.687  66.171  1.00  0.00     0.000 HD 
ENDBRANCH   6   7
ENDBRANCH   5   6
ENDBRANCH   3   5
TORSDOF 3
ENDMDL
MODEL       29
REMARK 921   NORMALIZED FREE ENERGY PREDICTED BY IDOCK:   -3.40 KCAL/MOL
REMARK 922        TOTAL FREE ENERGY PREDICTED BY IDOCK:   -4.45 KCAL/MOL
REMARK 923 INTER-LIGAND FREE ENERGY PREDICTED BY IDOCK:   -4.39 KCAL/MOL
REMARK 924 INTRA-LIGAND FREE ENERGY PREDICTED BY IDOCK:   -0.06 KCAL/MOL
REMARK 927      BINDING AFFINITY PREDICTED BY RF-SCORE:    0.00 PKD
ROOT
HETATM    1  N   UNL     1     -12.473  14.268  63.265  1.00  0.00    -1.068 NA 
HETATM    2  H2  UNL     1     -12.193  14.839  64.062  1.00  0.00     0.000 HD 
HETATM    3  C   UNL     1     -11.985  12.898  63.371  1.00  0.00    -0.537 C  
HETATM    4  H1  UNL     1     -12.172  14.672  62.378  1.00  0.00     0.000 HD 
ENDROOT
BRANCH   3   5
HETATM    5  C   UNL     1     -12.436  12.293  64.700  1.00  0.00    -0.424 C  
BRANCH   5   6
HETATM    6  C   UNL     1     -12.515  13.356  65.807  1.00  0.00    -0.496 C  
BRANCH   6   7
HETATM    7  CA  UNL     1     -11.565  13.105  66.986  1.00  0.00    -0.359 C  
HETATM    8  N   UNL     1     -11.927  11.867  67.733  1.00  0.00    -0.573 NA 
HETATM    9  C   UNL     1     -11.590  14.293  67.959  1.00  0.00    -0.332 C  
HETATM   10  OXT UNL     1     -11.034  15.363  67.775  1.00  0.00    -0.294 OA 
HETATM   11  O   UNL     1     -12.352  14.018  69.050  1.00  0.00    -0.307 OA 
HETATM   12  H1  UNL     1     -11.295  11.699  68.517  1.00  0.00     0.000 HD 
HETATM   13  H2  UNL     1     -11.972  11.058  67.113  1.00  0.00     0.000 HD 
ENDBRANCH   6   7
ENDBRANCH   5   6
ENDBRANCH   3   5
TORSDOF 3
ENDMDL
MODEL       30
REMARK 921   NORMALIZED FREE ENERGY PREDICTED BY IDOCK:   -3.39 KCAL/MOL
REMARK 922        TOTAL FREE ENERGY PREDICTED BY IDOCK:   -4.44 KCAL/MOL
REMARK 923 INTER-LIGAND FREE ENERGY PREDICTED BY IDOCK:   -4.32 KCAL/MOL
REMARK 924 INTRA-LIGAND FREE ENERGY PREDICTED BY IDOCK:   -0.11 KCAL/MOL
REMARK 927      BINDING AFFINITY PREDICTED BY RF-SCORE:    0.00 PKD
ROOT
HETATM    1  N   UNL     1      -8.007  10.980  65.521  1.00  0.00    -0.365 NA 
HETATM    2  H2  UNL     1      -7.762  10.610  66.439  1.00  0.00     0.000 HD 
HETATM    3  C   UNL     1      -9.293  10.479  65.051  1.00  0.00    -0.222 C  
HETATM    4  H1  UNL     1      -7.288  10.785  64.824  1.00  0.00     0.000 HD 
ENDROOT
BRANCH   3   5
HETATM    5  C   UNL     1     -10.370  10.772  66.095  1.00  0.00    -0.300 C  
BRANCH   5   6
HETATM    6  C   UNL     1     -11.158  12.046  65.752  1.00  0.00    -0.371 C  
BRANCH   6   7
HETATM    7  CA  UNL     1     -10.980  12.522  64.304  1.00  0.00    -0.360 C  
HETATM    8  N   UNL     1     -10.177  13.776  64.229  1.00  0.00    -0.737 NA 
HETATM    9  C   UNL     1     -12.346  12.772  63.648  1.00  0.00    -0.463 C  
HETATM   10  OXT UNL     1     -13.099  11.904  63.241  1.00  0.00    -0.674 OA 
HETATM   11  O   UNL     1     -12.637  14.100  63.613  1.00  0.00    -0.831 OA 
HETATM   12  H1  UNL     1     -10.057  14.092  63.266  1.00  0.00     0.000 HD 
HETATM   13  H2  UNL     1      -9.277  13.670  64.699  1.00  0.00     0.000 HD 
ENDBRANCH   6   7
ENDBRANCH   5   6
ENDBRANCH   3   5
TORSDOF 3
ENDMDL
MODEL       31
REMARK 921   NORMALIZED FREE ENERGY PREDICTED BY IDOCK:   -3.38 KCAL/MOL
REMARK 922        TOTAL FREE ENERGY PREDICTED BY IDOCK:   -4.43 KCAL/MOL
REMARK 923 INTER-LIGAND FREE ENERGY PREDICTED BY IDOCK:   -4.34 KCAL/MOL
REMARK 924 INTRA-LIGAND FREE ENERGY PREDICTED BY IDOCK:   -0.09 KCAL/MOL
REMARK 927      BINDING AFFINITY PREDICTED BY RF-SCORE:    0.00 PKD
ROOT
HETATM    1  N   UNL     1     -11.637  16.266  63.912  1.00  0.00    -1.573 NA 
HETATM    2  H2  UNL     1     -10.990  16.607  63.201  1.00  0.00     0.000 HD 
HETATM    3  C   UNL     1     -10.974  15.418  64.896  1.00  0.00    -0.437 C  
HETATM    4  H1  UNL     1     -12.427  15.766  63.505  1.00  0.00     0.000 HD 
ENDROOT
BRANCH   3   5
HETATM    5  C   UNL     1      -9.790  16.168  65.506  1.00  0.00    -0.190 C  
BRANCH   5   6
HETATM    6  C   UNL     1     -10.177  16.861  66.822  1.00  0.00    -0.306 C  
BRANCH   6   7
HETATM    7  CA  UNL     1      -9.396  18.152  67.102  1.00  0.00    -0.263 C  
HETATM    8  N   UNL     1      -8.997  18.257  68.535  1.00  0.00    -0.316 NA 
HETATM    9  C   UNL     1     -10.242  19.382  66.736  1.00  0.00    -0.420 C  
HETATM   10  OXT UNL     1     -10.443  19.783  65.602  1.00  0.00    -0.480 OA 
HETATM   11  O   UNL     1     -10.780  19.955  67.845  1.00  0.00    -0.352 OA 
HETATM   12  H1  UNL     1      -8.477  19.115  68.722  1.00  0.00     0.000 HD 
HETATM   13  H2  UNL     1      -8.475  17.433  68.836  1.00  0.00     0.000 HD 
ENDBRANCH   6   7
ENDBRANCH   5   6
ENDBRANCH   3   5
TORSDOF 3
ENDMDL
MODEL       32
REMARK 921   NORMALIZED FREE ENERGY PREDICTED BY IDOCK:   -3.37 KCAL/MOL
REMARK 922        TOTAL FREE ENERGY PREDICTED BY IDOCK:   -4.42 KCAL/MOL
REMARK 923 INTER-LIGAND FREE ENERGY PREDICTED BY IDOCK:   -4.29 KCAL/MOL
REMARK 924 INTRA-LIGAND FREE ENERGY PREDICTED BY IDOCK:   -0.13 KCAL/MOL
REMARK 927      BINDING AFFINITY PREDICTED BY RF-SCORE:    0.00 PKD
ROOT
HETATM    1  N   UNL     1     -14.097   9.021  73.106  1.00  0.00    -1.223 NA 
HETATM    2  H2  UNL     1     -13.883   9.921  73.534  1.00  0.00     0.000 HD 
HETATM    3  C   UNL     1     -13.689   8.967  71.706  1.00  0.00    -0.419 C  
HETATM    4  H1  UNL     1     -15.085   8.782  73.184  1.00  0.00     0.000 HD 
ENDROOT
BRANCH   3   5
HETATM    5  C   UNL     1     -12.208   9.324  71.589  1.00  0.00    -0.445 C  
BRANCH   5   6
HETATM    6  C   UNL     1     -11.310   8.110  71.875  1.00  0.00    -0.356 C  
BRANCH   6   7
HETATM    7  CA  UNL     1     -11.964   6.758  71.558  1.00  0.00    -0.350 C  
HETATM    8  N   UNL     1     -11.897   5.826  72.719  1.00  0.00    -0.534 NA 
HETATM    9  C   UNL     1     -11.274   6.097  70.355  1.00  0.00    -0.353 C  
HETATM   10  OXT UNL     1     -11.436   6.418  69.189  1.00  0.00    -0.364 OA 
HETATM   11  O   UNL     1     -10.417   5.121  70.756  1.00  0.00    -0.243 OA 
HETATM   12  H1  UNL     1     -12.332   4.927  72.509  1.00  0.00     0.000 HD 
HETATM   13  H2  UNL     1     -12.300   6.246  73.558  1.00  0.00     0.000 HD 
ENDBRANCH   6   7
ENDBRANCH   5   6
ENDBRANCH   3   5
TORSDOF 3
ENDMDL
MODEL       33
REMARK 921   NORMALIZED FREE ENERGY PREDICTED BY IDOCK:   -3.36 KCAL/MOL
REMARK 922        TOTAL FREE ENERGY PREDICTED BY IDOCK:   -4.41 KCAL/MOL
REMARK 923 INTER-LIGAND FREE ENERGY PREDICTED BY IDOCK:   -4.40 KCAL/MOL
REMARK 924 INTRA-LIGAND FREE ENERGY PREDICTED BY IDOCK:   -0.01 KCAL/MOL
REMARK 927      BINDING AFFINITY PREDICTED BY RF-SCORE:    0.00 PKD
ROOT
HETATM    1  N   UNL     1     -12.216  11.055  68.423  1.00  0.00    -0.780 NA 
HETATM    2  H2  UNL     1     -11.764  10.276  67.944  1.00  0.00     0.000 HD 
HETATM    3  C   UNL     1     -11.785  12.347  67.902  1.00  0.00    -0.360 C  
HETATM    4  H1  UNL     1     -12.067  11.024  69.432  1.00  0.00     0.000 HD 
ENDROOT
BRANCH   3   5
HETATM    5  C   UNL     1     -12.009  12.392  66.391  1.00  0.00    -0.346 C  
BRANCH   5   6
HETATM    6  C   UNL     1     -12.584  13.746  65.946  1.00  0.00    -0.494 C  
BRANCH   6   7
HETATM    7  CA  UNL     1     -11.956  14.301  64.660  1.00  0.00    -0.455 C  
HETATM    8  N   UNL     1     -12.430  13.569  63.451  1.00  0.00    -0.939 NA 
HETATM    9  C   UNL     1     -10.424  14.203  64.725  1.00  0.00    -0.408 C  
HETATM   10  OXT UNL     1      -9.699  14.945  65.368  1.00  0.00    -0.313 OA 
HETATM   11  O   UNL     1      -9.968  13.147  64.000  1.00  0.00    -0.304 OA 
HETATM   12  H1  UNL     1     -12.013  13.939  62.597  1.00  0.00     0.000 HD 
HETATM   13  H2  UNL     1     -13.449  13.565  63.395  1.00  0.00     0.000 HD 
ENDBRANCH   6   7
ENDBRANCH   5   6
ENDBRANCH   3   5
TORSDOF 3
ENDMDL
MODEL       34
REMARK 921   NORMALIZED FREE ENERGY PREDICTED BY IDOCK:   -3.36 KCAL/MOL
REMARK 922        TOTAL FREE ENERGY PREDICTED BY IDOCK:   -4.41 KCAL/MOL
REMARK 923 INTER-LIGAND FREE ENERGY PREDICTED BY IDOCK:   -3.81 KCAL/MOL
REMARK 924 INTRA-LIGAND FREE ENERGY PREDICTED BY IDOCK:   -0.60 KCAL/MOL
REMARK 927      BINDING AFFINITY PREDICTED BY RF-SCORE:    0.00 PKD
ROOT
HETATM    1  N   UNL     1     -12.032  14.817  67.186  1.00  0.00    -0.424 NA 
HETATM    2  H2  UNL     1     -12.349  13.855  67.064  1.00  0.00     0.000 HD 
HETATM    3  C   UNL     1     -10.912  15.142  66.310  1.00  0.00    -0.335 C  
HETATM    4  H1  UNL     1     -11.780  15.018  68.154  1.00  0.00     0.000 HD 
ENDROOT
BRANCH   3   5
HETATM    5  C   UNL     1     -11.290  14.840  64.861  1.00  0.00    -0.411 C  
BRANCH   5   6
HETATM    6  C   UNL     1     -10.688  13.508  64.385  1.00  0.00    -0.402 C  
BRANCH   6   7
HETATM    7  CA  UNL     1     -11.591  12.291  64.629  1.00  0.00    -0.344 C  
HETATM    8  N   UNL     1     -13.007  12.691  64.865  1.00  0.00    -0.850 NA 
HETATM    9  C   UNL     1     -11.096  11.489  65.842  1.00  0.00    -0.214 C  
HETATM   10  OXT UNL     1     -10.132  10.741  65.844  1.00  0.00    -0.237 OA 
HETATM   11  O   UNL     1     -11.850  11.749  66.943  1.00  0.00    -0.591 OA 
HETATM   12  H1  UNL     1     -13.607  11.882  65.027  1.00  0.00     0.000 HD 
HETATM   13  H2  UNL     1     -13.362  13.271  64.104  1.00  0.00     0.000 HD 
ENDBRANCH   6   7
ENDBRANCH   5   6
ENDBRANCH   3   5
TORSDOF 3
ENDMDL
MODEL       35
REMARK 921   NORMALIZED FREE ENERGY PREDICTED BY IDOCK:   -3.33 KCAL/MOL
REMARK 922        TOTAL FREE ENERGY PREDICTED BY IDOCK:   -4.38 KCAL/MOL
REMARK 923 INTER-LIGAND FREE ENERGY PREDICTED BY IDOCK:   -4.27 KCAL/MOL
REMARK 924 INTRA-LIGAND FREE ENERGY PREDICTED BY IDOCK:   -0.10 KCAL/MOL
REMARK 927      BINDING AFFINITY PREDICTED BY RF-SCORE:    0.00 PKD
ROOT
HETATM    1  N   UNL     1     -12.367  13.813  63.311  1.00  0.00    -1.124 NA 
HETATM    2  H2  UNL     1     -11.646  14.133  62.666  1.00  0.00     0.000 HD 
HETATM    3  C   UNL     1     -12.262  12.385  63.589  1.00  0.00    -0.557 C  
HETATM    4  H1  UNL     1     -13.306  14.029  62.977  1.00  0.00     0.000 HD 
ENDROOT
BRANCH   3   5
HETATM    5  C   UNL     1     -10.856  12.061  64.091  1.00  0.00    -0.405 C  
BRANCH   5   6
HETATM    6  C   UNL     1     -10.554  12.767  65.423  1.00  0.00    -0.309 C  
BRANCH   6   7
HETATM    7  CA  UNL     1     -11.744  12.809  66.392  1.00  0.00    -0.403 C  
HETATM    8  N   UNL     1     -12.108  14.206  66.761  1.00  0.00    -0.446 NA 
HETATM    9  C   UNL     1     -11.418  12.030  67.676  1.00  0.00    -0.322 C  
HETATM   10  OXT UNL     1     -11.414  10.814  67.778  1.00  0.00    -0.460 OA 
HETATM   11  O   UNL     1     -11.092  12.872  68.692  1.00  0.00    -0.244 OA 
HETATM   12  H1  UNL     1     -12.898  14.235  67.405  1.00  0.00     0.000 HD 
HETATM   13  H2  UNL     1     -12.283  14.776  65.932  1.00  0.00     0.000 HD 
ENDBRANCH   6   7
ENDBRANCH   5   6
ENDBRANCH   3   5
TORSDOF 3
ENDMDL
MODEL       36
REMARK 921   NORMALIZED FREE ENERGY PREDICTED BY IDOCK:   -3.30 KCAL/MOL
REMARK 922        TOTAL FREE ENERGY PREDICTED BY IDOCK:   -4.34 KCAL/MOL
REMARK 923 INTER-LIGAND FREE ENERGY PREDICTED BY IDOCK:   -4.28 KCAL/MOL
REMARK 924 INTRA-LIGAND FREE ENERGY PREDICTED BY IDOCK:   -0.06 KCAL/MOL
REMARK 927      BINDING AFFINITY PREDICTED BY RF-SCORE:    0.00 PKD
ROOT
HETATM    1  N   UNL     1      -8.504  17.595  65.846  1.00  0.00    -0.537 NA 
HETATM    2  H2  UNL     1      -8.879  18.285  66.495  1.00  0.00     0.000 HD 
HETATM    3  C   UNL     1      -8.853  16.232  66.229  1.00  0.00    -0.331 C  
HETATM    4  H1  UNL     1      -7.492  17.673  65.743  1.00  0.00     0.000 HD 
ENDROOT
BRANCH   3   5
HETATM    5  C   UNL     1     -10.369  16.114  66.382  1.00  0.00    -0.321 C  
BRANCH   5   6
HETATM    6  C   UNL     1     -10.955  15.068  65.421  1.00  0.00    -0.380 C  
BRANCH   6   7
HETATM    7  CA  UNL     1     -12.267  14.437  65.906  1.00  0.00    -0.341 C  
HETATM    8  N   UNL     1     -12.365  14.437  67.393  1.00  0.00    -0.600 NA 
HETATM    9  C   UNL     1     -12.385  12.989  65.405  1.00  0.00    -0.486 C  
HETATM   10  OXT UNL     1     -12.679  12.662  64.267  1.00  0.00    -0.657 OA 
HETATM   11  O   UNL     1     -12.077  12.103  66.389  1.00  0.00    -0.630 OA 
HETATM   12  H1  UNL     1     -13.238  14.018  67.716  1.00  0.00     0.000 HD 
HETATM   13  H2  UNL     1     -12.241  15.376  67.774  1.00  0.00     0.000 HD 
ENDBRANCH   6   7
ENDBRANCH   5   6
ENDBRANCH   3   5
TORSDOF 3
ENDMDL
MODEL       37
REMARK 921   NORMALIZED FREE ENERGY PREDICTED BY IDOCK:   -3.26 KCAL/MOL
REMARK 922        TOTAL FREE ENERGY PREDICTED BY IDOCK:   -4.28 KCAL/MOL
REMARK 923 INTER-LIGAND FREE ENERGY PREDICTED BY IDOCK:   -4.08 KCAL/MOL
REMARK 924 INTRA-LIGAND FREE ENERGY PREDICTED BY IDOCK:   -0.20 KCAL/MOL
REMARK 927      BINDING AFFINITY PREDICTED BY RF-SCORE:    0.00 PKD
ROOT
HETATM    1  N   UNL     1     -11.569  16.310  63.897  1.00  0.00    -1.573 NA 
HETATM    2  H2  UNL     1     -10.553  16.391  63.912  1.00  0.00     0.000 HD 
HETATM    3  C   UNL     1     -12.019  14.962  64.224  1.00  0.00    -0.338 C  
HETATM    4  H1  UNL     1     -11.964  16.595  63.000  1.00  0.00     0.000 HD 
ENDROOT
BRANCH   3   5
HETATM    5  C   UNL     1     -11.428  14.536  65.567  1.00  0.00    -0.343 C  
BRANCH   5   6
HETATM    6  C   UNL     1      -9.895  14.447  65.507  1.00  0.00    -0.299 C  
BRANCH   6   7
HETATM    7  CA  UNL     1      -9.178  15.249  66.602  1.00  0.00    -0.274 C  
HETATM    8  N   UNL     1      -9.206  14.542  67.914  1.00  0.00    -0.191 NA 
HETATM    9  C   UNL     1      -9.831  16.629  66.772  1.00  0.00    -0.273 C  
HETATM   10  OXT UNL     1      -9.679  17.576  66.017  1.00  0.00    -0.473 OA 
HETATM   11  O   UNL     1     -10.644  16.657  67.861  1.00  0.00    -0.319 OA 
HETATM   12  H1  UNL     1      -8.729  15.075  68.641  1.00  0.00     0.000 HD 
HETATM   13  H2  UNL     1      -8.827  13.598  67.836  1.00  0.00     0.000 HD 
ENDBRANCH   6   7
ENDBRANCH   5   6
ENDBRANCH   3   5
TORSDOF 3
ENDMDL
MODEL       38
REMARK 921   NORMALIZED FREE ENERGY PREDICTED BY IDOCK:   -3.25 KCAL/MOL
REMARK 922        TOTAL FREE ENERGY PREDICTED BY IDOCK:   -4.27 KCAL/MOL
REMARK 923 INTER-LIGAND FREE ENERGY PREDICTED BY IDOCK:   -3.98 KCAL/MOL
REMARK 924 INTRA-LIGAND FREE ENERGY PREDICTED BY IDOCK:   -0.29 KCAL/MOL
REMARK 927      BINDING AFFINITY PREDICTED BY RF-SCORE:    0.00 PKD
ROOT
HETATM    1  N   UNL     1      -9.392  12.960  68.555  1.00  0.00    -0.378 NA 
HETATM    2  H2  UNL     1     -10.183  12.487  68.117  1.00  0.00     0.000 HD 
HETATM    3  C   UNL     1      -8.500  13.565  67.572  1.00  0.00    -0.192 C  
HETATM    4  H1  UNL     1      -8.861  12.338  69.164  1.00  0.00     0.000 HD 
ENDROOT
BRANCH   3   5
HETATM    5  C   UNL     1      -9.297  14.497  66.660  1.00  0.00    -0.301 C  
BRANCH   5   6
HETATM    6  C   UNL     1     -10.183  13.709  65.682  1.00  0.00    -0.316 C  
BRANCH   6   7
HETATM    7  CA  UNL     1     -11.682  13.776  66.002  1.00  0.00    -0.363 C  
HETATM    8  N   UNL     1     -12.113  12.644  66.872  1.00  0.00    -0.499 NA 
HETATM    9  C   UNL     1     -12.510  13.745  64.708  1.00  0.00    -0.349 C  
HETATM   10  OXT UNL     1     -12.659  14.687  63.947  1.00  0.00    -0.834 OA 
HETATM   11  O   UNL     1     -13.033  12.510  64.489  1.00  0.00    -0.752 OA 
HETATM   12  H1  UNL     1     -13.110  12.688  67.085  1.00  0.00     0.000 HD 
HETATM   13  H2  UNL     1     -11.553  12.596  67.723  1.00  0.00     0.000 HD 
ENDBRANCH   6   7
ENDBRANCH   5   6
ENDBRANCH   3   5
TORSDOF 3
ENDMDL
MODEL       39
REMARK 921   NORMALIZED FREE ENERGY PREDICTED BY IDOCK:   -3.23 KCAL/MOL
REMARK 922        TOTAL FREE ENERGY PREDICTED BY IDOCK:   -4.25 KCAL/MOL
REMARK 923 INTER-LIGAND FREE ENERGY PREDICTED BY IDOCK:   -4.15 KCAL/MOL
REMARK 924 INTRA-LIGAND FREE ENERGY PREDICTED BY IDOCK:   -0.10 KCAL/MOL
REMARK 927      BINDING AFFINITY PREDICTED BY RF-SCORE:    0.00 PKD
ROOT
HETATM    1  N   UNL     1     -14.044   8.961  73.097  1.00  0.00    -1.225 NA 
HETATM    2  H2  UNL     1     -14.318   9.870  73.469  1.00  0.00     0.000 HD 
HETATM    3  C   UNL     1     -13.620   9.042  71.704  1.00  0.00    -0.390 C  
HETATM    4  H1  UNL     1     -14.787   8.268  73.189  1.00  0.00     0.000 HD 
ENDROOT
BRANCH   3   5
HETATM    5  C   UNL     1     -12.507  10.081  71.566  1.00  0.00    -0.516 C  
BRANCH   5   6
HETATM    6  C   UNL     1     -13.035  11.401  70.984  1.00  0.00    -0.280 C  
BRANCH   6   7
HETATM    7  CA  UNL     1     -12.716  12.635  71.840  1.00  0.00    -0.081 C  
HETATM    8  N   UNL     1     -13.800  12.922  72.822  1.00  0.00    -0.682 NA 
HETATM    9  C   UNL     1     -12.519  13.871  70.949  1.00  0.00    -0.375 C  
HETATM   10  OXT UNL     1     -11.522  14.106  70.286  1.00  0.00    -0.230 OA 
HETATM   11  O   UNL     1     -13.623  14.663  70.957  1.00  0.00    -0.374 OA 
HETATM   12  H1  UNL     1     -13.588  13.742  73.392  1.00  0.00     0.000 HD 
HETATM   13  H2  UNL     1     -14.000  12.108  73.404  1.00  0.00     0.000 HD 
ENDBRANCH   6   7
ENDBRANCH   5   6
ENDBRANCH   3   5
TORSDOF 3
ENDMDL
MODEL       40
REMARK 921   NORMALIZED FREE ENERGY PREDICTED BY IDOCK:   -3.23 KCAL/MOL
REMARK 922        TOTAL FREE ENERGY PREDICTED BY IDOCK:   -4.25 KCAL/MOL
REMARK 923 INTER-LIGAND FREE ENERGY PREDICTED BY IDOCK:   -4.15 KCAL/MOL
REMARK 924 INTRA-LIGAND FREE ENERGY PREDICTED BY IDOCK:   -0.10 KCAL/MOL
REMARK 927      BINDING AFFINITY PREDICTED BY RF-SCORE:    0.00 PKD
ROOT
HETATM    1  N   UNL     1     -11.551  16.335  63.842  1.00  0.00    -1.573 NA 
HETATM    2  H2  UNL     1     -10.719  16.925  63.837  1.00  0.00     0.000 HD 
HETATM    3  C   UNL     1     -11.323  15.070  64.532  1.00  0.00    -0.287 C  
HETATM    4  H1  UNL     1     -11.900  16.154  62.901  1.00  0.00     0.000 HD 
ENDROOT
BRANCH   3   5
HETATM    5  C   UNL     1     -10.801  15.341  65.943  1.00  0.00    -0.345 C  
BRANCH   5   6
HETATM    6  C   UNL     1      -9.662  16.373  65.935  1.00  0.00    -0.327 C  
BRANCH   6   7
HETATM    7  CA  UNL     1      -9.952  17.632  66.762  1.00  0.00    -0.320 C  
HETATM    8  N   UNL     1      -9.318  18.843  66.168  1.00  0.00    -0.467 NA 
HETATM    9  C   UNL     1      -9.436  17.461  68.199  1.00  0.00    -0.288 C  
HETATM   10  OXT UNL     1      -9.981  16.799  69.067  1.00  0.00    -0.257 OA 
HETATM   11  O   UNL     1      -8.258  18.116  68.379  1.00  0.00    -0.288 OA 
HETATM   12  H1  UNL     1      -9.510  19.681  66.718  1.00  0.00     0.000 HD 
HETATM   13  H2  UNL     1      -9.594  18.967  65.193  1.00  0.00     0.000 HD 
ENDBRANCH   6   7
ENDBRANCH   5   6
ENDBRANCH   3   5
TORSDOF 3
ENDMDL
MODEL       41
REMARK 921   NORMALIZED FREE ENERGY PREDICTED BY IDOCK:   -3.22 KCAL/MOL
REMARK 922        TOTAL FREE ENERGY PREDICTED BY IDOCK:   -4.24 KCAL/MOL
REMARK 923 INTER-LIGAND FREE ENERGY PREDICTED BY IDOCK:   -4.09 KCAL/MOL
REMARK 924 INTRA-LIGAND FREE ENERGY PREDICTED BY IDOCK:   -0.15 KCAL/MOL
REMARK 927      BINDING AFFINITY PREDICTED BY RF-SCORE:    0.00 PKD
ROOT
HETATM    1  N   UNL     1     -14.009   8.877  73.234  1.00  0.00    -1.217 NA 
HETATM    2  H2  UNL     1     -14.044   9.810  73.644  1.00  0.00     0.000 HD 
HETATM    3  C   UNL     1     -13.774   8.918  71.795  1.00  0.00    -0.422 C  
HETATM    4  H1  UNL     1     -14.853   8.339  73.428  1.00  0.00     0.000 HD 
ENDROOT
BRANCH   3   5
HETATM    5  C   UNL     1     -12.509   9.725  71.504  1.00  0.00    -0.495 C  
BRANCH   5   6
HETATM    6  C   UNL     1     -11.240   8.932  71.856  1.00  0.00    -0.447 C  
BRANCH   6   7
HETATM    7  CA  UNL     1     -10.577   8.245  70.654  1.00  0.00    -0.215 C  
HETATM    8  N   UNL     1     -11.119   8.749  69.360  1.00  0.00    -0.436 NA 
HETATM    9  C   UNL     1     -10.792   6.725  70.719  1.00  0.00    -0.249 C  
HETATM   10  OXT UNL     1     -10.188   5.961  71.454  1.00  0.00    -0.198 OA 
HETATM   11  O   UNL     1     -11.780   6.332  69.872  1.00  0.00    -0.408 OA 
HETATM   12  H1  UNL     1     -10.678   8.293  68.561  1.00  0.00     0.000 HD 
HETATM   13  H2  UNL     1     -11.043   9.765  69.296  1.00  0.00     0.000 HD 
ENDBRANCH   6   7
ENDBRANCH   5   6
ENDBRANCH   3   5
TORSDOF 3
ENDMDL
MODEL       42
REMARK 921   NORMALIZED FREE ENERGY PREDICTED BY IDOCK:   -3.22 KCAL/MOL
REMARK 922        TOTAL FREE ENERGY PREDICTED BY IDOCK:   -4.24 KCAL/MOL
REMARK 923 INTER-LIGAND FREE ENERGY PREDICTED BY IDOCK:   -4.33 KCAL/MOL
REMARK 924 INTRA-LIGAND FREE ENERGY PREDICTED BY IDOCK:    0.09 KCAL/MOL
REMARK 927      BINDING AFFINITY PREDICTED BY RF-SCORE:    0.00 PKD
ROOT
HETATM    1  N   UNL     1     -11.146  13.189  69.829  1.00  0.00    -0.471 NA 
HETATM    2  H2  UNL     1     -11.042  12.779  68.901  1.00  0.00     0.000 HD 
HETATM    3  C   UNL     1     -12.406  12.814  70.459  1.00  0.00    -0.275 C  
HETATM    4  H1  UNL     1     -11.060  14.206  69.812  1.00  0.00     0.000 HD 
ENDROOT
BRANCH   3   5
HETATM    5  C   UNL     1     -12.534  11.291  70.484  1.00  0.00    -0.398 C  
BRANCH   5   6
HETATM    6  C   UNL     1     -13.025  10.788  71.851  1.00  0.00    -0.524 C  
BRANCH   6   7
HETATM    7  CA  UNL     1     -13.295   9.278  71.903  1.00  0.00    -0.429 C  
HETATM    8  N   UNL     1     -13.917   8.872  73.195  1.00  0.00    -1.215 NA 
HETATM    9  C   UNL     1     -11.989   8.492  71.715  1.00  0.00    -0.332 C  
HETATM   10  OXT UNL     1     -11.416   8.325  70.651  1.00  0.00    -0.274 OA 
HETATM   11  O   UNL     1     -11.519   8.030  72.905  1.00  0.00    -0.411 OA 
HETATM   12  H1  UNL     1     -14.097   7.868  73.230  1.00  0.00     0.000 HD 
HETATM   13  H2  UNL     1     -14.764   9.408  73.386  1.00  0.00     0.000 HD 
ENDBRANCH   6   7
ENDBRANCH   5   6
ENDBRANCH   3   5
TORSDOF 3
ENDMDL
MODEL       43
REMARK 921   NORMALIZED FREE ENERGY PREDICTED BY IDOCK:   -3.20 KCAL/MOL
REMARK 922        TOTAL FREE ENERGY PREDICTED BY IDOCK:   -4.22 KCAL/MOL
REMARK 923 INTER-LIGAND FREE ENERGY PREDICTED BY IDOCK:   -4.15 KCAL/MOL
REMARK 924 INTRA-LIGAND FREE ENERGY PREDICTED BY IDOCK:   -0.06 KCAL/MOL
REMARK 927      BINDING AFFINITY PREDICTED BY RF-SCORE:    0.00 PKD
ROOT
HETATM    1  N   UNL     1      -9.949  18.683  66.608  1.00  0.00    -0.343 NA 
HETATM    2  H2  UNL     1     -10.689  18.771  67.304  1.00  0.00     0.000 HD 
HETATM    3  C   UNL     1      -9.215  17.430  66.741  1.00  0.00    -0.260 C  
HETATM    4  H1  UNL     1      -9.298  19.467  66.637  1.00  0.00     0.000 HD 
ENDROOT
BRANCH   3   5
HETATM    5  C   UNL     1     -10.191  16.255  66.698  1.00  0.00    -0.287 C  
BRANCH   5   6
HETATM    6  C   UNL     1     -10.451  15.790  65.257  1.00  0.00    -0.427 C  
BRANCH   6   7
HETATM    7  CA  UNL     1     -10.737  14.287  65.125  1.00  0.00    -0.394 C  
HETATM    8  N   UNL     1      -9.880  13.651  64.085  1.00  0.00    -0.567 NA 
HETATM    9  C   UNL     1     -12.211  14.051  64.762  1.00  0.00    -0.433 C  
HETATM   10  OXT UNL     1     -13.148  14.132  65.539  1.00  0.00    -0.691 OA 
HETATM   11  O   UNL     1     -12.351  13.773  63.439  1.00  0.00    -0.750 OA 
HETATM   12  H1  UNL     1     -10.069  12.652  63.998  1.00  0.00     0.000 HD 
HETATM   13  H2  UNL     1      -8.890  13.827  64.260  1.00  0.00     0.000 HD 
ENDBRANCH   6   7
ENDBRANCH   5   6
ENDBRANCH   3   5
TORSDOF 3
ENDMDL
MODEL       44
REMARK 921   NORMALIZED FREE ENERGY PREDICTED BY IDOCK:   -3.17 KCAL/MOL
REMARK 922        TOTAL FREE ENERGY PREDICTED BY IDOCK:   -4.18 KCAL/MOL
REMARK 923 INTER-LIGAND FREE ENERGY PREDICTED BY IDOCK:   -3.83 KCAL/MOL
REMARK 924 INTRA-LIGAND FREE ENERGY PREDICTED BY IDOCK:   -0.35 KCAL/MOL
REMARK 927      BINDING AFFINITY PREDICTED BY RF-SCORE:    0.00 PKD
ROOT
HETATM    1  N   UNL     1     -12.311  14.866  69.101  1.00  0.00    -0.578 NA 
HETATM    2  H2  UNL     1     -13.269  15.126  68.868  1.00  0.00     0.000 HD 
HETATM    3  C   UNL     1     -11.880  13.665  68.396  1.00  0.00    -0.372 C  
HETATM    4  H1  UNL     1     -12.179  14.741  70.105  1.00  0.00     0.000 HD 
ENDROOT
BRANCH   3   5
HETATM    5  C   UNL     1     -12.076  13.853  66.892  1.00  0.00    -0.467 C  
BRANCH   5   6
HETATM    6  C   UNL     1     -10.903  14.619  66.260  1.00  0.00    -0.321 C  
BRANCH   6   7
HETATM    7  CA  UNL     1     -11.241  16.062  65.860  1.00  0.00     0.116 C  
HETATM    8  N   UNL     1     -10.950  16.319  64.421  1.00  0.00    -1.081 NA 
HETATM    9  C   UNL     1     -10.436  17.058  66.710  1.00  0.00    -0.257 C  
HETATM   10  OXT UNL     1     -10.681  17.351  67.868  1.00  0.00    -0.383 OA 
HETATM   11  O   UNL     1      -9.376  17.550  66.016  1.00  0.00    -0.482 OA 
HETATM   12  H1  UNL     1     -11.175  17.278  64.154  1.00  0.00     0.000 HD 
HETATM   13  H2  UNL     1     -11.426  15.645  63.819  1.00  0.00     0.000 HD 
ENDBRANCH   6   7
ENDBRANCH   5   6
ENDBRANCH   3   5
TORSDOF 3
ENDMDL
MODEL       45
REMARK 921   NORMALIZED FREE ENERGY PREDICTED BY IDOCK:   -3.13 KCAL/MOL
REMARK 922        TOTAL FREE ENERGY PREDICTED BY IDOCK:   -4.13 KCAL/MOL
REMARK 923 INTER-LIGAND FREE ENERGY PREDICTED BY IDOCK:   -3.85 KCAL/MOL
REMARK 924 INTRA-LIGAND FREE ENERGY PREDICTED BY IDOCK:   -0.28 KCAL/MOL
REMARK 927      BINDING AFFINITY PREDICTED BY RF-SCORE:    0.00 PKD
ROOT
HETATM    1  N   UNL     1     -11.622  12.740  62.874  1.00  0.00    -0.665 NA 
HETATM    2  H2  UNL     1     -10.668  12.778  63.232  1.00  0.00     0.000 HD 
HETATM    3  C   UNL     1     -12.546  12.141  63.830  1.00  0.00    -0.475 C  
HETATM    4  H1  UNL     1     -11.680  12.245  61.984  1.00  0.00     0.000 HD 
ENDROOT
BRANCH   3   5
HETATM    5  C   UNL     1     -12.460  12.884  65.162  1.00  0.00    -0.561 C  
BRANCH   5   6
HETATM    6  C   UNL     1     -12.098  14.364  64.962  1.00  0.00    -0.417 C  
BRANCH   6   7
HETATM    7  CA  UNL     1     -10.775  14.780  65.619  1.00  0.00    -0.336 C  
HETATM    8  N   UNL     1      -9.656  13.876  65.230  1.00  0.00    -0.546 NA 
HETATM    9  C   UNL     1     -10.908  14.769  67.149  1.00  0.00    -0.311 C  
HETATM   10  OXT UNL     1     -11.474  15.624  67.811  1.00  0.00    -0.307 OA 
HETATM   11  O   UNL     1     -10.345  13.653  67.683  1.00  0.00    -0.235 OA 
HETATM   12  H1  UNL     1      -8.776  14.153  65.666  1.00  0.00     0.000 HD 
HETATM   13  H2  UNL     1      -9.564  13.813  64.216  1.00  0.00     0.000 HD 
ENDBRANCH   6   7
ENDBRANCH   5   6
ENDBRANCH   3   5
TORSDOF 3
ENDMDL
MODEL       46
REMARK 921   NORMALIZED FREE ENERGY PREDICTED BY IDOCK:   -3.12 KCAL/MOL
REMARK 922        TOTAL FREE ENERGY PREDICTED BY IDOCK:   -4.13 KCAL/MOL
REMARK 923 INTER-LIGAND FREE ENERGY PREDICTED BY IDOCK:   -3.84 KCAL/MOL
REMARK 924 INTRA-LIGAND FREE ENERGY PREDICTED BY IDOCK:   -0.28 KCAL/MOL
REMARK 927      BINDING AFFINITY PREDICTED BY RF-SCORE:    0.00 PKD
ROOT
HETATM    1  N   UNL     1      -8.036  10.821  64.400  1.00  0.00    -0.360 NA 
HETATM    2  H2  UNL     1      -8.066  11.108  65.378  1.00  0.00     0.000 HD 
HETATM    3  C   UNL     1      -9.220  10.065  64.011  1.00  0.00    -0.272 C  
HETATM    4  H1  UNL     1      -7.197  10.282  64.184  1.00  0.00     0.000 HD 
ENDROOT
BRANCH   3   5
HETATM    5  C   UNL     1     -10.476  10.873  64.335  1.00  0.00    -0.403 C  
BRANCH   5   6
HETATM    6  C   UNL     1     -10.295  12.359  63.988  1.00  0.00    -0.435 C  
BRANCH   6   7
HETATM    7  CA  UNL     1     -10.514  13.310  65.173  1.00  0.00    -0.333 C  
HETATM    8  N   UNL     1      -9.625  12.975  66.322  1.00  0.00    -0.344 NA 
HETATM    9  C   UNL     1     -11.974  13.253  65.646  1.00  0.00    -0.412 C  
HETATM   10  OXT UNL     1     -12.916  13.784  65.082  1.00  0.00    -0.738 OA 
HETATM   11  O   UNL     1     -12.097  12.493  66.766  1.00  0.00    -0.546 OA 
HETATM   12  H1  UNL     1      -9.770  13.607  67.110  1.00  0.00     0.000 HD 
HETATM   13  H2  UNL     1      -8.645  12.951  66.039  1.00  0.00     0.000 HD 
ENDBRANCH   6   7
ENDBRANCH   5   6
ENDBRANCH   3   5
TORSDOF 3
ENDMDL
MODEL       47
REMARK 921   NORMALIZED FREE ENERGY PREDICTED BY IDOCK:   -3.11 KCAL/MOL
REMARK 922        TOTAL FREE ENERGY PREDICTED BY IDOCK:   -4.11 KCAL/MOL
REMARK 923 INTER-LIGAND FREE ENERGY PREDICTED BY IDOCK:   -3.96 KCAL/MOL
REMARK 924 INTRA-LIGAND FREE ENERGY PREDICTED BY IDOCK:   -0.15 KCAL/MOL
REMARK 927      BINDING AFFINITY PREDICTED BY RF-SCORE:    0.00 PKD
ROOT
HETATM    1  N   UNL     1     -14.173   8.929  73.205  1.00  0.00    -1.237 NA 
HETATM    2  H2  UNL     1     -13.405   8.557  73.763  1.00  0.00     0.000 HD 
HETATM    3  C   UNL     1     -13.972   8.710  71.777  1.00  0.00    -0.434 C  
HETATM    4  H1  UNL     1     -14.331   9.921  73.381  1.00  0.00     0.000 HD 
ENDROOT
BRANCH   3   5
HETATM    5  C   UNL     1     -13.735   7.224  71.514  1.00  0.00    -0.451 C  
BRANCH   5   6
HETATM    6  C   UNL     1     -12.359   6.975  70.876  1.00  0.00    -0.361 C  
BRANCH   6   7
HETATM    7  CA  UNL     1     -11.422   6.108  71.728  1.00  0.00    -0.285 C  
HETATM    8  N   UNL     1     -12.149   5.438  72.843  1.00  0.00    -0.479 NA 
HETATM    9  C   UNL     1     -10.290   6.962  72.320  1.00  0.00    -0.196 C  
HETATM   10  OXT UNL     1      -9.316   7.362  71.704  1.00  0.00    -0.149 OA 
HETATM   11  O   UNL     1     -10.529   7.257  73.626  1.00  0.00    -0.365 OA 
HETATM   12  H1  UNL     1     -11.526   4.861  73.409  1.00  0.00     0.000 HD 
HETATM   13  H2  UNL     1     -12.943   4.899  72.498  1.00  0.00     0.000 HD 
ENDBRANCH   6   7
ENDBRANCH   5   6
ENDBRANCH   3   5
TORSDOF 3
ENDMDL
MODEL       48
REMARK 921   NORMALIZED FREE ENERGY PREDICTED BY IDOCK:   -3.10 KCAL/MOL
REMARK 922        TOTAL FREE ENERGY PREDICTED BY IDOCK:   -4.10 KCAL/MOL
REMARK 923 INTER-LIGAND FREE ENERGY PREDICTED BY IDOCK:   -3.83 KCAL/MOL
REMARK 924 INTRA-LIGAND FREE ENERGY PREDICTED BY IDOCK:   -0.27 KCAL/MOL
REMARK 927      BINDING AFFINITY PREDICTED BY RF-SCORE:    0.00 PKD
ROOT
HETATM    1  N   UNL     1     -11.059   7.217  68.985  1.00  0.00    -0.446 NA 
HETATM    2  H2  UNL     1     -11.704   7.984  69.175  1.00  0.00     0.000 HD 
HETATM    3  C   UNL     1     -10.442   6.704  70.203  1.00  0.00    -0.210 C  
HETATM    4  H1  UNL     1     -10.334   7.481  68.318  1.00  0.00     0.000 HD 
ENDROOT
BRANCH   3   5
HETATM    5  C   UNL     1     -11.528   6.309  71.202  1.00  0.00    -0.362 C  
BRANCH   5   6
HETATM    6  C   UNL     1     -12.643   7.364  71.272  1.00  0.00    -0.376 C  
BRANCH   6   7
HETATM    7  CA  UNL     1     -12.321   8.557  72.183  1.00  0.00    -0.382 C  
HETATM    8  N   UNL     1     -13.461   8.887  73.085  1.00  0.00    -0.955 NA 
HETATM    9  C   UNL     1     -11.981   9.798  71.344  1.00  0.00    -0.411 C  
HETATM   10  OXT UNL     1     -10.922   9.987  70.768  1.00  0.00    -0.313 OA 
HETATM   11  O   UNL     1     -13.034  10.655  71.287  1.00  0.00    -0.373 OA 
HETATM   12  H1  UNL     1     -13.247   9.680  73.691  1.00  0.00     0.000 HD 
HETATM   13  H2  UNL     1     -13.755   8.074  73.627  1.00  0.00     0.000 HD 
ENDBRANCH   6   7
ENDBRANCH   5   6
ENDBRANCH   3   5
TORSDOF 3
ENDMDL
MODEL       49
REMARK 921   NORMALIZED FREE ENERGY PREDICTED BY IDOCK:   -3.09 KCAL/MOL
REMARK 922        TOTAL FREE ENERGY PREDICTED BY IDOCK:   -4.09 KCAL/MOL
REMARK 923 INTER-LIGAND FREE ENERGY PREDICTED BY IDOCK:   -4.31 KCAL/MOL
REMARK 924 INTRA-LIGAND FREE ENERGY PREDICTED BY IDOCK:    0.22 KCAL/MOL
REMARK 927      BINDING AFFINITY PREDICTED BY RF-SCORE:    0.00 PKD
ROOT
HETATM    1  N   UNL     1     -11.876  16.145  63.793  1.00  0.00    -1.368 NA 
HETATM    2  H2  UNL     1     -11.214  16.173  63.018  1.00  0.00     0.000 HD 
HETATM    3  C   UNL     1     -12.020  14.804  64.346  1.00  0.00    -0.417 C  
HETATM    4  H1  UNL     1     -12.793  16.507  63.528  1.00  0.00     0.000 HD 
ENDROOT
BRANCH   3   5
HETATM    5  C   UNL     1     -10.648  14.261  64.742  1.00  0.00    -0.434 C  
BRANCH   5   6
HETATM    6  C   UNL     1     -10.762  13.151  65.798  1.00  0.00    -0.292 C  
BRANCH   6   7
HETATM    7  CA  UNL     1     -10.477  11.742  65.259  1.00  0.00    -0.274 C  
HETATM    8  N   UNL     1      -9.042  11.370  65.416  1.00  0.00    -0.359 NA 
HETATM    9  C   UNL     1     -10.850  11.650  63.771  1.00  0.00    -0.424 C  
HETATM   10  OXT UNL     1     -11.986  11.557  63.337  1.00  0.00    -0.345 OA 
HETATM   11  O   UNL     1      -9.745  11.727  62.983  1.00  0.00    -0.394 OA 
HETATM   12  H1  UNL     1      -8.852  10.434  65.058  1.00  0.00     0.000 HD 
HETATM   13  H2  UNL     1      -8.737  11.467  66.385  1.00  0.00     0.000 HD 
ENDBRANCH   6   7
ENDBRANCH   5   6
ENDBRANCH   3   5
TORSDOF 3
ENDMDL
MODEL       50
REMARK 921   NORMALIZED FREE ENERGY PREDICTED BY IDOCK:   -3.09 KCAL/MOL
REMARK 922        TOTAL FREE ENERGY PREDICTED BY IDOCK:   -4.09 KCAL/MOL
REMARK 923 INTER-LIGAND FREE ENERGY PREDICTED BY IDOCK:   -3.99 KCAL/MOL
REMARK 924 INTRA-LIGAND FREE ENERGY PREDICTED BY IDOCK:   -0.10 KCAL/MOL
REMARK 927      BINDING AFFINITY PREDICTED BY RF-SCORE:    0.00 PKD
ROOT
HETATM    1  N   UNL     1     -11.611  16.457  63.864  1.00  0.00    -1.602 NA 
HETATM    2  H2  UNL     1     -12.511  16.700  64.278  1.00  0.00     0.000 HD 
HETATM    3  C   UNL     1     -10.775  15.687  64.778  1.00  0.00    -0.276 C  
HETATM    4  H1  UNL     1     -11.100  17.279  63.542  1.00  0.00     0.000 HD 
ENDROOT
BRANCH   3   5
HETATM    5  C   UNL     1     -11.540  14.455  65.259  1.00  0.00    -0.353 C  
BRANCH   5   6
HETATM    6  C   UNL     1     -10.814  13.155  64.879  1.00  0.00    -0.348 C  
BRANCH   6   7
HETATM    7  CA  UNL     1     -10.562  12.209  66.061  1.00  0.00    -0.257 C  
HETATM    8  N   UNL     1     -11.800  11.980  66.859  1.00  0.00    -0.616 NA 
HETATM    9  C   UNL     1      -9.478  12.781  66.986  1.00  0.00    -0.233 C  
HETATM   10  OXT UNL     1      -8.280  12.768  66.756  1.00  0.00    -0.081 OA 
HETATM   11  O   UNL     1     -10.027  13.349  68.092  1.00  0.00    -0.225 OA 
HETATM   12  H1  UNL     1     -11.633  11.351  67.645  1.00  0.00     0.000 HD 
HETATM   13  H2  UNL     1     -12.565  11.647  66.272  1.00  0.00     0.000 HD 
ENDBRANCH   6   7
ENDBRANCH   5   6
ENDBRANCH   3   5
TORSDOF 3
ENDMDL
MODEL       51
REMARK 921   NORMALIZED FREE ENERGY PREDICTED BY IDOCK:   -3.08 KCAL/MOL
REMARK 922        TOTAL FREE ENERGY PREDICTED BY IDOCK:   -4.07 KCAL/MOL
REMARK 923 INTER-LIGAND FREE ENERGY PREDICTED BY IDOCK:   -3.47 KCAL/MOL
REMARK 924 INTRA-LIGAND FREE ENERGY PREDICTED BY IDOCK:   -0.60 KCAL/MOL
REMARK 927      BINDING AFFINITY PREDICTED BY RF-SCORE:    0.00 PKD
ROOT
HETATM    1  N   UNL     1     -11.075   9.017  69.073  1.00  0.00    -0.436 NA 
HETATM    2  H2  UNL     1     -11.575   9.071  69.960  1.00  0.00     0.000 HD 
HETATM    3  C   UNL     1     -10.255   7.815  68.977  1.00  0.00    -0.208 C  
HETATM    4  H1  UNL     1     -10.497   9.841  68.906  1.00  0.00     0.000 HD 
ENDROOT
BRANCH   3   5
HETATM    5  C   UNL     1     -11.121   6.581  69.226  1.00  0.00    -0.393 C  
BRANCH   5   6
HETATM    6  C   UNL     1     -11.000   6.091  70.678  1.00  0.00    -0.376 C  
BRANCH   6   7
HETATM    7  CA  UNL     1     -12.033   6.703  71.634  1.00  0.00    -0.347 C  
HETATM    8  N   UNL     1     -13.149   7.360  70.895  1.00  0.00    -0.603 NA 
HETATM    9  C   UNL     1     -11.369   7.742  72.549  1.00  0.00    -0.374 C  
HETATM   10  OXT UNL     1     -10.670   7.483  73.515  1.00  0.00    -0.378 OA 
HETATM   11  O   UNL     1     -11.625   9.007  72.123  1.00  0.00    -0.355 OA 
HETATM   12  H1  UNL     1     -13.836   7.767  71.530  1.00  0.00     0.000 HD 
HETATM   13  H2  UNL     1     -13.588   6.717  70.235  1.00  0.00     0.000 HD 
ENDBRANCH   6   7
ENDBRANCH   5   6
ENDBRANCH   3   5
TORSDOF 3
ENDMDL
MODEL       52
REMARK 921   NORMALIZED FREE ENERGY PREDICTED BY IDOCK:   -3.08 KCAL/MOL
REMARK 922        TOTAL FREE ENERGY PREDICTED BY IDOCK:   -4.07 KCAL/MOL
REMARK 923 INTER-LIGAND FREE ENERGY PREDICTED BY IDOCK:   -3.99 KCAL/MOL
REMARK 924 INTRA-LIGAND FREE ENERGY PREDICTED BY IDOCK:   -0.08 KCAL/MOL
REMARK 927      BINDING AFFINITY PREDICTED BY RF-SCORE:    0.00 PKD
ROOT
HETATM    1  N   UNL     1     -12.006  15.327  68.484  1.00  0.00    -0.556 NA 
HETATM    2  H2  UNL     1     -12.653  14.551  68.346  1.00  0.00     0.000 HD 
HETATM    3  C   UNL     1     -10.793  15.179  67.687  1.00  0.00    -0.295 C  
HETATM    4  H1  UNL     1     -11.759  15.452  69.465  1.00  0.00     0.000 HD 
ENDROOT
BRANCH   3   5
HETATM    5  C   UNL     1     -11.163  14.992  66.217  1.00  0.00    -0.309 C  
BRANCH   5   6
HETATM    6  C   UNL     1     -12.558  14.367  66.061  1.00  0.00    -0.235 C  
BRANCH   6   7
HETATM    7  CA  UNL     1     -12.564  13.025  65.316  1.00  0.00    -0.457 C  
HETATM    8  N   UNL     1     -11.797  11.981  66.054  1.00  0.00    -0.531 NA 
HETATM    9  C   UNL     1     -11.956  13.185  63.915  1.00  0.00    -0.488 C  
HETATM   10  OXT UNL     1     -12.521  13.687  62.957  1.00  0.00    -0.719 OA 
HETATM   11  O   UNL     1     -10.676  12.728  63.880  1.00  0.00    -0.406 OA 
HETATM   12  H1  UNL     1     -11.801  11.088  65.559  1.00  0.00     0.000 HD 
HETATM   13  H2  UNL     1     -12.136  11.877  67.011  1.00  0.00     0.000 HD 
ENDBRANCH   6   7
ENDBRANCH   5   6
ENDBRANCH   3   5
TORSDOF 3
ENDMDL
MODEL       53
REMARK 921   NORMALIZED FREE ENERGY PREDICTED BY IDOCK:   -3.05 KCAL/MOL
REMARK 922        TOTAL FREE ENERGY PREDICTED BY IDOCK:   -4.05 KCAL/MOL
REMARK 923 INTER-LIGAND FREE ENERGY PREDICTED BY IDOCK:   -3.63 KCAL/MOL
REMARK 924 INTRA-LIGAND FREE ENERGY PREDICTED BY IDOCK:   -0.42 KCAL/MOL
REMARK 927      BINDING AFFINITY PREDICTED BY RF-SCORE:    0.00 PKD
ROOT
HETATM    1  N   UNL     1     -12.621   6.506  72.239  1.00  0.00    -0.554 NA 
HETATM    2  H2  UNL     1     -12.716   5.965  71.380  1.00  0.00     0.000 HD 
HETATM    3  C   UNL     1     -11.246   6.933  72.472  1.00  0.00    -0.267 C  
HETATM    4  H1  UNL     1     -12.965   5.998  73.054  1.00  0.00     0.000 HD 
ENDROOT
BRANCH   3   5
HETATM    5  C   UNL     1     -10.731   7.695  71.252  1.00  0.00    -0.248 C  
BRANCH   5   6
HETATM    6  C   UNL     1     -10.771   9.214  71.476  1.00  0.00    -0.437 C  
BRANCH   6   7
HETATM    7  CA  UNL     1     -11.908   9.928  70.732  1.00  0.00    -0.330 C  
HETATM    8  N   UNL     1     -11.476  11.253  70.203  1.00  0.00    -0.456 NA 
HETATM    9  C   UNL     1     -13.111  10.138  71.664  1.00  0.00    -0.447 C  
HETATM   10  OXT UNL     1     -13.906   9.272  71.991  1.00  0.00    -0.403 OA 
HETATM   11  O   UNL     1     -13.162  11.417  72.120  1.00  0.00    -0.490 OA 
HETATM   12  H1  UNL     1     -12.232  11.728  69.709  1.00  0.00     0.000 HD 
HETATM   13  H2  UNL     1     -10.645  11.167  69.618  1.00  0.00     0.000 HD 
ENDBRANCH   6   7
ENDBRANCH   5   6
ENDBRANCH   3   5
TORSDOF 3
ENDMDL
MODEL       54
REMARK 921   NORMALIZED FREE ENERGY PREDICTED BY IDOCK:   -3.05 KCAL/MOL
REMARK 922        TOTAL FREE ENERGY PREDICTED BY IDOCK:   -4.04 KCAL/MOL
REMARK 923 INTER-LIGAND FREE ENERGY PREDICTED BY IDOCK:   -3.81 KCAL/MOL
REMARK 924 INTRA-LIGAND FREE ENERGY PREDICTED BY IDOCK:   -0.23 KCAL/MOL
REMARK 927      BINDING AFFINITY PREDICTED BY RF-SCORE:    0.00 PKD
ROOT
HETATM    1  N   UNL     1      -9.746  14.424  69.244  1.00  0.00    -0.419 NA 
HETATM    2  H2  UNL     1      -9.691  13.862  70.093  1.00  0.00     0.000 HD 
HETATM    3  C   UNL     1     -10.514  13.762  68.195  1.00  0.00    -0.249 C  
HETATM    4  H1  UNL     1      -8.823  14.673  68.887  1.00  0.00     0.000 HD 
ENDROOT
BRANCH   3   5
HETATM    5  C   UNL     1     -11.896  13.389  68.730  1.00  0.00    -0.386 C  
BRANCH   5   6
HETATM    6  C   UNL     1     -11.970  13.536  70.258  1.00  0.00    -0.386 C  
BRANCH   6   7
HETATM    7  CA  UNL     1     -12.957  14.609  70.737  1.00  0.00    -0.347 C  
HETATM    8  N   UNL     1     -12.682  15.933  70.110  1.00  0.00    -0.626 NA 
HETATM    9  C   UNL     1     -12.883  14.763  72.264  1.00  0.00    -0.333 C  
HETATM   10  OXT UNL     1     -13.373  13.991  73.072  1.00  0.00    -0.641 OA 
HETATM   11  O   UNL     1     -12.160  15.860  72.613  1.00  0.00    -0.420 OA 
HETATM   12  H1  UNL     1     -13.338  16.647  70.428  1.00  0.00     0.000 HD 
HETATM   13  H2  UNL     1     -12.670  15.867  69.091  1.00  0.00     0.000 HD 
ENDBRANCH   6   7
ENDBRANCH   5   6
ENDBRANCH   3   5
TORSDOF 3
ENDMDL
MODEL       55
REMARK 921   NORMALIZED FREE ENERGY PREDICTED BY IDOCK:   -3.04 KCAL/MOL
REMARK 922        TOTAL FREE ENERGY PREDICTED BY IDOCK:   -4.03 KCAL/MOL
REMARK 923 INTER-LIGAND FREE ENERGY PREDICTED BY IDOCK:   -3.80 KCAL/MOL
REMARK 924 INTRA-LIGAND FREE ENERGY PREDICTED BY IDOCK:   -0.23 KCAL/MOL
REMARK 927      BINDING AFFINITY PREDICTED BY RF-SCORE:    0.00 PKD
ROOT
HETATM    1  N   UNL     1     -11.673  15.460  68.479  1.00  0.00    -0.433 NA 
HETATM    2  H2  UNL     1     -12.640  15.235  68.711  1.00  0.00     0.000 HD 
HETATM    3  C   UNL     1     -11.131  16.507  69.338  1.00  0.00    -0.253 C  
HETATM    4  H1  UNL     1     -11.564  15.729  67.501  1.00  0.00     0.000 HD 
ENDROOT
BRANCH   3   5
HETATM    5  C   UNL     1     -11.293  16.105  70.803  1.00  0.00    -0.397 C  
BRANCH   5   6
HETATM    6  C   UNL     1     -11.731  14.639  70.941  1.00  0.00    -0.335 C  
BRANCH   6   7
HETATM    7  CA  UNL     1     -13.162  14.459  71.469  1.00  0.00    -0.346 C  
HETATM    8  N   UNL     1     -14.140  15.287  70.707  1.00  0.00    -0.808 NA 
HETATM    9  C   UNL     1     -13.240  14.846  72.953  1.00  0.00    -0.492 C  
HETATM   10  OXT UNL     1     -12.841  14.159  73.880  1.00  0.00    -0.138 OA 
HETATM   11  O   UNL     1     -13.779  16.083  73.111  1.00  0.00    -0.597 OA 
HETATM   12  H1  UNL     1     -15.091  15.167  71.057  1.00  0.00     0.000 HD 
HETATM   13  H2  UNL     1     -14.086  15.099  69.706  1.00  0.00     0.000 HD 
ENDBRANCH   6   7
ENDBRANCH   5   6
ENDBRANCH   3   5
TORSDOF 3
ENDMDL
MODEL       56
REMARK 921   NORMALIZED FREE ENERGY PREDICTED BY IDOCK:   -3.02 KCAL/MOL
REMARK 922        TOTAL FREE ENERGY PREDICTED BY IDOCK:   -4.00 KCAL/MOL
REMARK 923 INTER-LIGAND FREE ENERGY PREDICTED BY IDOCK:   -3.93 KCAL/MOL
REMARK 924 INTRA-LIGAND FREE ENERGY PREDICTED BY IDOCK:   -0.07 KCAL/MOL
REMARK 927      BINDING AFFINITY PREDICTED BY RF-SCORE:    0.00 PKD
ROOT
HETATM    1  N   UNL     1     -14.131   8.884  73.134  1.00  0.00    -1.225 NA 
HETATM    2  H2  UNL     1     -14.334   9.799  73.535  1.00  0.00     0.000 HD 
HETATM    3  C   UNL     1     -13.724   8.974  71.737  1.00  0.00    -0.419 C  
HETATM    4  H1  UNL     1     -14.919   8.242  73.221  1.00  0.00     0.000 HD 
ENDROOT
BRANCH   3   5
HETATM    5  C   UNL     1     -12.543   9.934  71.606  1.00  0.00    -0.519 C  
BRANCH   5   6
HETATM    6  C   UNL     1     -11.200   9.206  71.779  1.00  0.00    -0.451 C  
BRANCH   6   7
HETATM    7  CA  UNL     1     -10.322   9.205  70.521  1.00  0.00    -0.235 C  
HETATM    8  N   UNL     1     -10.941   8.422  69.414  1.00  0.00    -0.431 NA 
HETATM    9  C   UNL     1      -8.939   8.611  70.831  1.00  0.00    -0.187 C  
HETATM   10  OXT UNL     1      -8.043   9.189  71.423  1.00  0.00    -0.318 OA 
HETATM   11  O   UNL     1      -8.848   7.327  70.394  1.00  0.00    -0.148 OA 
HETATM   12  H1  UNL     1     -10.357   8.421  68.577  1.00  0.00     0.000 HD 
HETATM   13  H2  UNL     1     -11.885   8.751  69.208  1.00  0.00     0.000 HD 
ENDBRANCH   6   7
ENDBRANCH   5   6
ENDBRANCH   3   5
TORSDOF 3
ENDMDL
MODEL       57
REMARK 921   NORMALIZED FREE ENERGY PREDICTED BY IDOCK:   -3.01 KCAL/MOL
REMARK 922        TOTAL FREE ENERGY PREDICTED BY IDOCK:   -4.00 KCAL/MOL
REMARK 923 INTER-LIGAND FREE ENERGY PREDICTED BY IDOCK:   -3.85 KCAL/MOL
REMARK 924 INTRA-LIGAND FREE ENERGY PREDICTED BY IDOCK:   -0.15 KCAL/MOL
REMARK 927      BINDING AFFINITY PREDICTED BY RF-SCORE:    0.00 PKD
ROOT
HETATM    1  N   UNL     1      -6.997  21.212  66.326  1.00  0.00    -0.542 NA 
HETATM    2  H2  UNL     1      -6.996  22.057  66.897  1.00  0.00     0.000 HD 
HETATM    3  C   UNL     1      -7.645  20.093  67.000  1.00  0.00    -0.299 C  
HETATM    4  H1  UNL     1      -6.057  20.941  66.037  1.00  0.00     0.000 HD 
ENDROOT
BRANCH   3   5
HETATM    5  C   UNL     1      -9.054  20.499  67.431  1.00  0.00    -0.457 C  
BRANCH   5   6
HETATM    6  C   UNL     1     -10.122  19.907  66.499  1.00  0.00    -0.607 C  
BRANCH   6   7
HETATM    7  CA  UNL     1     -10.751  18.604  67.013  1.00  0.00    -0.344 C  
HETATM    8  N   UNL     1     -10.488  18.399  68.466  1.00  0.00    -0.373 NA 
HETATM    9  C   UNL     1     -10.199  17.399  66.237  1.00  0.00    -0.341 C  
HETATM   10  OXT UNL     1     -10.529  17.080  65.107  1.00  0.00    -0.667 OA 
HETATM   11  O   UNL     1      -9.252  16.742  66.960  1.00  0.00    -0.215 OA 
HETATM   12  H1  UNL     1     -10.906  17.534  68.808  1.00  0.00     0.000 HD 
HETATM   13  H2  UNL     1     -10.794  19.203  69.016  1.00  0.00     0.000 HD 
ENDBRANCH   6   7
ENDBRANCH   5   6
ENDBRANCH   3   5
TORSDOF 3
ENDMDL
MODEL       58
REMARK 921   NORMALIZED FREE ENERGY PREDICTED BY IDOCK:   -2.99 KCAL/MOL
REMARK 922        TOTAL FREE ENERGY PREDICTED BY IDOCK:   -3.97 KCAL/MOL
REMARK 923 INTER-LIGAND FREE ENERGY PREDICTED BY IDOCK:   -3.87 KCAL/MOL
REMARK 924 INTRA-LIGAND FREE ENERGY PREDICTED BY IDOCK:   -0.10 KCAL/MOL
REMARK 927      BINDING AFFINITY PREDICTED BY RF-SCORE:    0.00 PKD
ROOT
HETATM    1  N   UNL     1     -11.973  10.581  68.554  1.00  0.00    -0.786 NA 
HETATM    2  H2  UNL     1     -12.531   9.728  68.580  1.00  0.00     0.000 HD 
HETATM    3  C   UNL     1     -11.374  10.885  69.849  1.00  0.00    -0.305 C  
HETATM    4  H1  UNL     1     -12.513  11.384  68.229  1.00  0.00     0.000 HD 
ENDROOT
BRANCH   3   5
HETATM    5  C   UNL     1     -10.566   9.683  70.336  1.00  0.00    -0.354 C  
BRANCH   5   6
HETATM    6  C   UNL     1     -11.088   9.160  71.683  1.00  0.00    -0.445 C  
BRANCH   6   7
HETATM    7  CA  UNL     1     -12.402   8.373  71.583  1.00  0.00    -0.320 C  
HETATM    8  N   UNL     1     -13.177   8.428  72.855  1.00  0.00    -0.625 NA 
HETATM    9  C   UNL     1     -12.123   6.902  71.239  1.00  0.00    -0.373 C  
HETATM   10  OXT UNL     1     -11.821   6.484  70.134  1.00  0.00    -0.416 OA 
HETATM   11  O   UNL     1     -12.216   6.114  72.343  1.00  0.00    -0.247 OA 
HETATM   12  H1  UNL     1     -14.051   7.906  72.789  1.00  0.00     0.000 HD 
HETATM   13  H2  UNL     1     -13.342   9.392  73.149  1.00  0.00     0.000 HD 
ENDBRANCH   6   7
ENDBRANCH   5   6
ENDBRANCH   3   5
TORSDOF 3
ENDMDL
MODEL       59
REMARK 921   NORMALIZED FREE ENERGY PREDICTED BY IDOCK:   -2.99 KCAL/MOL
REMARK 922        TOTAL FREE ENERGY PREDICTED BY IDOCK:   -3.97 KCAL/MOL
REMARK 923 INTER-LIGAND FREE ENERGY PREDICTED BY IDOCK:   -3.93 KCAL/MOL
REMARK 924 INTRA-LIGAND FREE ENERGY PREDICTED BY IDOCK:   -0.04 KCAL/MOL
REMARK 927      BINDING AFFINITY PREDICTED BY RF-SCORE:    0.00 PKD
ROOT
HETATM    1  N   UNL     1     -13.864  15.385  70.671  1.00  0.00    -0.837 NA 
HETATM    2  H2  UNL     1     -13.950  14.621  71.341  1.00  0.00     0.000 HD 
HETATM    3  C   UNL     1     -12.520  15.479  70.113  1.00  0.00    -0.318 C  
HETATM    4  H1  UNL     1     -14.131  16.282  71.075  1.00  0.00     0.000 HD 
ENDROOT
BRANCH   3   5
HETATM    5  C   UNL     1     -12.120  14.134  69.508  1.00  0.00    -0.388 C  
BRANCH   5   6
HETATM    6  C   UNL     1     -11.541  14.300  68.094  1.00  0.00    -0.365 C  
BRANCH   6   7
HETATM    7  CA  UNL     1     -11.693  13.059  67.205  1.00  0.00    -0.382 C  
HETATM    8  N   UNL     1     -10.500  12.169  67.288  1.00  0.00    -0.215 NA 
HETATM    9  C   UNL     1     -11.899  13.471  65.739  1.00  0.00    -0.372 C  
HETATM   10  OXT UNL     1     -12.940  13.901  65.270  1.00  0.00    -0.747 OA 
HETATM   11  O   UNL     1     -10.751  13.333  65.024  1.00  0.00    -0.303 OA 
HETATM   12  H1  UNL     1     -10.601  11.344  66.697  1.00  0.00     0.000 HD 
HETATM   13  H2  UNL     1     -10.295  11.912  68.254  1.00  0.00     0.000 HD 
ENDBRANCH   6   7
ENDBRANCH   5   6
ENDBRANCH   3   5
TORSDOF 3
ENDMDL
MODEL       60
REMARK 921   NORMALIZED FREE ENERGY PREDICTED BY IDOCK:   -2.98 KCAL/MOL
REMARK 922        TOTAL FREE ENERGY PREDICTED BY IDOCK:   -3.96 KCAL/MOL
REMARK 923 INTER-LIGAND FREE ENERGY PREDICTED BY IDOCK:   -3.98 KCAL/MOL
REMARK 924 INTRA-LIGAND FREE ENERGY PREDICTED BY IDOCK:    0.02 KCAL/MOL
REMARK 927      BINDING AFFINITY PREDICTED BY RF-SCORE:    0.00 PKD
ROOT
HETATM    1  N   UNL     1     -11.467  12.636  70.002  1.00  0.00    -0.529 NA 
HETATM    2  H2  UNL     1     -10.455  12.527  69.937  1.00  0.00     0.000 HD 
HETATM    3  C   UNL     1     -11.909  13.949  69.547  1.00  0.00    -0.329 C  
HETATM    4  H1  UNL     1     -11.811  12.467  70.948  1.00  0.00     0.000 HD 
ENDROOT
BRANCH   3   5
HETATM    5  C   UNL     1     -11.392  14.202  68.131  1.00  0.00    -0.316 C  
BRANCH   5   6
HETATM    6  C   UNL     1     -11.863  13.113  67.155  1.00  0.00    -0.424 C  
BRANCH   6   7
HETATM    7  CA  UNL     1     -12.042  13.601  65.710  1.00  0.00    -0.428 C  
HETATM    8  N   UNL     1     -12.832  12.636  64.894  1.00  0.00    -0.842 NA 
HETATM    9  C   UNL     1     -10.674  13.808  65.041  1.00  0.00    -0.382 C  
HETATM   10  OXT UNL     1      -9.931  14.755  65.239  1.00  0.00    -0.361 OA 
HETATM   11  O   UNL     1     -10.370  12.771  64.216  1.00  0.00    -0.372 OA 
HETATM   12  H1  UNL     1     -12.951  12.960  63.934  1.00  0.00     0.000 HD 
HETATM   13  H2  UNL     1     -13.731  12.429  65.331  1.00  0.00     0.000 HD 
ENDBRANCH   6   7
ENDBRANCH   5   6
ENDBRANCH   3   5
TORSDOF 3
ENDMDL
MODEL       61
REMARK 921   NORMALIZED FREE ENERGY PREDICTED BY IDOCK:   -2.98 KCAL/MOL
REMARK 922        TOTAL FREE ENERGY PREDICTED BY IDOCK:   -3.96 KCAL/MOL
REMARK 923 INTER-LIGAND FREE ENERGY PREDICTED BY IDOCK:   -3.77 KCAL/MOL
REMARK 924 INTRA-LIGAND FREE ENERGY PREDICTED BY IDOCK:   -0.18 KCAL/MOL
REMARK 927      BINDING AFFINITY PREDICTED BY RF-SCORE:    0.00 PKD
ROOT
HETATM    1  N   UNL     1     -10.568  19.163  65.702  1.00  0.00    -0.526 NA 
HETATM    2  H2  UNL     1     -10.984  18.333  65.280  1.00  0.00     0.000 HD 
HETATM    3  C   UNL     1     -10.729  19.184  67.151  1.00  0.00    -0.471 C  
HETATM    4  H1  UNL     1     -10.940  20.026  65.303  1.00  0.00     0.000 HD 
ENDROOT
BRANCH   3   5
HETATM    5  C   UNL     1     -10.172  17.893  67.749  1.00  0.00    -0.372 C  
BRANCH   5   6
HETATM    6  C   UNL     1      -9.775  16.889  66.655  1.00  0.00    -0.283 C  
BRANCH   6   7
HETATM    7  CA  UNL     1     -10.876  15.879  66.302  1.00  0.00    -0.200 C  
HETATM    8  N   UNL     1     -10.599  14.534  66.882  1.00  0.00    -0.276 NA 
HETATM    9  C   UNL     1     -11.010  15.741  64.778  1.00  0.00    -0.393 C  
HETATM   10  OXT UNL     1     -11.555  16.550  64.044  1.00  0.00    -1.154 OA 
HETATM   11  O   UNL     1     -10.403  14.609  64.333  1.00  0.00    -0.099 OA 
HETATM   12  H1  UNL     1     -11.331  13.863  66.648  1.00  0.00     0.000 HD 
HETATM   13  H2  UNL     1     -10.452  14.587  67.890  1.00  0.00     0.000 HD 
ENDBRANCH   6   7
ENDBRANCH   5   6
ENDBRANCH   3   5
TORSDOF 3
ENDMDL
MODEL       62
REMARK 921   NORMALIZED FREE ENERGY PREDICTED BY IDOCK:   -2.96 KCAL/MOL
REMARK 922        TOTAL FREE ENERGY PREDICTED BY IDOCK:   -3.94 KCAL/MOL
REMARK 923 INTER-LIGAND FREE ENERGY PREDICTED BY IDOCK:   -3.81 KCAL/MOL
REMARK 924 INTRA-LIGAND FREE ENERGY PREDICTED BY IDOCK:   -0.13 KCAL/MOL
REMARK 927      BINDING AFFINITY PREDICTED BY RF-SCORE:    0.00 PKD
ROOT
HETATM    1  N   UNL     1     -11.033  14.313  70.037  1.00  0.00    -0.464 NA 
HETATM    2  H2  UNL     1     -10.594  13.612  69.439  1.00  0.00     0.000 HD 
HETATM    3  C   UNL     1     -11.088  15.623  69.399  1.00  0.00    -0.303 C  
HETATM    4  H1  UNL     1     -10.569  14.391  70.942  1.00  0.00     0.000 HD 
ENDROOT
BRANCH   3   5
HETATM    5  C   UNL     1     -11.783  15.505  68.043  1.00  0.00    -0.198 C  
BRANCH   5   6
HETATM    6  C   UNL     1     -11.783  14.056  67.532  1.00  0.00    -0.421 C  
BRANCH   6   7
HETATM    7  CA  UNL     1     -11.187  13.886  66.128  1.00  0.00    -0.303 C  
HETATM    8  N   UNL     1     -10.306  15.030  65.759  1.00  0.00    -0.311 NA 
HETATM    9  C   UNL     1     -12.304  13.766  65.080  1.00  0.00    -0.448 C  
HETATM   10  OXT UNL     1     -12.979  12.769  64.884  1.00  0.00    -0.805 OA 
HETATM   11  O   UNL     1     -12.479  14.938  64.414  1.00  0.00    -0.558 OA 
HETATM   12  H1  UNL     1      -9.909  14.918  64.826  1.00  0.00     0.000 HD 
HETATM   13  H2  UNL     1      -9.577  15.179  66.458  1.00  0.00     0.000 HD 
ENDBRANCH   6   7
ENDBRANCH   5   6
ENDBRANCH   3   5
TORSDOF 3
ENDMDL
MODEL       63
REMARK 921   NORMALIZED FREE ENERGY PREDICTED BY IDOCK:   -2.95 KCAL/MOL
REMARK 922        TOTAL FREE ENERGY PREDICTED BY IDOCK:   -3.93 KCAL/MOL
REMARK 923 INTER-LIGAND FREE ENERGY PREDICTED BY IDOCK:   -3.94 KCAL/MOL
REMARK 924 INTRA-LIGAND FREE ENERGY PREDICTED BY IDOCK:    0.02 KCAL/MOL
REMARK 927      BINDING AFFINITY PREDICTED BY RF-SCORE:    0.00 PKD
ROOT
HETATM    1  N   UNL     1     -12.483  14.321  63.455  1.00  0.00    -1.101 NA 
HETATM    2  H2  UNL     1     -12.327  14.925  64.262  1.00  0.00     0.000 HD 
HETATM    3  C   UNL     1     -11.845  13.019  63.610  1.00  0.00    -0.516 C  
HETATM    4  H1  UNL     1     -12.173  14.754  62.584  1.00  0.00     0.000 HD 
ENDROOT
BRANCH   3   5
HETATM    5  C   UNL     1     -12.310  12.371  64.913  1.00  0.00    -0.475 C  
BRANCH   5   6
HETATM    6  C   UNL     1     -11.835  13.165  66.140  1.00  0.00    -0.453 C  
BRANCH   6   7
HETATM    7  CA  UNL     1     -10.484  12.702  66.701  1.00  0.00    -0.245 C  
HETATM    8  N   UNL     1      -9.346  13.447  66.091  1.00  0.00    -0.470 NA 
HETATM    9  C   UNL     1     -10.282  11.200  66.446  1.00  0.00    -0.233 C  
HETATM   10  OXT UNL     1     -10.820  10.303  67.074  1.00  0.00    -0.248 OA 
HETATM   11  O   UNL     1      -9.450  10.989  65.393  1.00  0.00    -0.205 OA 
HETATM   12  H1  UNL     1      -8.448  13.139  66.464  1.00  0.00     0.000 HD 
HETATM   13  H2  UNL     1      -9.465  14.455  66.193  1.00  0.00     0.000 HD 
ENDBRANCH   6   7
ENDBRANCH   5   6
ENDBRANCH   3   5
TORSDOF 3
ENDMDL
MODEL       64
REMARK 921   NORMALIZED FREE ENERGY PREDICTED BY IDOCK:   -2.93 KCAL/MOL
REMARK 922        TOTAL FREE ENERGY PREDICTED BY IDOCK:   -3.90 KCAL/MOL
REMARK 923 INTER-LIGAND FREE ENERGY PREDICTED BY IDOCK:   -3.75 KCAL/MOL
REMARK 924 INTRA-LIGAND FREE ENERGY PREDICTED BY IDOCK:   -0.15 KCAL/MOL
REMARK 927      BINDING AFFINITY PREDICTED BY RF-SCORE:    0.00 PKD
ROOT
HETATM    1  N   UNL     1      -7.414  19.561  69.223  1.00  0.00    -0.315 NA 
HETATM    2  H2  UNL     1      -7.170  18.645  69.600  1.00  0.00     0.000 HD 
HETATM    3  C   UNL     1      -8.425  19.472  68.175  1.00  0.00    -0.324 C  
HETATM    4  H1  UNL     1      -6.599  20.063  68.871  1.00  0.00     0.000 HD 
ENDROOT
BRANCH   3   5
HETATM    5  C   UNL     1      -9.647  18.721  68.703  1.00  0.00    -0.432 C  
BRANCH   5   6
HETATM    6  C   UNL     1     -10.720  18.552  67.615  1.00  0.00    -0.405 C  
BRANCH   6   7
HETATM    7  CA  UNL     1     -10.173  18.609  66.182  1.00  0.00    -0.416 C  
HETATM    8  N   UNL     1     -10.948  19.557  65.332  1.00  0.00    -0.369 NA 
HETATM    9  C   UNL     1     -10.218  17.217  65.534  1.00  0.00    -0.051 C  
HETATM   10  OXT UNL     1      -9.437  16.309  65.766  1.00  0.00    -0.433 OA 
HETATM   11  O   UNL     1     -11.274  17.104  64.686  1.00  0.00    -1.003 OA 
HETATM   12  H1  UNL     1     -10.585  19.596  64.379  1.00  0.00     0.000 HD 
HETATM   13  H2  UNL     1     -10.988  20.486  65.752  1.00  0.00     0.000 HD 
ENDBRANCH   6   7
ENDBRANCH   5   6
ENDBRANCH   3   5
TORSDOF 3
ENDMDL
MODEL       65
REMARK 921   NORMALIZED FREE ENERGY PREDICTED BY IDOCK:   -2.92 KCAL/MOL
REMARK 922        TOTAL FREE ENERGY PREDICTED BY IDOCK:   -3.89 KCAL/MOL
REMARK 923 INTER-LIGAND FREE ENERGY PREDICTED BY IDOCK:   -3.79 KCAL/MOL
REMARK 924 INTRA-LIGAND FREE ENERGY PREDICTED BY IDOCK:   -0.10 KCAL/MOL
REMARK 927      BINDING AFFINITY PREDICTED BY RF-SCORE:    0.00 PKD
ROOT
HETATM    1  N   UNL     1      -8.849   9.711  64.098  1.00  0.00    -0.218 NA 
HETATM    2  H2  UNL     1      -8.001  10.268  64.195  1.00  0.00     0.000 HD 
HETATM    3  C   UNL     1     -10.049  10.473  64.424  1.00  0.00    -0.325 C  
HETATM    4  H1  UNL     1      -8.818   8.861  64.662  1.00  0.00     0.000 HD 
ENDROOT
BRANCH   3   5
HETATM    5  C   UNL     1     -10.095  11.745  63.579  1.00  0.00    -0.463 C  
BRANCH   5   6
HETATM    6  C   UNL     1     -10.172  13.004  64.456  1.00  0.00    -0.331 C  
BRANCH   6   7
HETATM    7  CA  UNL     1     -11.420  13.863  64.210  1.00  0.00    -0.318 C  
HETATM    8  N   UNL     1     -11.197  15.286  64.596  1.00  0.00    -0.623 NA 
HETATM    9  C   UNL     1     -12.614  13.318  65.008  1.00  0.00    -0.423 C  
HETATM   10  OXT UNL     1     -13.268  12.332  64.708  1.00  0.00    -0.697 OA 
HETATM   11  O   UNL     1     -12.834  14.055  66.128  1.00  0.00    -0.394 OA 
HETATM   12  H1  UNL     1     -12.026  15.857  64.432  1.00  0.00     0.000 HD 
HETATM   13  H2  UNL     1     -10.379  15.675  64.126  1.00  0.00     0.000 HD 
ENDBRANCH   6   7
ENDBRANCH   5   6
ENDBRANCH   3   5
TORSDOF 3
ENDMDL
MODEL       66
REMARK 921   NORMALIZED FREE ENERGY PREDICTED BY IDOCK:   -2.91 KCAL/MOL
REMARK 922        TOTAL FREE ENERGY PREDICTED BY IDOCK:   -3.87 KCAL/MOL
REMARK 923 INTER-LIGAND FREE ENERGY PREDICTED BY IDOCK:   -3.45 KCAL/MOL
REMARK 924 INTRA-LIGAND FREE ENERGY PREDICTED BY IDOCK:   -0.42 KCAL/MOL
REMARK 927      BINDING AFFINITY PREDICTED BY RF-SCORE:    0.00 PKD
ROOT
HETATM    1  N   UNL     1      -9.509  17.033  65.928  1.00  0.00    -0.525 NA 
HETATM    2  H2  UNL     1      -9.231  16.354  66.636  1.00  0.00     0.000 HD 
HETATM    3  C   UNL     1     -10.636  17.851  66.363  1.00  0.00    -0.235 C  
HETATM    4  H1  UNL     1      -9.732  16.589  65.036  1.00  0.00     0.000 HD 
ENDROOT
BRANCH   3   5
HETATM    5  C   UNL     1     -10.303  18.516  67.698  1.00  0.00    -0.442 C  
BRANCH   5   6
HETATM    6  C   UNL     1      -9.963  20.004  67.519  1.00  0.00    -0.565 C  
BRANCH   6   7
HETATM    7  CA  UNL     1      -8.478  20.278  67.238  1.00  0.00    -0.347 C  
HETATM    8  N   UNL     1      -8.133  20.039  65.808  1.00  0.00    -0.492 NA 
HETATM    9  C   UNL     1      -7.591  19.381  68.116  1.00  0.00    -0.297 C  
HETATM   10  OXT UNL     1      -7.371  19.558  69.303  1.00  0.00    -0.355 OA 
HETATM   11  O   UNL     1      -7.105  18.328  67.408  1.00  0.00    -0.197 OA 
HETATM   12  H1  UNL     1      -7.146  20.221  65.622  1.00  0.00     0.000 HD 
HETATM   13  H2  UNL     1      -8.735  20.578  65.185  1.00  0.00     0.000 HD 
ENDBRANCH   6   7
ENDBRANCH   5   6
ENDBRANCH   3   5
TORSDOF 3
ENDMDL
MODEL       67
REMARK 921   NORMALIZED FREE ENERGY PREDICTED BY IDOCK:   -2.88 KCAL/MOL
REMARK 922        TOTAL FREE ENERGY PREDICTED BY IDOCK:   -3.84 KCAL/MOL
REMARK 923 INTER-LIGAND FREE ENERGY PREDICTED BY IDOCK:   -3.36 KCAL/MOL
REMARK 924 INTRA-LIGAND FREE ENERGY PREDICTED BY IDOCK:   -0.48 KCAL/MOL
REMARK 927      BINDING AFFINITY PREDICTED BY RF-SCORE:    0.00 PKD
ROOT
HETATM    1  N   UNL     1     -12.057   6.804  70.183  1.00  0.00    -0.633 NA 
HETATM    2  H2  UNL     1     -11.256   7.373  69.910  1.00  0.00     0.000 HD 
HETATM    3  C   UNL     1     -12.271   6.810  71.625  1.00  0.00    -0.365 C  
HETATM    4  H1  UNL     1     -11.977   5.842  69.852  1.00  0.00     0.000 HD 
ENDROOT
BRANCH   3   5
HETATM    5  C   UNL     1     -12.392   8.251  72.121  1.00  0.00    -0.410 C  
BRANCH   5   6
HETATM    6  C   UNL     1     -11.107   9.051  71.852  1.00  0.00    -0.433 C  
BRANCH   6   7
HETATM    7  CA  UNL     1     -11.238  10.087  70.727  1.00  0.00    -0.352 C  
HETATM    8  N   UNL     1     -12.582  10.039  70.085  1.00  0.00    -0.525 NA 
HETATM    9  C   UNL     1     -10.169   9.849  69.651  1.00  0.00    -0.237 C  
HETATM   10  OXT UNL     1      -8.991  10.150  69.753  1.00  0.00    -0.199 OA 
HETATM   11  O   UNL     1     -10.694   9.218  68.568  1.00  0.00    -0.209 OA 
HETATM   12  H1  UNL     1     -12.670  10.728  69.338  1.00  0.00     0.000 HD 
HETATM   13  H2  UNL     1     -13.328  10.142  70.774  1.00  0.00     0.000 HD 
ENDBRANCH   6   7
ENDBRANCH   5   6
ENDBRANCH   3   5
TORSDOF 3
ENDMDL
MODEL       68
REMARK 921   NORMALIZED FREE ENERGY PREDICTED BY IDOCK:   -2.86 KCAL/MOL
REMARK 922        TOTAL FREE ENERGY PREDICTED BY IDOCK:   -3.82 KCAL/MOL
REMARK 923 INTER-LIGAND FREE ENERGY PREDICTED BY IDOCK:   -3.53 KCAL/MOL
REMARK 924 INTRA-LIGAND FREE ENERGY PREDICTED BY IDOCK:   -0.29 KCAL/MOL
REMARK 927      BINDING AFFINITY PREDICTED BY RF-SCORE:    0.00 PKD
ROOT
HETATM    1  N   UNL     1     -10.807   8.045  67.931  1.00  0.00    -0.476 NA 
HETATM    2  H2  UNL     1     -11.763   8.389  67.849  1.00  0.00     0.000 HD 
HETATM    3  C   UNL     1     -10.038   8.261  66.711  1.00  0.00    -0.303 C  
HETATM    4  H1  UNL     1     -10.773   7.058  68.188  1.00  0.00     0.000 HD 
ENDROOT
BRANCH   3   5
HETATM    5  C   UNL     1     -10.088   9.739  66.327  1.00  0.00    -0.313 C  
BRANCH   5   6
HETATM    6  C   UNL     1      -9.740  10.645  67.519  1.00  0.00    -0.189 C  
BRANCH   6   7
HETATM    7  CA  UNL     1     -10.874  11.591  67.938  1.00  0.00    -0.210 C  
HETATM    8  N   UNL     1     -12.125  10.846  68.258  1.00  0.00    -0.810 NA 
HETATM    9  C   UNL     1     -11.173  12.600  66.820  1.00  0.00    -0.300 C  
HETATM   10  OXT UNL     1     -10.493  13.577  66.555  1.00  0.00    -0.277 OA 
HETATM   11  O   UNL     1     -12.285  12.245  66.123  1.00  0.00    -0.647 OA 
HETATM   12  H1  UNL     1     -12.879  11.475  68.537  1.00  0.00     0.000 HD 
HETATM   13  H2  UNL     1     -11.960  10.127  68.963  1.00  0.00     0.000 HD 
ENDBRANCH   6   7
ENDBRANCH   5   6
ENDBRANCH   3   5
TORSDOF 3
ENDMDL
MODEL       69
REMARK 921   NORMALIZED FREE ENERGY PREDICTED BY IDOCK:   -2.85 KCAL/MOL
REMARK 922        TOTAL FREE ENERGY PREDICTED BY IDOCK:   -3.81 KCAL/MOL
REMARK 923 INTER-LIGAND FREE ENERGY PREDICTED BY IDOCK:   -3.49 KCAL/MOL
REMARK 924 INTRA-LIGAND FREE ENERGY PREDICTED BY IDOCK:   -0.32 KCAL/MOL
REMARK 927      BINDING AFFINITY PREDICTED BY RF-SCORE:    0.00 PKD
ROOT
HETATM    1  N   UNL     1     -11.950  12.433  66.943  1.00  0.00    -0.575 NA 
HETATM    2  H2  UNL     1     -12.273  12.257  67.894  1.00  0.00     0.000 HD 
HETATM    3  C   UNL     1     -12.035  13.844  66.586  1.00  0.00    -0.442 C  
HETATM    4  H1  UNL     1     -12.456  11.874  66.255  1.00  0.00     0.000 HD 
ENDROOT
BRANCH   3   5
HETATM    5  C   UNL     1     -11.277  14.681  67.616  1.00  0.00    -0.332 C  
BRANCH   5   6
HETATM    6  C   UNL     1     -12.144  14.978  68.850  1.00  0.00    -0.223 C  
BRANCH   6   7
HETATM    7  CA  UNL     1     -11.623  14.346  70.148  1.00  0.00    -0.265 C  
HETATM    8  N   UNL     1     -11.728  12.860  70.121  1.00  0.00    -0.530 NA 
HETATM    9  C   UNL     1     -12.412  14.874  71.356  1.00  0.00    -0.337 C  
HETATM   10  OXT UNL     1     -12.266  15.973  71.865  1.00  0.00    -0.449 OA 
HETATM   11  O   UNL     1     -13.336  13.967  71.773  1.00  0.00    -0.341 OA 
HETATM   12  H1  UNL     1     -11.381  12.439  70.983  1.00  0.00     0.000 HD 
HETATM   13  H2  UNL     1     -11.259  12.469  69.303  1.00  0.00     0.000 HD 
ENDBRANCH   6   7
ENDBRANCH   5   6
ENDBRANCH   3   5
TORSDOF 3
ENDMDL
MODEL       70
REMARK 921   NORMALIZED FREE ENERGY PREDICTED BY IDOCK:   -2.80 KCAL/MOL
REMARK 922        TOTAL FREE ENERGY PREDICTED BY IDOCK:   -3.75 KCAL/MOL
REMARK 923 INTER-LIGAND FREE ENERGY PREDICTED BY IDOCK:   -3.68 KCAL/MOL
REMARK 924 INTRA-LIGAND FREE ENERGY PREDICTED BY IDOCK:   -0.07 KCAL/MOL
REMARK 927      BINDING AFFINITY PREDICTED BY RF-SCORE:    0.00 PKD
ROOT
HETATM    1  N   UNL     1     -11.536  16.338  63.840  1.00  0.00    -1.573 NA 
HETATM    2  H2  UNL     1     -10.737  16.965  63.754  1.00  0.00     0.000 HD 
HETATM    3  C   UNL     1     -11.195  15.104  64.537  1.00  0.00    -0.272 C  
HETATM    4  H1  UNL     1     -11.950  16.117  62.934  1.00  0.00     0.000 HD 
ENDROOT
BRANCH   3   5
HETATM    5  C   UNL     1     -10.576  15.435  65.894  1.00  0.00    -0.349 C  
BRANCH   5   6
HETATM    6  C   UNL     1     -11.504  15.035  67.052  1.00  0.00    -0.288 C  
BRANCH   6   7
HETATM    7  CA  UNL     1     -10.880  14.039  68.039  1.00  0.00    -0.246 C  
HETATM    8  N   UNL     1     -11.901  13.116  68.612  1.00  0.00    -0.325 NA 
HETATM    9  C   UNL     1     -10.189  14.785  69.191  1.00  0.00    -0.220 C  
HETATM   10  OXT UNL     1      -9.108  15.345  69.116  1.00  0.00    -0.210 OA 
HETATM   11  O   UNL     1     -10.959  14.780  70.311  1.00  0.00    -0.198 OA 
HETATM   12  H1  UNL     1     -11.487  12.454  69.268  1.00  0.00     0.000 HD 
HETATM   13  H2  UNL     1     -12.422  12.636  67.878  1.00  0.00     0.000 HD 
ENDBRANCH   6   7
ENDBRANCH   5   6
ENDBRANCH   3   5
TORSDOF 3
ENDMDL
MODEL       71
REMARK 921   NORMALIZED FREE ENERGY PREDICTED BY IDOCK:   -2.78 KCAL/MOL
REMARK 922        TOTAL FREE ENERGY PREDICTED BY IDOCK:   -3.72 KCAL/MOL
REMARK 923 INTER-LIGAND FREE ENERGY PREDICTED BY IDOCK:   -3.64 KCAL/MOL
REMARK 924 INTRA-LIGAND FREE ENERGY PREDICTED BY IDOCK:   -0.08 KCAL/MOL
REMARK 927      BINDING AFFINITY PREDICTED BY RF-SCORE:    0.00 PKD
ROOT
HETATM    1  N   UNL     1     -14.358  15.447  70.995  1.00  0.00    -0.848 NA 
HETATM    2  H2  UNL     1     -14.523  15.253  70.007  1.00  0.00     0.000 HD 
HETATM    3  C   UNL     1     -13.922  14.262  71.723  1.00  0.00    -0.442 C  
HETATM    4  H1  UNL     1     -15.178  15.847  71.450  1.00  0.00     0.000 HD 
ENDROOT
BRANCH   3   5
HETATM    5  C   UNL     1     -12.693  13.663  71.041  1.00  0.00    -0.408 C  
BRANCH   5   6
HETATM    6  C   UNL     1     -11.903  14.727  70.264  1.00  0.00    -0.357 C  
BRANCH   6   7
HETATM    7  CA  UNL     1     -11.018  14.159  69.145  1.00  0.00    -0.251 C  
HETATM    8  N   UNL     1      -9.597  14.585  69.294  1.00  0.00    -0.410 NA 
HETATM    9  C   UNL     1     -11.529  14.618  67.771  1.00  0.00    -0.340 C  
HETATM   10  OXT UNL     1     -12.503  14.161  67.196  1.00  0.00    -0.284 OA 
HETATM   11  O   UNL     1     -10.776  15.639  67.283  1.00  0.00    -0.299 OA 
HETATM   12  H1  UNL     1      -9.009  14.207  68.550  1.00  0.00     0.000 HD 
HETATM   13  H2  UNL     1      -9.231  14.345  70.215  1.00  0.00     0.000 HD 
ENDBRANCH   6   7
ENDBRANCH   5   6
ENDBRANCH   3   5
TORSDOF 3
ENDMDL
MODEL       72
REMARK 921   NORMALIZED FREE ENERGY PREDICTED BY IDOCK:   -2.76 KCAL/MOL
REMARK 922        TOTAL FREE ENERGY PREDICTED BY IDOCK:   -3.70 KCAL/MOL
REMARK 923 INTER-LIGAND FREE ENERGY PREDICTED BY IDOCK:   -3.26 KCAL/MOL
REMARK 924 INTRA-LIGAND FREE ENERGY PREDICTED BY IDOCK:   -0.44 KCAL/MOL
REMARK 927      BINDING AFFINITY PREDICTED BY RF-SCORE:    0.00 PKD
ROOT
HETATM    1  N   UNL     1     -10.505  17.699  69.170  1.00  0.00    -0.405 NA 
HETATM    2  H2  UNL     1     -10.734  18.330  68.403  1.00  0.00     0.000 HD 
HETATM    3  C   UNL     1      -9.505  16.708  68.789  1.00  0.00    -0.258 C  
HETATM    4  H1  UNL     1     -11.331  17.228  69.540  1.00  0.00     0.000 HD 
ENDROOT
BRANCH   3   5
HETATM    5  C   UNL     1      -8.268  17.414  68.235  1.00  0.00    -0.247 C  
BRANCH   5   6
HETATM    6  C   UNL     1      -8.438  17.770  66.750  1.00  0.00    -0.269 C  
BRANCH   6   7
HETATM    7  CA  UNL     1      -8.881  19.219  66.500  1.00  0.00    -0.346 C  
HETATM    8  N   UNL     1      -8.621  20.089  67.682  1.00  0.00    -0.328 NA 
HETATM    9  C   UNL     1     -10.381  19.273  66.169  1.00  0.00    -0.494 C  
HETATM   10  OXT UNL     1     -10.875  18.966  65.097  1.00  0.00    -0.497 OA 
HETATM   11  O   UNL     1     -11.106  19.673  67.247  1.00  0.00    -0.417 OA 
HETATM   12  H1  UNL     1      -8.914  21.051  67.516  1.00  0.00     0.000 HD 
HETATM   13  H2  UNL     1      -7.642  20.043  67.968  1.00  0.00     0.000 HD 
ENDBRANCH   6   7
ENDBRANCH   5   6
ENDBRANCH   3   5
TORSDOF 3
ENDMDL
MODEL       73
REMARK 921   NORMALIZED FREE ENERGY PREDICTED BY IDOCK:   -2.75 KCAL/MOL
REMARK 922        TOTAL FREE ENERGY PREDICTED BY IDOCK:   -3.69 KCAL/MOL
REMARK 923 INTER-LIGAND FREE ENERGY PREDICTED BY IDOCK:   -3.65 KCAL/MOL
REMARK 924 INTRA-LIGAND FREE ENERGY PREDICTED BY IDOCK:   -0.04 KCAL/MOL
REMARK 927      BINDING AFFINITY PREDICTED BY RF-SCORE:    0.00 PKD
ROOT
HETATM    1  N   UNL     1     -12.234  15.129  68.295  1.00  0.00    -0.523 NA 
HETATM    2  H2  UNL     1     -13.093  14.713  68.653  1.00  0.00     0.000 HD 
HETATM    3  C   UNL     1     -11.587  14.283  67.299  1.00  0.00    -0.377 C  
HETATM    4  H1  UNL     1     -11.573  15.348  69.041  1.00  0.00     0.000 HD 
ENDROOT
BRANCH   3   5
HETATM    5  C   UNL     1     -12.577  13.955  66.183  1.00  0.00    -0.426 C  
BRANCH   5   6
HETATM    6  C   UNL     1     -12.158  12.695  65.408  1.00  0.00    -0.516 C  
BRANCH   6   7
HETATM    7  CA  UNL     1     -10.681  12.680  64.989  1.00  0.00    -0.293 C  
HETATM    8  N   UNL     1     -10.358  13.800  64.061  1.00  0.00    -0.580 NA 
HETATM    9  C   UNL     1     -10.332  11.351  64.300  1.00  0.00    -0.328 C  
HETATM   10  OXT UNL     1     -10.153  10.289  64.872  1.00  0.00    -0.334 OA 
HETATM   11  O   UNL     1     -10.286  11.497  62.949  1.00  0.00    -0.276 OA 
HETATM   12  H1  UNL     1      -9.376  13.789  63.782  1.00  0.00     0.000 HD 
HETATM   13  H2  UNL     1     -10.621  14.701  64.459  1.00  0.00     0.000 HD 
ENDBRANCH   6   7
ENDBRANCH   5   6
ENDBRANCH   3   5
TORSDOF 3
ENDMDL
MODEL       74
REMARK 921   NORMALIZED FREE ENERGY PREDICTED BY IDOCK:   -2.74 KCAL/MOL
REMARK 922        TOTAL FREE ENERGY PREDICTED BY IDOCK:   -3.68 KCAL/MOL
REMARK 923 INTER-LIGAND FREE ENERGY PREDICTED BY IDOCK:   -3.39 KCAL/MOL
REMARK 924 INTRA-LIGAND FREE ENERGY PREDICTED BY IDOCK:   -0.29 KCAL/MOL
REMARK 927      BINDING AFFINITY PREDICTED BY RF-SCORE:    0.00 PKD
ROOT
HETATM    1  N   UNL     1     -10.724   8.303  68.107  1.00  0.00    -0.439 NA 
HETATM    2  H2  UNL     1     -10.960   9.093  67.507  1.00  0.00     0.000 HD 
HETATM    3  C   UNL     1      -9.651   8.623  69.042  1.00  0.00    -0.163 C  
HETATM    4  H1  UNL     1     -10.473   7.473  67.569  1.00  0.00     0.000 HD 
ENDROOT
BRANCH   3   5
HETATM    5  C   UNL     1     -10.027   9.866  69.848  1.00  0.00    -0.292 C  
BRANCH   5   6
HETATM    6  C   UNL     1     -11.330   9.656  70.635  1.00  0.00    -0.379 C  
BRANCH   6   7
HETATM    7  CA  UNL     1     -12.506  10.507  70.138  1.00  0.00    -0.226 C  
HETATM    8  N   UNL     1     -12.342  10.896  68.708  1.00  0.00    -0.772 NA 
HETATM    9  C   UNL     1     -12.641  11.783  70.983  1.00  0.00    -0.310 C  
HETATM   10  OXT UNL     1     -13.114  11.835  72.106  1.00  0.00    -0.452 OA 
HETATM   11  O   UNL     1     -12.125  12.859  70.333  1.00  0.00    -0.361 OA 
HETATM   12  H1  UNL     1     -13.124  11.461  68.378  1.00  0.00     0.000 HD 
HETATM   13  H2  UNL     1     -12.198  10.078  68.115  1.00  0.00     0.000 HD 
ENDBRANCH   6   7
ENDBRANCH   5   6
ENDBRANCH   3   5
TORSDOF 3
ENDMDL
MODEL       75
REMARK 921   NORMALIZED FREE ENERGY PREDICTED BY IDOCK:   -2.74 KCAL/MOL
REMARK 922        TOTAL FREE ENERGY PREDICTED BY IDOCK:   -3.68 KCAL/MOL
REMARK 923 INTER-LIGAND FREE ENERGY PREDICTED BY IDOCK:   -3.68 KCAL/MOL
REMARK 924 INTRA-LIGAND FREE ENERGY PREDICTED BY IDOCK:    0.01 KCAL/MOL
REMARK 927      BINDING AFFINITY PREDICTED BY RF-SCORE:    0.00 PKD
ROOT
HETATM    1  N   UNL     1     -11.784  12.129  63.089  1.00  0.00    -0.722 NA 
HETATM    2  H2  UNL     1     -10.954  12.695  62.913  1.00  0.00     0.000 HD 
HETATM    3  C   UNL     1     -12.364  12.395  64.400  1.00  0.00    -0.447 C  
HETATM    4  H1  UNL     1     -11.597  11.131  62.993  1.00  0.00     0.000 HD 
ENDROOT
BRANCH   3   5
HETATM    5  C   UNL     1     -12.645  13.891  64.544  1.00  0.00    -0.246 C  
BRANCH   5   6
HETATM    6  C   UNL     1     -11.728  14.540  65.591  1.00  0.00    -0.335 C  
BRANCH   6   7
HETATM    7  CA  UNL     1     -10.272  14.706  65.132  1.00  0.00    -0.382 C  
HETATM    8  N   UNL     1      -9.468  13.478  65.388  1.00  0.00    -0.448 NA 
HETATM    9  C   UNL     1      -9.612  15.888  65.858  1.00  0.00    -0.343 C  
HETATM   10  OXT UNL     1      -9.799  17.065  65.598  1.00  0.00    -0.547 OA 
HETATM   11  O   UNL     1      -8.810  15.457  66.868  1.00  0.00    -0.215 OA 
HETATM   12  H1  UNL     1      -8.501  13.588  65.083  1.00  0.00     0.000 HD 
HETATM   13  H2  UNL     1      -9.900  12.656  64.965  1.00  0.00     0.000 HD 
ENDBRANCH   6   7
ENDBRANCH   5   6
ENDBRANCH   3   5
TORSDOF 3
ENDMDL
MODEL       76
REMARK 921   NORMALIZED FREE ENERGY PREDICTED BY IDOCK:   -2.74 KCAL/MOL
REMARK 922        TOTAL FREE ENERGY PREDICTED BY IDOCK:   -3.67 KCAL/MOL
REMARK 923 INTER-LIGAND FREE ENERGY PREDICTED BY IDOCK:   -3.22 KCAL/MOL
REMARK 924 INTRA-LIGAND FREE ENERGY PREDICTED BY IDOCK:   -0.45 KCAL/MOL
REMARK 927      BINDING AFFINITY PREDICTED BY RF-SCORE:    0.00 PKD
ROOT
HETATM    1  N   UNL     1     -11.757  11.823  66.482  1.00  0.00    -0.528 NA 
HETATM    2  H2  UNL     1     -12.648  11.610  66.931  1.00  0.00     0.000 HD 
HETATM    3  C   UNL     1     -11.782  13.109  65.795  1.00  0.00    -0.374 C  
HETATM    4  H1  UNL     1     -11.469  11.092  65.832  1.00  0.00     0.000 HD 
ENDROOT
BRANCH   3   5
HETATM    5  C   UNL     1     -12.212  14.204  66.769  1.00  0.00    -0.429 C  
BRANCH   5   6
HETATM    6  C   UNL     1     -11.003  14.848  67.466  1.00  0.00    -0.302 C  
BRANCH   6   7
HETATM    7  CA  UNL     1     -10.652  14.216  68.820  1.00  0.00    -0.253 C  
HETATM    8  N   UNL     1      -9.751  13.038  68.664  1.00  0.00    -0.403 NA 
HETATM    9  C   UNL     1     -11.926  13.768  69.551  1.00  0.00    -0.345 C  
HETATM   10  OXT UNL     1     -12.702  14.510  70.130  1.00  0.00    -0.323 OA 
HETATM   11  O   UNL     1     -12.110  12.425  69.439  1.00  0.00    -0.265 OA 
HETATM   12  H1  UNL     1      -9.517  12.618  69.564  1.00  0.00     0.000 HD 
HETATM   13  H2  UNL     1      -8.911  13.280  68.137  1.00  0.00     0.000 HD 
ENDBRANCH   6   7
ENDBRANCH   5   6
ENDBRANCH   3   5
TORSDOF 3
ENDMDL
MODEL       77
REMARK 921   NORMALIZED FREE ENERGY PREDICTED BY IDOCK:   -2.73 KCAL/MOL
REMARK 922        TOTAL FREE ENERGY PREDICTED BY IDOCK:   -3.66 KCAL/MOL
REMARK 923 INTER-LIGAND FREE ENERGY PREDICTED BY IDOCK:   -3.62 KCAL/MOL
REMARK 924 INTRA-LIGAND FREE ENERGY PREDICTED BY IDOCK:   -0.04 KCAL/MOL
REMARK 927      BINDING AFFINITY PREDICTED BY RF-SCORE:    0.00 PKD
ROOT
HETATM    1  N   UNL     1      -9.162  10.399  69.785  1.00  0.00    -0.411 NA 
HETATM    2  H2  UNL     1      -9.497  10.903  70.606  1.00  0.00     0.000 HD 
HETATM    3  C   UNL     1     -10.071  10.527  68.652  1.00  0.00    -0.180 C  
HETATM    4  H1  UNL     1      -8.995   9.412  69.981  1.00  0.00     0.000 HD 
ENDROOT
BRANCH   3   5
HETATM    5  C   UNL     1     -10.321  12.005  68.358  1.00  0.00    -0.220 C  
BRANCH   5   6
HETATM    6  C   UNL     1     -11.229  12.192  67.132  1.00  0.00    -0.372 C  
BRANCH   6   7
HETATM    7  CA  UNL     1     -11.331  13.643  66.644  1.00  0.00    -0.326 C  
HETATM    8  N   UNL     1     -12.253  14.449  67.494  1.00  0.00    -0.619 NA 
HETATM    9  C   UNL     1     -11.835  13.688  65.193  1.00  0.00    -0.348 C  
HETATM   10  OXT UNL     1     -11.162  13.433  64.208  1.00  0.00    -0.373 OA 
HETATM   11  O   UNL     1     -13.154  14.012  65.141  1.00  0.00    -0.776 OA 
HETATM   12  H1  UNL     1     -12.321  15.414  67.170  1.00  0.00     0.000 HD 
HETATM   13  H2  UNL     1     -11.984  14.406  68.478  1.00  0.00     0.000 HD 
ENDBRANCH   6   7
ENDBRANCH   5   6
ENDBRANCH   3   5
TORSDOF 3
ENDMDL
MODEL       78
REMARK 921   NORMALIZED FREE ENERGY PREDICTED BY IDOCK:   -2.72 KCAL/MOL
REMARK 922        TOTAL FREE ENERGY PREDICTED BY IDOCK:   -3.66 KCAL/MOL
REMARK 923 INTER-LIGAND FREE ENERGY PREDICTED BY IDOCK:   -3.27 KCAL/MOL
REMARK 924 INTRA-LIGAND FREE ENERGY PREDICTED BY IDOCK:   -0.39 KCAL/MOL
REMARK 927      BINDING AFFINITY PREDICTED BY RF-SCORE:    0.00 PKD
ROOT
HETATM    1  N   UNL     1     -10.365  11.972  68.847  1.00  0.00    -0.391 NA 
HETATM    2  H2  UNL     1     -10.470  12.850  68.339  1.00  0.00     0.000 HD 
HETATM    3  C   UNL     1     -10.973  10.851  68.140  1.00  0.00    -0.249 C  
HETATM    4  H1  UNL     1     -10.743  12.027  69.793  1.00  0.00     0.000 HD 
ENDROOT
BRANCH   3   5
HETATM    5  C   UNL     1     -10.406  10.769  66.723  1.00  0.00    -0.294 C  
BRANCH   5   6
HETATM    6  C   UNL     1     -11.376  11.367  65.691  1.00  0.00    -0.069 C  
BRANCH   6   7
HETATM    7  CA  UNL     1     -11.054  12.814  65.294  1.00  0.00    -0.287 C  
HETATM    8  N   UNL     1      -9.808  13.303  65.950  1.00  0.00    -0.389 NA 
HETATM    9  C   UNL     1     -12.212  13.747  65.680  1.00  0.00    -0.454 C  
HETATM   10  OXT UNL     1     -13.267  13.845  65.074  1.00  0.00    -0.729 OA 
HETATM   11  O   UNL     1     -11.931  14.434  66.819  1.00  0.00    -0.411 OA 
HETATM   12  H1  UNL     1      -9.593  14.265  65.686  1.00  0.00     0.000 HD 
HETATM   13  H2  UNL     1      -9.020  12.682  65.762  1.00  0.00     0.000 HD 
ENDBRANCH   6   7
ENDBRANCH   5   6
ENDBRANCH   3   5
TORSDOF 3
ENDMDL
MODEL       79
REMARK 921   NORMALIZED FREE ENERGY PREDICTED BY IDOCK:   -2.72 KCAL/MOL
REMARK 922        TOTAL FREE ENERGY PREDICTED BY IDOCK:   -3.65 KCAL/MOL
REMARK 923 INTER-LIGAND FREE ENERGY PREDICTED BY IDOCK:   -3.57 KCAL/MOL
REMARK 924 INTRA-LIGAND FREE ENERGY PREDICTED BY IDOCK:   -0.08 KCAL/MOL
REMARK 927      BINDING AFFINITY PREDICTED BY RF-SCORE:    0.00 PKD
ROOT
HETATM    1  N   UNL     1      -8.394  19.691  68.196  1.00  0.00    -0.313 NA 
HETATM    2  H2  UNL     1      -9.282  19.289  68.496  1.00  0.00     0.000 HD 
HETATM    3  C   UNL     1      -7.610  18.759  67.394  1.00  0.00    -0.227 C  
HETATM    4  H1  UNL     1      -7.834  20.019  68.984  1.00  0.00     0.000 HD 
ENDROOT
BRANCH   3   5
HETATM    5  C   UNL     1      -8.448  18.268  66.214  1.00  0.00    -0.216 C  
BRANCH   5   6
HETATM    6  C   UNL     1      -8.660  16.747  66.265  1.00  0.00    -0.340 C  
BRANCH   6   7
HETATM    7  CA  UNL     1     -10.121  16.324  66.468  1.00  0.00    -0.291 C  
HETATM    8  N   UNL     1     -10.230  15.094  67.303  1.00  0.00    -0.241 NA 
HETATM    9  C   UNL     1     -10.798  16.063  65.114  1.00  0.00    -0.395 C  
HETATM   10  OXT UNL     1     -11.184  16.926  64.343  1.00  0.00    -1.159 OA 
HETATM   11  O   UNL     1     -10.881  14.730  64.856  1.00  0.00    -0.389 OA 
HETATM   12  H1  UNL     1     -11.202  14.813  67.438  1.00  0.00     0.000 HD 
HETATM   13  H2  UNL     1      -9.748  15.207  68.195  1.00  0.00     0.000 HD 
ENDBRANCH   6   7
ENDBRANCH   5   6
ENDBRANCH   3   5
TORSDOF 3
ENDMDL
MODEL       80
REMARK 921   NORMALIZED FREE ENERGY PREDICTED BY IDOCK:   -2.71 KCAL/MOL
REMARK 922        TOTAL FREE ENERGY PREDICTED BY IDOCK:   -3.64 KCAL/MOL
REMARK 923 INTER-LIGAND FREE ENERGY PREDICTED BY IDOCK:   -3.05 KCAL/MOL
REMARK 924 INTRA-LIGAND FREE ENERGY PREDICTED BY IDOCK:   -0.60 KCAL/MOL
REMARK 927      BINDING AFFINITY PREDICTED BY RF-SCORE:    0.00 PKD
ROOT
HETATM    1  N   UNL     1      -9.022   9.129  70.934  1.00  0.00    -0.236 NA 
HETATM    2  H2  UNL     1      -9.937   9.397  70.571  1.00  0.00     0.000 HD 
HETATM    3  C   UNL     1      -9.105   8.577  72.281  1.00  0.00    -0.248 C  
HETATM    4  H1  UNL     1      -8.361   9.906  70.922  1.00  0.00     0.000 HD 
ENDROOT
BRANCH   3   5
HETATM    5  C   UNL     1     -10.095   7.413  72.299  1.00  0.00    -0.234 C  
BRANCH   5   6
HETATM    6  C   UNL     1     -11.498   7.871  72.726  1.00  0.00    -0.428 C  
BRANCH   6   7
HETATM    7  CA  UNL     1     -12.445   8.167  71.555  1.00  0.00    -0.307 C  
HETATM    8  N   UNL     1     -11.951   7.570  70.281  1.00  0.00    -0.501 NA 
HETATM    9  C   UNL     1     -12.601   9.683  71.361  1.00  0.00    -0.371 C  
HETATM   10  OXT UNL     1     -13.282  10.414  72.060  1.00  0.00    -0.456 OA 
HETATM   11  O   UNL     1     -11.843  10.125  70.322  1.00  0.00    -0.266 OA 
HETATM   12  H1  UNL     1     -12.580   7.767  69.502  1.00  0.00     0.000 HD 
HETATM   13  H2  UNL     1     -11.785   6.568  70.380  1.00  0.00     0.000 HD 
ENDBRANCH   6   7
ENDBRANCH   5   6
ENDBRANCH   3   5
TORSDOF 3
ENDMDL
MODEL       81
REMARK 921   NORMALIZED FREE ENERGY PREDICTED BY IDOCK:   -2.71 KCAL/MOL
REMARK 922        TOTAL FREE ENERGY PREDICTED BY IDOCK:   -3.64 KCAL/MOL
REMARK 923 INTER-LIGAND FREE ENERGY PREDICTED BY IDOCK:   -3.18 KCAL/MOL
REMARK 924 INTRA-LIGAND FREE ENERGY PREDICTED BY IDOCK:   -0.46 KCAL/MOL
REMARK 927      BINDING AFFINITY PREDICTED BY RF-SCORE:    0.00 PKD
ROOT
HETATM    1  N   UNL     1     -10.475  18.040  68.325  1.00  0.00    -0.369 NA 
HETATM    2  H2  UNL     1      -9.464  17.906  68.340  1.00  0.00     0.000 HD 
HETATM    3  C   UNL     1     -10.861  19.220  67.559  1.00  0.00    -0.415 C  
HETATM    4  H1  UNL     1     -10.870  18.095  69.263  1.00  0.00     0.000 HD 
ENDROOT
BRANCH   3   5
HETATM    5  C   UNL     1     -10.269  19.136  66.153  1.00  0.00    -0.535 C  
BRANCH   5   6
HETATM    6  C   UNL     1      -9.016  20.014  66.014  1.00  0.00    -0.267 C  
BRANCH   6   7
HETATM    7  CA  UNL     1      -7.694  19.246  66.156  1.00  0.00    -0.290 C  
HETATM    8  N   UNL     1      -7.842  17.815  65.767  1.00  0.00    -0.544 NA 
HETATM    9  C   UNL     1      -7.186  19.313  67.604  1.00  0.00    -0.227 C  
HETATM   10  OXT UNL     1      -6.646  20.280  68.115  1.00  0.00    -0.275 OA 
HETATM   11  O   UNL     1      -7.450  18.158  68.271  1.00  0.00    -0.255 OA 
HETATM   12  H1  UNL     1      -6.964  17.304  65.860  1.00  0.00     0.000 HD 
HETATM   13  H2  UNL     1      -8.227  17.723  64.826  1.00  0.00     0.000 HD 
ENDBRANCH   6   7
ENDBRANCH   5   6
ENDBRANCH   3   5
TORSDOF 3
ENDMDL
MODEL       82
REMARK 921   NORMALIZED FREE ENERGY PREDICTED BY IDOCK:   -2.70 KCAL/MOL
REMARK 922        TOTAL FREE ENERGY PREDICTED BY IDOCK:   -3.64 KCAL/MOL
REMARK 923 INTER-LIGAND FREE ENERGY PREDICTED BY IDOCK:   -3.53 KCAL/MOL
REMARK 924 INTRA-LIGAND FREE ENERGY PREDICTED BY IDOCK:   -0.10 KCAL/MOL
REMARK 927      BINDING AFFINITY PREDICTED BY RF-SCORE:    0.00 PKD
ROOT
HETATM    1  N   UNL     1     -10.592  14.810  70.387  1.00  0.00    -0.484 NA 
HETATM    2  H2  UNL     1      -9.598  14.831  70.158  1.00  0.00     0.000 HD 
HETATM    3  C   UNL     1     -11.220  16.116  70.226  1.00  0.00    -0.381 C  
HETATM    4  H1  UNL     1     -10.762  14.461  71.330  1.00  0.00     0.000 HD 
ENDROOT
BRANCH   3   5
HETATM    5  C   UNL     1     -10.965  16.638  68.812  1.00  0.00    -0.309 C  
BRANCH   5   6
HETATM    6  C   UNL     1      -9.512  17.104  68.636  1.00  0.00    -0.275 C  
BRANCH   6   7
HETATM    7  CA  UNL     1      -9.368  18.595  68.300  1.00  0.00    -0.328 C  
HETATM    8  N   UNL     1     -10.359  19.426  69.041  1.00  0.00    -0.546 NA 
HETATM    9  C   UNL     1      -9.557  18.827  66.793  1.00  0.00    -0.321 C  
HETATM   10  OXT UNL     1      -8.726  18.582  65.935  1.00  0.00    -0.490 OA 
HETATM   11  O   UNL     1     -10.799  19.310  66.524  1.00  0.00    -0.398 OA 
HETATM   12  H1  UNL     1     -10.263  20.418  68.818  1.00  0.00     0.000 HD 
HETATM   13  H2  UNL     1     -10.302  19.264  70.047  1.00  0.00     0.000 HD 
ENDBRANCH   6   7
ENDBRANCH   5   6
ENDBRANCH   3   5
TORSDOF 3
ENDMDL
MODEL       83
REMARK 921   NORMALIZED FREE ENERGY PREDICTED BY IDOCK:   -2.68 KCAL/MOL
REMARK 922        TOTAL FREE ENERGY PREDICTED BY IDOCK:   -3.60 KCAL/MOL
REMARK 923 INTER-LIGAND FREE ENERGY PREDICTED BY IDOCK:   -3.02 KCAL/MOL
REMARK 924 INTRA-LIGAND FREE ENERGY PREDICTED BY IDOCK:   -0.59 KCAL/MOL
REMARK 927      BINDING AFFINITY PREDICTED BY RF-SCORE:    0.00 PKD
ROOT
HETATM    1  N   UNL     1     -10.992  19.542  67.269  1.00  0.00    -0.450 NA 
HETATM    2  H2  UNL     1     -11.148  18.560  67.042  1.00  0.00     0.000 HD 
HETATM    3  C   UNL     1      -9.605  19.808  67.634  1.00  0.00    -0.355 C  
HETATM    4  H1  UNL     1     -11.611  19.869  68.011  1.00  0.00     0.000 HD 
ENDROOT
BRANCH   3   5
HETATM    5  C   UNL     1      -8.678  19.319  66.522  1.00  0.00    -0.362 C  
BRANCH   5   6
HETATM    6  C   UNL     1      -8.040  17.966  66.873  1.00  0.00    -0.250 C  
BRANCH   6   7
HETATM    7  CA  UNL     1      -8.879  16.751  66.455  1.00  0.00    -0.296 C  
HETATM    8  N   UNL     1      -9.933  17.120  65.468  1.00  0.00    -0.565 NA 
HETATM    9  C   UNL     1      -9.553  16.116  67.681  1.00  0.00    -0.222 C  
HETATM   10  OXT UNL     1      -8.993  15.411  68.504  1.00  0.00    -0.178 OA 
HETATM   11  O   UNL     1     -10.862  16.473  67.761  1.00  0.00    -0.341 OA 
HETATM   12  H1  UNL     1     -10.491  16.312  65.189  1.00  0.00     0.000 HD 
HETATM   13  H2  UNL     1      -9.534  17.592  64.656  1.00  0.00     0.000 HD 
ENDBRANCH   6   7
ENDBRANCH   5   6
ENDBRANCH   3   5
TORSDOF 3
ENDMDL
MODEL       84
REMARK 921   NORMALIZED FREE ENERGY PREDICTED BY IDOCK:   -2.67 KCAL/MOL
REMARK 922        TOTAL FREE ENERGY PREDICTED BY IDOCK:   -3.59 KCAL/MOL
REMARK 923 INTER-LIGAND FREE ENERGY PREDICTED BY IDOCK:   -3.49 KCAL/MOL
REMARK 924 INTRA-LIGAND FREE ENERGY PREDICTED BY IDOCK:   -0.10 KCAL/MOL
REMARK 927      BINDING AFFINITY PREDICTED BY RF-SCORE:    0.00 PKD
ROOT
HETATM    1  N   UNL     1     -10.987   9.682  67.366  1.00  0.00    -0.376 NA 
HETATM    2  H2  UNL     1     -11.979   9.789  67.157  1.00  0.00     0.000 HD 
HETATM    3  C   UNL     1     -10.148   9.959  66.206  1.00  0.00    -0.241 C  
HETATM    4  H1  UNL     1     -10.769   8.756  67.734  1.00  0.00     0.000 HD 
ENDROOT
BRANCH   3   5
HETATM    5  C   UNL     1     -10.474  11.346  65.655  1.00  0.00    -0.316 C  
BRANCH   5   6
HETATM    6  C   UNL     1     -11.540  12.055  66.505  1.00  0.00    -0.384 C  
BRANCH   6   7
HETATM    7  CA  UNL     1     -12.259  13.201  65.780  1.00  0.00    -0.456 C  
HETATM    8  N   UNL     1     -12.567  12.853  64.363  1.00  0.00    -0.659 NA 
HETATM    9  C   UNL     1     -11.397  14.473  65.798  1.00  0.00    -0.336 C  
HETATM   10  OXT UNL     1     -11.253  15.210  66.760  1.00  0.00    -0.331 OA 
HETATM   11  O   UNL     1     -10.774  14.661  64.605  1.00  0.00    -0.393 OA 
HETATM   12  H1  UNL     1     -13.045  13.614  63.881  1.00  0.00     0.000 HD 
HETATM   13  H2  UNL     1     -13.097  11.983  64.301  1.00  0.00     0.000 HD 
ENDBRANCH   6   7
ENDBRANCH   5   6
ENDBRANCH   3   5
TORSDOF 3
ENDMDL
MODEL       85
REMARK 921   NORMALIZED FREE ENERGY PREDICTED BY IDOCK:   -2.66 KCAL/MOL
REMARK 922        TOTAL FREE ENERGY PREDICTED BY IDOCK:   -3.58 KCAL/MOL
REMARK 923 INTER-LIGAND FREE ENERGY PREDICTED BY IDOCK:   -3.54 KCAL/MOL
REMARK 924 INTRA-LIGAND FREE ENERGY PREDICTED BY IDOCK:   -0.04 KCAL/MOL
REMARK 927      BINDING AFFINITY PREDICTED BY RF-SCORE:    0.00 PKD
ROOT
HETATM    1  N   UNL     1     -13.289  11.295  72.042  1.00  0.00    -0.524 NA 
HETATM    2  H2  UNL     1     -14.060  11.943  71.883  1.00  0.00     0.000 HD 
HETATM    3  C   UNL     1     -12.555  11.001  70.817  1.00  0.00    -0.369 C  
HETATM    4  H1  UNL     1     -13.600  10.424  72.473  1.00  0.00     0.000 HD 
ENDROOT
BRANCH   3   5
HETATM    5  C   UNL     1     -12.088  12.305  70.172  1.00  0.00    -0.364 C  
BRANCH   5   6
HETATM    6  C   UNL     1     -11.986  12.175  68.644  1.00  0.00    -0.290 C  
BRANCH   6   7
HETATM    7  CA  UNL     1     -11.419  13.419  67.946  1.00  0.00    -0.315 C  
HETATM    8  N   UNL     1     -12.095  14.666  68.403  1.00  0.00    -0.581 NA 
HETATM    9  C   UNL     1     -11.580  13.300  66.422  1.00  0.00    -0.347 C  
HETATM   10  OXT UNL     1     -10.887  12.610  65.694  1.00  0.00    -0.266 OA 
HETATM   11  O   UNL     1     -12.632  14.040  65.982  1.00  0.00    -0.481 OA 
HETATM   12  H1  UNL     1     -11.719  15.493  67.939  1.00  0.00     0.000 HD 
HETATM   13  H2  UNL     1     -12.057  14.759  69.418  1.00  0.00     0.000 HD 
ENDBRANCH   6   7
ENDBRANCH   5   6
ENDBRANCH   3   5
TORSDOF 3
ENDMDL
MODEL       86
REMARK 921   NORMALIZED FREE ENERGY PREDICTED BY IDOCK:   -2.63 KCAL/MOL
REMARK 922        TOTAL FREE ENERGY PREDICTED BY IDOCK:   -3.55 KCAL/MOL
REMARK 923 INTER-LIGAND FREE ENERGY PREDICTED BY IDOCK:   -3.45 KCAL/MOL
REMARK 924 INTRA-LIGAND FREE ENERGY PREDICTED BY IDOCK:   -0.10 KCAL/MOL
REMARK 927      BINDING AFFINITY PREDICTED BY RF-SCORE:    0.00 PKD
ROOT
HETATM    1  N   UNL     1     -10.812   9.927  67.214  1.00  0.00    -0.246 NA 
HETATM    2  H2  UNL     1     -11.652   9.947  66.637  1.00  0.00     0.000 HD 
HETATM    3  C   UNL     1      -9.593   9.941  66.412  1.00  0.00    -0.200 C  
HETATM    4  H1  UNL     1     -10.798   9.126  67.845  1.00  0.00     0.000 HD 
ENDROOT
BRANCH   3   5
HETATM    5  C   UNL     1      -9.614  11.141  65.466  1.00  0.00    -0.263 C  
BRANCH   5   6
HETATM    6  C   UNL     1     -10.385  12.324  66.072  1.00  0.00    -0.273 C  
BRANCH   6   7
HETATM    7  CA  UNL     1     -10.971  13.288  65.031  1.00  0.00    -0.313 C  
HETATM    8  N   UNL     1     -10.725  14.712  65.396  1.00  0.00    -0.343 NA 
HETATM    9  C   UNL     1     -12.485  13.070  64.889  1.00  0.00    -0.455 C  
HETATM   10  OXT UNL     1     -13.009  12.147  64.287  1.00  0.00    -0.650 OA 
HETATM   11  O   UNL     1     -13.183  14.025  65.559  1.00  0.00    -0.710 OA 
HETATM   12  H1  UNL     1     -11.114  15.354  64.705  1.00  0.00     0.000 HD 
HETATM   13  H2  UNL     1      -9.732  14.890  65.551  1.00  0.00     0.000 HD 
ENDBRANCH   6   7
ENDBRANCH   5   6
ENDBRANCH   3   5
TORSDOF 3
ENDMDL
MODEL       87
REMARK 921   NORMALIZED FREE ENERGY PREDICTED BY IDOCK:   -2.63 KCAL/MOL
REMARK 922        TOTAL FREE ENERGY PREDICTED BY IDOCK:   -3.55 KCAL/MOL
REMARK 923 INTER-LIGAND FREE ENERGY PREDICTED BY IDOCK:   -3.32 KCAL/MOL
REMARK 924 INTRA-LIGAND FREE ENERGY PREDICTED BY IDOCK:   -0.23 KCAL/MOL
REMARK 927      BINDING AFFINITY PREDICTED BY RF-SCORE:    0.00 PKD
ROOT
HETATM    1  N   UNL     1     -11.973  13.311  63.137  1.00  0.00    -0.815 NA 
HETATM    2  H2  UNL     1     -11.036  13.577  63.438  1.00  0.00     0.000 HD 
HETATM    3  C   UNL     1     -12.739  12.685  64.209  1.00  0.00    -0.305 C  
HETATM    4  H1  UNL     1     -11.956  12.695  62.323  1.00  0.00     0.000 HD 
ENDROOT
BRANCH   3   5
HETATM    5  C   UNL     1     -12.766  13.607  65.427  1.00  0.00    -0.500 C  
BRANCH   5   6
HETATM    6  C   UNL     1     -11.845  13.093  66.545  1.00  0.00    -0.456 C  
BRANCH   6   7
HETATM    7  CA  UNL     1     -10.513  13.846  66.656  1.00  0.00    -0.272 C  
HETATM    8  N   UNL     1      -9.778  13.864  65.359  1.00  0.00    -0.559 NA 
HETATM    9  C   UNL     1      -9.616  13.197  67.722  1.00  0.00    -0.208 C  
HETATM   10  OXT UNL     1      -9.755  13.322  68.927  1.00  0.00    -0.033 OA 
HETATM   11  O   UNL     1      -8.656  12.423  67.150  1.00  0.00    -0.177 OA 
HETATM   12  H1  UNL     1      -8.892  14.366  65.433  1.00  0.00     0.000 HD 
HETATM   13  H2  UNL     1     -10.357  14.242  64.609  1.00  0.00     0.000 HD 
ENDBRANCH   6   7
ENDBRANCH   5   6
ENDBRANCH   3   5
TORSDOF 3
ENDMDL
MODEL       88
REMARK 921   NORMALIZED FREE ENERGY PREDICTED BY IDOCK:   -2.63 KCAL/MOL
REMARK 922        TOTAL FREE ENERGY PREDICTED BY IDOCK:   -3.55 KCAL/MOL
REMARK 923 INTER-LIGAND FREE ENERGY PREDICTED BY IDOCK:   -3.39 KCAL/MOL
REMARK 924 INTRA-LIGAND FREE ENERGY PREDICTED BY IDOCK:   -0.16 KCAL/MOL
REMARK 927      BINDING AFFINITY PREDICTED BY RF-SCORE:    0.00 PKD
ROOT
HETATM    1  N   UNL     1     -12.427  15.092  69.097  1.00  0.00    -0.588 NA 
HETATM    2  H2  UNL     1     -12.069  14.387  69.741  1.00  0.00     0.000 HD 
HETATM    3  C   UNL     1     -11.395  16.038  68.690  1.00  0.00    -0.383 C  
HETATM    4  H1  UNL     1     -13.224  15.598  69.483  1.00  0.00     0.000 HD 
ENDROOT
BRANCH   3   5
HETATM    5  C   UNL     1     -10.201  15.280  68.110  1.00  0.00    -0.230 C  
BRANCH   5   6
HETATM    6  C   UNL     1      -9.554  16.048  66.947  1.00  0.00    -0.239 C  
BRANCH   6   7
HETATM    7  CA  UNL     1     -10.038  17.498  66.808  1.00  0.00    -0.320 C  
HETATM    8  N   UNL     1     -10.506  17.795  65.424  1.00  0.00    -0.602 NA 
HETATM    9  C   UNL     1      -8.910  18.478  67.168  1.00  0.00    -0.270 C  
HETATM   10  OXT UNL     1      -8.541  18.739  68.301  1.00  0.00    -0.306 OA 
HETATM   11  O   UNL     1      -8.337  18.998  66.050  1.00  0.00    -0.449 OA 
HETATM   12  H1  UNL     1     -10.828  18.758  65.332  1.00  0.00     0.000 HD 
HETATM   13  H2  UNL     1     -11.222  17.133  65.124  1.00  0.00     0.000 HD 
ENDBRANCH   6   7
ENDBRANCH   5   6
ENDBRANCH   3   5
TORSDOF 3
ENDMDL
MODEL       89
REMARK 921   NORMALIZED FREE ENERGY PREDICTED BY IDOCK:   -2.63 KCAL/MOL
REMARK 922        TOTAL FREE ENERGY PREDICTED BY IDOCK:   -3.55 KCAL/MOL
REMARK 923 INTER-LIGAND FREE ENERGY PREDICTED BY IDOCK:   -3.48 KCAL/MOL
REMARK 924 INTRA-LIGAND FREE ENERGY PREDICTED BY IDOCK:   -0.07 KCAL/MOL
REMARK 927      BINDING AFFINITY PREDICTED BY RF-SCORE:    0.00 PKD
ROOT
HETATM    1  N   UNL     1     -13.030  15.276  70.147  1.00  0.00    -0.662 NA 
HETATM    2  H2  UNL     1     -12.784  14.562  70.832  1.00  0.00     0.000 HD 
HETATM    3  C   UNL     1     -11.923  15.580  69.247  1.00  0.00    -0.316 C  
HETATM    4  H1  UNL     1     -13.359  16.135  70.588  1.00  0.00     0.000 HD 
ENDROOT
BRANCH   3   5
HETATM    5  C   UNL     1     -11.431  14.293  68.586  1.00  0.00    -0.328 C  
BRANCH   5   6
HETATM    6  C   UNL     1     -11.496  14.384  67.054  1.00  0.00    -0.376 C  
BRANCH   6   7
HETATM    7  CA  UNL     1     -10.478  13.493  66.329  1.00  0.00    -0.290 C  
HETATM    8  N   UNL     1     -10.040  14.092  65.037  1.00  0.00    -0.577 NA 
HETATM    9  C   UNL     1     -11.080  12.107  66.051  1.00  0.00    -0.313 C  
HETATM   10  OXT UNL     1     -11.222  11.223  66.880  1.00  0.00    -0.298 OA 
HETATM   11  O   UNL     1     -11.478  11.996  64.756  1.00  0.00    -0.322 OA 
HETATM   12  H1  UNL     1      -9.363  13.500  64.555  1.00  0.00     0.000 HD 
HETATM   13  H2  UNL     1      -9.678  15.037  65.169  1.00  0.00     0.000 HD 
ENDBRANCH   6   7
ENDBRANCH   5   6
ENDBRANCH   3   5
TORSDOF 3
ENDMDL
MODEL       90
REMARK 921   NORMALIZED FREE ENERGY PREDICTED BY IDOCK:   -2.63 KCAL/MOL
REMARK 922        TOTAL FREE ENERGY PREDICTED BY IDOCK:   -3.55 KCAL/MOL
REMARK 923 INTER-LIGAND FREE ENERGY PREDICTED BY IDOCK:   -3.48 KCAL/MOL
REMARK 924 INTRA-LIGAND FREE ENERGY PREDICTED BY IDOCK:   -0.07 KCAL/MOL
REMARK 927      BINDING AFFINITY PREDICTED BY RF-SCORE:    0.00 PKD
ROOT
HETATM    1  N   UNL     1     -14.282   9.015  73.253  1.00  0.00    -1.188 NA 
HETATM    2  H2  UNL     1     -13.913   9.891  73.622  1.00  0.00     0.000 HD 
HETATM    3  C   UNL     1     -13.701   8.676  71.959  1.00  0.00    -0.426 C  
HETATM    4  H1  UNL     1     -15.300   9.026  73.180  1.00  0.00     0.000 HD 
ENDROOT
BRANCH   3   5
HETATM    5  C   UNL     1     -12.177   8.659  72.068  1.00  0.00    -0.439 C  
BRANCH   5   6
HETATM    6  C   UNL     1     -11.612   7.243  71.874  1.00  0.00    -0.313 C  
BRANCH   6   7
HETATM    7  CA  UNL     1     -10.904   6.677  73.112  1.00  0.00    -0.269 C  
HETATM    8  N   UNL     1     -10.052   7.702  73.779  1.00  0.00    -0.367 NA 
HETATM    9  C   UNL     1     -10.022   5.479  72.725  1.00  0.00    -0.170 C  
HETATM   10  OXT UNL     1     -10.430   4.357  72.478  1.00  0.00    -0.188 OA 
HETATM   11  O   UNL     1      -8.713   5.838  72.650  1.00  0.00    -0.120 OA 
HETATM   12  H1  UNL     1      -9.581   7.325  74.602  1.00  0.00     0.000 HD 
HETATM   13  H2  UNL     1     -10.589   8.539  74.009  1.00  0.00     0.000 HD 
ENDBRANCH   6   7
ENDBRANCH   5   6
ENDBRANCH   3   5
TORSDOF 3
ENDMDL
MODEL       91
REMARK 921   NORMALIZED FREE ENERGY PREDICTED BY IDOCK:   -2.63 KCAL/MOL
REMARK 922        TOTAL FREE ENERGY PREDICTED BY IDOCK:   -3.54 KCAL/MOL
REMARK 923 INTER-LIGAND FREE ENERGY PREDICTED BY IDOCK:   -2.98 KCAL/MOL
REMARK 924 INTRA-LIGAND FREE ENERGY PREDICTED BY IDOCK:   -0.57 KCAL/MOL
REMARK 927      BINDING AFFINITY PREDICTED BY RF-SCORE:    0.00 PKD
ROOT
HETATM    1  N   UNL     1      -8.963   7.400  71.419  1.00  0.00    -0.137 NA 
HETATM    2  H2  UNL     1      -9.768   8.022  71.343  1.00  0.00     0.000 HD 
HETATM    3  C   UNL     1      -9.248   6.230  72.241  1.00  0.00    -0.139 C  
HETATM    4  H1  UNL     1      -8.138   7.879  71.779  1.00  0.00     0.000 HD 
ENDROOT
BRANCH   3   5
HETATM    5  C   UNL     1     -10.484   5.511  71.701  1.00  0.00    -0.292 C  
BRANCH   5   6
HETATM    6  C   UNL     1     -11.781   6.131  72.244  1.00  0.00    -0.352 C  
BRANCH   6   7
HETATM    7  CA  UNL     1     -12.515   7.027  71.237  1.00  0.00    -0.386 C  
HETATM    8  N   UNL     1     -11.940   6.908  69.867  1.00  0.00    -0.640 NA 
HETATM    9  C   UNL     1     -12.444   8.498  71.675  1.00  0.00    -0.330 C  
HETATM   10  OXT UNL     1     -13.110   8.999  72.566  1.00  0.00    -0.433 OA 
HETATM   11  O   UNL     1     -11.503   9.176  70.965  1.00  0.00    -0.270 OA 
HETATM   12  H1  UNL     1     -12.428   7.503  69.198  1.00  0.00     0.000 HD 
HETATM   13  H2  UNL     1     -11.921   5.936  69.556  1.00  0.00     0.000 HD 
ENDBRANCH   6   7
ENDBRANCH   5   6
ENDBRANCH   3   5
TORSDOF 3
ENDMDL
MODEL       92
REMARK 921   NORMALIZED FREE ENERGY PREDICTED BY IDOCK:   -2.62 KCAL/MOL
REMARK 922        TOTAL FREE ENERGY PREDICTED BY IDOCK:   -3.53 KCAL/MOL
REMARK 923 INTER-LIGAND FREE ENERGY PREDICTED BY IDOCK:   -3.30 KCAL/MOL
REMARK 924 INTRA-LIGAND FREE ENERGY PREDICTED BY IDOCK:   -0.23 KCAL/MOL
REMARK 927      BINDING AFFINITY PREDICTED BY RF-SCORE:    0.00 PKD
ROOT
HETATM    1  N   UNL     1     -10.219  15.056  70.028  1.00  0.00    -0.487 NA 
HETATM    2  H2  UNL     1      -9.813  14.368  70.662  1.00  0.00     0.000 HD 
HETATM    3  C   UNL     1      -9.468  15.167  68.783  1.00  0.00    -0.209 C  
HETATM    4  H1  UNL     1     -10.303  15.976  70.461  1.00  0.00     0.000 HD 
ENDROOT
BRANCH   3   5
HETATM    5  C   UNL     1      -9.342  13.789  68.134  1.00  0.00    -0.211 C  
BRANCH   5   6
HETATM    6  C   UNL     1     -10.241  13.665  66.894  1.00  0.00    -0.261 C  
BRANCH   6   7
HETATM    7  CA  UNL     1     -11.693  13.279  67.209  1.00  0.00    -0.377 C  
HETATM    8  N   UNL     1     -12.408  14.365  67.938  1.00  0.00    -0.599 NA 
HETATM    9  C   UNL     1     -11.737  12.002  68.062  1.00  0.00    -0.331 C  
HETATM   10  OXT UNL     1     -11.556  10.870  67.643  1.00  0.00    -0.531 OA 
HETATM   11  O   UNL     1     -11.965  12.293  69.370  1.00  0.00    -0.297 OA 
HETATM   12  H1  UNL     1     -13.373  14.109  68.148  1.00  0.00     0.000 HD 
HETATM   13  H2  UNL     1     -12.360  15.248  67.429  1.00  0.00     0.000 HD 
ENDBRANCH   6   7
ENDBRANCH   5   6
ENDBRANCH   3   5
TORSDOF 3
ENDMDL
MODEL       93
REMARK 921   NORMALIZED FREE ENERGY PREDICTED BY IDOCK:   -2.61 KCAL/MOL
REMARK 922        TOTAL FREE ENERGY PREDICTED BY IDOCK:   -3.53 KCAL/MOL
REMARK 923 INTER-LIGAND FREE ENERGY PREDICTED BY IDOCK:   -3.06 KCAL/MOL
REMARK 924 INTRA-LIGAND FREE ENERGY PREDICTED BY IDOCK:   -0.46 KCAL/MOL
REMARK 927      BINDING AFFINITY PREDICTED BY RF-SCORE:    0.00 PKD
ROOT
HETATM    1  N   UNL     1     -13.840   7.468  71.049  1.00  0.00    -0.633 NA 
HETATM    2  H2  UNL     1     -13.211   6.669  70.967  1.00  0.00     0.000 HD 
HETATM    3  C   UNL     1     -13.229   8.576  71.774  1.00  0.00    -0.364 C  
HETATM    4  H1  UNL     1     -14.725   7.216  71.490  1.00  0.00     0.000 HD 
ENDROOT
BRANCH   3   5
HETATM    5  C   UNL     1     -11.903   8.953  71.114  1.00  0.00    -0.353 C  
BRANCH   5   6
HETATM    6  C   UNL     1     -10.709   8.650  72.032  1.00  0.00    -0.427 C  
BRANCH   6   7
HETATM    7  CA  UNL     1     -10.182   7.212  71.921  1.00  0.00    -0.190 C  
HETATM    8  N   UNL     1     -10.639   6.551  70.666  1.00  0.00    -0.223 NA 
HETATM    9  C   UNL     1     -10.652   6.373  73.119  1.00  0.00    -0.255 C  
HETATM   10  OXT UNL     1     -10.182   6.429  74.243  1.00  0.00    -0.321 OA 
HETATM   11  O   UNL     1     -11.700   5.576  72.779  1.00  0.00    -0.297 OA 
HETATM   12  H1  UNL     1     -10.289   5.596  70.591  1.00  0.00     0.000 HD 
HETATM   13  H2  UNL     1     -10.392   7.103  69.844  1.00  0.00     0.000 HD 
ENDBRANCH   6   7
ENDBRANCH   5   6
ENDBRANCH   3   5
TORSDOF 3
ENDMDL
MODEL       94
REMARK 921   NORMALIZED FREE ENERGY PREDICTED BY IDOCK:   -2.60 KCAL/MOL
REMARK 922        TOTAL FREE ENERGY PREDICTED BY IDOCK:   -3.51 KCAL/MOL
REMARK 923 INTER-LIGAND FREE ENERGY PREDICTED BY IDOCK:   -3.36 KCAL/MOL
REMARK 924 INTRA-LIGAND FREE ENERGY PREDICTED BY IDOCK:   -0.15 KCAL/MOL
REMARK 927      BINDING AFFINITY PREDICTED BY RF-SCORE:    0.00 PKD
ROOT
HETATM    1  N   UNL     1      -7.570  19.391  68.866  1.00  0.00    -0.364 NA 
HETATM    2  H2  UNL     1      -7.856  18.494  69.256  1.00  0.00     0.000 HD 
HETATM    3  C   UNL     1      -8.365  19.763  67.701  1.00  0.00    -0.317 C  
HETATM    4  H1  UNL     1      -6.579  19.408  68.624  1.00  0.00     0.000 HD 
ENDROOT
BRANCH   3   5
HETATM    5  C   UNL     1      -9.849  19.738  68.062  1.00  0.00    -0.533 C  
BRANCH   5   6
HETATM    6  C   UNL     1     -10.613  18.686  67.243  1.00  0.00    -0.480 C  
BRANCH   6   7
HETATM    7  CA  UNL     1      -9.967  17.294  67.253  1.00  0.00    -0.283 C  
HETATM    8  N   UNL     1     -10.132  16.599  65.944  1.00  0.00    -0.454 NA 
HETATM    9  C   UNL     1     -10.586  16.422  68.355  1.00  0.00    -0.311 C  
HETATM   10  OXT UNL     1     -10.339  16.515  69.546  1.00  0.00    -0.287 OA 
HETATM   11  O   UNL     1     -11.488  15.546  67.839  1.00  0.00    -0.330 OA 
HETATM   12  H1  UNL     1      -9.702  15.674  65.950  1.00  0.00     0.000 HD 
HETATM   13  H2  UNL     1      -9.779  17.168  65.174  1.00  0.00     0.000 HD 
ENDBRANCH   6   7
ENDBRANCH   5   6
ENDBRANCH   3   5
TORSDOF 3
ENDMDL
MODEL       95
REMARK 921   NORMALIZED FREE ENERGY PREDICTED BY IDOCK:   -2.60 KCAL/MOL
REMARK 922        TOTAL FREE ENERGY PREDICTED BY IDOCK:   -3.51 KCAL/MOL
REMARK 923 INTER-LIGAND FREE ENERGY PREDICTED BY IDOCK:   -3.38 KCAL/MOL
REMARK 924 INTRA-LIGAND FREE ENERGY PREDICTED BY IDOCK:   -0.13 KCAL/MOL
REMARK 927      BINDING AFFINITY PREDICTED BY RF-SCORE:    0.00 PKD
ROOT
HETATM    1  N   UNL     1     -10.999   9.151  67.620  1.00  0.00    -0.476 NA 
HETATM    2  H2  UNL     1     -11.784   8.504  67.681  1.00  0.00     0.000 HD 
HETATM    3  C   UNL     1     -10.555   9.602  68.934  1.00  0.00    -0.217 C  
HETATM    4  H1  UNL     1     -11.210   9.959  67.034  1.00  0.00     0.000 HD 
ENDROOT
BRANCH   3   5
HETATM    5  C   UNL     1     -10.239   8.392  69.813  1.00  0.00    -0.207 C  
BRANCH   5   6
HETATM    6  C   UNL     1     -11.478   7.917  70.588  1.00  0.00    -0.247 C  
BRANCH   6   7
HETATM    7  CA  UNL     1     -11.744   8.698  71.883  1.00  0.00    -0.352 C  
HETATM    8  N   UNL     1     -11.861   7.791  73.061  1.00  0.00    -0.631 NA 
HETATM    9  C   UNL     1     -13.038   9.516  71.761  1.00  0.00    -0.418 C  
HETATM   10  OXT UNL     1     -13.153  10.560  71.141  1.00  0.00    -0.376 OA 
HETATM   11  O   UNL     1     -14.067   8.905  72.405  1.00  0.00    -0.459 OA 
HETATM   12  H1  UNL     1     -12.037   8.309  73.922  1.00  0.00     0.000 HD 
HETATM   13  H2  UNL     1     -11.041   7.190  73.150  1.00  0.00     0.000 HD 
ENDBRANCH   6   7
ENDBRANCH   5   6
ENDBRANCH   3   5
TORSDOF 3
ENDMDL
MODEL       96
REMARK 921   NORMALIZED FREE ENERGY PREDICTED BY IDOCK:   -2.59 KCAL/MOL
REMARK 922        TOTAL FREE ENERGY PREDICTED BY IDOCK:   -3.50 KCAL/MOL
REMARK 923 INTER-LIGAND FREE ENERGY PREDICTED BY IDOCK:   -3.21 KCAL/MOL
REMARK 924 INTRA-LIGAND FREE ENERGY PREDICTED BY IDOCK:   -0.28 KCAL/MOL
REMARK 927      BINDING AFFINITY PREDICTED BY RF-SCORE:    0.00 PKD
ROOT
HETATM    1  N   UNL     1     -11.035  14.926  71.021  1.00  0.00    -0.549 NA 
HETATM    2  H2  UNL     1     -10.214  14.506  70.585  1.00  0.00     0.000 HD 
HETATM    3  C   UNL     1     -12.279  14.387  70.485  1.00  0.00    -0.341 C  
HETATM    4  H1  UNL     1     -11.037  15.943  70.937  1.00  0.00     0.000 HD 
ENDROOT
BRANCH   3   5
HETATM    5  C   UNL     1     -12.276  12.864  70.611  1.00  0.00    -0.386 C  
BRANCH   5   6
HETATM    6  C   UNL     1     -11.633  12.196  69.385  1.00  0.00    -0.381 C  
BRANCH   6   7
HETATM    7  CA  UNL     1     -11.573  13.095  68.142  1.00  0.00    -0.339 C  
HETATM    8  N   UNL     1     -12.159  12.425  66.946  1.00  0.00    -0.547 NA 
HETATM    9  C   UNL     1     -10.120  13.482  67.828  1.00  0.00    -0.236 C  
HETATM   10  OXT UNL     1      -9.470  14.319  68.432  1.00  0.00    -0.204 OA 
HETATM   11  O   UNL     1      -9.624  12.736  66.805  1.00  0.00    -0.230 OA 
HETATM   12  H1  UNL     1     -12.119  13.022  66.120  1.00  0.00     0.000 HD 
HETATM   13  H2  UNL     1     -13.110  12.105  67.128  1.00  0.00     0.000 HD 
ENDBRANCH   6   7
ENDBRANCH   5   6
ENDBRANCH   3   5
TORSDOF 3
ENDMDL
MODEL       97
REMARK 921   NORMALIZED FREE ENERGY PREDICTED BY IDOCK:   -2.59 KCAL/MOL
REMARK 922        TOTAL FREE ENERGY PREDICTED BY IDOCK:   -3.50 KCAL/MOL
REMARK 923 INTER-LIGAND FREE ENERGY PREDICTED BY IDOCK:   -3.44 KCAL/MOL
REMARK 924 INTRA-LIGAND FREE ENERGY PREDICTED BY IDOCK:   -0.05 KCAL/MOL
REMARK 927      BINDING AFFINITY PREDICTED BY RF-SCORE:    0.00 PKD
ROOT
HETATM    1  N   UNL     1     -13.335  11.434  72.143  1.00  0.00    -0.568 NA 
HETATM    2  H2  UNL     1     -13.879  12.164  71.684  1.00  0.00     0.000 HD 
HETATM    3  C   UNL     1     -12.781  10.480  71.190  1.00  0.00    -0.418 C  
HETATM    4  H1  UNL     1     -13.878  10.936  72.850  1.00  0.00     0.000 HD 
ENDROOT
BRANCH   3   5
HETATM    5  C   UNL     1     -11.968  11.224  70.132  1.00  0.00    -0.452 C  
BRANCH   5   6
HETATM    6  C   UNL     1     -12.076  12.747  70.305  1.00  0.00    -0.373 C  
BRANCH   6   7
HETATM    7  CA  UNL     1     -11.419  13.554  69.176  1.00  0.00    -0.295 C  
HETATM    8  N   UNL     1     -10.051  13.053  68.861  1.00  0.00    -0.438 NA 
HETATM    9  C   UNL     1     -11.323  15.038  69.562  1.00  0.00    -0.288 C  
HETATM   10  OXT UNL     1     -12.252  15.829  69.550  1.00  0.00    -0.325 OA 
HETATM   11  O   UNL     1     -10.065  15.360  69.964  1.00  0.00    -0.287 OA 
HETATM   12  H1  UNL     1      -9.615  13.588  68.110  1.00  0.00     0.000 HD 
HETATM   13  H2  UNL     1     -10.061  12.055  68.648  1.00  0.00     0.000 HD 
ENDBRANCH   6   7
ENDBRANCH   5   6
ENDBRANCH   3   5
TORSDOF 3
ENDMDL
MODEL       98
REMARK 921   NORMALIZED FREE ENERGY PREDICTED BY IDOCK:   -2.57 KCAL/MOL
REMARK 922        TOTAL FREE ENERGY PREDICTED BY IDOCK:   -3.48 KCAL/MOL
REMARK 923 INTER-LIGAND FREE ENERGY PREDICTED BY IDOCK:   -3.27 KCAL/MOL
REMARK 924 INTRA-LIGAND FREE ENERGY PREDICTED BY IDOCK:   -0.21 KCAL/MOL
REMARK 927      BINDING AFFINITY PREDICTED BY RF-SCORE:    0.00 PKD
ROOT
HETATM    1  N   UNL     1     -10.356  15.138  70.687  1.00  0.00    -0.471 NA 
HETATM    2  H2  UNL     1     -10.543  14.144  70.558  1.00  0.00     0.000 HD 
HETATM    3  C   UNL     1     -10.421  15.878  69.432  1.00  0.00    -0.265 C  
HETATM    4  H1  UNL     1      -9.455  15.305  71.137  1.00  0.00     0.000 HD 
ENDROOT
BRANCH   3   5
HETATM    5  C   UNL     1     -11.769  15.629  68.758  1.00  0.00    -0.382 C  
BRANCH   5   6
HETATM    6  C   UNL     1     -11.620  14.762  67.498  1.00  0.00    -0.379 C  
BRANCH   6   7
HETATM    7  CA  UNL     1     -10.809  13.477  67.715  1.00  0.00    -0.253 C  
HETATM    8  N   UNL     1     -10.307  12.916  66.428  1.00  0.00    -0.263 NA 
HETATM    9  C   UNL     1     -11.667  12.411  68.415  1.00  0.00    -0.336 C  
HETATM   10  OXT UNL     1     -11.945  12.403  69.602  1.00  0.00    -0.304 OA 
HETATM   11  O   UNL     1     -12.119  11.485  67.528  1.00  0.00    -0.614 OA 
HETATM   12  H1  UNL     1      -9.768  12.062  66.572  1.00  0.00     0.000 HD 
HETATM   13  H2  UNL     1      -9.772  13.610  65.904  1.00  0.00     0.000 HD 
ENDBRANCH   6   7
ENDBRANCH   5   6
ENDBRANCH   3   5
TORSDOF 3
ENDMDL
MODEL       99
REMARK 921   NORMALIZED FREE ENERGY PREDICTED BY IDOCK:   -2.56 KCAL/MOL
REMARK 922        TOTAL FREE ENERGY PREDICTED BY IDOCK:   -3.47 KCAL/MOL
REMARK 923 INTER-LIGAND FREE ENERGY PREDICTED BY IDOCK:   -3.38 KCAL/MOL
REMARK 924 INTRA-LIGAND FREE ENERGY PREDICTED BY IDOCK:   -0.09 KCAL/MOL
REMARK 927      BINDING AFFINITY PREDICTED BY RF-SCORE:    0.00 PKD
ROOT
HETATM    1  N   UNL     1      -7.209  11.954  66.400  1.00  0.00    -0.360 NA 
HETATM    2  H2  UNL     1      -7.709  11.489  65.643  1.00  0.00     0.000 HD 
HETATM    3  C   UNL     1      -8.095  12.764  67.229  1.00  0.00    -0.172 C  
HETATM    4  H1  UNL     1      -6.439  12.530  66.057  1.00  0.00     0.000 HD 
ENDROOT
BRANCH   3   5
HETATM    5  C   UNL     1      -9.248  11.901  67.743  1.00  0.00    -0.184 C  
BRANCH   5   6
HETATM    6  C   UNL     1     -10.268  12.735  68.533  1.00  0.00    -0.206 C  
BRANCH   6   7
HETATM    7  CA  UNL     1     -11.728  12.478  68.137  1.00  0.00    -0.348 C  
HETATM    8  N   UNL     1     -12.032  11.021  68.060  1.00  0.00    -0.761 NA 
HETATM    9  C   UNL     1     -12.036  13.119  66.775  1.00  0.00    -0.327 C  
HETATM   10  OXT UNL     1     -12.223  14.309  66.585  1.00  0.00    -0.449 OA 
HETATM   11  O   UNL     1     -12.036  12.188  65.784  1.00  0.00    -0.572 OA 
HETATM   12  H1  UNL     1     -13.003  10.850  67.797  1.00  0.00     0.000 HD 
HETATM   13  H2  UNL     1     -11.794  10.545  68.930  1.00  0.00     0.000 HD 
ENDBRANCH   6   7
ENDBRANCH   5   6
ENDBRANCH   3   5
TORSDOF 3
ENDMDL
MODEL      100
REMARK 921   NORMALIZED FREE ENERGY PREDICTED BY IDOCK:   -2.55 KCAL/MOL
REMARK 922        TOTAL FREE ENERGY PREDICTED BY IDOCK:   -3.46 KCAL/MOL
REMARK 923 INTER-LIGAND FREE ENERGY PREDICTED BY IDOCK:   -3.36 KCAL/MOL
REMARK 924 INTRA-LIGAND FREE ENERGY PREDICTED BY IDOCK:   -0.10 KCAL/MOL
REMARK 927      BINDING AFFINITY PREDICTED BY RF-SCORE:    0.00 PKD
ROOT
HETATM    1  N   UNL     1      -9.848  20.434  66.149  1.00  0.00    -0.638 NA 
HETATM    2  H2  UNL     1      -9.327  19.881  65.468  1.00  0.00     0.000 HD 
HETATM    3  C   UNL     1     -10.578  19.596  67.093  1.00  0.00    -0.487 C  
HETATM    4  H1  UNL     1     -10.491  21.088  65.702  1.00  0.00     0.000 HD 
ENDROOT
BRANCH   3   5
HETATM    5  C   UNL     1      -9.615  18.616  67.763  1.00  0.00    -0.332 C  
BRANCH   5   6
HETATM    6  C   UNL     1      -8.806  19.294  68.880  1.00  0.00    -0.336 C  
BRANCH   6   7
HETATM    7  CA  UNL     1      -7.346  19.588  68.506  1.00  0.00    -0.333 C  
HETATM    8  N   UNL     1      -6.811  18.588  67.539  1.00  0.00    -0.202 NA 
HETATM    9  C   UNL     1      -6.459  19.584  69.760  1.00  0.00    -0.293 C  
HETATM   10  OXT UNL     1      -6.401  20.484  70.582  1.00  0.00    -0.510 OA 
HETATM   11  O   UNL     1      -5.765  18.421  69.867  1.00  0.00    -0.226 OA 
HETATM   12  H1  UNL     1      -5.841  18.783  67.290  1.00  0.00     0.000 HD 
HETATM   13  H2  UNL     1      -7.401  18.520  66.709  1.00  0.00     0.000 HD 
ENDBRANCH   6   7
ENDBRANCH   5   6
ENDBRANCH   3   5
TORSDOF 3
ENDMDL
MODEL      101
REMARK 921   NORMALIZED FREE ENERGY PREDICTED BY IDOCK:   -2.55 KCAL/MOL
REMARK 922        TOTAL FREE ENERGY PREDICTED BY IDOCK:   -3.45 KCAL/MOL
REMARK 923 INTER-LIGAND FREE ENERGY PREDICTED BY IDOCK:   -3.21 KCAL/MOL
REMARK 924 INTRA-LIGAND FREE ENERGY PREDICTED BY IDOCK:   -0.24 KCAL/MOL
REMARK 927      BINDING AFFINITY PREDICTED BY RF-SCORE:    0.00 PKD
ROOT
HETATM    1  N   UNL     1      -8.451  10.069  70.364  1.00  0.00    -0.377 NA 
HETATM    2  H2  UNL     1      -8.419  10.088  71.383  1.00  0.00     0.000 HD 
HETATM    3  C   UNL     1      -8.762   8.741  69.847  1.00  0.00    -0.135 C  
HETATM    4  H1  UNL     1      -7.584  10.406  69.945  1.00  0.00     0.000 HD 
ENDROOT
BRANCH   3   5
HETATM    5  C   UNL     1     -10.061   8.237  70.474  1.00  0.00    -0.210 C  
BRANCH   5   6
HETATM    6  C   UNL     1     -10.691   9.293  71.395  1.00  0.00    -0.432 C  
BRANCH   6   7
HETATM    7  CA  UNL     1     -11.889  10.028  70.777  1.00  0.00    -0.346 C  
HETATM    8  N   UNL     1     -11.500  11.358  70.229  1.00  0.00    -0.503 NA 
HETATM    9  C   UNL     1     -12.994  10.230  71.825  1.00  0.00    -0.469 C  
HETATM   10  OXT UNL     1     -13.761   9.365  72.214  1.00  0.00    -0.451 OA 
HETATM   11  O   UNL     1     -12.989  11.503  72.304  1.00  0.00    -0.283 OA 
HETATM   12  H1  UNL     1     -12.296  11.846  69.818  1.00  0.00     0.000 HD 
HETATM   13  H2  UNL     1     -10.731  11.276  69.564  1.00  0.00     0.000 HD 
ENDBRANCH   6   7
ENDBRANCH   5   6
ENDBRANCH   3   5
TORSDOF 3
ENDMDL
MODEL      102
REMARK 921   NORMALIZED FREE ENERGY PREDICTED BY IDOCK:   -2.54 KCAL/MOL
REMARK 922        TOTAL FREE ENERGY PREDICTED BY IDOCK:   -3.45 KCAL/MOL
REMARK 923 INTER-LIGAND FREE ENERGY PREDICTED BY IDOCK:   -3.22 KCAL/MOL
REMARK 924 INTRA-LIGAND FREE ENERGY PREDICTED BY IDOCK:   -0.22 KCAL/MOL
REMARK 927      BINDING AFFINITY PREDICTED BY RF-SCORE:    0.00 PKD
ROOT
HETATM    1  N   UNL     1     -12.302  14.484  67.710  1.00  0.00    -0.595 NA 
HETATM    2  H2  UNL     1     -12.579  15.448  67.894  1.00  0.00     0.000 HD 
HETATM    3  C   UNL     1     -11.862  14.292  66.333  1.00  0.00    -0.411 C  
HETATM    4  H1  UNL     1     -13.046  13.821  67.929  1.00  0.00     0.000 HD 
ENDROOT
BRANCH   3   5
HETATM    5  C   UNL     1     -10.748  15.284  66.006  1.00  0.00    -0.324 C  
BRANCH   5   6
HETATM    6  C   UNL     1      -9.658  15.288  67.089  1.00  0.00    -0.223 C  
BRANCH   6   7
HETATM    7  CA  UNL     1      -9.484  16.637  67.799  1.00  0.00    -0.227 C  
HETATM    8  N   UNL     1     -10.458  16.805  68.915  1.00  0.00    -0.311 NA 
HETATM    9  C   UNL     1      -9.669  17.795  66.806  1.00  0.00    -0.309 C  
HETATM   10  OXT UNL     1      -8.843  18.153  65.982  1.00  0.00    -0.499 OA 
HETATM   11  O   UNL     1     -10.901  18.356  66.930  1.00  0.00    -0.325 OA 
HETATM   12  H1  UNL     1     -10.343  17.702  69.387  1.00  0.00     0.000 HD 
HETATM   13  H2  UNL     1     -10.405  16.028  69.574  1.00  0.00     0.000 HD 
ENDBRANCH   6   7
ENDBRANCH   5   6
ENDBRANCH   3   5
TORSDOF 3
ENDMDL
MODEL      103
REMARK 921   NORMALIZED FREE ENERGY PREDICTED BY IDOCK:   -2.54 KCAL/MOL
REMARK 922        TOTAL FREE ENERGY PREDICTED BY IDOCK:   -3.44 KCAL/MOL
REMARK 923 INTER-LIGAND FREE ENERGY PREDICTED BY IDOCK:   -3.38 KCAL/MOL
REMARK 924 INTRA-LIGAND FREE ENERGY PREDICTED BY IDOCK:   -0.06 KCAL/MOL
REMARK 927      BINDING AFFINITY PREDICTED BY RF-SCORE:    0.00 PKD
ROOT
HETATM    1  N   UNL     1     -10.067  13.456  64.171  1.00  0.00    -0.779 NA 
HETATM    2  H2  UNL     1      -9.355  12.958  64.704  1.00  0.00     0.000 HD 
HETATM    3  C   UNL     1     -11.166  13.915  65.013  1.00  0.00    -0.342 C  
HETATM    4  H1  UNL     1     -10.435  12.895  63.402  1.00  0.00     0.000 HD 
ENDROOT
BRANCH   3   5
HETATM    5  C   UNL     1     -10.614  14.756  66.164  1.00  0.00    -0.314 C  
BRANCH   5   6
HETATM    6  C   UNL     1     -10.639  13.982  67.492  1.00  0.00    -0.260 C  
BRANCH   6   7
HETATM    7  CA  UNL     1     -11.903  14.218  68.330  1.00  0.00    -0.338 C  
HETATM    8  N   UNL     1     -12.204  15.670  68.480  1.00  0.00    -0.472 NA 
HETATM    9  C   UNL     1     -11.743  13.601  69.728  1.00  0.00    -0.297 C  
HETATM   10  OXT UNL     1     -11.828  12.412  69.985  1.00  0.00    -0.326 OA 
HETATM   11  O   UNL     1     -11.451  14.553  70.654  1.00  0.00    -0.252 OA 
HETATM   12  H1  UNL     1     -13.044  15.828  69.038  1.00  0.00     0.000 HD 
HETATM   13  H2  UNL     1     -12.268  16.132  67.573  1.00  0.00     0.000 HD 
ENDBRANCH   6   7
ENDBRANCH   5   6
ENDBRANCH   3   5
TORSDOF 3
ENDMDL
MODEL      104
REMARK 921   NORMALIZED FREE ENERGY PREDICTED BY IDOCK:   -2.53 KCAL/MOL
REMARK 922        TOTAL FREE ENERGY PREDICTED BY IDOCK:   -3.43 KCAL/MOL
REMARK 923 INTER-LIGAND FREE ENERGY PREDICTED BY IDOCK:   -2.84 KCAL/MOL
REMARK 924 INTRA-LIGAND FREE ENERGY PREDICTED BY IDOCK:   -0.59 KCAL/MOL
REMARK 927      BINDING AFFINITY PREDICTED BY RF-SCORE:    0.00 PKD
ROOT
HETATM    1  N   UNL     1     -10.930  13.648  69.214  1.00  0.00    -0.408 NA 
HETATM    2  H2  UNL     1     -10.808  12.689  69.539  1.00  0.00     0.000 HD 
HETATM    3  C   UNL     1     -10.882  13.748  67.760  1.00  0.00    -0.250 C  
HETATM    4  H1  UNL     1     -10.244  14.283  69.624  1.00  0.00     0.000 HD 
ENDROOT
BRANCH   3   5
HETATM    5  C   UNL     1     -11.909  12.797  67.146  1.00  0.00    -0.415 C  
BRANCH   5   6
HETATM    6  C   UNL     1     -11.245  11.523  66.602  1.00  0.00    -0.336 C  
BRANCH   6   7
HETATM    7  CA  UNL     1     -11.212  10.358  67.601  1.00  0.00    -0.213 C  
HETATM    8  N   UNL     1     -12.187  10.554  68.711  1.00  0.00    -0.780 NA 
HETATM    9  C   UNL     1      -9.807  10.204  68.201  1.00  0.00    -0.144 C  
HETATM   10  OXT UNL     1      -8.850   9.706  67.631  1.00  0.00    -0.125 OA 
HETATM   11  O   UNL     1      -9.746  10.735  69.451  1.00  0.00    -0.173 OA 
HETATM   12  H1  UNL     1     -12.166   9.779  69.375  1.00  0.00     0.000 HD 
HETATM   13  H2  UNL     1     -13.130  10.711  68.354  1.00  0.00     0.000 HD 
ENDBRANCH   6   7
ENDBRANCH   5   6
ENDBRANCH   3   5
TORSDOF 3
ENDMDL
MODEL      105
REMARK 921   NORMALIZED FREE ENERGY PREDICTED BY IDOCK:   -2.47 KCAL/MOL
REMARK 922        TOTAL FREE ENERGY PREDICTED BY IDOCK:   -3.36 KCAL/MOL
REMARK 923 INTER-LIGAND FREE ENERGY PREDICTED BY IDOCK:   -3.29 KCAL/MOL
REMARK 924 INTRA-LIGAND FREE ENERGY PREDICTED BY IDOCK:   -0.07 KCAL/MOL
REMARK 927      BINDING AFFINITY PREDICTED BY RF-SCORE:    0.00 PKD
ROOT
HETATM    1  N   UNL     1     -11.557  14.271  71.203  1.00  0.00    -0.490 NA 
HETATM    2  H2  UNL     1     -10.974  13.435  71.234  1.00  0.00     0.000 HD 
HETATM    3  C   UNL     1     -11.204  15.147  70.092  1.00  0.00    -0.273 C  
HETATM    4  H1  UNL     1     -11.524  14.795  72.078  1.00  0.00     0.000 HD 
ENDROOT
BRANCH   3   5
HETATM    5  C   UNL     1     -11.255  14.361  68.782  1.00  0.00    -0.282 C  
BRANCH   5   6
HETATM    6  C   UNL     1     -11.587  15.271  67.590  1.00  0.00    -0.249 C  
BRANCH   6   7
HETATM    7  CA  UNL     1     -10.860  14.893  66.291  1.00  0.00    -0.331 C  
HETATM    8  N   UNL     1      -9.870  13.800  66.510  1.00  0.00    -0.282 NA 
HETATM    9  C   UNL     1     -10.128  16.112  65.711  1.00  0.00    -0.363 C  
HETATM   10  OXT UNL     1     -10.661  17.032  65.112  1.00  0.00    -0.688 OA 
HETATM   11  O   UNL     1      -8.797  16.061  65.984  1.00  0.00    -0.333 OA 
HETATM   12  H1  UNL     1      -9.387  13.548  65.647  1.00  0.00     0.000 HD 
HETATM   13  H2  UNL     1     -10.306  12.985  66.943  1.00  0.00     0.000 HD 
ENDBRANCH   6   7
ENDBRANCH   5   6
ENDBRANCH   3   5
TORSDOF 3
ENDMDL
MODEL      106
REMARK 921   NORMALIZED FREE ENERGY PREDICTED BY IDOCK:   -2.47 KCAL/MOL
REMARK 922        TOTAL FREE ENERGY PREDICTED BY IDOCK:   -3.36 KCAL/MOL
REMARK 923 INTER-LIGAND FREE ENERGY PREDICTED BY IDOCK:   -3.30 KCAL/MOL
REMARK 924 INTRA-LIGAND FREE ENERGY PREDICTED BY IDOCK:   -0.06 KCAL/MOL
REMARK 927      BINDING AFFINITY PREDICTED BY RF-SCORE:    0.00 PKD
ROOT
HETATM    1  N   UNL     1      -9.074  20.290  66.087  1.00  0.00    -0.604 NA 
HETATM    2  H2  UNL     1      -8.735  19.474  65.579  1.00  0.00     0.000 HD 
HETATM    3  C   UNL     1     -10.134  19.950  67.030  1.00  0.00    -0.446 C  
HETATM    4  H1  UNL     1      -9.397  21.027  65.459  1.00  0.00     0.000 HD 
ENDROOT
BRANCH   3   5
HETATM    5  C   UNL     1      -9.650  18.846  67.969  1.00  0.00    -0.368 C  
BRANCH   5   6
HETATM    6  C   UNL     1      -9.959  17.450  67.408  1.00  0.00    -0.305 C  
BRANCH   6   7
HETATM    7  CA  UNL     1     -11.030  16.681  68.194  1.00  0.00    -0.327 C  
HETATM    8  N   UNL     1     -10.886  16.880  69.664  1.00  0.00    -0.381 NA 
HETATM    9  C   UNL     1     -10.946  15.178  67.888  1.00  0.00    -0.302 C  
HETATM   10  OXT UNL     1     -11.350  14.644  66.869  1.00  0.00    -0.337 OA 
HETATM   11  O   UNL     1     -10.319  14.508  68.892  1.00  0.00    -0.233 OA 
HETATM   12  H1  UNL     1     -11.599  16.369  70.186  1.00  0.00     0.000 HD 
HETATM   13  H2  UNL     1     -10.886  17.871  69.907  1.00  0.00     0.000 HD 
ENDBRANCH   6   7
ENDBRANCH   5   6
ENDBRANCH   3   5
TORSDOF 3
ENDMDL
MODEL      107
REMARK 921   NORMALIZED FREE ENERGY PREDICTED BY IDOCK:   -2.46 KCAL/MOL
REMARK 922        TOTAL FREE ENERGY PREDICTED BY IDOCK:   -3.35 KCAL/MOL
REMARK 923 INTER-LIGAND FREE ENERGY PREDICTED BY IDOCK:   -3.35 KCAL/MOL
REMARK 924 INTRA-LIGAND FREE ENERGY PREDICTED BY IDOCK:   -0.00 KCAL/MOL
REMARK 927      BINDING AFFINITY PREDICTED BY RF-SCORE:    0.00 PKD
ROOT
HETATM    1  N   UNL     1     -12.716  15.891  70.175  1.00  0.00    -0.626 NA 
HETATM    2  H2  UNL     1     -13.048  15.127  69.587  1.00  0.00     0.000 HD 
HETATM    3  C   UNL     1     -11.295  16.155  69.984  1.00  0.00    -0.328 C  
HETATM    4  H1  UNL     1     -12.905  15.726  71.164  1.00  0.00     0.000 HD 
ENDROOT
BRANCH   3   5
HETATM    5  C   UNL     1     -11.013  16.404  68.503  1.00  0.00    -0.350 C  
BRANCH   5   6
HETATM    6  C   UNL     1      -9.881  17.423  68.306  1.00  0.00    -0.310 C  
BRANCH   6   7
HETATM    7  CA  UNL     1      -9.339  17.490  66.871  1.00  0.00    -0.269 C  
HETATM    8  N   UNL     1     -10.355  18.027  65.922  1.00  0.00    -0.591 NA 
HETATM    9  C   UNL     1      -8.908  16.094  66.394  1.00  0.00    -0.320 C  
HETATM   10  OXT UNL     1      -7.882  15.525  66.726  1.00  0.00    -0.217 OA 
HETATM   11  O   UNL     1      -9.844  15.545  65.576  1.00  0.00    -0.337 OA 
HETATM   12  H1  UNL     1      -9.995  18.072  64.968  1.00  0.00     0.000 HD 
HETATM   13  H2  UNL     1     -10.708  18.934  66.229  1.00  0.00     0.000 HD 
ENDBRANCH   6   7
ENDBRANCH   5   6
ENDBRANCH   3   5
TORSDOF 3
ENDMDL
MODEL      108
REMARK 921   NORMALIZED FREE ENERGY PREDICTED BY IDOCK:   -2.46 KCAL/MOL
REMARK 922        TOTAL FREE ENERGY PREDICTED BY IDOCK:   -3.34 KCAL/MOL
REMARK 923 INTER-LIGAND FREE ENERGY PREDICTED BY IDOCK:   -3.25 KCAL/MOL
REMARK 924 INTRA-LIGAND FREE ENERGY PREDICTED BY IDOCK:   -0.09 KCAL/MOL
REMARK 927      BINDING AFFINITY PREDICTED BY RF-SCORE:    0.00 PKD
ROOT
HETATM    1  N   UNL     1      -7.836  18.488  68.736  1.00  0.00    -0.303 NA 
HETATM    2  H2  UNL     1      -7.749  17.927  69.583  1.00  0.00     0.000 HD 
HETATM    3  C   UNL     1      -8.988  18.096  67.932  1.00  0.00    -0.269 C  
HETATM    4  H1  UNL     1      -6.992  18.456  68.164  1.00  0.00     0.000 HD 
ENDROOT
BRANCH   3   5
HETATM    5  C   UNL     1     -10.253  18.145  68.788  1.00  0.00    -0.353 C  
BRANCH   5   6
HETATM    6  C   UNL     1     -11.015  16.811  68.747  1.00  0.00    -0.275 C  
BRANCH   6   7
HETATM    7  CA  UNL     1     -10.891  15.979  70.031  1.00  0.00    -0.353 C  
HETATM    8  N   UNL     1      -9.831  14.938  69.916  1.00  0.00    -0.456 NA 
HETATM    9  C   UNL     1     -12.226  15.289  70.354  1.00  0.00    -0.363 C  
HETATM   10  OXT UNL     1     -13.202  15.839  70.837  1.00  0.00    -0.560 OA 
HETATM   11  O   UNL     1     -12.200  13.979  69.995  1.00  0.00    -0.320 OA 
HETATM   12  H1  UNL     1      -9.748  14.385  70.769  1.00  0.00     0.000 HD 
HETATM   13  H2  UNL     1      -8.935  15.348  69.650  1.00  0.00     0.000 HD 
ENDBRANCH   6   7
ENDBRANCH   5   6
ENDBRANCH   3   5
TORSDOF 3
ENDMDL
MODEL      109
REMARK 921   NORMALIZED FREE ENERGY PREDICTED BY IDOCK:   -2.45 KCAL/MOL
REMARK 922        TOTAL FREE ENERGY PREDICTED BY IDOCK:   -3.33 KCAL/MOL
REMARK 923 INTER-LIGAND FREE ENERGY PREDICTED BY IDOCK:   -3.60 KCAL/MOL
REMARK 924 INTRA-LIGAND FREE ENERGY PREDICTED BY IDOCK:    0.26 KCAL/MOL
REMARK 927      BINDING AFFINITY PREDICTED BY RF-SCORE:    0.00 PKD
ROOT
HETATM    1  N   UNL     1     -10.552  11.064  69.486  1.00  0.00    -0.409 NA 
HETATM    2  H2  UNL     1     -10.123  10.166  69.708  1.00  0.00     0.000 HD 
HETATM    3  C   UNL     1     -12.004  11.028  69.614  1.00  0.00    -0.353 C  
HETATM    4  H1  UNL     1     -10.298  11.391  68.553  1.00  0.00     0.000 HD 
ENDROOT
BRANCH   3   5
HETATM    5  C   UNL     1     -12.384  10.539  71.011  1.00  0.00    -0.503 C  
BRANCH   5   6
HETATM    6  C   UNL     1     -11.431   9.438  71.503  1.00  0.00    -0.467 C  
BRANCH   6   7
HETATM    7  CA  UNL     1     -12.134   8.268  72.205  1.00  0.00    -0.367 C  
HETATM    8  N   UNL     1     -11.747   6.956  71.615  1.00  0.00    -0.286 NA 
HETATM    9  C   UNL     1     -13.660   8.421  72.107  1.00  0.00    -0.323 C  
HETATM   10  OXT UNL     1     -14.333   9.190  72.773  1.00  0.00    -0.563 OA 
HETATM   11  O   UNL     1     -14.173   7.612  71.143  1.00  0.00    -0.324 OA 
HETATM   12  H1  UNL     1     -12.214   6.178  72.081  1.00  0.00     0.000 HD 
HETATM   13  H2  UNL     1     -10.734   6.833  71.613  1.00  0.00     0.000 HD 
ENDBRANCH   6   7
ENDBRANCH   5   6
ENDBRANCH   3   5
TORSDOF 3
ENDMDL
MODEL      110
REMARK 921   NORMALIZED FREE ENERGY PREDICTED BY IDOCK:   -2.45 KCAL/MOL
REMARK 922        TOTAL FREE ENERGY PREDICTED BY IDOCK:   -3.33 KCAL/MOL
REMARK 923 INTER-LIGAND FREE ENERGY PREDICTED BY IDOCK:   -3.29 KCAL/MOL
REMARK 924 INTRA-LIGAND FREE ENERGY PREDICTED BY IDOCK:   -0.04 KCAL/MOL
REMARK 927      BINDING AFFINITY PREDICTED BY RF-SCORE:    0.00 PKD
ROOT
HETATM    1  N   UNL     1     -13.817  14.264  71.460  1.00  0.00    -0.372 NA 
HETATM    2  H2  UNL     1     -14.374  13.411  71.514  1.00  0.00     0.000 HD 
HETATM    3  C   UNL     1     -12.388  13.984  71.385  1.00  0.00    -0.326 C  
HETATM    4  H1  UNL     1     -14.002  14.895  72.240  1.00  0.00     0.000 HD 
ENDROOT
BRANCH   3   5
HETATM    5  C   UNL     1     -12.110  13.040  70.216  1.00  0.00    -0.388 C  
BRANCH   5   6
HETATM    6  C   UNL     1     -12.232  11.567  70.638  1.00  0.00    -0.473 C  
BRANCH   6   7
HETATM    7  CA  UNL     1     -11.271  10.623  69.902  1.00  0.00    -0.308 C  
HETATM    8  N   UNL     1     -11.801  10.225  68.567  1.00  0.00    -0.710 NA 
HETATM    9  C   UNL     1     -11.024   9.354  70.733  1.00  0.00    -0.304 C  
HETATM   10  OXT UNL     1     -10.298   9.285  71.711  1.00  0.00    -0.328 OA 
HETATM   11  O   UNL     1     -11.754   8.309  70.261  1.00  0.00    -0.085 OA 
HETATM   12  H1  UNL     1     -11.162   9.597  68.078  1.00  0.00     0.000 HD 
HETATM   13  H2  UNL     1     -12.028  11.041  67.999  1.00  0.00     0.000 HD 
ENDBRANCH   6   7
ENDBRANCH   5   6
ENDBRANCH   3   5
TORSDOF 3
ENDMDL
MODEL      111
REMARK 921   NORMALIZED FREE ENERGY PREDICTED BY IDOCK:   -2.42 KCAL/MOL
REMARK 922        TOTAL FREE ENERGY PREDICTED BY IDOCK:   -3.31 KCAL/MOL
REMARK 923 INTER-LIGAND FREE ENERGY PREDICTED BY IDOCK:   -3.09 KCAL/MOL
REMARK 924 INTRA-LIGAND FREE ENERGY PREDICTED BY IDOCK:   -0.21 KCAL/MOL
REMARK 927      BINDING AFFINITY PREDICTED BY RF-SCORE:    0.00 PKD
ROOT
HETATM    1  N   UNL     1      -6.624  19.984  69.607  1.00  0.00    -0.332 NA 
HETATM    2  H2  UNL     1      -6.289  19.158  70.103  1.00  0.00     0.000 HD 
HETATM    3  C   UNL     1      -6.207  19.993  68.209  1.00  0.00    -0.265 C  
HETATM    4  H1  UNL     1      -6.328  20.850  70.058  1.00  0.00     0.000 HD 
ENDROOT
BRANCH   3   5
HETATM    5  C   UNL     1      -6.650  18.696  67.533  1.00  0.00    -0.198 C  
BRANCH   5   6
HETATM    6  C   UNL     1      -7.886  18.094  68.220  1.00  0.00    -0.301 C  
BRANCH   6   7
HETATM    7  CA  UNL     1      -9.214  18.434  67.529  1.00  0.00    -0.272 C  
HETATM    8  N   UNL     1      -9.048  18.585  66.056  1.00  0.00    -0.488 NA 
HETATM    9  C   UNL     1      -9.796  19.738  68.096  1.00  0.00    -0.424 C  
HETATM   10  OXT UNL     1     -10.360  19.846  69.172  1.00  0.00    -0.356 OA 
HETATM   11  O   UNL     1      -9.568  20.782  67.256  1.00  0.00    -0.457 OA 
HETATM   12  H1  UNL     1      -9.931  18.810  65.596  1.00  0.00     0.000 HD 
HETATM   13  H2  UNL     1      -8.615  17.758  65.644  1.00  0.00     0.000 HD 
ENDBRANCH   6   7
ENDBRANCH   5   6
ENDBRANCH   3   5
TORSDOF 3
ENDMDL
MODEL      112
REMARK 921   NORMALIZED FREE ENERGY PREDICTED BY IDOCK:   -2.40 KCAL/MOL
REMARK 922        TOTAL FREE ENERGY PREDICTED BY IDOCK:   -3.28 KCAL/MOL
REMARK 923 INTER-LIGAND FREE ENERGY PREDICTED BY IDOCK:   -2.86 KCAL/MOL
REMARK 924 INTRA-LIGAND FREE ENERGY PREDICTED BY IDOCK:   -0.43 KCAL/MOL
REMARK 927      BINDING AFFINITY PREDICTED BY RF-SCORE:    0.00 PKD
ROOT
HETATM    1  N   UNL     1     -10.289  17.213  69.165  1.00  0.00    -0.317 NA 
HETATM    2  H2  UNL     1     -10.254  17.518  68.193  1.00  0.00     0.000 HD 
HETATM    3  C   UNL     1     -10.161  15.766  69.292  1.00  0.00    -0.255 C  
HETATM    4  H1  UNL     1     -11.138  17.525  69.637  1.00  0.00     0.000 HD 
ENDROOT
BRANCH   3   5
HETATM    5  C   UNL     1      -8.889  15.298  68.585  1.00  0.00    -0.188 C  
BRANCH   5   6
HETATM    6  C   UNL     1      -9.128  15.068  67.085  1.00  0.00    -0.229 C  
BRANCH   6   7
HETATM    7  CA  UNL     1      -8.870  16.304  66.212  1.00  0.00    -0.331 C  
HETATM    8  N   UNL     1      -8.089  17.343  66.942  1.00  0.00    -0.214 NA 
HETATM    9  C   UNL     1     -10.199  16.921  65.750  1.00  0.00    -0.268 C  
HETATM   10  OXT UNL     1     -10.908  16.477  64.862  1.00  0.00    -0.684 OA 
HETATM   11  O   UNL     1     -10.513  18.019  66.488  1.00  0.00    -0.368 OA 
HETATM   12  H1  UNL     1      -7.917  18.165  66.362  1.00  0.00     0.000 HD 
HETATM   13  H2  UNL     1      -7.218  16.962  67.313  1.00  0.00     0.000 HD 
ENDBRANCH   6   7
ENDBRANCH   5   6
ENDBRANCH   3   5
TORSDOF 3
ENDMDL
MODEL      113
REMARK 921   NORMALIZED FREE ENERGY PREDICTED BY IDOCK:   -2.40 KCAL/MOL
REMARK 922        TOTAL FREE ENERGY PREDICTED BY IDOCK:   -3.28 KCAL/MOL
REMARK 923 INTER-LIGAND FREE ENERGY PREDICTED BY IDOCK:   -3.00 KCAL/MOL
REMARK 924 INTRA-LIGAND FREE ENERGY PREDICTED BY IDOCK:   -0.28 KCAL/MOL
REMARK 927      BINDING AFFINITY PREDICTED BY RF-SCORE:    0.00 PKD
ROOT
HETATM    1  N   UNL     1      -9.769  20.411  66.048  1.00  0.00    -0.666 NA 
HETATM    2  H2  UNL     1      -9.861  20.055  65.097  1.00  0.00     0.000 HD 
HETATM    3  C   UNL     1     -10.552  19.635  67.004  1.00  0.00    -0.480 C  
HETATM    4  H1  UNL     1     -10.024  21.397  66.117  1.00  0.00     0.000 HD 
ENDROOT
BRANCH   3   5
HETATM    5  C   UNL     1     -10.170  18.159  66.902  1.00  0.00    -0.380 C  
BRANCH   5   6
HETATM    6  C   UNL     1      -9.049  17.796  67.888  1.00  0.00    -0.259 C  
BRANCH   6   7
HETATM    7  CA  UNL     1      -7.643  17.817  67.273  1.00  0.00    -0.201 C  
HETATM    8  N   UNL     1      -7.691  17.851  65.784  1.00  0.00    -0.551 NA 
HETATM    9  C   UNL     1      -6.845  16.580  67.712  1.00  0.00    -0.140 C  
HETATM   10  OXT UNL     1      -6.334  16.427  68.809  1.00  0.00    -0.126 OA 
HETATM   11  O   UNL     1      -6.812  15.643  66.728  1.00  0.00    -0.203 OA 
HETATM   12  H1  UNL     1      -6.756  17.866  65.375  1.00  0.00     0.000 HD 
HETATM   13  H2  UNL     1      -8.256  18.632  65.447  1.00  0.00     0.000 HD 
ENDBRANCH   6   7
ENDBRANCH   5   6
ENDBRANCH   3   5
TORSDOF 3
ENDMDL
MODEL      114
REMARK 921   NORMALIZED FREE ENERGY PREDICTED BY IDOCK:   -2.40 KCAL/MOL
REMARK 922        TOTAL FREE ENERGY PREDICTED BY IDOCK:   -3.28 KCAL/MOL
REMARK 923 INTER-LIGAND FREE ENERGY PREDICTED BY IDOCK:   -3.23 KCAL/MOL
REMARK 924 INTRA-LIGAND FREE ENERGY PREDICTED BY IDOCK:   -0.04 KCAL/MOL
REMARK 927      BINDING AFFINITY PREDICTED BY RF-SCORE:    0.00 PKD
ROOT
HETATM    1  N   UNL     1      -8.852  14.545  66.341  1.00  0.00    -0.475 NA 
HETATM    2  H2  UNL     1      -9.102  14.554  65.353  1.00  0.00     0.000 HD 
HETATM    3  C   UNL     1      -9.634  15.502  67.116  1.00  0.00    -0.222 C  
HETATM    4  H1  UNL     1      -7.857  14.718  66.488  1.00  0.00     0.000 HD 
ENDROOT
BRANCH   3   5
HETATM    5  C   UNL     1     -11.124  15.243  66.897  1.00  0.00    -0.288 C  
BRANCH   5   6
HETATM    6  C   UNL     1     -11.845  14.935  68.219  1.00  0.00    -0.308 C  
BRANCH   6   7
HETATM    7  CA  UNL     1     -12.005  13.436  68.510  1.00  0.00    -0.328 C  
HETATM    8  N   UNL     1     -11.154  13.002  69.655  1.00  0.00    -0.468 NA 
HETATM    9  C   UNL     1     -11.629  12.605  67.274  1.00  0.00    -0.364 C  
HETATM   10  OXT UNL     1     -12.330  12.460  66.286  1.00  0.00    -0.577 OA 
HETATM   11  O   UNL     1     -10.384  12.075  67.399  1.00  0.00    -0.204 OA 
HETATM   12  H1  UNL     1     -11.261  12.006  69.849  1.00  0.00     0.000 HD 
HETATM   13  H2  UNL     1     -11.335  13.564  70.487  1.00  0.00     0.000 HD 
ENDBRANCH   6   7
ENDBRANCH   5   6
ENDBRANCH   3   5
TORSDOF 3
ENDMDL
MODEL      115
REMARK 921   NORMALIZED FREE ENERGY PREDICTED BY IDOCK:   -2.40 KCAL/MOL
REMARK 922        TOTAL FREE ENERGY PREDICTED BY IDOCK:   -3.28 KCAL/MOL
REMARK 923 INTER-LIGAND FREE ENERGY PREDICTED BY IDOCK:   -3.21 KCAL/MOL
REMARK 924 INTRA-LIGAND FREE ENERGY PREDICTED BY IDOCK:   -0.06 KCAL/MOL
REMARK 927      BINDING AFFINITY PREDICTED BY RF-SCORE:    0.00 PKD
ROOT
HETATM    1  N   UNL     1     -13.148  11.622  71.848  1.00  0.00    -0.455 NA 
HETATM    2  H2  UNL     1     -13.557  11.979  70.984  1.00  0.00     0.000 HD 
HETATM    3  C   UNL     1     -12.670  10.252  71.703  1.00  0.00    -0.456 C  
HETATM    4  H1  UNL     1     -13.798  11.677  72.632  1.00  0.00     0.000 HD 
ENDROOT
BRANCH   3   5
HETATM    5  C   UNL     1     -11.696  10.169  70.528  1.00  0.00    -0.407 C  
BRANCH   5   6
HETATM    6  C   UNL     1     -12.069  11.161  69.415  1.00  0.00    -0.396 C  
BRANCH   6   7
HETATM    7  CA  UNL     1     -10.937  11.433  68.414  1.00  0.00    -0.215 C  
HETATM    8  N   UNL     1      -9.603  11.445  69.078  1.00  0.00    -0.408 NA 
HETATM    9  C   UNL     1     -11.152  12.785  67.716  1.00  0.00    -0.253 C  
HETATM   10  OXT UNL     1     -11.955  12.994  66.822  1.00  0.00    -0.391 OA 
HETATM   11  O   UNL     1     -10.352  13.746  68.250  1.00  0.00    -0.234 OA 
HETATM   12  H1  UNL     1      -8.851  11.626  68.413  1.00  0.00     0.000 HD 
HETATM   13  H2  UNL     1      -9.439  10.582  69.599  1.00  0.00     0.000 HD 
ENDBRANCH   6   7
ENDBRANCH   5   6
ENDBRANCH   3   5
TORSDOF 3
ENDMDL
MODEL      116
REMARK 921   NORMALIZED FREE ENERGY PREDICTED BY IDOCK:   -2.38 KCAL/MOL
REMARK 922        TOTAL FREE ENERGY PREDICTED BY IDOCK:   -3.26 KCAL/MOL
REMARK 923 INTER-LIGAND FREE ENERGY PREDICTED BY IDOCK:   -3.19 KCAL/MOL
REMARK 924 INTRA-LIGAND FREE ENERGY PREDICTED BY IDOCK:   -0.06 KCAL/MOL
REMARK 927      BINDING AFFINITY PREDICTED BY RF-SCORE:    0.00 PKD
ROOT
HETATM    1  N   UNL     1     -13.639   9.039  73.059  1.00  0.00    -0.974 NA 
HETATM    2  H2  UNL     1     -13.070   9.741  73.530  1.00  0.00     0.000 HD 
HETATM    3  C   UNL     1     -13.002   8.537  71.847  1.00  0.00    -0.362 C  
HETATM    4  H1  UNL     1     -14.573   9.385  72.837  1.00  0.00     0.000 HD 
ENDROOT
BRANCH   3   5
HETATM    5  C   UNL     1     -11.604   8.017  72.179  1.00  0.00    -0.399 C  
BRANCH   5   6
HETATM    6  C   UNL     1     -10.522   8.751  71.372  1.00  0.00    -0.354 C  
BRANCH   6   7
HETATM    7  CA  UNL     1     -10.762   8.749  69.856  1.00  0.00    -0.223 C  
HETATM    8  N   UNL     1     -10.794   7.365  69.303  1.00  0.00    -0.373 NA 
HETATM    9  C   UNL     1      -9.660   9.542  69.136  1.00  0.00    -0.170 C  
HETATM   10  OXT UNL     1      -9.583  10.759  69.095  1.00  0.00    -0.204 OA 
HETATM   11  O   UNL     1      -8.743   8.709  68.575  1.00  0.00    -0.137 OA 
HETATM   12  H1  UNL     1     -10.954   7.364  68.295  1.00  0.00     0.000 HD 
HETATM   13  H2  UNL     1     -11.480   6.786  69.788  1.00  0.00     0.000 HD 
ENDBRANCH   6   7
ENDBRANCH   5   6
ENDBRANCH   3   5
TORSDOF 3
ENDMDL
MODEL      117
REMARK 921   NORMALIZED FREE ENERGY PREDICTED BY IDOCK:   -2.37 KCAL/MOL
REMARK 922        TOTAL FREE ENERGY PREDICTED BY IDOCK:   -3.24 KCAL/MOL
REMARK 923 INTER-LIGAND FREE ENERGY PREDICTED BY IDOCK:   -3.14 KCAL/MOL
REMARK 924 INTRA-LIGAND FREE ENERGY PREDICTED BY IDOCK:   -0.10 KCAL/MOL
REMARK 927      BINDING AFFINITY PREDICTED BY RF-SCORE:    0.00 PKD
ROOT
HETATM    1  N   UNL     1     -10.266   8.410  68.370  1.00  0.00    -0.202 NA 
HETATM    2  H2  UNL     1     -11.031   8.648  67.739  1.00  0.00     0.000 HD 
HETATM    3  C   UNL     1      -9.794   9.566  69.124  1.00  0.00    -0.176 C  
HETATM    4  H1  UNL     1      -9.483   7.977  67.880  1.00  0.00     0.000 HD 
ENDROOT
BRANCH   3   5
HETATM    5  C   UNL     1     -10.966  10.214  69.858  1.00  0.00    -0.344 C  
BRANCH   5   6
HETATM    6  C   UNL     1     -11.798  11.104  68.922  1.00  0.00    -0.406 C  
BRANCH   6   7
HETATM    7  CA  UNL     1     -10.975  12.151  68.158  1.00  0.00    -0.230 C  
HETATM    8  N   UNL     1     -10.370  13.157  69.076  1.00  0.00    -0.436 NA 
HETATM    9  C   UNL     1     -11.855  12.884  67.134  1.00  0.00    -0.362 C  
HETATM   10  OXT UNL     1     -12.216  12.427  66.063  1.00  0.00    -0.636 OA 
HETATM   11  O   UNL     1     -12.222  14.111  67.592  1.00  0.00    -0.351 OA 
HETATM   12  H1  UNL     1      -9.822  13.852  68.569  1.00  0.00     0.000 HD 
HETATM   13  H2  UNL     1      -9.816  12.708  69.806  1.00  0.00     0.000 HD 
ENDBRANCH   6   7
ENDBRANCH   5   6
ENDBRANCH   3   5
TORSDOF 3
ENDMDL
MODEL      118
REMARK 921   NORMALIZED FREE ENERGY PREDICTED BY IDOCK:   -2.37 KCAL/MOL
REMARK 922        TOTAL FREE ENERGY PREDICTED BY IDOCK:   -3.24 KCAL/MOL
REMARK 923 INTER-LIGAND FREE ENERGY PREDICTED BY IDOCK:   -3.13 KCAL/MOL
REMARK 924 INTRA-LIGAND FREE ENERGY PREDICTED BY IDOCK:   -0.11 KCAL/MOL
REMARK 927      BINDING AFFINITY PREDICTED BY RF-SCORE:    0.00 PKD
ROOT
HETATM    1  N   UNL     1     -12.365  14.056  69.174  1.00  0.00    -0.486 NA 
HETATM    2  H2  UNL     1     -13.153  13.788  69.763  1.00  0.00     0.000 HD 
HETATM    3  C   UNL     1     -11.303  13.056  69.187  1.00  0.00    -0.273 C  
HETATM    4  H1  UNL     1     -11.983  14.966  69.432  1.00  0.00     0.000 HD 
ENDROOT
BRANCH   3   5
HETATM    5  C   UNL     1     -11.875  11.693  68.800  1.00  0.00    -0.387 C  
BRANCH   5   6
HETATM    6  C   UNL     1     -11.152  11.103  67.579  1.00  0.00    -0.353 C  
BRANCH   6   7
HETATM    7  CA  UNL     1     -10.889  12.117  66.457  1.00  0.00    -0.270 C  
HETATM    8  N   UNL     1     -12.154  12.709  65.937  1.00  0.00    -0.563 NA 
HETATM    9  C   UNL     1     -10.143  11.447  65.292  1.00  0.00    -0.268 C  
HETATM   10  OXT UNL     1      -8.955  11.172  65.284  1.00  0.00    -0.191 OA 
HETATM   11  O   UNL     1     -10.990  11.158  64.269  1.00  0.00    -0.341 OA 
HETATM   12  H1  UNL     1     -11.979  13.383  65.192  1.00  0.00     0.000 HD 
HETATM   13  H2  UNL     1     -12.708  13.121  66.689  1.00  0.00     0.000 HD 
ENDBRANCH   6   7
ENDBRANCH   5   6
ENDBRANCH   3   5
TORSDOF 3
ENDMDL
MODEL      119
REMARK 921   NORMALIZED FREE ENERGY PREDICTED BY IDOCK:   -2.36 KCAL/MOL
REMARK 922        TOTAL FREE ENERGY PREDICTED BY IDOCK:   -3.23 KCAL/MOL
REMARK 923 INTER-LIGAND FREE ENERGY PREDICTED BY IDOCK:   -3.15 KCAL/MOL
REMARK 924 INTRA-LIGAND FREE ENERGY PREDICTED BY IDOCK:   -0.08 KCAL/MOL
REMARK 927      BINDING AFFINITY PREDICTED BY RF-SCORE:    0.00 PKD
ROOT
HETATM    1  N   UNL     1     -14.272   9.231  72.845  1.00  0.00    -1.017 NA 
HETATM    2  H2  UNL     1     -14.021  10.155  73.195  1.00  0.00     0.000 HD 
HETATM    3  C   UNL     1     -13.326   8.745  71.847  1.00  0.00    -0.389 C  
HETATM    4  H1  UNL     1     -15.217   9.208  72.462  1.00  0.00     0.000 HD 
ENDROOT
BRANCH   3   5
HETATM    5  C   UNL     1     -11.910   8.780  72.421  1.00  0.00    -0.356 C  
BRANCH   5   6
HETATM    6  C   UNL     1     -10.850   8.622  71.320  1.00  0.00    -0.327 C  
BRANCH   6   7
HETATM    7  CA  UNL     1     -11.069   7.406  70.409  1.00  0.00    -0.265 C  
HETATM    8  N   UNL     1     -10.732   6.129  71.100  1.00  0.00    -0.246 NA 
HETATM    9  C   UNL     1     -10.208   7.522  69.142  1.00  0.00    -0.202 C  
HETATM   10  OXT UNL     1     -10.454   8.245  68.190  1.00  0.00    -0.211 OA 
HETATM   11  O   UNL     1      -9.101   6.739  69.227  1.00  0.00    -0.139 OA 
HETATM   12  H1  UNL     1     -10.878   5.321  70.495  1.00  0.00     0.000 HD 
HETATM   13  H2  UNL     1     -11.245   6.034  71.977  1.00  0.00     0.000 HD 
ENDBRANCH   6   7
ENDBRANCH   5   6
ENDBRANCH   3   5
TORSDOF 3
ENDMDL
MODEL      120
REMARK 921   NORMALIZED FREE ENERGY PREDICTED BY IDOCK:   -2.36 KCAL/MOL
REMARK 922        TOTAL FREE ENERGY PREDICTED BY IDOCK:   -3.23 KCAL/MOL
REMARK 923 INTER-LIGAND FREE ENERGY PREDICTED BY IDOCK:   -3.18 KCAL/MOL
REMARK 924 INTRA-LIGAND FREE ENERGY PREDICTED BY IDOCK:   -0.05 KCAL/MOL
REMARK 927      BINDING AFFINITY PREDICTED BY RF-SCORE:    0.00 PKD
ROOT
HETATM    1  N   UNL     1     -11.053   6.168  67.437  1.00  0.00    -0.509 NA 
HETATM    2  H2  UNL     1     -10.705   7.108  67.622  1.00  0.00     0.000 HD 
HETATM    3  C   UNL     1     -10.377   5.161  68.246  1.00  0.00    -0.070 C  
HETATM    4  H1  UNL     1     -10.982   5.919  66.450  1.00  0.00     0.000 HD 
ENDROOT
BRANCH   3   5
HETATM    5  C   UNL     1     -10.483   5.534  69.725  1.00  0.00    -0.389 C  
BRANCH   5   6
HETATM    6  C   UNL     1     -11.555   6.610  69.960  1.00  0.00    -0.423 C  
BRANCH   6   7
HETATM    7  CA  UNL     1     -11.603   7.142  71.399  1.00  0.00    -0.283 C  
HETATM    8  N   UNL     1     -12.547   6.360  72.247  1.00  0.00    -0.552 NA 
HETATM    9  C   UNL     1     -12.035   8.616  71.412  1.00  0.00    -0.304 C  
HETATM   10  OXT UNL     1     -11.321   9.560  71.116  1.00  0.00    -0.309 OA 
HETATM   11  O   UNL     1     -13.343   8.741  71.761  1.00  0.00    -0.340 OA 
HETATM   12  H1  UNL     1     -12.579   6.713  73.203  1.00  0.00     0.000 HD 
HETATM   13  H2  UNL     1     -12.327   5.363  72.226  1.00  0.00     0.000 HD 
ENDBRANCH   6   7
ENDBRANCH   5   6
ENDBRANCH   3   5
TORSDOF 3
ENDMDL
MODEL      121
REMARK 921   NORMALIZED FREE ENERGY PREDICTED BY IDOCK:   -2.35 KCAL/MOL
REMARK 922        TOTAL FREE ENERGY PREDICTED BY IDOCK:   -3.22 KCAL/MOL
REMARK 923 INTER-LIGAND FREE ENERGY PREDICTED BY IDOCK:   -2.90 KCAL/MOL
REMARK 924 INTRA-LIGAND FREE ENERGY PREDICTED BY IDOCK:   -0.32 KCAL/MOL
REMARK 927      BINDING AFFINITY PREDICTED BY RF-SCORE:    0.00 PKD
ROOT
HETATM    1  N   UNL     1      -8.424   7.473  70.920  1.00  0.00    -0.124 NA 
HETATM    2  H2  UNL     1      -9.090   7.190  70.201  1.00  0.00     0.000 HD 
HETATM    3  C   UNL     1      -8.870   8.655  71.648  1.00  0.00    -0.223 C  
HETATM    4  H1  UNL     1      -7.492   7.637  70.537  1.00  0.00     0.000 HD 
ENDROOT
BRANCH   3   5
HETATM    5  C   UNL     1     -10.265   8.409  72.221  1.00  0.00    -0.396 C  
BRANCH   5   6
HETATM    6  C   UNL     1     -11.329   8.353  71.113  1.00  0.00    -0.310 C  
BRANCH   6   7
HETATM    7  CA  UNL     1     -12.033   6.995  70.990  1.00  0.00    -0.361 C  
HETATM    8  N   UNL     1     -12.080   6.276  72.295  1.00  0.00    -0.501 NA 
HETATM    9  C   UNL     1     -11.313   6.107  69.963  1.00  0.00    -0.373 C  
HETATM   10  OXT UNL     1     -11.393   6.227  68.752  1.00  0.00    -0.356 OA 
HETATM   11  O   UNL     1     -10.532   5.180  70.579  1.00  0.00    -0.258 OA 
HETATM   12  H1  UNL     1     -12.549   5.373  72.213  1.00  0.00     0.000 HD 
HETATM   13  H2  UNL     1     -12.506   6.851  73.022  1.00  0.00     0.000 HD 
ENDBRANCH   6   7
ENDBRANCH   5   6
ENDBRANCH   3   5
TORSDOF 3
ENDMDL
MODEL      122
REMARK 921   NORMALIZED FREE ENERGY PREDICTED BY IDOCK:   -2.35 KCAL/MOL
REMARK 922        TOTAL FREE ENERGY PREDICTED BY IDOCK:   -3.22 KCAL/MOL
REMARK 923 INTER-LIGAND FREE ENERGY PREDICTED BY IDOCK:   -2.91 KCAL/MOL
REMARK 924 INTRA-LIGAND FREE ENERGY PREDICTED BY IDOCK:   -0.30 KCAL/MOL
REMARK 927      BINDING AFFINITY PREDICTED BY RF-SCORE:    0.00 PKD
ROOT
HETATM    1  N   UNL     1      -8.971  14.720  66.290  1.00  0.00    -0.485 NA 
HETATM    2  H2  UNL     1      -9.443  15.370  65.663  1.00  0.00     0.000 HD 
HETATM    3  C   UNL     1      -9.737  14.475  67.507  1.00  0.00    -0.211 C  
HETATM    4  H1  UNL     1      -8.031  15.035  66.534  1.00  0.00     0.000 HD 
ENDROOT
BRANCH   3   5
HETATM    5  C   UNL     1     -11.144  14.003  67.141  1.00  0.00    -0.313 C  
BRANCH   5   6
HETATM    6  C   UNL     1     -11.285  12.480  67.290  1.00  0.00    -0.347 C  
BRANCH   6   7
HETATM    7  CA  UNL     1     -10.908  11.689  66.029  1.00  0.00    -0.289 C  
HETATM    8  N   UNL     1      -9.462  11.329  66.014  1.00  0.00    -0.208 NA 
HETATM    9  C   UNL     1     -11.225  12.507  64.768  1.00  0.00    -0.306 C  
HETATM   10  OXT UNL     1     -12.339  12.670  64.298  1.00  0.00    -0.411 OA 
HETATM   11  O   UNL     1     -10.100  13.068  64.251  1.00  0.00    -0.342 OA 
HETATM   12  H1  UNL     1      -9.211  10.803  65.177  1.00  0.00     0.000 HD 
HETATM   13  H2  UNL     1      -9.195  10.827  66.862  1.00  0.00     0.000 HD 
ENDBRANCH   6   7
ENDBRANCH   5   6
ENDBRANCH   3   5
TORSDOF 3
ENDMDL
MODEL      123
REMARK 921   NORMALIZED FREE ENERGY PREDICTED BY IDOCK:   -2.34 KCAL/MOL
REMARK 922        TOTAL FREE ENERGY PREDICTED BY IDOCK:   -3.21 KCAL/MOL
REMARK 923 INTER-LIGAND FREE ENERGY PREDICTED BY IDOCK:   -3.10 KCAL/MOL
REMARK 924 INTRA-LIGAND FREE ENERGY PREDICTED BY IDOCK:   -0.10 KCAL/MOL
REMARK 927      BINDING AFFINITY PREDICTED BY RF-SCORE:    0.00 PKD
ROOT
HETATM    1  N   UNL     1     -12.104  10.830  68.671  1.00  0.00    -0.816 NA 
HETATM    2  H2  UNL     1     -11.655  10.654  67.772  1.00  0.00     0.000 HD 
HETATM    3  C   UNL     1     -11.660  12.084  69.270  1.00  0.00    -0.321 C  
HETATM    4  H1  UNL     1     -11.959  10.065  69.330  1.00  0.00     0.000 HD 
ENDROOT
BRANCH   3   5
HETATM    5  C   UNL     1     -11.877  13.230  68.284  1.00  0.00    -0.389 C  
BRANCH   5   6
HETATM    6  C   UNL     1     -10.543  13.817  67.797  1.00  0.00    -0.250 C  
BRANCH   6   7
HETATM    7  CA  UNL     1     -10.438  15.341  67.946  1.00  0.00    -0.253 C  
HETATM    8  N   UNL     1      -9.533  15.936  66.922  1.00  0.00    -0.220 NA 
HETATM    9  C   UNL     1      -9.912  15.710  69.342  1.00  0.00    -0.279 C  
HETATM   10  OXT UNL     1     -10.568  15.683  70.370  1.00  0.00    -0.322 OA 
HETATM   11  O   UNL     1      -8.593  16.038  69.298  1.00  0.00    -0.251 OA 
HETATM   12  H1  UNL     1      -9.463  16.949  67.020  1.00  0.00     0.000 HD 
HETATM   13  H2  UNL     1      -9.817  15.673  65.977  1.00  0.00     0.000 HD 
ENDBRANCH   6   7
ENDBRANCH   5   6
ENDBRANCH   3   5
TORSDOF 3
ENDMDL
MODEL      124
REMARK 921   NORMALIZED FREE ENERGY PREDICTED BY IDOCK:   -2.32 KCAL/MOL
REMARK 922        TOTAL FREE ENERGY PREDICTED BY IDOCK:   -3.18 KCAL/MOL
REMARK 923 INTER-LIGAND FREE ENERGY PREDICTED BY IDOCK:   -2.88 KCAL/MOL
REMARK 924 INTRA-LIGAND FREE ENERGY PREDICTED BY IDOCK:   -0.30 KCAL/MOL
REMARK 927      BINDING AFFINITY PREDICTED BY RF-SCORE:    0.00 PKD
ROOT
HETATM    1  N   UNL     1     -10.130  20.110  67.828  1.00  0.00    -0.411 NA 
HETATM    2  H2  UNL     1      -9.893  20.769  67.087  1.00  0.00     0.000 HD 
HETATM    3  C   UNL     1     -10.676  18.864  67.303  1.00  0.00    -0.449 C  
HETATM    4  H1  UNL     1     -10.778  20.511  68.506  1.00  0.00     0.000 HD 
ENDROOT
BRANCH   3   5
HETATM    5  C   UNL     1      -9.704  18.264  66.288  1.00  0.00    -0.293 C  
BRANCH   5   6
HETATM    6  C   UNL     1      -8.582  17.474  66.979  1.00  0.00    -0.251 C  
BRANCH   6   7
HETATM    7  CA  UNL     1      -7.305  18.288  67.230  1.00  0.00    -0.208 C  
HETATM    8  N   UNL     1      -7.449  19.194  68.405  1.00  0.00    -0.294 NA 
HETATM    9  C   UNL     1      -6.956  19.134  65.996  1.00  0.00    -0.256 C  
HETATM   10  OXT UNL     1      -6.449  18.706  64.972  1.00  0.00    -0.468 OA 
HETATM   11  O   UNL     1      -7.323  20.431  66.170  1.00  0.00    -0.252 OA 
HETATM   12  H1  UNL     1      -6.600  19.735  68.572  1.00  0.00     0.000 HD 
HETATM   13  H2  UNL     1      -7.731  18.679  69.239  1.00  0.00     0.000 HD 
ENDBRANCH   6   7
ENDBRANCH   5   6
ENDBRANCH   3   5
TORSDOF 3
ENDMDL
MODEL      125
REMARK 921   NORMALIZED FREE ENERGY PREDICTED BY IDOCK:   -2.30 KCAL/MOL
REMARK 922        TOTAL FREE ENERGY PREDICTED BY IDOCK:   -3.16 KCAL/MOL
REMARK 923 INTER-LIGAND FREE ENERGY PREDICTED BY IDOCK:   -3.07 KCAL/MOL
REMARK 924 INTRA-LIGAND FREE ENERGY PREDICTED BY IDOCK:   -0.09 KCAL/MOL
REMARK 927      BINDING AFFINITY PREDICTED BY RF-SCORE:    0.00 PKD
ROOT
HETATM    1  N   UNL     1     -10.130   4.604  71.651  1.00  0.00    -0.194 NA 
HETATM    2  H2  UNL     1      -9.123   4.734  71.744  1.00  0.00     0.000 HD 
HETATM    3  C   UNL     1     -10.883   5.529  72.490  1.00  0.00    -0.252 C  
HETATM    4  H1  UNL     1     -10.415   3.646  71.856  1.00  0.00     0.000 HD 
ENDROOT
BRANCH   3   5
HETATM    5  C   UNL     1     -10.457   6.964  72.182  1.00  0.00    -0.230 C  
BRANCH   5   6
HETATM    6  C   UNL     1     -11.570   7.968  72.519  1.00  0.00    -0.464 C  
BRANCH   6   7
HETATM    7  CA  UNL     1     -12.307   8.522  71.291  1.00  0.00    -0.271 C  
HETATM    8  N   UNL     1     -11.641   8.121  70.020  1.00  0.00    -0.456 NA 
HETATM    9  C   UNL     1     -12.372  10.056  71.351  1.00  0.00    -0.415 C  
HETATM   10  OXT UNL     1     -13.128  10.700  72.060  1.00  0.00    -0.481 OA 
HETATM   11  O   UNL     1     -11.444  10.619  70.533  1.00  0.00    -0.311 OA 
HETATM   12  H1  UNL     1     -12.130   8.489  69.203  1.00  0.00     0.000 HD 
HETATM   13  H2  UNL     1     -11.530   7.108  69.961  1.00  0.00     0.000 HD 
ENDBRANCH   6   7
ENDBRANCH   5   6
ENDBRANCH   3   5
TORSDOF 3
ENDMDL
MODEL      126
REMARK 921   NORMALIZED FREE ENERGY PREDICTED BY IDOCK:   -2.30 KCAL/MOL
REMARK 922        TOTAL FREE ENERGY PREDICTED BY IDOCK:   -3.16 KCAL/MOL
REMARK 923 INTER-LIGAND FREE ENERGY PREDICTED BY IDOCK:   -3.30 KCAL/MOL
REMARK 924 INTRA-LIGAND FREE ENERGY PREDICTED BY IDOCK:    0.14 KCAL/MOL
REMARK 927      BINDING AFFINITY PREDICTED BY RF-SCORE:    0.00 PKD
ROOT
HETATM    1  N   UNL     1     -10.067  13.286  63.865  1.00  0.00    -0.731 NA 
HETATM    2  H2  UNL     1      -9.810  12.328  64.099  1.00  0.00     0.000 HD 
HETATM    3  C   UNL     1     -10.655  13.990  64.999  1.00  0.00    -0.410 C  
HETATM    4  H1  UNL     1     -10.702  13.331  63.068  1.00  0.00     0.000 HD 
ENDROOT
BRANCH   3   5
HETATM    5  C   UNL     1      -9.704  13.924  66.194  1.00  0.00    -0.289 C  
BRANCH   5   6
HETATM    6  C   UNL     1      -9.508  12.480  66.681  1.00  0.00    -0.242 C  
BRANCH   6   7
HETATM    7  CA  UNL     1     -10.715  11.565  66.430  1.00  0.00    -0.273 C  
HETATM    8  N   UNL     1     -11.739  11.693  67.506  1.00  0.00    -0.590 NA 
HETATM    9  C   UNL     1     -10.269  10.098  66.346  1.00  0.00    -0.221 C  
HETATM   10  OXT UNL     1      -9.716   9.586  65.386  1.00  0.00    -0.294 OA 
HETATM   11  O   UNL     1     -10.532   9.437  67.504  1.00  0.00    -0.248 OA 
HETATM   12  H1  UNL     1     -12.541  11.085  67.339  1.00  0.00     0.000 HD 
HETATM   13  H2  UNL     1     -12.027  12.663  67.632  1.00  0.00     0.000 HD 
ENDBRANCH   6   7
ENDBRANCH   5   6
ENDBRANCH   3   5
TORSDOF 3
ENDMDL
MODEL      127
REMARK 921   NORMALIZED FREE ENERGY PREDICTED BY IDOCK:   -2.29 KCAL/MOL
REMARK 922        TOTAL FREE ENERGY PREDICTED BY IDOCK:   -3.15 KCAL/MOL
REMARK 923 INTER-LIGAND FREE ENERGY PREDICTED BY IDOCK:   -2.97 KCAL/MOL
REMARK 924 INTRA-LIGAND FREE ENERGY PREDICTED BY IDOCK:   -0.18 KCAL/MOL
REMARK 927      BINDING AFFINITY PREDICTED BY RF-SCORE:    0.00 PKD
ROOT
HETATM    1  N   UNL     1     -10.546  19.586  66.279  1.00  0.00    -0.477 NA 
HETATM    2  H2  UNL     1     -10.472  18.622  66.604  1.00  0.00     0.000 HD 
HETATM    3  C   UNL     1      -9.851  20.519  67.158  1.00  0.00    -0.426 C  
HETATM    4  H1  UNL     1     -11.517  19.880  66.165  1.00  0.00     0.000 HD 
ENDROOT
BRANCH   3   5
HETATM    5  C   UNL     1      -8.398  20.079  67.328  1.00  0.00    -0.381 C  
BRANCH   5   6
HETATM    6  C   UNL     1      -8.255  19.013  68.426  1.00  0.00    -0.382 C  
BRANCH   6   7
HETATM    7  CA  UNL     1      -7.398  17.806  68.020  1.00  0.00    -0.220 C  
HETATM    8  N   UNL     1      -5.942  18.090  68.161  1.00  0.00    -0.170 NA 
HETATM    9  C   UNL     1      -7.684  17.410  66.563  1.00  0.00    -0.284 C  
HETATM   10  OXT UNL     1      -8.671  16.803  66.181  1.00  0.00    -0.362 OA 
HETATM   11  O   UNL     1      -6.707  17.860  65.732  1.00  0.00    -0.271 OA 
HETATM   12  H1  UNL     1      -5.372  17.287  67.892  1.00  0.00     0.000 HD 
HETATM   13  H2  UNL     1      -5.714  18.407  69.104  1.00  0.00     0.000 HD 
ENDBRANCH   6   7
ENDBRANCH   5   6
ENDBRANCH   3   5
TORSDOF 3
ENDMDL
MODEL      128
REMARK 921   NORMALIZED FREE ENERGY PREDICTED BY IDOCK:   -2.28 KCAL/MOL
REMARK 922        TOTAL FREE ENERGY PREDICTED BY IDOCK:   -3.14 KCAL/MOL
REMARK 923 INTER-LIGAND FREE ENERGY PREDICTED BY IDOCK:   -3.07 KCAL/MOL
REMARK 924 INTRA-LIGAND FREE ENERGY PREDICTED BY IDOCK:   -0.07 KCAL/MOL
REMARK 927      BINDING AFFINITY PREDICTED BY RF-SCORE:    0.00 PKD
ROOT
HETATM    1  N   UNL     1     -11.888  10.633  68.037  1.00  0.00    -0.767 NA 
HETATM    2  H2  UNL     1     -10.937  10.265  68.025  1.00  0.00     0.000 HD 
HETATM    3  C   UNL     1     -12.087  11.607  69.104  1.00  0.00    -0.251 C  
HETATM    4  H1  UNL     1     -12.586   9.893  68.113  1.00  0.00     0.000 HD 
ENDROOT
BRANCH   3   5
HETATM    5  C   UNL     1     -11.041  12.715  68.990  1.00  0.00    -0.291 C  
BRANCH   5   6
HETATM    6  C   UNL     1     -11.685  14.066  68.638  1.00  0.00    -0.389 C  
BRANCH   6   7
HETATM    7  CA  UNL     1     -11.115  15.255  69.424  1.00  0.00    -0.280 C  
HETATM    8  N   UNL     1     -12.187  16.028  70.111  1.00  0.00    -0.357 NA 
HETATM    9  C   UNL     1     -10.349  16.201  68.486  1.00  0.00    -0.254 C  
HETATM   10  OXT UNL     1      -9.232  15.996  68.040  1.00  0.00    -0.192 OA 
HETATM   11  O   UNL     1     -11.095  17.294  68.176  1.00  0.00    -0.292 OA 
HETATM   12  H1  UNL     1     -11.809  16.819  70.634  1.00  0.00     0.000 HD 
HETATM   13  H2  UNL     1     -12.755  15.426  70.708  1.00  0.00     0.000 HD 
ENDBRANCH   6   7
ENDBRANCH   5   6
ENDBRANCH   3   5
TORSDOF 3
ENDMDL
MODEL      129
REMARK 921   NORMALIZED FREE ENERGY PREDICTED BY IDOCK:   -2.27 KCAL/MOL
REMARK 922        TOTAL FREE ENERGY PREDICTED BY IDOCK:   -3.12 KCAL/MOL
REMARK 923 INTER-LIGAND FREE ENERGY PREDICTED BY IDOCK:   -3.11 KCAL/MOL
REMARK 924 INTRA-LIGAND FREE ENERGY PREDICTED BY IDOCK:   -0.02 KCAL/MOL
REMARK 927      BINDING AFFINITY PREDICTED BY RF-SCORE:    0.00 PKD
ROOT
HETATM    1  N   UNL     1     -10.528  15.733  70.146  1.00  0.00    -0.307 NA 
HETATM    2  H2  UNL     1     -10.276  14.745  70.130  1.00  0.00     0.000 HD 
HETATM    3  C   UNL     1     -10.622  16.299  68.805  1.00  0.00    -0.298 C  
HETATM    4  H1  UNL     1      -9.881  16.287  70.708  1.00  0.00     0.000 HD 
ENDROOT
BRANCH   3   5
HETATM    5  C   UNL     1     -11.592  15.471  67.964  1.00  0.00    -0.276 C  
BRANCH   5   6
HETATM    6  C   UNL     1     -11.342  13.964  68.135  1.00  0.00    -0.324 C  
BRANCH   6   7
HETATM    7  CA  UNL     1     -11.756  13.119  66.922  1.00  0.00    -0.387 C  
HETATM    8  N   UNL     1     -11.906  11.679  67.276  1.00  0.00    -0.626 NA 
HETATM    9  C   UNL     1     -10.715  13.245  65.799  1.00  0.00    -0.277 C  
HETATM   10  OXT UNL     1     -10.597  14.205  65.055  1.00  0.00    -0.368 OA 
HETATM   11  O   UNL     1      -9.903  12.156  65.759  1.00  0.00    -0.243 OA 
HETATM   12  H1  UNL     1     -12.181  11.118  66.470  1.00  0.00     0.000 HD 
HETATM   13  H2  UNL     1     -12.553  11.553  68.055  1.00  0.00     0.000 HD 
ENDBRANCH   6   7
ENDBRANCH   5   6
ENDBRANCH   3   5
TORSDOF 3
ENDMDL
MODEL      130
REMARK 921   NORMALIZED FREE ENERGY PREDICTED BY IDOCK:   -2.26 KCAL/MOL
REMARK 922        TOTAL FREE ENERGY PREDICTED BY IDOCK:   -3.11 KCAL/MOL
REMARK 923 INTER-LIGAND FREE ENERGY PREDICTED BY IDOCK:   -3.06 KCAL/MOL
REMARK 924 INTRA-LIGAND FREE ENERGY PREDICTED BY IDOCK:   -0.05 KCAL/MOL
REMARK 927      BINDING AFFINITY PREDICTED BY RF-SCORE:    0.00 PKD
ROOT
HETATM    1  N   UNL     1      -7.995  17.725  65.934  1.00  0.00    -0.546 NA 
HETATM    2  H2  UNL     1      -7.699  17.459  64.995  1.00  0.00     0.000 HD 
HETATM    3  C   UNL     1      -9.139  16.946  66.391  1.00  0.00    -0.283 C  
HETATM    4  H1  UNL     1      -8.209  18.721  66.002  1.00  0.00     0.000 HD 
ENDROOT
BRANCH   3   5
HETATM    5  C   UNL     1      -8.819  15.455  66.290  1.00  0.00    -0.302 C  
BRANCH   5   6
HETATM    6  C   UNL     1      -9.977  14.591  66.815  1.00  0.00    -0.267 C  
BRANCH   6   7
HETATM    7  CA  UNL     1     -10.278  13.357  65.954  1.00  0.00    -0.299 C  
HETATM    8  N   UNL     1     -11.306  13.646  64.914  1.00  0.00    -0.331 NA 
HETATM    9  C   UNL     1     -10.777  12.199  66.831  1.00  0.00    -0.236 C  
HETATM   10  OXT UNL     1     -10.070  11.499  67.538  1.00  0.00    -0.181 OA 
HETATM   11  O   UNL     1     -12.128  12.071  66.754  1.00  0.00    -0.613 OA 
HETATM   12  H1  UNL     1     -11.507  12.826  64.341  1.00  0.00     0.000 HD 
HETATM   13  H2  UNL     1     -11.039  14.445  64.338  1.00  0.00     0.000 HD 
ENDBRANCH   6   7
ENDBRANCH   5   6
ENDBRANCH   3   5
TORSDOF 3
ENDMDL
MODEL      131
REMARK 921   NORMALIZED FREE ENERGY PREDICTED BY IDOCK:   -2.25 KCAL/MOL
REMARK 922        TOTAL FREE ENERGY PREDICTED BY IDOCK:   -3.11 KCAL/MOL
REMARK 923 INTER-LIGAND FREE ENERGY PREDICTED BY IDOCK:   -3.00 KCAL/MOL
REMARK 924 INTRA-LIGAND FREE ENERGY PREDICTED BY IDOCK:   -0.11 KCAL/MOL
REMARK 927      BINDING AFFINITY PREDICTED BY RF-SCORE:    0.00 PKD
ROOT
HETATM    1  N   UNL     1      -9.779  14.413  65.535  1.00  0.00    -0.543 NA 
HETATM    2  H2  UNL     1      -9.500  14.317  66.511  1.00  0.00     0.000 HD 
HETATM    3  C   UNL     1     -10.820  15.419  65.356  1.00  0.00    -0.391 C  
HETATM    4  H1  UNL     1     -10.086  13.526  65.134  1.00  0.00     0.000 HD 
ENDROOT
BRANCH   3   5
HETATM    5  C   UNL     1     -10.360  16.746  65.957  1.00  0.00    -0.346 C  
BRANCH   5   6
HETATM    6  C   UNL     1      -9.144  16.559  66.878  1.00  0.00    -0.241 C  
BRANCH   6   7
HETATM    7  CA  UNL     1      -9.302  17.203  68.262  1.00  0.00    -0.265 C  
HETATM    8  N   UNL     1     -10.634  17.852  68.422  1.00  0.00    -0.319 NA 
HETATM    9  C   UNL     1      -8.208  18.257  68.492  1.00  0.00    -0.312 C  
HETATM   10  OXT UNL     1      -7.045  18.015  68.768  1.00  0.00    -0.260 OA 
HETATM   11  O   UNL     1      -8.693  19.514  68.308  1.00  0.00    -0.323 OA 
HETATM   12  H1  UNL     1     -10.739  18.280  69.342  1.00  0.00     0.000 HD 
HETATM   13  H2  UNL     1     -11.392  17.198  68.227  1.00  0.00     0.000 HD 
ENDBRANCH   6   7
ENDBRANCH   5   6
ENDBRANCH   3   5
TORSDOF 3
ENDMDL
MODEL      132
REMARK 921   NORMALIZED FREE ENERGY PREDICTED BY IDOCK:   -2.25 KCAL/MOL
REMARK 922        TOTAL FREE ENERGY PREDICTED BY IDOCK:   -3.11 KCAL/MOL
REMARK 923 INTER-LIGAND FREE ENERGY PREDICTED BY IDOCK:   -2.98 KCAL/MOL
REMARK 924 INTRA-LIGAND FREE ENERGY PREDICTED BY IDOCK:   -0.13 KCAL/MOL
REMARK 927      BINDING AFFINITY PREDICTED BY RF-SCORE:    0.00 PKD
ROOT
HETATM    1  N   UNL     1     -11.927  10.650  68.221  1.00  0.00    -0.814 NA 
HETATM    2  H2  UNL     1     -11.999   9.977  67.457  1.00  0.00     0.000 HD 
HETATM    3  C   UNL     1     -10.542  10.915  68.592  1.00  0.00    -0.195 C  
HETATM    4  H1  UNL     1     -12.452  10.354  69.044  1.00  0.00     0.000 HD 
ENDROOT
BRANCH   3   5
HETATM    5  C   UNL     1      -9.756  11.358  67.358  1.00  0.00    -0.196 C  
BRANCH   5   6
HETATM    6  C   UNL     1     -10.666  11.500  66.129  1.00  0.00    -0.324 C  
BRANCH   6   7
HETATM    7  CA  UNL     1     -10.386  10.477  65.020  1.00  0.00    -0.240 C  
HETATM    8  N   UNL     1      -9.742   9.244  65.554  1.00  0.00    -0.448 NA 
HETATM    9  C   UNL     1      -9.471  11.086  63.946  1.00  0.00    -0.251 C  
HETATM   10  OXT UNL     1      -9.825  11.877  63.088  1.00  0.00    -0.405 OA 
HETATM   11  O   UNL     1      -8.189  10.658  64.094  1.00  0.00    -0.105 OA 
HETATM   12  H1  UNL     1      -9.556   8.564  64.817  1.00  0.00     0.000 HD 
HETATM   13  H2  UNL     1     -10.293   8.834  66.309  1.00  0.00     0.000 HD 
ENDBRANCH   6   7
ENDBRANCH   5   6
ENDBRANCH   3   5
TORSDOF 3
ENDMDL
MODEL      133
REMARK 921   NORMALIZED FREE ENERGY PREDICTED BY IDOCK:   -2.25 KCAL/MOL
REMARK 922        TOTAL FREE ENERGY PREDICTED BY IDOCK:   -3.10 KCAL/MOL
REMARK 923 INTER-LIGAND FREE ENERGY PREDICTED BY IDOCK:   -3.03 KCAL/MOL
REMARK 924 INTRA-LIGAND FREE ENERGY PREDICTED BY IDOCK:   -0.07 KCAL/MOL
REMARK 927      BINDING AFFINITY PREDICTED BY RF-SCORE:    0.00 PKD
ROOT
HETATM    1  N   UNL     1     -11.149   5.317  65.907  1.00  0.00    -0.800 NA 
HETATM    2  H2  UNL     1     -11.230   6.274  65.565  1.00  0.00     0.000 HD 
HETATM    3  C   UNL     1     -10.345   5.233  67.120  1.00  0.00    -0.216 C  
HETATM    4  H1  UNL     1     -10.770   4.687  65.200  1.00  0.00     0.000 HD 
ENDROOT
BRANCH   3   5
HETATM    5  C   UNL     1     -10.913   6.176  68.180  1.00  0.00    -0.398 C  
BRANCH   5   6
HETATM    6  C   UNL     1     -10.492   5.754  69.596  1.00  0.00    -0.363 C  
BRANCH   6   7
HETATM    7  CA  UNL     1     -10.501   6.899  70.619  1.00  0.00    -0.210 C  
HETATM    8  N   UNL     1      -9.359   6.798  71.572  1.00  0.00    -0.153 NA 
HETATM    9  C   UNL     1     -11.812   6.893  71.420  1.00  0.00    -0.330 C  
HETATM   10  OXT UNL     1     -12.889   7.291  71.007  1.00  0.00    -0.315 OA 
HETATM   11  O   UNL     1     -11.633   6.346  72.651  1.00  0.00    -0.243 OA 
HETATM   12  H1  UNL     1      -9.364   7.559  72.252  1.00  0.00     0.000 HD 
HETATM   13  H2  UNL     1      -8.467   6.747  71.079  1.00  0.00     0.000 HD 
ENDBRANCH   6   7
ENDBRANCH   5   6
ENDBRANCH   3   5
TORSDOF 3
ENDMDL
MODEL      134
REMARK 921   NORMALIZED FREE ENERGY PREDICTED BY IDOCK:   -2.25 KCAL/MOL
REMARK 922        TOTAL FREE ENERGY PREDICTED BY IDOCK:   -3.10 KCAL/MOL
REMARK 923 INTER-LIGAND FREE ENERGY PREDICTED BY IDOCK:   -2.96 KCAL/MOL
REMARK 924 INTRA-LIGAND FREE ENERGY PREDICTED BY IDOCK:   -0.14 KCAL/MOL
REMARK 927      BINDING AFFINITY PREDICTED BY RF-SCORE:    0.00 PKD
ROOT
HETATM    1  N   UNL     1     -10.794  18.564  65.311  1.00  0.00    -0.466 NA 
HETATM    2  H2  UNL     1     -11.240  17.746  65.726  1.00  0.00     0.000 HD 
HETATM    3  C   UNL     1     -10.361  19.525  66.319  1.00  0.00    -0.506 C  
HETATM    4  H1  UNL     1     -11.398  19.028  64.632  1.00  0.00     0.000 HD 
ENDROOT
BRANCH   3   5
HETATM    5  C   UNL     1      -9.456  18.831  67.336  1.00  0.00    -0.324 C  
BRANCH   5   6
HETATM    6  C   UNL     1     -10.226  17.782  68.153  1.00  0.00    -0.383 C  
BRANCH   6   7
HETATM    7  CA  UNL     1      -9.627  16.370  68.085  1.00  0.00    -0.227 C  
HETATM    8  N   UNL     1      -8.387  16.255  68.904  1.00  0.00    -0.222 NA 
HETATM    9  C   UNL     1      -9.293  15.999  66.632  1.00  0.00    -0.243 C  
HETATM   10  OXT UNL     1     -10.107  15.664  65.787  1.00  0.00    -0.312 OA 
HETATM   11  O   UNL     1      -7.962  16.128  66.386  1.00  0.00    -0.278 OA 
HETATM   12  H1  UNL     1      -7.989  15.317  68.859  1.00  0.00     0.000 HD 
HETATM   13  H2  UNL     1      -8.552  16.543  69.870  1.00  0.00     0.000 HD 
ENDBRANCH   6   7
ENDBRANCH   5   6
ENDBRANCH   3   5
TORSDOF 3
ENDMDL
MODEL      135
REMARK 921   NORMALIZED FREE ENERGY PREDICTED BY IDOCK:   -2.24 KCAL/MOL
REMARK 922        TOTAL FREE ENERGY PREDICTED BY IDOCK:   -3.09 KCAL/MOL
REMARK 923 INTER-LIGAND FREE ENERGY PREDICTED BY IDOCK:   -2.99 KCAL/MOL
REMARK 924 INTRA-LIGAND FREE ENERGY PREDICTED BY IDOCK:   -0.09 KCAL/MOL
REMARK 927      BINDING AFFINITY PREDICTED BY RF-SCORE:    0.00 PKD
ROOT
HETATM    1  N   UNL     1      -6.981  17.693  68.578  1.00  0.00    -0.222 NA 
HETATM    2  H2  UNL     1      -7.070  18.279  69.408  1.00  0.00     0.000 HD 
HETATM    3  C   UNL     1      -7.899  16.560  68.604  1.00  0.00    -0.226 C  
HETATM    4  H1  UNL     1      -6.026  17.358  68.444  1.00  0.00     0.000 HD 
ENDROOT
BRANCH   3   5
HETATM    5  C   UNL     1      -9.328  17.062  68.803  1.00  0.00    -0.257 C  
BRANCH   5   6
HETATM    6  C   UNL     1     -10.244  15.957  69.353  1.00  0.00    -0.262 C  
BRANCH   6   7
HETATM    7  CA  UNL     1     -11.613  15.877  68.664  1.00  0.00    -0.380 C  
HETATM    8  N   UNL     1     -12.675  15.407  69.598  1.00  0.00    -0.610 NA 
HETATM    9  C   UNL     1     -11.556  14.922  67.462  1.00  0.00    -0.339 C  
HETATM   10  OXT UNL     1     -11.057  15.184  66.380  1.00  0.00    -0.339 OA 
HETATM   11  O   UNL     1     -12.101  13.715  67.768  1.00  0.00    -0.358 OA 
HETATM   12  H1  UNL     1     -13.586  15.355  69.140  1.00  0.00     0.000 HD 
HETATM   13  H2  UNL     1     -12.714  15.985  70.438  1.00  0.00     0.000 HD 
ENDBRANCH   6   7
ENDBRANCH   5   6
ENDBRANCH   3   5
TORSDOF 3
ENDMDL
MODEL      136
REMARK 921   NORMALIZED FREE ENERGY PREDICTED BY IDOCK:   -2.23 KCAL/MOL
REMARK 922        TOTAL FREE ENERGY PREDICTED BY IDOCK:   -3.08 KCAL/MOL
REMARK 923 INTER-LIGAND FREE ENERGY PREDICTED BY IDOCK:   -2.49 KCAL/MOL
REMARK 924 INTRA-LIGAND FREE ENERGY PREDICTED BY IDOCK:   -0.60 KCAL/MOL
REMARK 927      BINDING AFFINITY PREDICTED BY RF-SCORE:    0.00 PKD
ROOT
HETATM    1  N   UNL     1      -8.783   7.921  69.208  1.00  0.00    -0.137 NA 
HETATM    2  H2  UNL     1      -9.130   7.506  70.072  1.00  0.00     0.000 HD 
HETATM    3  C   UNL     1      -9.663   8.974  68.712  1.00  0.00    -0.159 C  
HETATM    4  H1  UNL     1      -8.637   7.224  68.478  1.00  0.00     0.000 HD 
ENDROOT
BRANCH   3   5
HETATM    5  C   UNL     1      -9.881  10.018  69.806  1.00  0.00    -0.270 C  
BRANCH   5   6
HETATM    6  C   UNL     1     -11.175   9.751  70.591  1.00  0.00    -0.402 C  
BRANCH   6   7
HETATM    7  CA  UNL     1     -10.986   8.856  71.824  1.00  0.00    -0.361 C  
HETATM    8  N   UNL     1      -9.549   8.722  72.195  1.00  0.00    -0.303 NA 
HETATM    9  C   UNL     1     -11.561   7.455  71.563  1.00  0.00    -0.275 C  
HETATM   10  OXT UNL     1     -12.747   7.170  71.572  1.00  0.00    -0.362 OA 
HETATM   11  O   UNL     1     -10.573   6.565  71.278  1.00  0.00    -0.219 OA 
HETATM   12  H1  UNL     1      -9.423   8.127  73.014  1.00  0.00     0.000 HD 
HETATM   13  H2  UNL     1      -9.112   9.635  72.328  1.00  0.00     0.000 HD 
ENDBRANCH   6   7
ENDBRANCH   5   6
ENDBRANCH   3   5
TORSDOF 3
ENDMDL
MODEL      137
REMARK 921   NORMALIZED FREE ENERGY PREDICTED BY IDOCK:   -2.23 KCAL/MOL
REMARK 922        TOTAL FREE ENERGY PREDICTED BY IDOCK:   -3.08 KCAL/MOL
REMARK 923 INTER-LIGAND FREE ENERGY PREDICTED BY IDOCK:   -2.88 KCAL/MOL
REMARK 924 INTRA-LIGAND FREE ENERGY PREDICTED BY IDOCK:   -0.20 KCAL/MOL
REMARK 927      BINDING AFFINITY PREDICTED BY RF-SCORE:    0.00 PKD
ROOT
HETATM    1  N   UNL     1      -9.234  14.652  67.053  1.00  0.00    -0.227 NA 
HETATM    2  H2  UNL     1      -9.592  15.260  66.317  1.00  0.00     0.000 HD 
HETATM    3  C   UNL     1      -8.291  15.342  67.926  1.00  0.00    -0.148 C  
HETATM    4  H1  UNL     1      -8.801  13.807  66.679  1.00  0.00     0.000 HD 
ENDROOT
BRANCH   3   5
HETATM    5  C   UNL     1      -8.941  16.606  68.487  1.00  0.00    -0.235 C  
BRANCH   5   6
HETATM    6  C   UNL     1     -10.411  16.725  68.056  1.00  0.00    -0.317 C  
BRANCH   6   7
HETATM    7  CA  UNL     1     -10.691  17.890  67.097  1.00  0.00    -0.230 C  
HETATM    8  N   UNL     1     -10.289  17.564  65.699  1.00  0.00    -0.633 NA 
HETATM    9  C   UNL     1      -9.933  19.149  67.546  1.00  0.00    -0.351 C  
HETATM   10  OXT UNL     1     -10.259  19.871  68.474  1.00  0.00    -0.442 OA 
HETATM   11  O   UNL     1      -8.816  19.343  66.797  1.00  0.00    -0.298 OA 
HETATM   12  H1  UNL     1     -10.476  18.338  65.061  1.00  0.00     0.000 HD 
HETATM   13  H2  UNL     1     -10.731  16.703  65.377  1.00  0.00     0.000 HD 
ENDBRANCH   6   7
ENDBRANCH   5   6
ENDBRANCH   3   5
TORSDOF 3
ENDMDL
MODEL      138
REMARK 921   NORMALIZED FREE ENERGY PREDICTED BY IDOCK:   -2.21 KCAL/MOL
REMARK 922        TOTAL FREE ENERGY PREDICTED BY IDOCK:   -3.06 KCAL/MOL
REMARK 923 INTER-LIGAND FREE ENERGY PREDICTED BY IDOCK:   -2.62 KCAL/MOL
REMARK 924 INTRA-LIGAND FREE ENERGY PREDICTED BY IDOCK:   -0.44 KCAL/MOL
REMARK 927      BINDING AFFINITY PREDICTED BY RF-SCORE:    0.00 PKD
ROOT
HETATM    1  N   UNL     1     -11.628   6.375  70.268  1.00  0.00    -0.412 NA 
HETATM    2  H2  UNL     1     -11.484   7.304  69.872  1.00  0.00     0.000 HD 
HETATM    3  C   UNL     1     -10.480   5.502  70.054  1.00  0.00    -0.303 C  
HETATM    4  H1  UNL     1     -12.471   5.929  69.904  1.00  0.00     0.000 HD 
ENDROOT
BRANCH   3   5
HETATM    5  C   UNL     1      -9.218   6.170  70.598  1.00  0.00    -0.163 C  
BRANCH   5   6
HETATM    6  C   UNL     1      -9.018   5.868  72.091  1.00  0.00    -0.143 C  
BRANCH   6   7
HETATM    7  CA  UNL     1      -9.449   7.007  73.025  1.00  0.00    -0.150 C  
HETATM    8  N   UNL     1     -10.879   6.883  73.425  1.00  0.00    -0.475 NA 
HETATM    9  C   UNL     1      -9.245   8.368  72.341  1.00  0.00    -0.275 C  
HETATM   10  OXT UNL     1      -8.171   8.928  72.198  1.00  0.00    -0.373 OA 
HETATM   11  O   UNL     1     -10.421   8.862  71.871  1.00  0.00    -0.326 OA 
HETATM   12  H1  UNL     1     -11.166   7.640  74.045  1.00  0.00     0.000 HD 
HETATM   13  H2  UNL     1     -11.072   5.970  73.838  1.00  0.00     0.000 HD 
ENDBRANCH   6   7
ENDBRANCH   5   6
ENDBRANCH   3   5
TORSDOF 3
ENDMDL
MODEL      139
REMARK 921   NORMALIZED FREE ENERGY PREDICTED BY IDOCK:   -2.21 KCAL/MOL
REMARK 922        TOTAL FREE ENERGY PREDICTED BY IDOCK:   -3.05 KCAL/MOL
REMARK 923 INTER-LIGAND FREE ENERGY PREDICTED BY IDOCK:   -3.01 KCAL/MOL
REMARK 924 INTRA-LIGAND FREE ENERGY PREDICTED BY IDOCK:   -0.05 KCAL/MOL
REMARK 927      BINDING AFFINITY PREDICTED BY RF-SCORE:    0.00 PKD
ROOT
HETATM    1  N   UNL     1      -9.049  18.205  66.020  1.00  0.00    -0.521 NA 
HETATM    2  H2  UNL     1      -8.835  18.219  65.023  1.00  0.00     0.000 HD 
HETATM    3  C   UNL     1     -10.304  17.520  66.304  1.00  0.00    -0.335 C  
HETATM    4  H1  UNL     1      -9.071  19.142  66.422  1.00  0.00     0.000 HD 
ENDROOT
BRANCH   3   5
HETATM    5  C   UNL     1     -10.271  16.116  65.701  1.00  0.00    -0.390 C  
BRANCH   5   6
HETATM    6  C   UNL     1     -11.186  15.149  66.470  1.00  0.00    -0.283 C  
BRANCH   6   7
HETATM    7  CA  UNL     1     -10.441  14.210  67.428  1.00  0.00    -0.271 C  
HETATM    8  N   UNL     1      -9.505  13.306  66.700  1.00  0.00    -0.259 NA 
HETATM    9  C   UNL     1     -11.438  13.351  68.222  1.00  0.00    -0.315 C  
HETATM   10  OXT UNL     1     -12.104  13.741  69.166  1.00  0.00    -0.346 OA 
HETATM   11  O   UNL     1     -11.518  12.094  67.710  1.00  0.00    -0.287 OA 
HETATM   12  H1  UNL     1      -9.010  12.681  67.336  1.00  0.00     0.000 HD 
HETATM   13  H2  UNL     1      -8.856  13.835  66.117  1.00  0.00     0.000 HD 
ENDBRANCH   6   7
ENDBRANCH   5   6
ENDBRANCH   3   5
TORSDOF 3
ENDMDL
MODEL      140
REMARK 921   NORMALIZED FREE ENERGY PREDICTED BY IDOCK:   -2.20 KCAL/MOL
REMARK 922        TOTAL FREE ENERGY PREDICTED BY IDOCK:   -3.04 KCAL/MOL
REMARK 923 INTER-LIGAND FREE ENERGY PREDICTED BY IDOCK:   -2.92 KCAL/MOL
REMARK 924 INTRA-LIGAND FREE ENERGY PREDICTED BY IDOCK:   -0.12 KCAL/MOL
REMARK 927      BINDING AFFINITY PREDICTED BY RF-SCORE:    0.00 PKD
ROOT
HETATM    1  N   UNL     1     -10.074   4.632  71.213  1.00  0.00    -0.193 NA 
HETATM    2  H2  UNL     1      -9.084   4.557  71.443  1.00  0.00     0.000 HD 
HETATM    3  C   UNL     1     -10.815   5.392  72.213  1.00  0.00    -0.227 C  
HETATM    4  H1  UNL     1     -10.510   3.718  71.085  1.00  0.00     0.000 HD 
ENDROOT
BRANCH   3   5
HETATM    5  C   UNL     1     -10.163   6.760  72.405  1.00  0.00    -0.201 C  
BRANCH   5   6
HETATM    6  C   UNL     1     -11.195   7.827  72.803  1.00  0.00    -0.456 C  
BRANCH   6   7
HETATM    7  CA  UNL     1     -11.980   8.412  71.621  1.00  0.00    -0.307 C  
HETATM    8  N   UNL     1     -11.748   9.877  71.474  1.00  0.00    -0.372 NA 
HETATM    9  C   UNL     1     -13.486   8.167  71.801  1.00  0.00    -0.350 C  
HETATM   10  OXT UNL     1     -14.051   7.102  71.614  1.00  0.00    -0.400 OA 
HETATM   11  O   UNL     1     -14.116   9.288  72.240  1.00  0.00    -0.413 OA 
HETATM   12  H1  UNL     1     -12.269  10.266  70.688  1.00  0.00     0.000 HD 
HETATM   13  H2  UNL     1     -10.753  10.091  71.403  1.00  0.00     0.000 HD 
ENDBRANCH   6   7
ENDBRANCH   5   6
ENDBRANCH   3   5
TORSDOF 3
ENDMDL
MODEL      141
REMARK 921   NORMALIZED FREE ENERGY PREDICTED BY IDOCK:   -2.20 KCAL/MOL
REMARK 922        TOTAL FREE ENERGY PREDICTED BY IDOCK:   -3.04 KCAL/MOL
REMARK 923 INTER-LIGAND FREE ENERGY PREDICTED BY IDOCK:   -2.96 KCAL/MOL
REMARK 924 INTRA-LIGAND FREE ENERGY PREDICTED BY IDOCK:   -0.08 KCAL/MOL
REMARK 927      BINDING AFFINITY PREDICTED BY RF-SCORE:    0.00 PKD
ROOT
HETATM    1  N   UNL     1      -9.922   8.842  66.098  1.00  0.00    -0.428 NA 
HETATM    2  H2  UNL     1     -10.803   8.517  65.699  1.00  0.00     0.000 HD 
HETATM    3  C   UNL     1      -9.942  10.272  66.381  1.00  0.00    -0.229 C  
HETATM    4  H1  UNL     1      -9.125   8.621  65.500  1.00  0.00     0.000 HD 
ENDROOT
BRANCH   3   5
HETATM    5  C   UNL     1     -11.136  10.602  67.276  1.00  0.00    -0.313 C  
BRANCH   5   6
HETATM    6  C   UNL     1     -11.580  12.064  67.110  1.00  0.00    -0.387 C  
BRANCH   6   7
HETATM    7  CA  UNL     1     -10.494  13.092  67.455  1.00  0.00    -0.234 C  
HETATM    8  N   UNL     1     -10.259  13.177  68.924  1.00  0.00    -0.431 NA 
HETATM    9  C   UNL     1     -10.888  14.484  66.937  1.00  0.00    -0.305 C  
HETATM   10  OXT UNL     1     -10.822  14.845  65.774  1.00  0.00    -0.315 OA 
HETATM   11  O   UNL     1     -11.364  15.264  67.943  1.00  0.00    -0.321 OA 
HETATM   12  H1  UNL     1      -9.537  13.860  69.154  1.00  0.00     0.000 HD 
HETATM   13  H2  UNL     1     -10.044  12.261  69.320  1.00  0.00     0.000 HD 
ENDBRANCH   6   7
ENDBRANCH   5   6
ENDBRANCH   3   5
TORSDOF 3
ENDMDL
MODEL      142
REMARK 921   NORMALIZED FREE ENERGY PREDICTED BY IDOCK:   -2.20 KCAL/MOL
REMARK 922        TOTAL FREE ENERGY PREDICTED BY IDOCK:   -3.04 KCAL/MOL
REMARK 923 INTER-LIGAND FREE ENERGY PREDICTED BY IDOCK:   -2.86 KCAL/MOL
REMARK 924 INTRA-LIGAND FREE ENERGY PREDICTED BY IDOCK:   -0.18 KCAL/MOL
REMARK 927      BINDING AFFINITY PREDICTED BY RF-SCORE:    0.00 PKD
ROOT
HETATM    1  N   UNL     1     -10.523  17.839  69.109  1.00  0.00    -0.414 NA 
HETATM    2  H2  UNL     1     -10.192  17.192  69.824  1.00  0.00     0.000 HD 
HETATM    3  C   UNL     1     -10.123  17.429  67.768  1.00  0.00    -0.323 C  
HETATM    4  H1  UNL     1     -10.212  18.796  69.282  1.00  0.00     0.000 HD 
ENDROOT
BRANCH   3   5
HETATM    5  C   UNL     1     -10.588  15.996  67.509  1.00  0.00    -0.313 C  
BRANCH   5   6
HETATM    6  C   UNL     1      -9.971  15.011  68.514  1.00  0.00    -0.219 C  
BRANCH   6   7
HETATM    7  CA  UNL     1     -11.001  14.277  69.385  1.00  0.00    -0.209 C  
HETATM    8  N   UNL     1     -12.197  13.864  68.597  1.00  0.00    -0.487 NA 
HETATM    9  C   UNL     1     -11.460  15.174  70.545  1.00  0.00    -0.304 C  
HETATM   10  OXT UNL     1     -10.813  15.405  71.553  1.00  0.00    -0.243 OA 
HETATM   11  O   UNL     1     -12.679  15.720  70.290  1.00  0.00    -0.353 OA 
HETATM   12  H1  UNL     1     -12.881  13.376  69.176  1.00  0.00     0.000 HD 
HETATM   13  H2  UNL     1     -11.933  13.307  67.784  1.00  0.00     0.000 HD 
ENDBRANCH   6   7
ENDBRANCH   5   6
ENDBRANCH   3   5
TORSDOF 3
ENDMDL
MODEL      143
REMARK 921   NORMALIZED FREE ENERGY PREDICTED BY IDOCK:   -2.18 KCAL/MOL
REMARK 922        TOTAL FREE ENERGY PREDICTED BY IDOCK:   -3.02 KCAL/MOL
REMARK 923 INTER-LIGAND FREE ENERGY PREDICTED BY IDOCK:   -2.92 KCAL/MOL
REMARK 924 INTRA-LIGAND FREE ENERGY PREDICTED BY IDOCK:   -0.10 KCAL/MOL
REMARK 927      BINDING AFFINITY PREDICTED BY RF-SCORE:    0.00 PKD
ROOT
HETATM    1  N   UNL     1     -11.201   4.714  65.311  1.00  0.00    -0.991 NA 
HETATM    2  H2  UNL     1     -10.939   5.235  64.474  1.00  0.00     0.000 HD 
HETATM    3  C   UNL     1     -10.087   4.568  66.240  1.00  0.00    -0.254 C  
HETATM    4  H1  UNL     1     -11.584   3.795  65.088  1.00  0.00     0.000 HD 
ENDROOT
BRANCH   3   5
HETATM    5  C   UNL     1      -9.513   5.944  66.575  1.00  0.00    -0.171 C  
BRANCH   5   6
HETATM    6  C   UNL     1     -10.619   6.939  66.960  1.00  0.00    -0.403 C  
BRANCH   6   7
HETATM    7  CA  UNL     1     -10.420   7.597  68.332  1.00  0.00    -0.169 C  
HETATM    8  N   UNL     1      -9.079   8.237  68.450  1.00  0.00    -0.136 NA 
HETATM    9  C   UNL     1     -10.570   6.557  69.453  1.00  0.00    -0.245 C  
HETATM   10  OXT UNL     1     -11.629   6.104  69.854  1.00  0.00    -0.404 OA 
HETATM   11  O   UNL     1      -9.356   6.166  69.925  1.00  0.00    -0.147 OA 
HETATM   12  H1  UNL     1      -8.947   8.674  69.362  1.00  0.00     0.000 HD 
HETATM   13  H2  UNL     1      -8.916   8.901  67.692  1.00  0.00     0.000 HD 
ENDBRANCH   6   7
ENDBRANCH   5   6
ENDBRANCH   3   5
TORSDOF 3
ENDMDL
MODEL      144
REMARK 921   NORMALIZED FREE ENERGY PREDICTED BY IDOCK:   -2.15 KCAL/MOL
REMARK 922        TOTAL FREE ENERGY PREDICTED BY IDOCK:   -2.99 KCAL/MOL
REMARK 923 INTER-LIGAND FREE ENERGY PREDICTED BY IDOCK:   -2.62 KCAL/MOL
REMARK 924 INTRA-LIGAND FREE ENERGY PREDICTED BY IDOCK:   -0.37 KCAL/MOL
REMARK 927      BINDING AFFINITY PREDICTED BY RF-SCORE:    0.00 PKD
ROOT
HETATM    1  N   UNL     1      -8.441   8.831  72.064  1.00  0.00    -0.368 NA 
HETATM    2  H2  UNL     1      -8.493   9.366  72.930  1.00  0.00     0.000 HD 
HETATM    3  C   UNL     1      -9.522   7.858  71.953  1.00  0.00    -0.168 C  
HETATM    4  H1  UNL     1      -7.543   8.359  71.957  1.00  0.00     0.000 HD 
ENDROOT
BRANCH   3   5
HETATM    5  C   UNL     1     -10.867   8.565  72.113  1.00  0.00    -0.427 C  
BRANCH   5   6
HETATM    6  C   UNL     1     -11.526   8.840  70.752  1.00  0.00    -0.309 C  
BRANCH   6   7
HETATM    7  CA  UNL     1     -11.199  10.220  70.166  1.00  0.00    -0.318 C  
HETATM    8  N   UNL     1     -12.428  10.938  69.722  1.00  0.00    -0.403 NA 
HETATM    9  C   UNL     1     -10.248  10.083  68.967  1.00  0.00    -0.203 C  
HETATM   10  OXT UNL     1      -9.051   9.862  69.042  1.00  0.00    -0.146 OA 
HETATM   11  O   UNL     1     -10.921  10.201  67.791  1.00  0.00    -0.280 OA 
HETATM   12  H1  UNL     1     -12.211  11.855  69.332  1.00  0.00     0.000 HD 
HETATM   13  H2  UNL     1     -13.111  11.007  70.476  1.00  0.00     0.000 HD 
ENDBRANCH   6   7
ENDBRANCH   5   6
ENDBRANCH   3   5
TORSDOF 3
ENDMDL
MODEL      145
REMARK 921   NORMALIZED FREE ENERGY PREDICTED BY IDOCK:   -2.15 KCAL/MOL
REMARK 922        TOTAL FREE ENERGY PREDICTED BY IDOCK:   -2.98 KCAL/MOL
REMARK 923 INTER-LIGAND FREE ENERGY PREDICTED BY IDOCK:   -2.91 KCAL/MOL
REMARK 924 INTRA-LIGAND FREE ENERGY PREDICTED BY IDOCK:   -0.07 KCAL/MOL
REMARK 927      BINDING AFFINITY PREDICTED BY RF-SCORE:    0.00 PKD
ROOT
HETATM    1  N   UNL     1     -10.275  13.837  64.215  1.00  0.00    -0.737 NA 
HETATM    2  H2  UNL     1      -9.537  13.382  64.753  1.00  0.00     0.000 HD 
HETATM    3  C   UNL     1     -11.594  13.615  64.795  1.00  0.00    -0.355 C  
HETATM    4  H1  UNL     1     -10.275  13.543  63.238  1.00  0.00     0.000 HD 
ENDROOT
BRANCH   3   5
HETATM    5  C   UNL     1     -11.593  14.056  66.258  1.00  0.00    -0.379 C  
BRANCH   5   6
HETATM    6  C   UNL     1     -10.234  14.642  66.670  1.00  0.00    -0.275 C  
BRANCH   6   7
HETATM    7  CA  UNL     1      -9.584  13.934  67.867  1.00  0.00    -0.227 C  
HETATM    8  N   UNL     1     -10.526  13.810  69.015  1.00  0.00    -0.398 NA 
HETATM    9  C   UNL     1      -8.337  14.702  68.334  1.00  0.00    -0.157 C  
HETATM   10  OXT UNL     1      -7.254  14.689  67.773  1.00  0.00    -0.140 OA 
HETATM   11  O   UNL     1      -8.603  15.441  69.443  1.00  0.00    -0.242 OA 
HETATM   12  H1  UNL     1     -10.095  13.339  69.811  1.00  0.00     0.000 HD 
HETATM   13  H2  UNL     1     -11.393  13.349  68.737  1.00  0.00     0.000 HD 
ENDBRANCH   6   7
ENDBRANCH   5   6
ENDBRANCH   3   5
TORSDOF 3
ENDMDL
MODEL      146
REMARK 921   NORMALIZED FREE ENERGY PREDICTED BY IDOCK:   -2.13 KCAL/MOL
REMARK 922        TOTAL FREE ENERGY PREDICTED BY IDOCK:   -2.97 KCAL/MOL
REMARK 923 INTER-LIGAND FREE ENERGY PREDICTED BY IDOCK:   -2.90 KCAL/MOL
REMARK 924 INTRA-LIGAND FREE ENERGY PREDICTED BY IDOCK:   -0.06 KCAL/MOL
REMARK 927      BINDING AFFINITY PREDICTED BY RF-SCORE:    0.00 PKD
ROOT
HETATM    1  N   UNL     1     -10.922  12.100  65.409  1.00  0.00    -0.293 NA 
HETATM    2  H2  UNL     1     -10.265  12.880  65.412  1.00  0.00     0.000 HD 
HETATM    3  C   UNL     1     -11.579  11.929  66.700  1.00  0.00    -0.264 C  
HETATM    4  H1  UNL     1     -10.477  11.224  65.132  1.00  0.00     0.000 HD 
ENDROOT
BRANCH   3   5
HETATM    5  C   UNL     1     -12.244  13.240  67.115  1.00  0.00    -0.281 C  
BRANCH   5   6
HETATM    6  C   UNL     1     -11.607  14.446  66.407  1.00  0.00    -0.383 C  
BRANCH   6   7
HETATM    7  CA  UNL     1     -10.444  15.083  67.179  1.00  0.00    -0.277 C  
HETATM    8  N   UNL     1     -10.701  15.106  68.647  1.00  0.00    -0.232 NA 
HETATM    9  C   UNL     1     -10.204  16.523  66.698  1.00  0.00    -0.300 C  
HETATM   10  OXT UNL     1      -9.647  16.832  65.658  1.00  0.00    -0.527 OA 
HETATM   11  O   UNL     1     -10.732  17.425  67.568  1.00  0.00    -0.347 OA 
HETATM   12  H1  UNL     1      -9.927  15.529  69.161  1.00  0.00     0.000 HD 
HETATM   13  H2  UNL     1     -10.916  14.174  69.001  1.00  0.00     0.000 HD 
ENDBRANCH   6   7
ENDBRANCH   5   6
ENDBRANCH   3   5
TORSDOF 3
ENDMDL
MODEL      147
REMARK 921   NORMALIZED FREE ENERGY PREDICTED BY IDOCK:   -2.13 KCAL/MOL
REMARK 922        TOTAL FREE ENERGY PREDICTED BY IDOCK:   -2.96 KCAL/MOL
REMARK 923 INTER-LIGAND FREE ENERGY PREDICTED BY IDOCK:   -2.87 KCAL/MOL
REMARK 924 INTRA-LIGAND FREE ENERGY PREDICTED BY IDOCK:   -0.09 KCAL/MOL
REMARK 927      BINDING AFFINITY PREDICTED BY RF-SCORE:    0.00 PKD
ROOT
HETATM    1  N   UNL     1     -11.822  11.583  67.663  1.00  0.00    -0.629 NA 
HETATM    2  H2  UNL     1     -12.334  10.707  67.764  1.00  0.00     0.000 HD 
HETATM    3  C   UNL     1     -10.983  11.866  68.822  1.00  0.00    -0.235 C  
HETATM    4  H1  UNL     1     -12.441  12.373  67.486  1.00  0.00     0.000 HD 
ENDROOT
BRANCH   3   5
HETATM    5  C   UNL     1     -10.055  10.682  69.087  1.00  0.00    -0.234 C  
BRANCH   5   6
HETATM    6  C   UNL     1     -10.840   9.434  69.519  1.00  0.00    -0.231 C  
BRANCH   6   7
HETATM    7  CA  UNL     1     -10.293   8.120  68.945  1.00  0.00    -0.211 C  
HETATM    8  N   UNL     1     -10.926   7.781  67.639  1.00  0.00    -0.517 NA 
HETATM    9  C   UNL     1     -10.537   6.962  69.926  1.00  0.00    -0.228 C  
HETATM   10  OXT UNL     1      -9.894   6.755  70.941  1.00  0.00    -0.185 OA 
HETATM   11  O   UNL     1     -11.600   6.208  69.539  1.00  0.00    -0.396 OA 
HETATM   12  H1  UNL     1     -10.562   6.907  67.257  1.00  0.00     0.000 HD 
HETATM   13  H2  UNL     1     -10.832   8.546  66.970  1.00  0.00     0.000 HD 
ENDBRANCH   6   7
ENDBRANCH   5   6
ENDBRANCH   3   5
TORSDOF 3
ENDMDL
MODEL      148
REMARK 921   NORMALIZED FREE ENERGY PREDICTED BY IDOCK:   -2.13 KCAL/MOL
REMARK 922        TOTAL FREE ENERGY PREDICTED BY IDOCK:   -2.96 KCAL/MOL
REMARK 923 INTER-LIGAND FREE ENERGY PREDICTED BY IDOCK:   -3.24 KCAL/MOL
REMARK 924 INTRA-LIGAND FREE ENERGY PREDICTED BY IDOCK:    0.28 KCAL/MOL
REMARK 927      BINDING AFFINITY PREDICTED BY RF-SCORE:    0.00 PKD
ROOT
HETATM    1  N   UNL     1      -9.868  12.944  63.524  1.00  0.00    -0.584 NA 
HETATM    2  H2  UNL     1      -8.993  12.940  63.002  1.00  0.00     0.000 HD 
HETATM    3  C   UNL     1     -10.521  11.640  63.513  1.00  0.00    -0.443 C  
HETATM    4  H1  UNL     1     -10.516  13.655  63.184  1.00  0.00     0.000 HD 
ENDROOT
BRANCH   3   5
HETATM    5  C   UNL     1      -9.551  10.575  64.023  1.00  0.00    -0.367 C  
BRANCH   5   6
HETATM    6  C   UNL     1      -9.580  10.473  65.556  1.00  0.00    -0.282 C  
BRANCH   6   7
HETATM    7  CA  UNL     1      -9.726  11.824  66.271  1.00  0.00    -0.222 C  
HETATM    8  N   UNL     1      -8.457  12.240  66.932  1.00  0.00    -0.264 NA 
HETATM    9  C   UNL     1     -10.834  11.751  67.334  1.00  0.00    -0.251 C  
HETATM   10  OXT UNL     1     -12.031  11.775  67.103  1.00  0.00    -0.617 OA 
HETATM   11  O   UNL     1     -10.309  11.616  68.581  1.00  0.00    -0.210 OA 
HETATM   12  H1  UNL     1      -8.554  13.138  67.407  1.00  0.00     0.000 HD 
HETATM   13  H2  UNL     1      -7.680  12.252  66.270  1.00  0.00     0.000 HD 
ENDBRANCH   6   7
ENDBRANCH   5   6
ENDBRANCH   3   5
TORSDOF 3
ENDMDL
MODEL      149
REMARK 921   NORMALIZED FREE ENERGY PREDICTED BY IDOCK:   -2.13 KCAL/MOL
REMARK 922        TOTAL FREE ENERGY PREDICTED BY IDOCK:   -2.96 KCAL/MOL
REMARK 923 INTER-LIGAND FREE ENERGY PREDICTED BY IDOCK:   -2.91 KCAL/MOL
REMARK 924 INTRA-LIGAND FREE ENERGY PREDICTED BY IDOCK:   -0.05 KCAL/MOL
REMARK 927      BINDING AFFINITY PREDICTED BY RF-SCORE:    0.00 PKD
ROOT
HETATM    1  N   UNL     1     -11.130   4.945  65.746  1.00  0.00    -0.885 NA 
HETATM    2  H2  UNL     1     -11.453   5.521  64.969  1.00  0.00     0.000 HD 
HETATM    3  C   UNL     1     -10.248   5.679  66.646  1.00  0.00    -0.229 C  
HETATM    4  H1  UNL     1     -10.664   4.095  65.427  1.00  0.00     0.000 HD 
ENDROOT
BRANCH   3   5
HETATM    5  C   UNL     1     -10.947   6.951  67.125  1.00  0.00    -0.427 C  
BRANCH   5   6
HETATM    6  C   UNL     1      -9.948   8.101  67.331  1.00  0.00    -0.271 C  
BRANCH   6   7
HETATM    7  CA  UNL     1     -10.606   9.463  67.595  1.00  0.00    -0.271 C  
HETATM    8  N   UNL     1     -10.407  10.403  66.456  1.00  0.00    -0.237 NA 
HETATM    9  C   UNL     1     -10.028  10.101  68.867  1.00  0.00    -0.199 C  
HETATM   10  OXT UNL     1     -10.312   9.774  70.008  1.00  0.00    -0.227 OA 
HETATM   11  O   UNL     1      -9.118  11.064  68.563  1.00  0.00    -0.160 OA 
HETATM   12  H1  UNL     1     -10.844  11.308  66.630  1.00  0.00     0.000 HD 
HETATM   13  H2  UNL     1     -10.731   9.997  65.577  1.00  0.00     0.000 HD 
ENDBRANCH   6   7
ENDBRANCH   5   6
ENDBRANCH   3   5
TORSDOF 3
ENDMDL
MODEL      150
REMARK 921   NORMALIZED FREE ENERGY PREDICTED BY IDOCK:   -2.13 KCAL/MOL
REMARK 922        TOTAL FREE ENERGY PREDICTED BY IDOCK:   -2.96 KCAL/MOL
REMARK 923 INTER-LIGAND FREE ENERGY PREDICTED BY IDOCK:   -2.94 KCAL/MOL
REMARK 924 INTRA-LIGAND FREE ENERGY PREDICTED BY IDOCK:   -0.02 KCAL/MOL
REMARK 927      BINDING AFFINITY PREDICTED BY RF-SCORE:    0.00 PKD
ROOT
HETATM    1  N   UNL     1      -8.507  14.562  67.124  1.00  0.00    -0.211 NA 
HETATM    2  H2  UNL     1      -7.633  14.110  66.857  1.00  0.00     0.000 HD 
HETATM    3  C   UNL     1      -8.283  15.772  67.907  1.00  0.00    -0.145 C  
HETATM    4  H1  UNL     1      -9.127  13.933  67.634  1.00  0.00     0.000 HD 
ENDROOT
BRANCH   3   5
HETATM    5  C   UNL     1      -7.355  16.715  67.142  1.00  0.00    -0.220 C  
BRANCH   5   6
HETATM    6  C   UNL     1      -8.146  17.690  66.256  1.00  0.00    -0.281 C  
BRANCH   6   7
HETATM    7  CA  UNL     1      -9.646  17.752  66.577  1.00  0.00    -0.308 C  
HETATM    8  N   UNL     1     -10.425  16.771  65.768  1.00  0.00    -0.457 NA 
HETATM    9  C   UNL     1     -10.196  19.160  66.306  1.00  0.00    -0.452 C  
HETATM   10  OXT UNL     1     -10.030  20.130  67.029  1.00  0.00    -0.406 OA 
HETATM   11  O   UNL     1     -10.867  19.207  65.125  1.00  0.00    -0.458 OA 
HETATM   12  H1  UNL     1     -11.422  16.812  65.981  1.00  0.00     0.000 HD 
HETATM   13  H2  UNL     1     -10.059  15.825  65.878  1.00  0.00     0.000 HD 
ENDBRANCH   6   7
ENDBRANCH   5   6
ENDBRANCH   3   5
TORSDOF 3
ENDMDL
MODEL      151
REMARK 921   NORMALIZED FREE ENERGY PREDICTED BY IDOCK:   -2.12 KCAL/MOL
REMARK 922        TOTAL FREE ENERGY PREDICTED BY IDOCK:   -2.95 KCAL/MOL
REMARK 923 INTER-LIGAND FREE ENERGY PREDICTED BY IDOCK:   -2.53 KCAL/MOL
REMARK 924 INTRA-LIGAND FREE ENERGY PREDICTED BY IDOCK:   -0.42 KCAL/MOL
REMARK 927      BINDING AFFINITY PREDICTED BY RF-SCORE:    0.00 PKD
ROOT
HETATM    1  N   UNL     1     -10.891  17.145  68.156  1.00  0.00    -0.363 NA 
HETATM    2  H2  UNL     1     -10.093  16.834  68.710  1.00  0.00     0.000 HD 
HETATM    3  C   UNL     1     -10.484  17.731  66.885  1.00  0.00    -0.307 C  
HETATM    4  H1  UNL     1     -11.479  17.805  68.666  1.00  0.00     0.000 HD 
ENDROOT
BRANCH   3   5
HETATM    5  C   UNL     1      -9.604  16.743  66.121  1.00  0.00    -0.302 C  
BRANCH   5   6
HETATM    6  C   UNL     1      -8.122  16.900  66.495  1.00  0.00    -0.327 C  
BRANCH   6   7
HETATM    7  CA  UNL     1      -7.552  15.726  67.304  1.00  0.00    -0.210 C  
HETATM    8  N   UNL     1      -8.273  14.454  67.016  1.00  0.00    -0.357 NA 
HETATM    9  C   UNL     1      -7.645  16.016  68.810  1.00  0.00    -0.184 C  
HETATM   10  OXT UNL     1      -6.906  16.764  69.428  1.00  0.00    -0.230 OA 
HETATM   11  O   UNL     1      -8.692  15.356  69.372  1.00  0.00    -0.245 OA 
HETATM   12  H1  UNL     1      -7.894  13.674  67.553  1.00  0.00     0.000 HD 
HETATM   13  H2  UNL     1      -8.280  14.249  66.016  1.00  0.00     0.000 HD 
ENDBRANCH   6   7
ENDBRANCH   5   6
ENDBRANCH   3   5
TORSDOF 3
ENDMDL
MODEL      152
REMARK 921   NORMALIZED FREE ENERGY PREDICTED BY IDOCK:   -2.11 KCAL/MOL
REMARK 922        TOTAL FREE ENERGY PREDICTED BY IDOCK:   -2.94 KCAL/MOL
REMARK 923 INTER-LIGAND FREE ENERGY PREDICTED BY IDOCK:   -2.89 KCAL/MOL
REMARK 924 INTRA-LIGAND FREE ENERGY PREDICTED BY IDOCK:   -0.05 KCAL/MOL
REMARK 927      BINDING AFFINITY PREDICTED BY RF-SCORE:    0.00 PKD
ROOT
HETATM    1  N   UNL     1     -10.713  13.640  64.108  1.00  0.00    -0.561 NA 
HETATM    2  H2  UNL     1      -9.825  13.856  63.656  1.00  0.00     0.000 HD 
HETATM    3  C   UNL     1     -11.369  12.485  63.506  1.00  0.00    -0.486 C  
HETATM    4  H1  UNL     1     -11.351  14.436  64.105  1.00  0.00     0.000 HD 
ENDROOT
BRANCH   3   5
HETATM    5  C   UNL     1     -10.415  11.292  63.511  1.00  0.00    -0.457 C  
BRANCH   5   6
HETATM    6  C   UNL     1     -10.286  10.676  64.913  1.00  0.00    -0.395 C  
BRANCH   6   7
HETATM    7  CA  UNL     1      -8.950   9.963  65.164  1.00  0.00    -0.198 C  
HETATM    8  N   UNL     1      -8.905   8.627  64.505  1.00  0.00    -0.415 NA 
HETATM    9  C   UNL     1      -8.715   9.777  66.671  1.00  0.00    -0.131 C  
HETATM   10  OXT UNL     1      -8.359  10.655  67.440  1.00  0.00    -0.118 OA 
HETATM   11  O   UNL     1      -8.994   8.504  67.058  1.00  0.00    -0.132 OA 
HETATM   12  H1  UNL     1      -8.017   8.152  64.671  1.00  0.00     0.000 HD 
HETATM   13  H2  UNL     1      -9.107   8.697  63.507  1.00  0.00     0.000 HD 
ENDBRANCH   6   7
ENDBRANCH   5   6
ENDBRANCH   3   5
TORSDOF 3
ENDMDL
MODEL      153
REMARK 921   NORMALIZED FREE ENERGY PREDICTED BY IDOCK:   -2.11 KCAL/MOL
REMARK 922        TOTAL FREE ENERGY PREDICTED BY IDOCK:   -2.93 KCAL/MOL
REMARK 923 INTER-LIGAND FREE ENERGY PREDICTED BY IDOCK:   -2.86 KCAL/MOL
REMARK 924 INTRA-LIGAND FREE ENERGY PREDICTED BY IDOCK:   -0.07 KCAL/MOL
REMARK 927      BINDING AFFINITY PREDICTED BY RF-SCORE:    0.00 PKD
ROOT
HETATM    1  N   UNL     1     -10.298   4.859  69.927  1.00  0.00    -0.233 NA 
HETATM    2  H2  UNL     1     -10.859   4.707  70.765  1.00  0.00     0.000 HD 
HETATM    3  C   UNL     1     -10.795   5.972  69.126  1.00  0.00    -0.352 C  
HETATM    4  H1  UNL     1     -10.237   4.020  69.348  1.00  0.00     0.000 HD 
ENDROOT
BRANCH   3   5
HETATM    5  C   UNL     1     -10.886   7.227  69.992  1.00  0.00    -0.271 C  
BRANCH   5   6
HETATM    6  C   UNL     1     -12.065   7.151  70.975  1.00  0.00    -0.391 C  
BRANCH   6   7
HETATM    7  CA  UNL     1     -11.870   7.979  72.253  1.00  0.00    -0.369 C  
HETATM    8  N   UNL     1     -11.604   9.414  71.947  1.00  0.00    -0.355 NA 
HETATM    9  C   UNL     1     -10.698   7.426  73.078  1.00  0.00    -0.364 C  
HETATM   10  OXT UNL     1     -10.738   6.422  73.769  1.00  0.00    -0.270 OA 
HETATM   11  O   UNL     1      -9.581   8.183  72.911  1.00  0.00    -0.257 OA 
HETATM   12  H1  UNL     1     -11.475   9.965  72.795  1.00  0.00     0.000 HD 
HETATM   13  H2  UNL     1     -12.335   9.809  71.355  1.00  0.00     0.000 HD 
ENDBRANCH   6   7
ENDBRANCH   5   6
ENDBRANCH   3   5
TORSDOF 3
ENDMDL
MODEL      154
REMARK 921   NORMALIZED FREE ENERGY PREDICTED BY IDOCK:   -2.11 KCAL/MOL
REMARK 922        TOTAL FREE ENERGY PREDICTED BY IDOCK:   -2.93 KCAL/MOL
REMARK 923 INTER-LIGAND FREE ENERGY PREDICTED BY IDOCK:   -2.75 KCAL/MOL
REMARK 924 INTRA-LIGAND FREE ENERGY PREDICTED BY IDOCK:   -0.18 KCAL/MOL
REMARK 927      BINDING AFFINITY PREDICTED BY RF-SCORE:    0.00 PKD
ROOT
HETATM    1  N   UNL     1      -8.286   6.365  73.008  1.00  0.00    -0.116 NA 
HETATM    2  H2  UNL     1      -8.073   6.549  73.988  1.00  0.00     0.000 HD 
HETATM    3  C   UNL     1      -9.507   5.583  72.849  1.00  0.00    -0.140 C  
HETATM    4  H1  UNL     1      -7.516   5.900  72.527  1.00  0.00     0.000 HD 
ENDROOT
BRANCH   3   5
HETATM    5  C   UNL     1     -10.661   6.279  73.570  1.00  0.00    -0.288 C  
BRANCH   5   6
HETATM    6  C   UNL     1     -10.880   7.705  73.040  1.00  0.00    -0.457 C  
BRANCH   6   7
HETATM    7  CA  UNL     1     -12.021   7.826  72.021  1.00  0.00    -0.308 C  
HETATM    8  N   UNL     1     -13.023   6.735  72.180  1.00  0.00    -0.555 NA 
HETATM    9  C   UNL     1     -11.468   7.782  70.588  1.00  0.00    -0.245 C  
HETATM   10  OXT UNL     1     -10.903   8.705  70.024  1.00  0.00    -0.232 OA 
HETATM   11  O   UNL     1     -11.652   6.557  70.028  1.00  0.00    -0.407 OA 
HETATM   12  H1  UNL     1     -13.782   6.816  71.503  1.00  0.00     0.000 HD 
HETATM   13  H2  UNL     1     -13.381   6.695  73.135  1.00  0.00     0.000 HD 
ENDBRANCH   6   7
ENDBRANCH   5   6
ENDBRANCH   3   5
TORSDOF 3
ENDMDL
MODEL      155
REMARK 921   NORMALIZED FREE ENERGY PREDICTED BY IDOCK:   -2.10 KCAL/MOL
REMARK 922        TOTAL FREE ENERGY PREDICTED BY IDOCK:   -2.93 KCAL/MOL
REMARK 923 INTER-LIGAND FREE ENERGY PREDICTED BY IDOCK:   -2.86 KCAL/MOL
REMARK 924 INTRA-LIGAND FREE ENERGY PREDICTED BY IDOCK:   -0.07 KCAL/MOL
REMARK 927      BINDING AFFINITY PREDICTED BY RF-SCORE:    0.00 PKD
ROOT
HETATM    1  N   UNL     1     -11.218  12.117  68.083  1.00  0.00    -0.246 NA 
HETATM    2  H2  UNL     1     -10.699  11.766  67.278  1.00  0.00     0.000 HD 
HETATM    3  C   UNL     1     -11.012  13.545  68.291  1.00  0.00    -0.258 C  
HETATM    4  H1  UNL     1     -10.990  11.609  68.938  1.00  0.00     0.000 HD 
ENDROOT
BRANCH   3   5
HETATM    5  C   UNL     1     -11.354  14.305  67.010  1.00  0.00    -0.354 C  
BRANCH   5   6
HETATM    6  C   UNL     1     -10.985  15.793  67.119  1.00  0.00    -0.244 C  
BRANCH   6   7
HETATM    7  CA  UNL     1      -9.937  16.255  66.097  1.00  0.00    -0.334 C  
HETATM    8  N   UNL     1      -8.562  16.246  66.672  1.00  0.00    -0.236 NA 
HETATM    9  C   UNL     1     -10.256  17.675  65.605  1.00  0.00    -0.045 C  
HETATM   10  OXT UNL     1     -11.127  17.960  64.800  1.00  0.00    -0.785 OA 
HETATM   11  O   UNL     1      -9.463  18.595  66.215  1.00  0.00    -0.363 OA 
HETATM   12  H1  UNL     1      -7.865  16.553  65.993  1.00  0.00     0.000 HD 
HETATM   13  H2  UNL     1      -8.326  15.331  67.059  1.00  0.00     0.000 HD 
ENDBRANCH   6   7
ENDBRANCH   5   6
ENDBRANCH   3   5
TORSDOF 3
ENDMDL
MODEL      156
REMARK 921   NORMALIZED FREE ENERGY PREDICTED BY IDOCK:   -2.10 KCAL/MOL
REMARK 922        TOTAL FREE ENERGY PREDICTED BY IDOCK:   -2.93 KCAL/MOL
REMARK 923 INTER-LIGAND FREE ENERGY PREDICTED BY IDOCK:   -2.38 KCAL/MOL
REMARK 924 INTRA-LIGAND FREE ENERGY PREDICTED BY IDOCK:   -0.55 KCAL/MOL
REMARK 927      BINDING AFFINITY PREDICTED BY RF-SCORE:    0.00 PKD
ROOT
HETATM    1  N   UNL     1     -10.228   7.154  70.446  1.00  0.00    -0.192 NA 
HETATM    2  H2  UNL     1     -10.723   8.038  70.567  1.00  0.00     0.000 HD 
HETATM    3  C   UNL     1     -10.008   6.835  69.040  1.00  0.00    -0.155 C  
HETATM    4  H1  UNL     1     -10.708   6.379  70.903  1.00  0.00     0.000 HD 
ENDROOT
BRANCH   3   5
HETATM    5  C   UNL     1      -9.289   7.996  68.356  1.00  0.00    -0.138 C  
BRANCH   5   6
HETATM    6  C   UNL     1     -10.252   9.153  68.047  1.00  0.00    -0.258 C  
BRANCH   6   7
HETATM    7  CA  UNL     1     -10.122  10.349  69.001  1.00  0.00    -0.213 C  
HETATM    8  N   UNL     1      -9.009  10.160  69.975  1.00  0.00    -0.380 NA 
HETATM    9  C   UNL     1     -11.429  10.558  69.781  1.00  0.00    -0.294 C  
HETATM   10  OXT UNL     1     -12.442  11.065  69.329  1.00  0.00    -0.400 OA 
HETATM   11  O   UNL     1     -11.330  10.068  71.045  1.00  0.00    -0.347 OA 
HETATM   12  H1  UNL     1      -8.922  10.955  70.609  1.00  0.00     0.000 HD 
HETATM   13  H2  UNL     1      -8.127   9.967  69.499  1.00  0.00     0.000 HD 
ENDBRANCH   6   7
ENDBRANCH   5   6
ENDBRANCH   3   5
TORSDOF 3
ENDMDL
MODEL      157
REMARK 921   NORMALIZED FREE ENERGY PREDICTED BY IDOCK:   -2.09 KCAL/MOL
REMARK 922        TOTAL FREE ENERGY PREDICTED BY IDOCK:   -2.92 KCAL/MOL
REMARK 923 INTER-LIGAND FREE ENERGY PREDICTED BY IDOCK:   -2.83 KCAL/MOL
REMARK 924 INTRA-LIGAND FREE ENERGY PREDICTED BY IDOCK:   -0.09 KCAL/MOL
REMARK 927      BINDING AFFINITY PREDICTED BY RF-SCORE:    0.00 PKD
ROOT
HETATM    1  N   UNL     1     -10.813   8.378  68.706  1.00  0.00    -0.432 NA 
HETATM    2  H2  UNL     1     -10.638   8.788  69.623  1.00  0.00     0.000 HD 
HETATM    3  C   UNL     1     -10.574   6.939  68.693  1.00  0.00    -0.223 C  
HETATM    4  H1  UNL     1     -10.262   8.824  67.973  1.00  0.00     0.000 HD 
ENDROOT
BRANCH   3   5
HETATM    5  C   UNL     1     -11.400   6.270  69.790  1.00  0.00    -0.506 C  
BRANCH   5   6
HETATM    6  C   UNL     1     -10.515   5.794  70.953  1.00  0.00    -0.317 C  
BRANCH   6   7
HETATM    7  CA  UNL     1      -9.876   6.931  71.761  1.00  0.00    -0.163 C  
HETATM    8  N   UNL     1      -8.627   6.491  72.445  1.00  0.00    -0.119 NA 
HETATM    9  C   UNL     1     -10.858   7.455  72.820  1.00  0.00    -0.326 C  
HETATM   10  OXT UNL     1     -11.809   8.186  72.595  1.00  0.00    -0.395 OA 
HETATM   11  O   UNL     1     -10.558   6.966  74.052  1.00  0.00    -0.349 OA 
HETATM   12  H1  UNL     1      -8.202   7.247  72.982  1.00  0.00     0.000 HD 
HETATM   13  H2  UNL     1      -7.963   6.087  71.783  1.00  0.00     0.000 HD 
ENDBRANCH   6   7
ENDBRANCH   5   6
ENDBRANCH   3   5
TORSDOF 3
ENDMDL
MODEL      158
REMARK 921   NORMALIZED FREE ENERGY PREDICTED BY IDOCK:   -2.09 KCAL/MOL
REMARK 922        TOTAL FREE ENERGY PREDICTED BY IDOCK:   -2.92 KCAL/MOL
REMARK 923 INTER-LIGAND FREE ENERGY PREDICTED BY IDOCK:   -2.82 KCAL/MOL
REMARK 924 INTRA-LIGAND FREE ENERGY PREDICTED BY IDOCK:   -0.10 KCAL/MOL
REMARK 927      BINDING AFFINITY PREDICTED BY RF-SCORE:    0.00 PKD
ROOT
HETATM    1  N   UNL     1     -12.331  10.671  69.070  1.00  0.00    -0.779 NA 
HETATM    2  H2  UNL     1     -11.833   9.990  68.497  1.00  0.00     0.000 HD 
HETATM    3  C   UNL     1     -11.707  11.988  69.025  1.00  0.00    -0.325 C  
HETATM    4  H1  UNL     1     -12.420  10.367  70.040  1.00  0.00     0.000 HD 
ENDROOT
BRANCH   3   5
HETATM    5  C   UNL     1     -11.574  12.445  67.572  1.00  0.00    -0.431 C  
BRANCH   5   6
HETATM    6  C   UNL     1     -10.988  11.336  66.683  1.00  0.00    -0.326 C  
BRANCH   6   7
HETATM    7  CA  UNL     1      -9.831  11.799  65.787  1.00  0.00    -0.240 C  
HETATM    8  N   UNL     1      -9.923  11.212  64.419  1.00  0.00    -0.276 NA 
HETATM    9  C   UNL     1      -8.481  11.402  66.404  1.00  0.00    -0.160 C  
HETATM   10  OXT UNL     1      -7.944  11.968  67.341  1.00  0.00    -0.147 OA 
HETATM   11  O   UNL     1      -7.968  10.301  65.794  1.00  0.00    -0.132 OA 
HETATM   12  H1  UNL     1      -9.154  11.519  63.823  1.00  0.00     0.000 HD 
HETATM   13  H2  UNL     1     -10.828  11.408  63.990  1.00  0.00     0.000 HD 
ENDBRANCH   6   7
ENDBRANCH   5   6
ENDBRANCH   3   5
TORSDOF 3
ENDMDL
MODEL      159
REMARK 921   NORMALIZED FREE ENERGY PREDICTED BY IDOCK:   -2.09 KCAL/MOL
REMARK 922        TOTAL FREE ENERGY PREDICTED BY IDOCK:   -2.91 KCAL/MOL
REMARK 923 INTER-LIGAND FREE ENERGY PREDICTED BY IDOCK:   -2.84 KCAL/MOL
REMARK 924 INTRA-LIGAND FREE ENERGY PREDICTED BY IDOCK:   -0.07 KCAL/MOL
REMARK 927      BINDING AFFINITY PREDICTED BY RF-SCORE:    0.00 PKD
ROOT
HETATM    1  N   UNL     1      -9.684  20.198  65.977  1.00  0.00    -0.611 NA 
HETATM    2  H2  UNL     1      -8.687  20.005  65.877  1.00  0.00     0.000 HD 
HETATM    3  C   UNL     1     -10.479  18.977  66.017  1.00  0.00    -0.458 C  
HETATM    4  H1  UNL     1     -10.033  20.811  65.240  1.00  0.00     0.000 HD 
ENDROOT
BRANCH   3   5
HETATM    5  C   UNL     1      -9.956  18.059  67.122  1.00  0.00    -0.326 C  
BRANCH   5   6
HETATM    6  C   UNL     1      -9.107  16.914  66.550  1.00  0.00    -0.302 C  
BRANCH   6   7
HETATM    7  CA  UNL     1      -9.600  15.513  66.939  1.00  0.00    -0.228 C  
HETATM    8  N   UNL     1     -11.026  15.303  66.559  1.00  0.00    -0.313 NA 
HETATM    9  C   UNL     1      -9.457  15.295  68.453  1.00  0.00    -0.206 C  
HETATM   10  OXT UNL     1      -8.410  15.057  69.033  1.00  0.00    -0.175 OA 
HETATM   11  O   UNL     1     -10.652  15.440  69.085  1.00  0.00    -0.226 OA 
HETATM   12  H1  UNL     1     -11.354  14.372  66.817  1.00  0.00     0.000 HD 
HETATM   13  H2  UNL     1     -11.177  15.488  65.566  1.00  0.00     0.000 HD 
ENDBRANCH   6   7
ENDBRANCH   5   6
ENDBRANCH   3   5
TORSDOF 3
ENDMDL
MODEL      160
REMARK 921   NORMALIZED FREE ENERGY PREDICTED BY IDOCK:   -2.08 KCAL/MOL
REMARK 922        TOTAL FREE ENERGY PREDICTED BY IDOCK:   -2.91 KCAL/MOL
REMARK 923 INTER-LIGAND FREE ENERGY PREDICTED BY IDOCK:   -2.38 KCAL/MOL
REMARK 924 INTRA-LIGAND FREE ENERGY PREDICTED BY IDOCK:   -0.53 KCAL/MOL
REMARK 927      BINDING AFFINITY PREDICTED BY RF-SCORE:    0.00 PKD
ROOT
HETATM    1  N   UNL     1     -11.072   5.550  66.159  1.00  0.00    -0.778 NA 
HETATM    2  H2  UNL     1     -10.116   5.420  65.827  1.00  0.00     0.000 HD 
HETATM    3  C   UNL     1     -11.132   6.410  67.336  1.00  0.00    -0.322 C  
HETATM    4  H1  UNL     1     -11.533   4.662  66.359  1.00  0.00     0.000 HD 
ENDROOT
BRANCH   3   5
HETATM    5  C   UNL     1     -10.440   7.739  67.036  1.00  0.00    -0.419 C  
BRANCH   5   6
HETATM    6  C   UNL     1      -8.966   7.720  67.470  1.00  0.00    -0.126 C  
BRANCH   6   7
HETATM    7  CA  UNL     1      -7.980   7.451  66.325  1.00  0.00    -0.109 C  
HETATM    8  N   UNL     1      -8.586   7.740  64.994  1.00  0.00    -0.366 NA 
HETATM    9  C   UNL     1      -7.517   5.986  66.348  1.00  0.00    -0.086 C  
HETATM   10  OXT UNL     1      -6.699   5.520  67.125  1.00  0.00    -0.055 OA 
HETATM   11  O   UNL     1      -8.167   5.251  65.408  1.00  0.00    -0.115 OA 
HETATM   12  H1  UNL     1      -7.930   7.561  64.232  1.00  0.00     0.000 HD 
HETATM   13  H2  UNL     1      -8.954   8.690  64.951  1.00  0.00     0.000 HD 
ENDBRANCH   6   7
ENDBRANCH   5   6
ENDBRANCH   3   5
TORSDOF 3
ENDMDL
MODEL      161
REMARK 921   NORMALIZED FREE ENERGY PREDICTED BY IDOCK:   -2.08 KCAL/MOL
REMARK 922        TOTAL FREE ENERGY PREDICTED BY IDOCK:   -2.90 KCAL/MOL
REMARK 923 INTER-LIGAND FREE ENERGY PREDICTED BY IDOCK:   -2.88 KCAL/MOL
REMARK 924 INTRA-LIGAND FREE ENERGY PREDICTED BY IDOCK:   -0.02 KCAL/MOL
REMARK 927      BINDING AFFINITY PREDICTED BY RF-SCORE:    0.00 PKD
ROOT
HETATM    1  N   UNL     1     -11.091   5.619  66.157  1.00  0.00    -0.756 NA 
HETATM    2  H2  UNL     1     -10.156   5.220  66.071  1.00  0.00     0.000 HD 
HETATM    3  C   UNL     1     -11.147   6.678  67.158  1.00  0.00    -0.357 C  
HETATM    4  H1  UNL     1     -11.793   4.909  66.368  1.00  0.00     0.000 HD 
ENDROOT
BRANCH   3   5
HETATM    5  C   UNL     1     -10.096   7.740  66.841  1.00  0.00    -0.356 C  
BRANCH   5   6
HETATM    6  C   UNL     1     -10.518   9.125  67.358  1.00  0.00    -0.339 C  
BRANCH   6   7
HETATM    7  CA  UNL     1      -9.800   9.559  68.643  1.00  0.00    -0.162 C  
HETATM    8  N   UNL     1      -9.106   8.416  69.303  1.00  0.00    -0.150 NA 
HETATM    9  C   UNL     1     -10.801  10.168  69.638  1.00  0.00    -0.263 C  
HETATM   10  OXT UNL     1     -11.277  11.288  69.558  1.00  0.00    -0.252 OA 
HETATM   11  O   UNL     1     -11.127   9.278  70.612  1.00  0.00    -0.243 OA 
HETATM   12  H1  UNL     1      -8.629   8.704  70.157  1.00  0.00     0.000 HD 
HETATM   13  H2  UNL     1      -8.467   7.948  68.659  1.00  0.00     0.000 HD 
ENDBRANCH   6   7
ENDBRANCH   5   6
ENDBRANCH   3   5
TORSDOF 3
ENDMDL
MODEL      162
REMARK 921   NORMALIZED FREE ENERGY PREDICTED BY IDOCK:   -2.06 KCAL/MOL
REMARK 922        TOTAL FREE ENERGY PREDICTED BY IDOCK:   -2.88 KCAL/MOL
REMARK 923 INTER-LIGAND FREE ENERGY PREDICTED BY IDOCK:   -2.77 KCAL/MOL
REMARK 924 INTRA-LIGAND FREE ENERGY PREDICTED BY IDOCK:   -0.12 KCAL/MOL
REMARK 927      BINDING AFFINITY PREDICTED BY RF-SCORE:    0.00 PKD
ROOT
HETATM    1  N   UNL     1      -8.395  10.731  64.267  1.00  0.00    -0.364 NA 
HETATM    2  H2  UNL     1      -8.607   9.823  63.854  1.00  0.00     0.000 HD 
HETATM    3  C   UNL     1      -9.193  10.992  65.460  1.00  0.00    -0.213 C  
HETATM    4  H1  UNL     1      -8.514  11.494  63.601  1.00  0.00     0.000 HD 
ENDROOT
BRANCH   3   5
HETATM    5  C   UNL     1      -9.014   9.849  66.458  1.00  0.00    -0.166 C  
BRANCH   5   6
HETATM    6  C   UNL     1     -10.239   9.703  67.375  1.00  0.00    -0.283 C  
BRANCH   6   7
HETATM    7  CA  UNL     1     -10.421  10.860  68.367  1.00  0.00    -0.183 C  
HETATM    8  N   UNL     1     -10.249  10.411  69.778  1.00  0.00    -0.374 NA 
HETATM    9  C   UNL     1     -11.817  11.484  68.214  1.00  0.00    -0.256 C  
HETATM   10  OXT UNL     1     -12.155  12.237  67.316  1.00  0.00    -0.548 OA 
HETATM   11  O   UNL     1     -12.655  11.057  69.196  1.00  0.00    -0.378 OA 
HETATM   12  H1  UNL     1     -10.370  11.180  70.437  1.00  0.00     0.000 HD 
HETATM   13  H2  UNL     1      -9.353   9.943  69.913  1.00  0.00     0.000 HD 
ENDBRANCH   6   7
ENDBRANCH   5   6
ENDBRANCH   3   5
TORSDOF 3
ENDMDL
MODEL      163
REMARK 921   NORMALIZED FREE ENERGY PREDICTED BY IDOCK:   -2.05 KCAL/MOL
REMARK 922        TOTAL FREE ENERGY PREDICTED BY IDOCK:   -2.87 KCAL/MOL
REMARK 923 INTER-LIGAND FREE ENERGY PREDICTED BY IDOCK:   -2.74 KCAL/MOL
REMARK 924 INTRA-LIGAND FREE ENERGY PREDICTED BY IDOCK:   -0.13 KCAL/MOL
REMARK 927      BINDING AFFINITY PREDICTED BY RF-SCORE:    0.00 PKD
ROOT
HETATM    1  N   UNL     1     -13.527  11.435  72.221  1.00  0.00    -0.518 NA 
HETATM    2  H2  UNL     1     -13.854  12.359  71.940  1.00  0.00     0.000 HD 
HETATM    3  C   UNL     1     -13.014  10.667  71.092  1.00  0.00    -0.387 C  
HETATM    4  H1  UNL     1     -14.252  10.899  72.699  1.00  0.00     0.000 HD 
ENDROOT
BRANCH   3   5
HETATM    5  C   UNL     1     -11.928  11.469  70.376  1.00  0.00    -0.459 C  
BRANCH   5   6
HETATM    6  C   UNL     1     -11.556  10.836  69.026  1.00  0.00    -0.370 C  
BRANCH   6   7
HETATM    7  CA  UNL     1     -10.235  10.054  69.044  1.00  0.00    -0.203 C  
HETATM    8  N   UNL     1      -9.466  10.238  67.781  1.00  0.00    -0.147 NA 
HETATM    9  C   UNL     1     -10.500   8.554  69.245  1.00  0.00    -0.215 C  
HETATM   10  OXT UNL     1     -10.794   8.029  70.307  1.00  0.00    -0.238 OA 
HETATM   11  O   UNL     1     -10.406   7.878  68.070  1.00  0.00    -0.203 OA 
HETATM   12  H1  UNL     1      -8.587   9.719  67.792  1.00  0.00     0.000 HD 
HETATM   13  H2  UNL     1      -9.310  11.227  67.581  1.00  0.00     0.000 HD 
ENDBRANCH   6   7
ENDBRANCH   5   6
ENDBRANCH   3   5
TORSDOF 3
ENDMDL
MODEL      164
REMARK 921   NORMALIZED FREE ENERGY PREDICTED BY IDOCK:   -2.05 KCAL/MOL
REMARK 922        TOTAL FREE ENERGY PREDICTED BY IDOCK:   -2.86 KCAL/MOL
REMARK 923 INTER-LIGAND FREE ENERGY PREDICTED BY IDOCK:   -2.68 KCAL/MOL
REMARK 924 INTRA-LIGAND FREE ENERGY PREDICTED BY IDOCK:   -0.19 KCAL/MOL
REMARK 927      BINDING AFFINITY PREDICTED BY RF-SCORE:    0.00 PKD
ROOT
HETATM    1  N   UNL     1     -10.621   9.778  70.522  1.00  0.00    -0.296 NA 
HETATM    2  H2  UNL     1     -11.436   9.206  70.305  1.00  0.00     0.000 HD 
HETATM    3  C   UNL     1      -9.510   8.982  71.032  1.00  0.00    -0.274 C  
HETATM    4  H1  UNL     1     -10.839  10.525  71.182  1.00  0.00     0.000 HD 
ENDROOT
BRANCH   3   5
HETATM    5  C   UNL     1      -9.184   7.863  70.043  1.00  0.00    -0.153 C  
BRANCH   5   6
HETATM    6  C   UNL     1     -10.366   7.574  69.106  1.00  0.00    -0.215 C  
BRANCH   6   7
HETATM    7  CA  UNL     1     -11.301   6.462  69.600  1.00  0.00    -0.412 C  
HETATM    8  N   UNL     1     -12.309   6.976  70.570  1.00  0.00    -0.614 NA 
HETATM    9  C   UNL     1     -10.493   5.343  70.276  1.00  0.00    -0.285 C  
HETATM   10  OXT UNL     1      -9.840   4.496  69.689  1.00  0.00    -0.205 OA 
HETATM   11  O   UNL     1     -10.564   5.436  71.630  1.00  0.00    -0.227 OA 
HETATM   12  H1  UNL     1     -12.931   6.237  70.898  1.00  0.00     0.000 HD 
HETATM   13  H2  UNL     1     -12.836   7.758  70.179  1.00  0.00     0.000 HD 
ENDBRANCH   6   7
ENDBRANCH   5   6
ENDBRANCH   3   5
TORSDOF 3
ENDMDL
MODEL      165
REMARK 921   NORMALIZED FREE ENERGY PREDICTED BY IDOCK:   -2.04 KCAL/MOL
REMARK 922        TOTAL FREE ENERGY PREDICTED BY IDOCK:   -2.86 KCAL/MOL
REMARK 923 INTER-LIGAND FREE ENERGY PREDICTED BY IDOCK:   -2.51 KCAL/MOL
REMARK 924 INTRA-LIGAND FREE ENERGY PREDICTED BY IDOCK:   -0.34 KCAL/MOL
REMARK 927      BINDING AFFINITY PREDICTED BY RF-SCORE:    0.00 PKD
ROOT
HETATM    1  N   UNL     1      -8.061  10.467  66.982  1.00  0.00    -0.115 NA 
HETATM    2  H2  UNL     1      -8.714   9.983  67.598  1.00  0.00     0.000 HD 
HETATM    3  C   UNL     1      -8.275  10.129  65.579  1.00  0.00    -0.156 C  
HETATM    4  H1  UNL     1      -7.089  10.287  67.233  1.00  0.00     0.000 HD 
ENDROOT
BRANCH   3   5
HETATM    5  C   UNL     1      -9.731  10.400  65.203  1.00  0.00    -0.353 C  
BRANCH   5   6
HETATM    6  C   UNL     1     -10.084  11.889  65.343  1.00  0.00    -0.285 C  
BRANCH   6   7
HETATM    7  CA  UNL     1     -11.158  12.181  66.400  1.00  0.00    -0.314 C  
HETATM    8  N   UNL     1     -12.324  12.906  65.819  1.00  0.00    -0.550 NA 
HETATM    9  C   UNL     1     -10.572  13.027  67.542  1.00  0.00    -0.230 C  
HETATM   10  OXT UNL     1      -9.851  12.604  68.430  1.00  0.00    -0.226 OA 
HETATM   11  O   UNL     1     -10.927  14.333  67.417  1.00  0.00    -0.284 OA 
HETATM   12  H1  UNL     1     -13.038  13.100  66.521  1.00  0.00     0.000 HD 
HETATM   13  H2  UNL     1     -12.714  12.402  65.022  1.00  0.00     0.000 HD 
ENDBRANCH   6   7
ENDBRANCH   5   6
ENDBRANCH   3   5
TORSDOF 3
ENDMDL
MODEL      166
REMARK 921   NORMALIZED FREE ENERGY PREDICTED BY IDOCK:   -2.00 KCAL/MOL
REMARK 922        TOTAL FREE ENERGY PREDICTED BY IDOCK:   -2.81 KCAL/MOL
REMARK 923 INTER-LIGAND FREE ENERGY PREDICTED BY IDOCK:   -3.13 KCAL/MOL
REMARK 924 INTRA-LIGAND FREE ENERGY PREDICTED BY IDOCK:    0.32 KCAL/MOL
REMARK 927      BINDING AFFINITY PREDICTED BY RF-SCORE:    0.00 PKD
ROOT
HETATM    1  N   UNL     1     -13.319  14.984  70.396  1.00  0.00    -0.658 NA 
HETATM    2  H2  UNL     1     -13.617  14.009  70.370  1.00  0.00     0.000 HD 
HETATM    3  C   UNL     1     -11.926  15.144  69.998  1.00  0.00    -0.336 C  
HETATM    4  H1  UNL     1     -13.465  15.407  71.312  1.00  0.00     0.000 HD 
ENDROOT
BRANCH   3   5
HETATM    5  C   UNL     1     -11.707  14.510  68.624  1.00  0.00    -0.364 C  
BRANCH   5   6
HETATM    6  C   UNL     1     -11.529  15.577  67.532  1.00  0.00    -0.184 C  
BRANCH   6   7
HETATM    7  CA  UNL     1     -10.169  16.287  67.566  1.00  0.00    -0.270 C  
HETATM    8  N   UNL     1      -9.327  15.817  68.703  1.00  0.00    -0.196 NA 
HETATM    9  C   UNL     1     -10.359  17.807  67.691  1.00  0.00    -0.373 C  
HETATM   10  OXT UNL     1     -10.693  18.549  66.782  1.00  0.00    -0.372 OA 
HETATM   11  O   UNL     1     -10.146  18.225  68.966  1.00  0.00    -0.379 OA 
HETATM   12  H1  UNL     1      -8.423  16.289  68.726  1.00  0.00     0.000 HD 
HETATM   13  H2  UNL     1      -9.217  14.802  68.689  1.00  0.00     0.000 HD 
ENDBRANCH   6   7
ENDBRANCH   5   6
ENDBRANCH   3   5
TORSDOF 3
ENDMDL
MODEL      167
REMARK 921   NORMALIZED FREE ENERGY PREDICTED BY IDOCK:   -1.99 KCAL/MOL
REMARK 922        TOTAL FREE ENERGY PREDICTED BY IDOCK:   -2.79 KCAL/MOL
REMARK 923 INTER-LIGAND FREE ENERGY PREDICTED BY IDOCK:   -2.37 KCAL/MOL
REMARK 924 INTRA-LIGAND FREE ENERGY PREDICTED BY IDOCK:   -0.43 KCAL/MOL
REMARK 927      BINDING AFFINITY PREDICTED BY RF-SCORE:    0.00 PKD
ROOT
HETATM    1  N   UNL     1     -11.289   4.978  65.586  1.00  0.00    -0.874 NA 
HETATM    2  H2  UNL     1     -11.179   5.705  64.880  1.00  0.00     0.000 HD 
HETATM    3  C   UNL     1     -10.044   4.261  65.836  1.00  0.00    -0.205 C  
HETATM    4  H1  UNL     1     -12.024   4.313  65.342  1.00  0.00     0.000 HD 
ENDROOT
BRANCH   3   5
HETATM    5  C   UNL     1      -8.943   5.256  66.202  1.00  0.00    -0.139 C  
BRANCH   5   6
HETATM    6  C   UNL     1      -8.698   5.294  67.718  1.00  0.00    -0.103 C  
BRANCH   6   7
HETATM    7  CA  UNL     1      -9.471   6.400  68.450  1.00  0.00    -0.119 C  
HETATM    8  N   UNL     1     -10.862   5.978  68.778  1.00  0.00    -0.313 NA 
HETATM    9  C   UNL     1      -9.531   7.672  67.591  1.00  0.00    -0.142 C  
HETATM   10  OXT UNL     1      -8.611   8.458  67.433  1.00  0.00    -0.123 OA 
HETATM   11  O   UNL     1     -10.742   7.798  66.985  1.00  0.00    -0.347 OA 
HETATM   12  H1  UNL     1     -11.376   6.713  69.265  1.00  0.00     0.000 HD 
HETATM   13  H2  UNL     1     -10.871   5.105  69.307  1.00  0.00     0.000 HD 
ENDBRANCH   6   7
ENDBRANCH   5   6
ENDBRANCH   3   5
TORSDOF 3
ENDMDL
MODEL      168
REMARK 921   NORMALIZED FREE ENERGY PREDICTED BY IDOCK:   -1.98 KCAL/MOL
REMARK 922        TOTAL FREE ENERGY PREDICTED BY IDOCK:   -2.79 KCAL/MOL
REMARK 923 INTER-LIGAND FREE ENERGY PREDICTED BY IDOCK:   -2.70 KCAL/MOL
REMARK 924 INTRA-LIGAND FREE ENERGY PREDICTED BY IDOCK:   -0.09 KCAL/MOL
REMARK 927      BINDING AFFINITY PREDICTED BY RF-SCORE:    0.00 PKD
ROOT
HETATM    1  N   UNL     1      -9.022   9.024  63.815  1.00  0.00    -0.419 NA 
HETATM    2  H2  UNL     1      -9.633   8.497  64.439  1.00  0.00     0.000 HD 
HETATM    3  C   UNL     1      -9.495  10.388  63.605  1.00  0.00    -0.306 C  
HETATM    4  H1  UNL     1      -8.900   8.561  62.915  1.00  0.00     0.000 HD 
ENDROOT
BRANCH   3   5
HETATM    5  C   UNL     1      -9.678  11.082  64.954  1.00  0.00    -0.303 C  
BRANCH   5   6
HETATM    6  C   UNL     1      -9.961  10.071  66.076  1.00  0.00    -0.334 C  
BRANCH   6   7
HETATM    7  CA  UNL     1     -10.694  10.666  67.286  1.00  0.00    -0.285 C  
HETATM    8  N   UNL     1     -11.819  11.551  66.870  1.00  0.00    -0.490 NA 
HETATM    9  C   UNL     1      -9.723  11.479  68.155  1.00  0.00    -0.192 C  
HETATM   10  OXT UNL     1      -8.901  11.005  68.922  1.00  0.00    -0.164 OA 
HETATM   11  O   UNL     1      -9.865  12.813  67.935  1.00  0.00    -0.209 OA 
HETATM   12  H1  UNL     1     -12.307  11.947  67.675  1.00  0.00     0.000 HD 
HETATM   13  H2  UNL     1     -12.464  11.065  66.247  1.00  0.00     0.000 HD 
ENDBRANCH   6   7
ENDBRANCH   5   6
ENDBRANCH   3   5
TORSDOF 3
ENDMDL
MODEL      169
REMARK 921   NORMALIZED FREE ENERGY PREDICTED BY IDOCK:   -1.98 KCAL/MOL
REMARK 922        TOTAL FREE ENERGY PREDICTED BY IDOCK:   -2.78 KCAL/MOL
REMARK 923 INTER-LIGAND FREE ENERGY PREDICTED BY IDOCK:   -2.57 KCAL/MOL
REMARK 924 INTRA-LIGAND FREE ENERGY PREDICTED BY IDOCK:   -0.21 KCAL/MOL
REMARK 927      BINDING AFFINITY PREDICTED BY RF-SCORE:    0.00 PKD
ROOT
HETATM    1  N   UNL     1     -10.715   5.101  72.039  1.00  0.00    -0.201 NA 
HETATM    2  H2  UNL     1      -9.843   5.568  71.789  1.00  0.00     0.000 HD 
HETATM    3  C   UNL     1     -11.815   6.044  72.207  1.00  0.00    -0.250 C  
HETATM    4  H1  UNL     1     -10.618   4.533  72.881  1.00  0.00     0.000 HD 
ENDROOT
BRANCH   3   5
HETATM    5  C   UNL     1     -11.959   6.895  70.946  1.00  0.00    -0.430 C  
BRANCH   5   6
HETATM    6  C   UNL     1     -10.624   7.543  70.546  1.00  0.00    -0.232 C  
BRANCH   6   7
HETATM    7  CA  UNL     1     -10.282   8.813  71.337  1.00  0.00    -0.280 C  
HETATM    8  N   UNL     1     -10.037   9.976  70.437  1.00  0.00    -0.398 NA 
HETATM    9  C   UNL     1      -9.033   8.588  72.203  1.00  0.00    -0.230 C  
HETATM   10  OXT UNL     1      -9.008   7.962  73.250  1.00  0.00    -0.207 OA 
HETATM   11  O   UNL     1      -7.933   9.145  71.631  1.00  0.00    -0.342 OA 
HETATM   12  H1  UNL     1      -9.810  10.820  70.963  1.00  0.00     0.000 HD 
HETATM   13  H2  UNL     1     -10.824  10.131  69.807  1.00  0.00     0.000 HD 
ENDBRANCH   6   7
ENDBRANCH   5   6
ENDBRANCH   3   5
TORSDOF 3
ENDMDL
MODEL      170
REMARK 921   NORMALIZED FREE ENERGY PREDICTED BY IDOCK:   -1.98 KCAL/MOL
REMARK 922        TOTAL FREE ENERGY PREDICTED BY IDOCK:   -2.78 KCAL/MOL
REMARK 923 INTER-LIGAND FREE ENERGY PREDICTED BY IDOCK:   -2.66 KCAL/MOL
REMARK 924 INTRA-LIGAND FREE ENERGY PREDICTED BY IDOCK:   -0.12 KCAL/MOL
REMARK 927      BINDING AFFINITY PREDICTED BY RF-SCORE:    0.00 PKD
ROOT
HETATM    1  N   UNL     1      -6.585  19.193  69.885  1.00  0.00    -0.149 NA 
HETATM    2  H2  UNL     1      -5.848  18.495  69.984  1.00  0.00     0.000 HD 
HETATM    3  C   UNL     1      -6.860  19.508  68.488  1.00  0.00    -0.295 C  
HETATM    4  H1  UNL     1      -6.373  20.051  70.395  1.00  0.00     0.000 HD 
ENDROOT
BRANCH   3   5
HETATM    5  C   UNL     1      -7.177  18.222  67.725  1.00  0.00    -0.215 C  
BRANCH   5   6
HETATM    6  C   UNL     1      -8.284  17.412  68.418  1.00  0.00    -0.262 C  
BRANCH   6   7
HETATM    7  CA  UNL     1      -9.705  17.781  67.968  1.00  0.00    -0.304 C  
HETATM    8  N   UNL     1     -10.401  18.631  68.976  1.00  0.00    -0.455 NA 
HETATM    9  C   UNL     1     -10.539  16.513  67.732  1.00  0.00    -0.332 C  
HETATM   10  OXT UNL     1     -10.450  15.784  66.758  1.00  0.00    -0.295 OA 
HETATM   11  O   UNL     1     -11.376  16.275  68.777  1.00  0.00    -0.350 OA 
HETATM   12  H1  UNL     1     -11.345  18.876  68.677  1.00  0.00     0.000 HD 
HETATM   13  H2  UNL     1      -9.854  19.463  69.201  1.00  0.00     0.000 HD 
ENDBRANCH   6   7
ENDBRANCH   5   6
ENDBRANCH   3   5
TORSDOF 3
ENDMDL
MODEL      171
REMARK 921   NORMALIZED FREE ENERGY PREDICTED BY IDOCK:   -1.96 KCAL/MOL
REMARK 922        TOTAL FREE ENERGY PREDICTED BY IDOCK:   -2.77 KCAL/MOL
REMARK 923 INTER-LIGAND FREE ENERGY PREDICTED BY IDOCK:   -2.73 KCAL/MOL
REMARK 924 INTRA-LIGAND FREE ENERGY PREDICTED BY IDOCK:   -0.04 KCAL/MOL
REMARK 927      BINDING AFFINITY PREDICTED BY RF-SCORE:    0.00 PKD
ROOT
HETATM    1  N   UNL     1     -13.722   9.674  72.482  1.00  0.00    -0.684 NA 
HETATM    2  H2  UNL     1     -14.025  10.253  73.264  1.00  0.00     0.000 HD 
HETATM    3  C   UNL     1     -13.664  10.423  71.232  1.00  0.00     0.191 C  
HETATM    4  H1  UNL     1     -14.314   8.851  72.361  1.00  0.00     0.000 HD 
ENDROOT
BRANCH   3   5
HETATM    5  C   UNL     1     -12.778  11.655  71.413  1.00  0.00    -0.445 C  
BRANCH   5   6
HETATM    6  C   UNL     1     -13.592  12.873  71.875  1.00  0.00    -0.382 C  
BRANCH   6   7
HETATM    7  CA  UNL     1     -12.804  14.191  71.873  1.00  0.00    -0.341 C  
HETATM    8  N   UNL     1     -11.982  14.346  73.106  1.00  0.00     0.130 NA 
HETATM    9  C   UNL     1     -13.760  15.388  71.763  1.00  0.00    -0.511 C  
HETATM   10  OXT UNL     1     -14.317  15.751  70.741  1.00  0.00    -0.121 OA 
HETATM   11  O   UNL     1     -13.945  15.981  72.973  1.00  0.00    -0.564 OA 
HETATM   12  H1  UNL     1     -11.458  15.221  73.105  1.00  0.00     0.000 HD 
HETATM   13  H2  UNL     1     -11.366  13.544  73.246  1.00  0.00     0.000 HD 
ENDBRANCH   6   7
ENDBRANCH   5   6
ENDBRANCH   3   5
TORSDOF 3
ENDMDL
MODEL      172
REMARK 921   NORMALIZED FREE ENERGY PREDICTED BY IDOCK:   -1.96 KCAL/MOL
REMARK 922        TOTAL FREE ENERGY PREDICTED BY IDOCK:   -2.76 KCAL/MOL
REMARK 923 INTER-LIGAND FREE ENERGY PREDICTED BY IDOCK:   -2.61 KCAL/MOL
REMARK 924 INTRA-LIGAND FREE ENERGY PREDICTED BY IDOCK:   -0.15 KCAL/MOL
REMARK 927      BINDING AFFINITY PREDICTED BY RF-SCORE:    0.00 PKD
ROOT
HETATM    1  N   UNL     1      -8.083  10.858  67.593  1.00  0.00    -0.114 NA 
HETATM    2  H2  UNL     1      -8.426   9.920  67.796  1.00  0.00     0.000 HD 
HETATM    3  C   UNL     1      -8.336  11.249  66.211  1.00  0.00    -0.142 C  
HETATM    4  H1  UNL     1      -7.089  10.958  67.800  1.00  0.00     0.000 HD 
ENDROOT
BRANCH   3   5
HETATM    5  C   UNL     1      -9.825  11.100  65.899  1.00  0.00    -0.275 C  
BRANCH   5   6
HETATM    6  C   UNL     1     -10.698  11.590  67.065  1.00  0.00    -0.300 C  
BRANCH   6   7
HETATM    7  CA  UNL     1     -10.480  13.064  67.434  1.00  0.00    -0.234 C  
HETATM    8  N   UNL     1      -9.934  13.215  68.813  1.00  0.00    -0.426 NA 
HETATM    9  C   UNL     1     -11.801  13.843  67.340  1.00  0.00    -0.402 C  
HETATM   10  OXT UNL     1     -12.328  14.209  66.302  1.00  0.00    -0.456 OA 
HETATM   11  O   UNL     1     -12.341  14.043  68.571  1.00  0.00    -0.265 OA 
HETATM   12  H1  UNL     1      -9.788  14.194  69.058  1.00  0.00     0.000 HD 
HETATM   13  H2  UNL     1      -9.079  12.670  68.935  1.00  0.00     0.000 HD 
ENDBRANCH   6   7
ENDBRANCH   5   6
ENDBRANCH   3   5
TORSDOF 3
ENDMDL
MODEL      173
REMARK 921   NORMALIZED FREE ENERGY PREDICTED BY IDOCK:   -1.95 KCAL/MOL
REMARK 922        TOTAL FREE ENERGY PREDICTED BY IDOCK:   -2.75 KCAL/MOL
REMARK 923 INTER-LIGAND FREE ENERGY PREDICTED BY IDOCK:   -2.71 KCAL/MOL
REMARK 924 INTRA-LIGAND FREE ENERGY PREDICTED BY IDOCK:   -0.04 KCAL/MOL
REMARK 927      BINDING AFFINITY PREDICTED BY RF-SCORE:    0.00 PKD
ROOT
HETATM    1  N   UNL     1      -7.270   8.051  66.337  1.00  0.00    -0.077 NA 
HETATM    2  H2  UNL     1      -6.533   8.011  65.633  1.00  0.00     0.000 HD 
HETATM    3  C   UNL     1      -7.724   9.416  66.580  1.00  0.00    -0.094 C  
HETATM    4  H1  UNL     1      -6.985   7.623  67.218  1.00  0.00     0.000 HD 
ENDROOT
BRANCH   3   5
HETATM    5  C   UNL     1      -8.151  10.057  65.260  1.00  0.00    -0.145 C  
BRANCH   5   6
HETATM    6  C   UNL     1      -9.370  10.974  65.446  1.00  0.00    -0.244 C  
BRANCH   6   7
HETATM    7  CA  UNL     1     -10.488  10.747  64.418  1.00  0.00    -0.274 C  
HETATM    8  N   UNL     1      -9.947  10.597  63.037  1.00  0.00    -0.600 NA 
HETATM    9  C   UNL     1     -11.479  11.921  64.434  1.00  0.00    -0.320 C  
HETATM   10  OXT UNL     1     -12.335  12.106  65.283  1.00  0.00    -0.513 OA 
HETATM   11  O   UNL     1     -11.257  12.765  63.392  1.00  0.00    -0.439 OA 
HETATM   12  H1  UNL     1     -10.689  10.446  62.354  1.00  0.00     0.000 HD 
HETATM   13  H2  UNL     1      -9.244   9.859  62.992  1.00  0.00     0.000 HD 
ENDBRANCH   6   7
ENDBRANCH   5   6
ENDBRANCH   3   5
TORSDOF 3
ENDMDL
MODEL      174
REMARK 921   NORMALIZED FREE ENERGY PREDICTED BY IDOCK:   -1.95 KCAL/MOL
REMARK 922        TOTAL FREE ENERGY PREDICTED BY IDOCK:   -2.75 KCAL/MOL
REMARK 923 INTER-LIGAND FREE ENERGY PREDICTED BY IDOCK:   -2.67 KCAL/MOL
REMARK 924 INTRA-LIGAND FREE ENERGY PREDICTED BY IDOCK:   -0.08 KCAL/MOL
REMARK 927      BINDING AFFINITY PREDICTED BY RF-SCORE:    0.00 PKD
ROOT
HETATM    1  N   UNL     1     -10.268   9.430  65.892  1.00  0.00    -0.283 NA 
HETATM    2  H2  UNL     1      -9.360   9.878  65.767  1.00  0.00     0.000 HD 
HETATM    3  C   UNL     1     -10.622   9.286  67.299  1.00  0.00    -0.233 C  
HETATM    4  H1  UNL     1     -10.314   8.520  65.432  1.00  0.00     0.000 HD 
ENDROOT
BRANCH   3   5
HETATM    5  C   UNL     1     -10.553  10.649  67.988  1.00  0.00    -0.248 C  
BRANCH   5   6
HETATM    6  C   UNL     1     -11.536  11.649  67.359  1.00  0.00    -0.357 C  
BRANCH   6   7
HETATM    7  CA  UNL     1     -11.138  13.120  67.546  1.00  0.00    -0.271 C  
HETATM    8  N   UNL     1     -12.318  14.027  67.466  1.00  0.00    -0.521 NA 
HETATM    9  C   UNL     1     -10.119  13.541  66.476  1.00  0.00    -0.282 C  
HETATM   10  OXT UNL     1      -8.934  13.249  66.480  1.00  0.00    -0.175 OA 
HETATM   11  O   UNL     1     -10.715  14.258  65.487  1.00  0.00    -0.302 OA 
HETATM   12  H1  UNL     1     -12.053  15.005  67.591  1.00  0.00     0.000 HD 
HETATM   13  H2  UNL     1     -13.044  13.751  68.127  1.00  0.00     0.000 HD 
ENDBRANCH   6   7
ENDBRANCH   5   6
ENDBRANCH   3   5
TORSDOF 3
ENDMDL
MODEL      175
REMARK 921   NORMALIZED FREE ENERGY PREDICTED BY IDOCK:   -1.94 KCAL/MOL
REMARK 922        TOTAL FREE ENERGY PREDICTED BY IDOCK:   -2.73 KCAL/MOL
REMARK 923 INTER-LIGAND FREE ENERGY PREDICTED BY IDOCK:   -2.69 KCAL/MOL
REMARK 924 INTRA-LIGAND FREE ENERGY PREDICTED BY IDOCK:   -0.05 KCAL/MOL
REMARK 927      BINDING AFFINITY PREDICTED BY RF-SCORE:    0.00 PKD
ROOT
HETATM    1  N   UNL     1     -11.913  11.822  67.986  1.00  0.00    -0.583 NA 
HETATM    2  H2  UNL     1     -12.001  11.135  67.238  1.00  0.00     0.000 HD 
HETATM    3  C   UNL     1     -11.903  11.202  69.305  1.00  0.00    -0.352 C  
HETATM    4  H1  UNL     1     -12.647  12.530  67.945  1.00  0.00     0.000 HD 
ENDROOT
BRANCH   3   5
HETATM    5  C   UNL     1     -10.804  10.141  69.366  1.00  0.00    -0.274 C  
BRANCH   5   6
HETATM    6  C   UNL     1     -11.045   9.143  70.510  1.00  0.00    -0.308 C  
BRANCH   6   7
HETATM    7  CA  UNL     1      -9.965   9.169  71.600  1.00  0.00    -0.249 C  
HETATM    8  N   UNL     1      -8.592   9.112  71.021  1.00  0.00    -0.251 NA 
HETATM    9  C   UNL     1     -10.144   7.984  72.561  1.00  0.00    -0.278 C  
HETATM   10  OXT UNL     1     -10.989   7.912  73.438  1.00  0.00    -0.257 OA 
HETATM   11  O   UNL     1      -9.257   6.990  72.286  1.00  0.00    -0.134 OA 
HETATM   12  H1  UNL     1      -7.875   9.129  71.746  1.00  0.00     0.000 HD 
HETATM   13  H2  UNL     1      -8.447   9.854  70.336  1.00  0.00     0.000 HD 
ENDBRANCH   6   7
ENDBRANCH   5   6
ENDBRANCH   3   5
TORSDOF 3
ENDMDL
MODEL      176
REMARK 921   NORMALIZED FREE ENERGY PREDICTED BY IDOCK:   -1.93 KCAL/MOL
REMARK 922        TOTAL FREE ENERGY PREDICTED BY IDOCK:   -2.73 KCAL/MOL
REMARK 923 INTER-LIGAND FREE ENERGY PREDICTED BY IDOCK:   -2.63 KCAL/MOL
REMARK 924 INTRA-LIGAND FREE ENERGY PREDICTED BY IDOCK:   -0.10 KCAL/MOL
REMARK 927      BINDING AFFINITY PREDICTED BY RF-SCORE:    0.00 PKD
ROOT
HETATM    1  N   UNL     1      -8.927  13.087  68.683  1.00  0.00    -0.383 NA 
HETATM    2  H2  UNL     1      -9.812  13.336  69.125  1.00  0.00     0.000 HD 
HETATM    3  C   UNL     1      -8.729  13.784  67.417  1.00  0.00    -0.207 C  
HETATM    4  H1  UNL     1      -8.840  12.081  68.538  1.00  0.00     0.000 HD 
ENDROOT
BRANCH   3   5
HETATM    5  C   UNL     1      -8.860  15.291  67.635  1.00  0.00    -0.180 C  
BRANCH   5   6
HETATM    6  C   UNL     1      -8.572  16.075  66.345  1.00  0.00    -0.369 C  
BRANCH   6   7
HETATM    7  CA  UNL     1      -7.878  17.424  66.574  1.00  0.00    -0.285 C  
HETATM    8  N   UNL     1      -6.974  17.387  67.759  1.00  0.00    -0.161 NA 
HETATM    9  C   UNL     1      -8.918  18.535  66.782  1.00  0.00    -0.293 C  
HETATM   10  OXT UNL     1      -9.577  19.056  65.897  1.00  0.00    -0.460 OA 
HETATM   11  O   UNL     1      -9.047  18.846  68.099  1.00  0.00    -0.294 OA 
HETATM   12  H1  UNL     1      -6.512  18.284  67.911  1.00  0.00     0.000 HD 
HETATM   13  H2  UNL     1      -6.296  16.628  67.686  1.00  0.00     0.000 HD 
ENDBRANCH   6   7
ENDBRANCH   5   6
ENDBRANCH   3   5
TORSDOF 3
ENDMDL
MODEL      177
REMARK 921   NORMALIZED FREE ENERGY PREDICTED BY IDOCK:   -1.90 KCAL/MOL
REMARK 922        TOTAL FREE ENERGY PREDICTED BY IDOCK:   -2.70 KCAL/MOL
REMARK 923 INTER-LIGAND FREE ENERGY PREDICTED BY IDOCK:   -2.55 KCAL/MOL
REMARK 924 INTRA-LIGAND FREE ENERGY PREDICTED BY IDOCK:   -0.14 KCAL/MOL
REMARK 927      BINDING AFFINITY PREDICTED BY RF-SCORE:    0.00 PKD
ROOT
HETATM    1  N   UNL     1      -9.767  12.588  63.511  1.00  0.00    -0.631 NA 
HETATM    2  H2  UNL     1      -9.097  12.616  62.743  1.00  0.00     0.000 HD 
HETATM    3  C   UNL     1     -10.484  11.319  63.569  1.00  0.00    -0.395 C  
HETATM    4  H1  UNL     1     -10.434  13.358  63.468  1.00  0.00     0.000 HD 
ENDROOT
BRANCH   3   5
HETATM    5  C   UNL     1      -9.484  10.166  63.634  1.00  0.00    -0.320 C  
BRANCH   5   6
HETATM    6  C   UNL     1      -8.804  10.085  65.010  1.00  0.00    -0.213 C  
BRANCH   6   7
HETATM    7  CA  UNL     1      -9.758  10.291  66.194  1.00  0.00    -0.211 C  
HETATM    8  N   UNL     1      -9.283  11.371  67.105  1.00  0.00    -0.164 NA 
HETATM    9  C   UNL     1      -9.901   8.992  67.001  1.00  0.00    -0.209 C  
HETATM   10  OXT UNL     1     -10.568   8.027  66.667  1.00  0.00    -0.277 OA 
HETATM   11  O   UNL     1      -9.150   9.033  68.133  1.00  0.00    -0.133 OA 
HETATM   12  H1  UNL     1      -9.918  11.508  67.893  1.00  0.00     0.000 HD 
HETATM   13  H2  UNL     1      -9.125  12.243  66.599  1.00  0.00     0.000 HD 
ENDBRANCH   6   7
ENDBRANCH   5   6
ENDBRANCH   3   5
TORSDOF 3
ENDMDL
MODEL      178
REMARK 921   NORMALIZED FREE ENERGY PREDICTED BY IDOCK:   -1.89 KCAL/MOL
REMARK 922        TOTAL FREE ENERGY PREDICTED BY IDOCK:   -2.68 KCAL/MOL
REMARK 923 INTER-LIGAND FREE ENERGY PREDICTED BY IDOCK:   -2.52 KCAL/MOL
REMARK 924 INTRA-LIGAND FREE ENERGY PREDICTED BY IDOCK:   -0.16 KCAL/MOL
REMARK 927      BINDING AFFINITY PREDICTED BY RF-SCORE:    0.00 PKD
ROOT
HETATM    1  N   UNL     1      -8.869   7.846  68.593  1.00  0.00    -0.135 NA 
HETATM    2  H2  UNL     1      -9.117   7.087  69.228  1.00  0.00     0.000 HD 
HETATM    3  C   UNL     1      -9.525   9.098  68.950  1.00  0.00    -0.151 C  
HETATM    4  H1  UNL     1      -9.075   7.616  67.621  1.00  0.00     0.000 HD 
ENDROOT
BRANCH   3   5
HETATM    5  C   UNL     1      -9.217   9.443  70.407  1.00  0.00    -0.305 C  
BRANCH   5   6
HETATM    6  C   UNL     1     -10.460   9.293  71.297  1.00  0.00    -0.408 C  
BRANCH   6   7
HETATM    7  CA  UNL     1     -11.643   8.596  70.611  1.00  0.00    -0.200 C  
HETATM    8  N   UNL     1     -12.869   9.443  70.625  1.00  0.00    -0.513 NA 
HETATM    9  C   UNL     1     -11.957   7.262  71.307  1.00  0.00    -0.324 C  
HETATM   10  OXT UNL     1     -11.312   6.235  71.179  1.00  0.00    -0.294 OA 
HETATM   11  O   UNL     1     -13.036   7.379  72.126  1.00  0.00    -0.189 OA 
HETATM   12  H1  UNL     1     -13.655   8.980  70.169  1.00  0.00     0.000 HD 
HETATM   13  H2  UNL     1     -12.691  10.361  70.217  1.00  0.00     0.000 HD 
ENDBRANCH   6   7
ENDBRANCH   5   6
ENDBRANCH   3   5
TORSDOF 3
ENDMDL
MODEL      179
REMARK 921   NORMALIZED FREE ENERGY PREDICTED BY IDOCK:   -1.89 KCAL/MOL
REMARK 922        TOTAL FREE ENERGY PREDICTED BY IDOCK:   -2.68 KCAL/MOL
REMARK 923 INTER-LIGAND FREE ENERGY PREDICTED BY IDOCK:   -2.44 KCAL/MOL
REMARK 924 INTRA-LIGAND FREE ENERGY PREDICTED BY IDOCK:   -0.24 KCAL/MOL
REMARK 927      BINDING AFFINITY PREDICTED BY RF-SCORE:    0.00 PKD
ROOT
HETATM    1  N   UNL     1      -7.845  11.107  67.572  1.00  0.00    -0.114 NA 
HETATM    2  H2  UNL     1      -8.529  10.670  68.189  1.00  0.00     0.000 HD 
HETATM    3  C   UNL     1      -8.246  11.040  66.172  1.00  0.00    -0.155 C  
HETATM    4  H1  UNL     1      -6.914  10.703  67.682  1.00  0.00     0.000 HD 
ENDROOT
BRANCH   3   5
HETATM    5  C   UNL     1      -9.639  11.645  66.007  1.00  0.00    -0.249 C  
BRANCH   5   6
HETATM    6  C   UNL     1      -9.665  13.125  66.418  1.00  0.00    -0.269 C  
BRANCH   6   7
HETATM    7  CA  UNL     1     -10.384  13.393  67.748  1.00  0.00    -0.241 C  
HETATM    8  N   UNL     1      -9.426  13.751  68.832  1.00  0.00    -0.408 NA 
HETATM    9  C   UNL     1     -11.183  12.156  68.186  1.00  0.00    -0.267 C  
HETATM   10  OXT UNL     1     -12.251  11.806  67.711  1.00  0.00    -0.536 OA 
HETATM   11  O   UNL     1     -10.527  11.465  69.155  1.00  0.00    -0.200 OA 
HETATM   12  H1  UNL     1      -9.903  13.930  69.716  1.00  0.00     0.000 HD 
HETATM   13  H2  UNL     1      -8.837  14.540  68.562  1.00  0.00     0.000 HD 
ENDBRANCH   6   7
ENDBRANCH   5   6
ENDBRANCH   3   5
TORSDOF 3
ENDMDL
MODEL      180
REMARK 921   NORMALIZED FREE ENERGY PREDICTED BY IDOCK:   -1.89 KCAL/MOL
REMARK 922        TOTAL FREE ENERGY PREDICTED BY IDOCK:   -2.68 KCAL/MOL
REMARK 923 INTER-LIGAND FREE ENERGY PREDICTED BY IDOCK:   -2.60 KCAL/MOL
REMARK 924 INTRA-LIGAND FREE ENERGY PREDICTED BY IDOCK:   -0.08 KCAL/MOL
REMARK 927      BINDING AFFINITY PREDICTED BY RF-SCORE:    0.00 PKD
ROOT
HETATM    1  N   UNL     1     -11.314   4.872  65.451  1.00  0.00    -0.927 NA 
HETATM    2  H2  UNL     1     -11.109   5.509  64.682  1.00  0.00     0.000 HD 
HETATM    3  C   UNL     1     -10.437   5.089  66.595  1.00  0.00    -0.250 C  
HETATM    4  H1  UNL     1     -11.267   3.894  65.163  1.00  0.00     0.000 HD 
ENDROOT
BRANCH   3   5
HETATM    5  C   UNL     1     -10.507   6.553  67.026  1.00  0.00    -0.364 C  
BRANCH   5   6
HETATM    6  C   UNL     1      -9.534   7.428  66.220  1.00  0.00    -0.144 C  
BRANCH   6   7
HETATM    7  CA  UNL     1      -9.292   8.817  66.825  1.00  0.00    -0.179 C  
HETATM    8  N   UNL     1      -9.579   8.842  68.287  1.00  0.00    -0.145 NA 
HETATM    9  C   UNL     1     -10.176   9.866  66.132  1.00  0.00    -0.207 C  
HETATM   10  OXT UNL     1      -9.968  10.341  65.028  1.00  0.00    -0.306 OA 
HETATM   11  O   UNL     1     -11.258  10.177  66.895  1.00  0.00    -0.075 OA 
HETATM   12  H1  UNL     1      -9.418   9.765  68.690  1.00  0.00     0.000 HD 
HETATM   13  H2  UNL     1      -9.049   8.123  68.782  1.00  0.00     0.000 HD 
ENDBRANCH   6   7
ENDBRANCH   5   6
ENDBRANCH   3   5
TORSDOF 3
ENDMDL
MODEL      181
REMARK 921   NORMALIZED FREE ENERGY PREDICTED BY IDOCK:   -1.89 KCAL/MOL
REMARK 922        TOTAL FREE ENERGY PREDICTED BY IDOCK:   -2.67 KCAL/MOL
REMARK 923 INTER-LIGAND FREE ENERGY PREDICTED BY IDOCK:   -2.56 KCAL/MOL
REMARK 924 INTRA-LIGAND FREE ENERGY PREDICTED BY IDOCK:   -0.11 KCAL/MOL
REMARK 927      BINDING AFFINITY PREDICTED BY RF-SCORE:    0.00 PKD
ROOT
HETATM    1  N   UNL     1     -10.716   5.334  72.347  1.00  0.00    -0.224 NA 
HETATM    2  H2  UNL     1      -9.860   5.882  72.270  1.00  0.00     0.000 HD 
HETATM    3  C   UNL     1     -11.904   6.121  72.038  1.00  0.00    -0.280 C  
HETATM    4  H1  UNL     1     -10.818   4.906  73.268  1.00  0.00     0.000 HD 
ENDROOT
BRANCH   3   5
HETATM    5  C   UNL     1     -11.752   6.761  70.659  1.00  0.00    -0.440 C  
BRANCH   5   6
HETATM    6  C   UNL     1     -10.296   7.168  70.382  1.00  0.00    -0.216 C  
BRANCH   6   7
HETATM    7  CA  UNL     1      -9.924   8.561  70.910  1.00  0.00    -0.191 C  
HETATM    8  N   UNL     1      -9.654   8.542  72.376  1.00  0.00    -0.295 NA 
HETATM    9  C   UNL     1     -11.055   9.562  70.630  1.00  0.00    -0.300 C  
HETATM   10  OXT UNL     1     -11.293  10.067  69.545  1.00  0.00    -0.228 OA 
HETATM   11  O   UNL     1     -11.796   9.790  71.747  1.00  0.00    -0.383 OA 
HETATM   12  H1  UNL     1      -9.406   9.468  72.727  1.00  0.00     0.000 HD 
HETATM   13  H2  UNL     1      -8.941   7.852  72.614  1.00  0.00     0.000 HD 
ENDBRANCH   6   7
ENDBRANCH   5   6
ENDBRANCH   3   5
TORSDOF 3
ENDMDL
MODEL      182
REMARK 921   NORMALIZED FREE ENERGY PREDICTED BY IDOCK:   -1.88 KCAL/MOL
REMARK 922        TOTAL FREE ENERGY PREDICTED BY IDOCK:   -2.66 KCAL/MOL
REMARK 923 INTER-LIGAND FREE ENERGY PREDICTED BY IDOCK:   -2.58 KCAL/MOL
REMARK 924 INTRA-LIGAND FREE ENERGY PREDICTED BY IDOCK:   -0.08 KCAL/MOL
REMARK 927      BINDING AFFINITY PREDICTED BY RF-SCORE:    0.00 PKD
ROOT
HETATM    1  N   UNL     1     -10.759  13.702  66.224  1.00  0.00    -0.283 NA 
HETATM    2  H2  UNL     1     -10.232  13.322  65.438  1.00  0.00     0.000 HD 
HETATM    3  C   UNL     1     -11.702  12.735  66.773  1.00  0.00    -0.392 C  
HETATM    4  H1  UNL     1     -11.251  14.561  65.978  1.00  0.00     0.000 HD 
ENDROOT
BRANCH   3   5
HETATM    5  C   UNL     1     -10.964  11.449  67.141  1.00  0.00    -0.340 C  
BRANCH   5   6
HETATM    6  C   UNL     1     -11.553  10.801  68.404  1.00  0.00    -0.311 C  
BRANCH   6   7
HETATM    7  CA  UNL     1     -10.544  10.625  69.547  1.00  0.00    -0.230 C  
HETATM    8  N   UNL     1      -9.149  10.906  69.102  1.00  0.00    -0.360 NA 
HETATM    9  C   UNL     1     -10.604   9.193  70.101  1.00  0.00    -0.228 C  
HETATM   10  OXT UNL     1     -11.474   8.762  70.840  1.00  0.00    -0.275 OA 
HETATM   11  O   UNL     1      -9.575   8.440  69.629  1.00  0.00    -0.162 OA 
HETATM   12  H1  UNL     1      -8.478  10.790  69.861  1.00  0.00     0.000 HD 
HETATM   13  H2  UNL     1      -9.074  11.832  68.678  1.00  0.00     0.000 HD 
ENDBRANCH   6   7
ENDBRANCH   5   6
ENDBRANCH   3   5
TORSDOF 3
ENDMDL
MODEL      183
REMARK 921   NORMALIZED FREE ENERGY PREDICTED BY IDOCK:   -1.86 KCAL/MOL
REMARK 922        TOTAL FREE ENERGY PREDICTED BY IDOCK:   -2.64 KCAL/MOL
REMARK 923 INTER-LIGAND FREE ENERGY PREDICTED BY IDOCK:   -2.55 KCAL/MOL
REMARK 924 INTRA-LIGAND FREE ENERGY PREDICTED BY IDOCK:   -0.09 KCAL/MOL
REMARK 927      BINDING AFFINITY PREDICTED BY RF-SCORE:    0.00 PKD
ROOT
HETATM    1  N   UNL     1      -8.874  15.789  69.287  1.00  0.00    -0.255 NA 
HETATM    2  H2  UNL     1      -9.446  16.565  69.619  1.00  0.00     0.000 HD 
HETATM    3  C   UNL     1      -8.278  16.062  67.985  1.00  0.00    -0.149 C  
HETATM    4  H1  UNL     1      -9.399  14.914  69.247  1.00  0.00     0.000 HD 
ENDROOT
BRANCH   3   5
HETATM    5  C   UNL     1      -7.493  17.372  68.044  1.00  0.00    -0.201 C  
BRANCH   5   6
HETATM    6  C   UNL     1      -8.187  18.407  68.943  1.00  0.00    -0.189 C  
BRANCH   6   7
HETATM    7  CA  UNL     1      -9.216  19.281  68.213  1.00  0.00    -0.341 C  
HETATM    8  N   UNL     1     -10.482  18.542  67.949  1.00  0.00    -0.394 NA 
HETATM    9  C   UNL     1      -8.646  19.777  66.875  1.00  0.00    -0.329 C  
HETATM   10  OXT UNL     1      -7.832  20.677  66.749  1.00  0.00    -0.249 OA 
HETATM   11  O   UNL     1      -9.137  19.054  65.835  1.00  0.00    -0.446 OA 
HETATM   12  H1  UNL     1     -11.166  19.123  67.464  1.00  0.00     0.000 HD 
HETATM   13  H2  UNL     1     -10.870  18.149  68.807  1.00  0.00     0.000 HD 
ENDBRANCH   6   7
ENDBRANCH   5   6
ENDBRANCH   3   5
TORSDOF 3
ENDMDL
MODEL      184
REMARK 921   NORMALIZED FREE ENERGY PREDICTED BY IDOCK:   -1.85 KCAL/MOL
REMARK 922        TOTAL FREE ENERGY PREDICTED BY IDOCK:   -2.63 KCAL/MOL
REMARK 923 INTER-LIGAND FREE ENERGY PREDICTED BY IDOCK:   -2.62 KCAL/MOL
REMARK 924 INTRA-LIGAND FREE ENERGY PREDICTED BY IDOCK:   -0.01 KCAL/MOL
REMARK 927      BINDING AFFINITY PREDICTED BY RF-SCORE:    0.00 PKD
ROOT
HETATM    1  N   UNL     1     -12.842  11.464  71.625  1.00  0.00    -0.416 NA 
HETATM    2  H2  UNL     1     -13.068  12.451  71.503  1.00  0.00     0.000 HD 
HETATM    3  C   UNL     1     -12.533  10.810  70.358  1.00  0.00    -0.347 C  
HETATM    4  H1  UNL     1     -13.588  10.955  72.100  1.00  0.00     0.000 HD 
ENDROOT
BRANCH   3   5
HETATM    5  C   UNL     1     -11.416  11.572  69.646  1.00  0.00    -0.373 C  
BRANCH   5   6
HETATM    6  C   UNL     1     -11.574  11.509  68.119  1.00  0.00    -0.378 C  
BRANCH   6   7
HETATM    7  CA  UNL     1     -10.509  10.657  67.414  1.00  0.00    -0.235 C  
HETATM    8  N   UNL     1     -10.844   9.206  67.456  1.00  0.00    -0.454 NA 
HETATM    9  C   UNL     1      -9.135  10.866  68.068  1.00  0.00    -0.152 C  
HETATM   10  OXT UNL     1      -8.421  11.842  67.908  1.00  0.00    -0.140 OA 
HETATM   11  O   UNL     1      -8.823   9.831  68.893  1.00  0.00    -0.129 OA 
HETATM   12  H1  UNL     1     -10.136   8.640  66.987  1.00  0.00     0.000 HD 
HETATM   13  H2  UNL     1     -11.774   9.027  67.076  1.00  0.00     0.000 HD 
ENDBRANCH   6   7
ENDBRANCH   5   6
ENDBRANCH   3   5
TORSDOF 3
ENDMDL
MODEL      185
REMARK 921   NORMALIZED FREE ENERGY PREDICTED BY IDOCK:   -1.85 KCAL/MOL
REMARK 922        TOTAL FREE ENERGY PREDICTED BY IDOCK:   -2.63 KCAL/MOL
REMARK 923 INTER-LIGAND FREE ENERGY PREDICTED BY IDOCK:   -2.55 KCAL/MOL
REMARK 924 INTRA-LIGAND FREE ENERGY PREDICTED BY IDOCK:   -0.08 KCAL/MOL
REMARK 927      BINDING AFFINITY PREDICTED BY RF-SCORE:    0.00 PKD
ROOT
HETATM    1  N   UNL     1     -10.864   5.328  72.141  1.00  0.00    -0.214 NA 
HETATM    2  H2  UNL     1      -9.920   5.641  71.918  1.00  0.00     0.000 HD 
HETATM    3  C   UNL     1     -11.848   6.394  71.992  1.00  0.00    -0.333 C  
HETATM    4  H1  UNL     1     -10.927   4.933  73.080  1.00  0.00     0.000 HD 
ENDROOT
BRANCH   3   5
HETATM    5  C   UNL     1     -11.754   6.986  70.586  1.00  0.00    -0.384 C  
BRANCH   5   6
HETATM    6  C   UNL     1     -11.093   6.007  69.604  1.00  0.00    -0.474 C  
BRANCH   6   7
HETATM    7  CA  UNL     1     -10.579   6.664  68.315  1.00  0.00    -0.241 C  
HETATM    8  N   UNL     1     -11.125   5.997  67.099  1.00  0.00    -0.545 NA 
HETATM    9  C   UNL     1      -9.044   6.609  68.260  1.00  0.00    -0.123 C  
HETATM   10  OXT UNL     1      -8.293   7.330  68.895  1.00  0.00    -0.124 OA 
HETATM   11  O   UNL     1      -8.618   5.617  67.434  1.00  0.00    -0.110 OA 
HETATM   12  H1  UNL     1     -10.784   6.434  66.242  1.00  0.00     0.000 HD 
HETATM   13  H2  UNL     1     -12.145   5.965  67.119  1.00  0.00     0.000 HD 
ENDBRANCH   6   7
ENDBRANCH   5   6
ENDBRANCH   3   5
TORSDOF 3
ENDMDL
MODEL      186
REMARK 921   NORMALIZED FREE ENERGY PREDICTED BY IDOCK:   -1.85 KCAL/MOL
REMARK 922        TOTAL FREE ENERGY PREDICTED BY IDOCK:   -2.63 KCAL/MOL
REMARK 923 INTER-LIGAND FREE ENERGY PREDICTED BY IDOCK:   -2.56 KCAL/MOL
REMARK 924 INTRA-LIGAND FREE ENERGY PREDICTED BY IDOCK:   -0.07 KCAL/MOL
REMARK 927      BINDING AFFINITY PREDICTED BY RF-SCORE:    0.00 PKD
ROOT
HETATM    1  N   UNL     1      -8.623   6.561  70.776  1.00  0.00    -0.134 NA 
HETATM    2  H2  UNL     1      -8.901   7.466  71.153  1.00  0.00     0.000 HD 
HETATM    3  C   UNL     1      -9.654   5.547  70.962  1.00  0.00    -0.170 C  
HETATM    4  H1  UNL     1      -7.743   6.233  71.175  1.00  0.00     0.000 HD 
ENDROOT
BRANCH   3   5
HETATM    5  C   UNL     1     -10.972   6.038  70.365  1.00  0.00    -0.399 C  
BRANCH   5   6
HETATM    6  C   UNL     1     -10.842   7.464  69.808  1.00  0.00    -0.246 C  
BRANCH   6   7
HETATM    7  CA  UNL     1     -11.331   8.559  70.767  1.00  0.00    -0.266 C  
HETATM    8  N   UNL     1     -10.194   9.278  71.410  1.00  0.00    -0.324 NA 
HETATM    9  C   UNL     1     -12.215   7.953  71.867  1.00  0.00    -0.314 C  
HETATM   10  OXT UNL     1     -13.374   7.601  71.723  1.00  0.00    -0.336 OA 
HETATM   11  O   UNL     1     -11.527   7.817  73.032  1.00  0.00    -0.372 OA 
HETATM   12  H1  UNL     1     -10.518  10.006  72.047  1.00  0.00     0.000 HD 
HETATM   13  H2  UNL     1      -9.551   9.654  70.713  1.00  0.00     0.000 HD 
ENDBRANCH   6   7
ENDBRANCH   5   6
ENDBRANCH   3   5
TORSDOF 3
ENDMDL
MODEL      187
REMARK 921   NORMALIZED FREE ENERGY PREDICTED BY IDOCK:   -1.84 KCAL/MOL
REMARK 922        TOTAL FREE ENERGY PREDICTED BY IDOCK:   -2.62 KCAL/MOL
REMARK 923 INTER-LIGAND FREE ENERGY PREDICTED BY IDOCK:   -2.32 KCAL/MOL
REMARK 924 INTRA-LIGAND FREE ENERGY PREDICTED BY IDOCK:   -0.29 KCAL/MOL
REMARK 927      BINDING AFFINITY PREDICTED BY RF-SCORE:    0.00 PKD
ROOT
HETATM    1  N   UNL     1     -10.366   9.891  66.254  1.00  0.00    -0.202 NA 
HETATM    2  H2  UNL     1     -10.828   9.335  66.973  1.00  0.00     0.000 HD 
HETATM    3  C   UNL     1      -9.604  10.998  66.820  1.00  0.00    -0.190 C  
HETATM    4  H1  UNL     1     -11.024  10.248  65.561  1.00  0.00     0.000 HD 
ENDROOT
BRANCH   3   5
HETATM    5  C   UNL     1      -8.617  10.465  67.858  1.00  0.00    -0.118 C  
BRANCH   5   6
HETATM    6  C   UNL     1      -9.218  10.486  69.273  1.00  0.00    -0.164 C  
BRANCH   6   7
HETATM    7  CA  UNL     1      -9.692   9.115  69.773  1.00  0.00    -0.181 C  
HETATM    8  N   UNL     1     -11.066   8.796  69.293  1.00  0.00    -0.432 NA 
HETATM    9  C   UNL     1      -9.684   9.072  71.309  1.00  0.00    -0.301 C  
HETATM   10  OXT UNL     1      -8.689   8.950  72.003  1.00  0.00    -0.365 OA 
HETATM   11  O   UNL     1     -10.938   9.227  71.810  1.00  0.00    -0.369 OA 
HETATM   12  H1  UNL     1     -11.381   7.884  69.625  1.00  0.00     0.000 HD 
HETATM   13  H2  UNL     1     -11.130   8.863  68.276  1.00  0.00     0.000 HD 
ENDBRANCH   6   7
ENDBRANCH   5   6
ENDBRANCH   3   5
TORSDOF 3
ENDMDL
MODEL      188
REMARK 921   NORMALIZED FREE ENERGY PREDICTED BY IDOCK:   -1.83 KCAL/MOL
REMARK 922        TOTAL FREE ENERGY PREDICTED BY IDOCK:   -2.61 KCAL/MOL
REMARK 923 INTER-LIGAND FREE ENERGY PREDICTED BY IDOCK:   -2.50 KCAL/MOL
REMARK 924 INTRA-LIGAND FREE ENERGY PREDICTED BY IDOCK:   -0.12 KCAL/MOL
REMARK 927      BINDING AFFINITY PREDICTED BY RF-SCORE:    0.00 PKD
ROOT
HETATM    1  N   UNL     1     -11.118  13.825  69.711  1.00  0.00    -0.459 NA 
HETATM    2  H2  UNL     1     -10.859  12.868  69.950  1.00  0.00     0.000 HD 
HETATM    3  C   UNL     1     -10.896  14.119  68.299  1.00  0.00    -0.247 C  
HETATM    4  H1  UNL     1     -10.628  14.511  70.285  1.00  0.00     0.000 HD 
ENDROOT
BRANCH   3   5
HETATM    5  C   UNL     1     -11.630  13.091  67.439  1.00  0.00    -0.407 C  
BRANCH   5   6
HETATM    6  C   UNL     1     -10.715  12.509  66.350  1.00  0.00    -0.275 C  
BRANCH   6   7
HETATM    7  CA  UNL     1      -9.652  11.536  66.879  1.00  0.00    -0.187 C  
HETATM    8  N   UNL     1      -8.272  11.999  66.561  1.00  0.00    -0.385 NA 
HETATM    9  C   UNL     1      -9.855  10.138  66.274  1.00  0.00    -0.229 C  
HETATM   10  OXT UNL     1     -10.714   9.342  66.616  1.00  0.00    -0.143 OA 
HETATM   11  O   UNL     1      -8.972   9.906  65.267  1.00  0.00    -0.164 OA 
HETATM   12  H1  UNL     1      -7.565  11.352  66.913  1.00  0.00     0.000 HD 
HETATM   13  H2  UNL     1      -8.110  12.947  66.902  1.00  0.00     0.000 HD 
ENDBRANCH   6   7
ENDBRANCH   5   6
ENDBRANCH   3   5
TORSDOF 3
ENDMDL
MODEL      189
REMARK 921   NORMALIZED FREE ENERGY PREDICTED BY IDOCK:   -1.83 KCAL/MOL
REMARK 922        TOTAL FREE ENERGY PREDICTED BY IDOCK:   -2.60 KCAL/MOL
REMARK 923 INTER-LIGAND FREE ENERGY PREDICTED BY IDOCK:   -2.48 KCAL/MOL
REMARK 924 INTRA-LIGAND FREE ENERGY PREDICTED BY IDOCK:   -0.13 KCAL/MOL
REMARK 927      BINDING AFFINITY PREDICTED BY RF-SCORE:    0.00 PKD
ROOT
HETATM    1  N   UNL     1      -9.295  14.181  67.172  1.00  0.00    -0.227 NA 
HETATM    2  H2  UNL     1      -9.385  14.425  66.186  1.00  0.00     0.000 HD 
HETATM    3  C   UNL     1     -10.562  14.295  67.886  1.00  0.00    -0.240 C  
HETATM    4  H1  UNL     1      -8.584  14.742  67.644  1.00  0.00     0.000 HD 
ENDROOT
BRANCH   3   5
HETATM    5  C   UNL     1     -11.626  13.455  67.180  1.00  0.00    -0.399 C  
BRANCH   5   6
HETATM    6  C   UNL     1     -11.941  12.170  67.961  1.00  0.00    -0.233 C  
BRANCH   6   7
HETATM    7  CA  UNL     1     -11.029  11.935  69.174  1.00  0.00    -0.198 C  
HETATM    8  N   UNL     1     -10.113  10.778  68.961  1.00  0.00    -0.208 NA 
HETATM    9  C   UNL     1     -11.869  11.673  70.434  1.00  0.00    -0.293 C  
HETATM   10  OXT UNL     1     -12.457  12.527  71.076  1.00  0.00    -0.369 OA 
HETATM   11  O   UNL     1     -11.911  10.346  70.729  1.00  0.00    -0.312 OA 
HETATM   12  H1  UNL     1      -9.507  10.622  69.767  1.00  0.00     0.000 HD 
HETATM   13  H2  UNL     1      -9.571  10.887  68.103  1.00  0.00     0.000 HD 
ENDBRANCH   6   7
ENDBRANCH   5   6
ENDBRANCH   3   5
TORSDOF 3
ENDMDL
MODEL      190
REMARK 921   NORMALIZED FREE ENERGY PREDICTED BY IDOCK:   -1.79 KCAL/MOL
REMARK 922        TOTAL FREE ENERGY PREDICTED BY IDOCK:   -2.56 KCAL/MOL
REMARK 923 INTER-LIGAND FREE ENERGY PREDICTED BY IDOCK:   -2.49 KCAL/MOL
REMARK 924 INTRA-LIGAND FREE ENERGY PREDICTED BY IDOCK:   -0.07 KCAL/MOL
REMARK 927      BINDING AFFINITY PREDICTED BY RF-SCORE:    0.00 PKD
ROOT
HETATM    1  N   UNL     1     -10.755  17.159  67.724  1.00  0.00    -0.355 NA 
HETATM    2  H2  UNL     1     -10.993  17.563  66.818  1.00  0.00     0.000 HD 
HETATM    3  C   UNL     1     -10.849  15.703  67.717  1.00  0.00    -0.307 C  
HETATM    4  H1  UNL     1     -11.331  17.536  68.477  1.00  0.00     0.000 HD 
ENDROOT
BRANCH   3   5
HETATM    5  C   UNL     1      -9.987  15.138  66.590  1.00  0.00    -0.261 C  
BRANCH   5   6
HETATM    6  C   UNL     1      -9.630  13.664  66.836  1.00  0.00    -0.262 C  
BRANCH   6   7
HETATM    7  CA  UNL     1     -10.309  12.685  65.868  1.00  0.00    -0.276 C  
HETATM    8  N   UNL     1     -11.767  12.550  66.150  1.00  0.00    -0.399 NA 
HETATM    9  C   UNL     1      -9.659  11.296  65.964  1.00  0.00    -0.218 C  
HETATM   10  OXT UNL     1      -8.583  10.990  65.476  1.00  0.00    -0.173 OA 
HETATM   11  O   UNL     1     -10.420  10.447  66.703  1.00  0.00    -0.240 OA 
HETATM   12  H1  UNL     1     -12.219  11.900  65.506  1.00  0.00     0.000 HD 
HETATM   13  H2  UNL     1     -12.232  13.459  66.147  1.00  0.00     0.000 HD 
ENDBRANCH   6   7
ENDBRANCH   5   6
ENDBRANCH   3   5
TORSDOF 3
ENDMDL
MODEL      191
REMARK 921   NORMALIZED FREE ENERGY PREDICTED BY IDOCK:   -1.78 KCAL/MOL
REMARK 922        TOTAL FREE ENERGY PREDICTED BY IDOCK:   -2.55 KCAL/MOL
REMARK 923 INTER-LIGAND FREE ENERGY PREDICTED BY IDOCK:   -2.20 KCAL/MOL
REMARK 924 INTRA-LIGAND FREE ENERGY PREDICTED BY IDOCK:   -0.34 KCAL/MOL
REMARK 927      BINDING AFFINITY PREDICTED BY RF-SCORE:    0.00 PKD
ROOT
HETATM    1  N   UNL     1     -10.817   8.395  67.610  1.00  0.00    -0.503 NA 
HETATM    2  H2  UNL     1     -11.438   7.950  68.286  1.00  0.00     0.000 HD 
HETATM    3  C   UNL     1      -9.432   8.413  68.065  1.00  0.00    -0.143 C  
HETATM    4  H1  UNL     1     -11.115   9.343  67.380  1.00  0.00     0.000 HD 
ENDROOT
BRANCH   3   5
HETATM    5  C   UNL     1      -8.985   6.992  68.409  1.00  0.00    -0.122 C  
BRANCH   5   6
HETATM    6  C   UNL     1      -8.720   6.832  69.914  1.00  0.00    -0.141 C  
BRANCH   6   7
HETATM    7  CA  UNL     1      -9.761   5.974  70.646  1.00  0.00    -0.174 C  
HETATM    8  N   UNL     1     -10.125   4.759  69.864  1.00  0.00    -0.246 NA 
HETATM    9  C   UNL     1     -11.037   6.788  70.913  1.00  0.00    -0.277 C  
HETATM   10  OXT UNL     1     -11.162   7.633  71.784  1.00  0.00    -0.238 OA 
HETATM   11  O   UNL     1     -12.014   6.476  70.020  1.00  0.00    -0.358 OA 
HETATM   12  H1  UNL     1     -10.817   4.188  70.350  1.00  0.00     0.000 HD 
HETATM   13  H2  UNL     1      -9.298   4.213  69.620  1.00  0.00     0.000 HD 
ENDBRANCH   6   7
ENDBRANCH   5   6
ENDBRANCH   3   5
TORSDOF 3
ENDMDL
MODEL      192
REMARK 921   NORMALIZED FREE ENERGY PREDICTED BY IDOCK:   -1.78 KCAL/MOL
REMARK 922        TOTAL FREE ENERGY PREDICTED BY IDOCK:   -2.55 KCAL/MOL
REMARK 923 INTER-LIGAND FREE ENERGY PREDICTED BY IDOCK:   -2.42 KCAL/MOL
REMARK 924 INTRA-LIGAND FREE ENERGY PREDICTED BY IDOCK:   -0.13 KCAL/MOL
REMARK 927      BINDING AFFINITY PREDICTED BY RF-SCORE:    0.00 PKD
ROOT
HETATM    1  N   UNL     1      -8.441  14.775  67.196  1.00  0.00    -0.212 NA 
HETATM    2  H2  UNL     1      -7.886  14.001  66.831  1.00  0.00     0.000 HD 
HETATM    3  C   UNL     1      -7.656  15.662  68.047  1.00  0.00    -0.124 C  
HETATM    4  H1  UNL     1      -9.265  14.452  67.704  1.00  0.00     0.000 HD 
ENDROOT
BRANCH   3   5
HETATM    5  C   UNL     1      -6.423  16.146  67.286  1.00  0.00    -0.216 C  
BRANCH   5   6
HETATM    6  C   UNL     1      -6.636  17.550  66.700  1.00  0.00    -0.252 C  
BRANCH   6   7
HETATM    7  CA  UNL     1      -7.899  18.257  67.210  1.00  0.00    -0.226 C  
HETATM    8  N   UNL     1      -8.921  18.407  66.136  1.00  0.00    -0.494 NA 
HETATM    9  C   UNL     1      -7.552  19.650  67.757  1.00  0.00    -0.278 C  
HETATM   10  OXT UNL     1      -7.027  19.870  68.836  1.00  0.00    -0.330 OA 
HETATM   11  O   UNL     1      -7.870  20.622  66.862  1.00  0.00    -0.288 OA 
HETATM   12  H1  UNL     1      -9.761  18.876  66.474  1.00  0.00     0.000 HD 
HETATM   13  H2  UNL     1      -9.145  17.508  65.707  1.00  0.00     0.000 HD 
ENDBRANCH   6   7
ENDBRANCH   5   6
ENDBRANCH   3   5
TORSDOF 3
ENDMDL
MODEL      193
REMARK 921   NORMALIZED FREE ENERGY PREDICTED BY IDOCK:   -1.77 KCAL/MOL
REMARK 922        TOTAL FREE ENERGY PREDICTED BY IDOCK:   -2.54 KCAL/MOL
REMARK 923 INTER-LIGAND FREE ENERGY PREDICTED BY IDOCK:   -2.40 KCAL/MOL
REMARK 924 INTRA-LIGAND FREE ENERGY PREDICTED BY IDOCK:   -0.14 KCAL/MOL
REMARK 927      BINDING AFFINITY PREDICTED BY RF-SCORE:    0.00 PKD
ROOT
HETATM    1  N   UNL     1      -8.780   6.872  65.079  1.00  0.00    -0.354 NA 
HETATM    2  H2  UNL     1      -8.625   7.536  64.320  1.00  0.00     0.000 HD 
HETATM    3  C   UNL     1      -8.531   7.465  66.388  1.00  0.00    -0.129 C  
HETATM    4  H1  UNL     1      -8.218   6.028  64.972  1.00  0.00     0.000 HD 
ENDROOT
BRANCH   3   5
HETATM    5  C   UNL     1      -9.374   8.730  66.547  1.00  0.00    -0.260 C  
BRANCH   5   6
HETATM    6  C   UNL     1     -10.609   8.479  67.427  1.00  0.00    -0.304 C  
BRANCH   6   7
HETATM    7  CA  UNL     1     -10.354   7.536  68.610  1.00  0.00    -0.200 C  
HETATM    8  N   UNL     1     -11.257   6.350  68.577  1.00  0.00    -0.542 NA 
HETATM    9  C   UNL     1     -10.561   8.276  69.941  1.00  0.00    -0.232 C  
HETATM   10  OXT UNL     1      -9.774   9.065  70.436  1.00  0.00    -0.178 OA 
HETATM   11  O   UNL     1     -11.767   7.969  70.490  1.00  0.00    -0.206 OA 
HETATM   12  H1  UNL     1     -11.087   5.723  69.363  1.00  0.00     0.000 HD 
HETATM   13  H2  UNL     1     -11.189   5.856  67.686  1.00  0.00     0.000 HD 
ENDBRANCH   6   7
ENDBRANCH   5   6
ENDBRANCH   3   5
TORSDOF 3
ENDMDL
MODEL      194
REMARK 921   NORMALIZED FREE ENERGY PREDICTED BY IDOCK:   -1.77 KCAL/MOL
REMARK 922        TOTAL FREE ENERGY PREDICTED BY IDOCK:   -2.54 KCAL/MOL
REMARK 923 INTER-LIGAND FREE ENERGY PREDICTED BY IDOCK:   -2.36 KCAL/MOL
REMARK 924 INTRA-LIGAND FREE ENERGY PREDICTED BY IDOCK:   -0.18 KCAL/MOL
REMARK 927      BINDING AFFINITY PREDICTED BY RF-SCORE:    0.00 PKD
ROOT
HETATM    1  N   UNL     1      -7.523  14.361  67.529  1.00  0.00    -0.179 NA 
HETATM    2  H2  UNL     1      -7.469  14.911  66.672  1.00  0.00     0.000 HD 
HETATM    3  C   UNL     1      -7.182  15.146  68.709  1.00  0.00    -0.127 C  
HETATM    4  H1  UNL     1      -6.935  13.528  67.489  1.00  0.00     0.000 HD 
ENDROOT
BRANCH   3   5
HETATM    5  C   UNL     1      -8.063  16.393  68.769  1.00  0.00    -0.234 C  
BRANCH   5   6
HETATM    6  C   UNL     1      -9.036  16.455  67.582  1.00  0.00    -0.198 C  
BRANCH   6   7
HETATM    7  CA  UNL     1     -10.499  16.690  67.982  1.00  0.00    -0.320 C  
HETATM    8  N   UNL     1     -10.613  17.626  69.136  1.00  0.00    -0.387 NA 
HETATM    9  C   UNL     1     -11.173  15.361  68.358  1.00  0.00    -0.315 C  
HETATM   10  OXT UNL     1     -11.556  14.519  67.563  1.00  0.00    -0.347 OA 
HETATM   11  O   UNL     1     -11.259  15.218  69.707  1.00  0.00    -0.249 OA 
HETATM   12  H1  UNL     1     -11.585  17.783  69.403  1.00  0.00     0.000 HD 
HETATM   13  H2  UNL     1     -10.132  18.507  68.949  1.00  0.00     0.000 HD 
ENDBRANCH   6   7
ENDBRANCH   5   6
ENDBRANCH   3   5
TORSDOF 3
ENDMDL
MODEL      195
REMARK 921   NORMALIZED FREE ENERGY PREDICTED BY IDOCK:   -1.77 KCAL/MOL
REMARK 922        TOTAL FREE ENERGY PREDICTED BY IDOCK:   -2.54 KCAL/MOL
REMARK 923 INTER-LIGAND FREE ENERGY PREDICTED BY IDOCK:   -2.37 KCAL/MOL
REMARK 924 INTRA-LIGAND FREE ENERGY PREDICTED BY IDOCK:   -0.17 KCAL/MOL
REMARK 927      BINDING AFFINITY PREDICTED BY RF-SCORE:    0.00 PKD
ROOT
HETATM    1  N   UNL     1     -12.406  15.432  68.820  1.00  0.00    -0.577 NA 
HETATM    2  H2  UNL     1     -12.857  14.774  69.455  1.00  0.00     0.000 HD 
HETATM    3  C   UNL     1     -11.002  15.643  69.151  1.00  0.00    -0.259 C  
HETATM    4  H1  UNL     1     -12.890  16.330  68.790  1.00  0.00     0.000 HD 
ENDROOT
BRANCH   3   5
HETATM    5  C   UNL     1     -10.277  14.298  69.195  1.00  0.00    -0.100 C  
BRANCH   5   6
HETATM    6  C   UNL     1      -9.003  14.314  68.336  1.00  0.00    -0.189 C  
BRANCH   6   7
HETATM    7  CA  UNL     1      -8.855  15.565  67.459  1.00  0.00    -0.182 C  
HETATM    8  N   UNL     1      -8.878  15.228  66.007  1.00  0.00    -0.439 NA 
HETATM    9  C   UNL     1      -7.538  16.290  67.776  1.00  0.00    -0.136 C  
HETATM   10  OXT UNL     1      -7.339  16.988  68.756  1.00  0.00    -0.214 OA 
HETATM   11  O   UNL     1      -6.593  16.024  66.836  1.00  0.00    -0.275 OA 
HETATM   12  H1  UNL     1      -8.780  16.059  65.424  1.00  0.00     0.000 HD 
HETATM   13  H2  UNL     1      -9.715  14.698  65.761  1.00  0.00     0.000 HD 
ENDBRANCH   6   7
ENDBRANCH   5   6
ENDBRANCH   3   5
TORSDOF 3
ENDMDL
MODEL      196
REMARK 921   NORMALIZED FREE ENERGY PREDICTED BY IDOCK:   -1.75 KCAL/MOL
REMARK 922        TOTAL FREE ENERGY PREDICTED BY IDOCK:   -2.52 KCAL/MOL
REMARK 923 INTER-LIGAND FREE ENERGY PREDICTED BY IDOCK:   -2.48 KCAL/MOL
REMARK 924 INTRA-LIGAND FREE ENERGY PREDICTED BY IDOCK:   -0.04 KCAL/MOL
REMARK 927      BINDING AFFINITY PREDICTED BY RF-SCORE:    0.00 PKD
ROOT
HETATM    1  N   UNL     1     -11.022   6.209  66.556  1.00  0.00    -0.713 NA 
HETATM    2  H2  UNL     1     -10.453   6.899  66.067  1.00  0.00     0.000 HD 
HETATM    3  C   UNL     1     -10.723   6.159  67.982  1.00  0.00    -0.295 C  
HETATM    4  H1  UNL     1     -10.926   5.276  66.153  1.00  0.00     0.000 HD 
ENDROOT
BRANCH   3   5
HETATM    5  C   UNL     1     -10.867   7.556  68.586  1.00  0.00    -0.044 C  
BRANCH   5   6
HETATM    6  C   UNL     1      -9.823   7.806  69.686  1.00  0.00    -0.182 C  
BRANCH   6   7
HETATM    7  CA  UNL     1     -10.425   8.053  71.076  1.00  0.00    -0.203 C  
HETATM    8  N   UNL     1     -10.829   9.476  71.260  1.00  0.00    -0.353 NA 
HETATM    9  C   UNL     1      -9.415   7.681  72.173  1.00  0.00    -0.155 C  
HETATM   10  OXT UNL     1      -9.144   6.544  72.522  1.00  0.00    -0.137 OA 
HETATM   11  O   UNL     1      -8.821   8.790  72.688  1.00  0.00    -0.394 OA 
HETATM   12  H1  UNL     1     -11.229   9.640  72.183  1.00  0.00     0.000 HD 
HETATM   13  H2  UNL     1     -11.462   9.781  70.520  1.00  0.00     0.000 HD 
ENDBRANCH   6   7
ENDBRANCH   5   6
ENDBRANCH   3   5
TORSDOF 3
ENDMDL
MODEL      197
REMARK 921   NORMALIZED FREE ENERGY PREDICTED BY IDOCK:   -1.75 KCAL/MOL
REMARK 922        TOTAL FREE ENERGY PREDICTED BY IDOCK:   -2.51 KCAL/MOL
REMARK 923 INTER-LIGAND FREE ENERGY PREDICTED BY IDOCK:   -2.42 KCAL/MOL
REMARK 924 INTRA-LIGAND FREE ENERGY PREDICTED BY IDOCK:   -0.09 KCAL/MOL
REMARK 927      BINDING AFFINITY PREDICTED BY RF-SCORE:    0.00 PKD
ROOT
HETATM    1  N   UNL     1      -9.824   4.417  70.752  1.00  0.00    -0.203 NA 
HETATM    2  H2  UNL     1     -10.587   4.139  71.369  1.00  0.00     0.000 HD 
HETATM    3  C   UNL     1     -10.294   5.195  69.612  1.00  0.00    -0.246 C  
HETATM    4  H1  UNL     1      -9.285   3.616  70.422  1.00  0.00     0.000 HD 
ENDROOT
BRANCH   3   5
HETATM    5  C   UNL     1     -11.101   6.395  70.106  1.00  0.00    -0.428 C  
BRANCH   5   6
HETATM    6  C   UNL     1     -10.243   7.337  70.967  1.00  0.00    -0.198 C  
BRANCH   6   7
HETATM    7  CA  UNL     1     -10.763   8.780  71.025  1.00  0.00    -0.229 C  
HETATM    8  N   UNL     1     -12.250   8.835  70.948  1.00  0.00    -0.470 NA 
HETATM    9  C   UNL     1     -10.178   9.608  69.871  1.00  0.00    -0.245 C  
HETATM   10  OXT UNL     1      -9.041  10.049  69.827  1.00  0.00    -0.215 OA 
HETATM   11  O   UNL     1     -11.084   9.760  68.868  1.00  0.00    -0.191 OA 
HETATM   12  H1  UNL     1     -12.596   9.794  70.987  1.00  0.00     0.000 HD 
HETATM   13  H2  UNL     1     -12.682   8.255  71.668  1.00  0.00     0.000 HD 
ENDBRANCH   6   7
ENDBRANCH   5   6
ENDBRANCH   3   5
TORSDOF 3
ENDMDL
MODEL      198
REMARK 921   NORMALIZED FREE ENERGY PREDICTED BY IDOCK:   -1.74 KCAL/MOL
REMARK 922        TOTAL FREE ENERGY PREDICTED BY IDOCK:   -2.51 KCAL/MOL
REMARK 923 INTER-LIGAND FREE ENERGY PREDICTED BY IDOCK:   -2.43 KCAL/MOL
REMARK 924 INTRA-LIGAND FREE ENERGY PREDICTED BY IDOCK:   -0.07 KCAL/MOL
REMARK 927      BINDING AFFINITY PREDICTED BY RF-SCORE:    0.00 PKD
ROOT
HETATM    1  N   UNL     1     -10.266   2.755  72.509  1.00  0.00    -0.163 NA 
HETATM    2  H2  UNL     1      -9.252   2.661  72.561  1.00  0.00     0.000 HD 
HETATM    3  C   UNL     1     -10.795   3.607  73.568  1.00  0.00    -0.231 C  
HETATM    4  H1  UNL     1     -10.738   1.851  72.528  1.00  0.00     0.000 HD 
ENDROOT
BRANCH   3   5
HETATM    5  C   UNL     1     -10.089   4.961  73.540  1.00  0.00    -0.197 C  
BRANCH   5   6
HETATM    6  C   UNL     1     -10.447   5.759  72.276  1.00  0.00    -0.253 C  
BRANCH   6   7
HETATM    7  CA  UNL     1     -11.333   6.984  72.539  1.00  0.00    -0.263 C  
HETATM    8  N   UNL     1     -12.707   6.802  71.990  1.00  0.00    -0.541 NA 
HETATM    9  C   UNL     1     -10.714   8.241  71.908  1.00  0.00    -0.283 C  
HETATM   10  OXT UNL     1      -9.767   8.862  72.364  1.00  0.00    -0.239 OA 
HETATM   11  O   UNL     1     -11.332   8.560  70.740  1.00  0.00    -0.265 OA 
HETATM   12  H1  UNL     1     -13.296   7.616  72.165  1.00  0.00     0.000 HD 
HETATM   13  H2  UNL     1     -13.138   5.947  72.344  1.00  0.00     0.000 HD 
ENDBRANCH   6   7
ENDBRANCH   5   6
ENDBRANCH   3   5
TORSDOF 3
ENDMDL
MODEL      199
REMARK 921   NORMALIZED FREE ENERGY PREDICTED BY IDOCK:   -1.71 KCAL/MOL
REMARK 922        TOTAL FREE ENERGY PREDICTED BY IDOCK:   -2.47 KCAL/MOL
REMARK 923 INTER-LIGAND FREE ENERGY PREDICTED BY IDOCK:   -2.34 KCAL/MOL
REMARK 924 INTRA-LIGAND FREE ENERGY PREDICTED BY IDOCK:   -0.13 KCAL/MOL
REMARK 927      BINDING AFFINITY PREDICTED BY RF-SCORE:    0.00 PKD
ROOT
HETATM    1  N   UNL     1      -7.856   5.807  68.490  1.00  0.00    -0.096 NA 
HETATM    2  H2  UNL     1      -8.743   5.328  68.333  1.00  0.00     0.000 HD 
HETATM    3  C   UNL     1      -8.044   7.145  69.039  1.00  0.00    -0.121 C  
HETATM    4  H1  UNL     1      -7.293   5.861  67.641  1.00  0.00     0.000 HD 
ENDROOT
BRANCH   3   5
HETATM    5  C   UNL     1      -8.889   7.065  70.310  1.00  0.00    -0.148 C  
BRANCH   5   6
HETATM    6  C   UNL     1      -9.870   5.883  70.263  1.00  0.00    -0.234 C  
BRANCH   6   7
HETATM    7  CA  UNL     1     -11.327   6.266  70.560  1.00  0.00    -0.361 C  
HETATM    8  N   UNL     1     -11.669   7.608  70.009  1.00  0.00    -0.472 NA 
HETATM    9  C   UNL     1     -11.581   6.276  72.076  1.00  0.00    -0.322 C  
HETATM   10  OXT UNL     1     -11.729   5.284  72.770  1.00  0.00    -0.275 OA 
HETATM   11  O   UNL     1     -11.581   7.544  72.564  1.00  0.00    -0.311 OA 
HETATM   12  H1  UNL     1     -12.637   7.862  70.206  1.00  0.00     0.000 HD 
HETATM   13  H2  UNL     1     -11.467   7.662  69.010  1.00  0.00     0.000 HD 
ENDBRANCH   6   7
ENDBRANCH   5   6
ENDBRANCH   3   5
TORSDOF 3
ENDMDL
MODEL      200
REMARK 921   NORMALIZED FREE ENERGY PREDICTED BY IDOCK:   -1.71 KCAL/MOL
REMARK 922        TOTAL FREE ENERGY PREDICTED BY IDOCK:   -2.46 KCAL/MOL
REMARK 923 INTER-LIGAND FREE ENERGY PREDICTED BY IDOCK:   -2.25 KCAL/MOL
REMARK 924 INTRA-LIGAND FREE ENERGY PREDICTED BY IDOCK:   -0.21 KCAL/MOL
REMARK 927      BINDING AFFINITY PREDICTED BY RF-SCORE:    0.00 PKD
ROOT
HETATM    1  N   UNL     1     -12.125   6.130  72.683  1.00  0.00    -0.530 NA 
HETATM    2  H2  UNL     1     -12.169   5.168  73.017  1.00  0.00     0.000 HD 
HETATM    3  C   UNL     1     -10.889   6.795  73.082  1.00  0.00    -0.284 C  
HETATM    4  H1  UNL     1     -12.926   6.682  72.991  1.00  0.00     0.000 HD 
ENDROOT
BRANCH   3   5
HETATM    5  C   UNL     1      -9.689   5.969  72.620  1.00  0.00    -0.166 C  
BRANCH   5   6
HETATM    6  C   UNL     1     -10.094   4.920  71.573  1.00  0.00    -0.266 C  
BRANCH   6   7
HETATM    7  CA  UNL     1      -9.523   5.180  70.173  1.00  0.00    -0.168 C  
HETATM    8  N   UNL     1      -8.073   5.524  70.222  1.00  0.00    -0.100 NA 
HETATM    9  C   UNL     1     -10.279   6.329  69.488  1.00  0.00    -0.194 C  
HETATM   10  OXT UNL     1     -11.388   6.240  68.989  1.00  0.00    -0.390 OA 
HETATM   11  O   UNL     1      -9.567   7.486  69.542  1.00  0.00    -0.156 OA 
HETATM   12  H1  UNL     1      -7.693   5.697  69.291  1.00  0.00     0.000 HD 
HETATM   13  H2  UNL     1      -7.538   4.809  70.716  1.00  0.00     0.000 HD 
ENDBRANCH   6   7
ENDBRANCH   5   6
ENDBRANCH   3   5
TORSDOF 3
ENDMDL
MODEL      201
REMARK 921   NORMALIZED FREE ENERGY PREDICTED BY IDOCK:   -1.70 KCAL/MOL
REMARK 922        TOTAL FREE ENERGY PREDICTED BY IDOCK:   -2.45 KCAL/MOL
REMARK 923 INTER-LIGAND FREE ENERGY PREDICTED BY IDOCK:   -2.02 KCAL/MOL
REMARK 924 INTRA-LIGAND FREE ENERGY PREDICTED BY IDOCK:   -0.43 KCAL/MOL
REMARK 927      BINDING AFFINITY PREDICTED BY RF-SCORE:    0.00 PKD
ROOT
HETATM    1  N   UNL     1      -8.379   8.827  69.733  1.00  0.00    -0.122 NA 
HETATM    2  H2  UNL     1      -8.535   9.751  69.329  1.00  0.00     0.000 HD 
HETATM    3  C   UNL     1      -9.468   7.905  69.431  1.00  0.00    -0.156 C  
HETATM    4  H1  UNL     1      -8.234   8.868  70.742  1.00  0.00     0.000 HD 
ENDROOT
BRANCH   3   5
HETATM    5  C   UNL     1      -9.684   7.844  67.919  1.00  0.00    -0.184 C  
BRANCH   5   6
HETATM    6  C   UNL     1     -10.773   8.829  67.464  1.00  0.00    -0.213 C  
BRANCH   6   7
HETATM    7  CA  UNL     1     -10.227  10.134  66.869  1.00  0.00    -0.236 C  
HETATM    8  N   UNL     1      -8.737  10.137  66.815  1.00  0.00    -0.126 NA 
HETATM    9  C   UNL     1     -10.692  11.339  67.701  1.00  0.00    -0.226 C  
HETATM   10  OXT UNL     1     -11.811  11.825  67.669  1.00  0.00    -0.558 OA 
HETATM   11  O   UNL     1      -9.702  11.782  68.520  1.00  0.00    -0.200 OA 
HETATM   12  H1  UNL     1      -8.375  11.005  66.419  1.00  0.00     0.000 HD 
HETATM   13  H2  UNL     1      -8.382   9.323  66.314  1.00  0.00     0.000 HD 
ENDBRANCH   6   7
ENDBRANCH   5   6
ENDBRANCH   3   5
TORSDOF 3
ENDMDL
MODEL      202
REMARK 921   NORMALIZED FREE ENERGY PREDICTED BY IDOCK:   -1.68 KCAL/MOL
REMARK 922        TOTAL FREE ENERGY PREDICTED BY IDOCK:   -2.43 KCAL/MOL
REMARK 923 INTER-LIGAND FREE ENERGY PREDICTED BY IDOCK:   -2.54 KCAL/MOL
REMARK 924 INTRA-LIGAND FREE ENERGY PREDICTED BY IDOCK:    0.11 KCAL/MOL
REMARK 927      BINDING AFFINITY PREDICTED BY RF-SCORE:    0.00 PKD
ROOT
HETATM    1  N   UNL     1     -11.998  11.891  67.884  1.00  0.00    -0.577 NA 
HETATM    2  H2  UNL     1     -12.003  11.203  67.132  1.00  0.00     0.000 HD 
HETATM    3  C   UNL     1     -12.147  11.272  69.196  1.00  0.00    -0.279 C  
HETATM    4  H1  UNL     1     -12.717  12.604  67.758  1.00  0.00     0.000 HD 
ENDROOT
BRANCH   3   5
HETATM    5  C   UNL     1     -11.071  10.204  69.386  1.00  0.00    -0.288 C  
BRANCH   5   6
HETATM    6  C   UNL     1     -11.357   9.325  70.613  1.00  0.00    -0.330 C  
BRANCH   6   7
HETATM    7  CA  UNL     1     -10.252   8.307  70.926  1.00  0.00    -0.191 C  
HETATM    8  N   UNL     1     -10.630   7.410  72.055  1.00  0.00    -0.205 NA 
HETATM    9  C   UNL     1      -8.943   9.027  71.285  1.00  0.00    -0.211 C  
HETATM   10  OXT UNL     1      -8.191   9.557  70.484  1.00  0.00    -0.181 OA 
HETATM   11  O   UNL     1      -8.742   9.038  72.629  1.00  0.00    -0.279 OA 
HETATM   12  H1  UNL     1      -9.896   6.733  72.263  1.00  0.00     0.000 HD 
HETATM   13  H2  UNL     1     -11.523   6.948  71.881  1.00  0.00     0.000 HD 
ENDBRANCH   6   7
ENDBRANCH   5   6
ENDBRANCH   3   5
TORSDOF 3
ENDMDL
MODEL      203
REMARK 921   NORMALIZED FREE ENERGY PREDICTED BY IDOCK:   -1.68 KCAL/MOL
REMARK 922        TOTAL FREE ENERGY PREDICTED BY IDOCK:   -2.43 KCAL/MOL
REMARK 923 INTER-LIGAND FREE ENERGY PREDICTED BY IDOCK:   -2.32 KCAL/MOL
REMARK 924 INTRA-LIGAND FREE ENERGY PREDICTED BY IDOCK:   -0.11 KCAL/MOL
REMARK 927      BINDING AFFINITY PREDICTED BY RF-SCORE:    0.00 PKD
ROOT
HETATM    1  N   UNL     1      -9.903   4.525  70.040  1.00  0.00    -0.217 NA 
HETATM    2  H2  UNL     1      -9.551   4.841  69.137  1.00  0.00     0.000 HD 
HETATM    3  C   UNL     1     -10.538   5.603  70.790  1.00  0.00    -0.265 C  
HETATM    4  H1  UNL     1      -9.174   4.095  70.609  1.00  0.00     0.000 HD 
ENDROOT
BRANCH   3   5
HETATM    5  C   UNL     1     -11.631   6.247  69.939  1.00  0.00    -0.361 C  
BRANCH   5   6
HETATM    6  C   UNL     1     -11.151   6.501  68.501  1.00  0.00    -0.347 C  
BRANCH   6   7
HETATM    7  CA  UNL     1     -10.194   7.692  68.360  1.00  0.00    -0.198 C  
HETATM    8  N   UNL     1     -10.929   8.969  68.136  1.00  0.00    -0.482 NA 
HETATM    9  C   UNL     1      -9.226   7.468  67.188  1.00  0.00    -0.136 C  
HETATM   10  OXT UNL     1      -8.257   6.727  67.209  1.00  0.00    -0.119 OA 
HETATM   11  O   UNL     1      -9.609   8.177  66.094  1.00  0.00    -0.195 OA 
HETATM   12  H1  UNL     1     -10.293   9.761  68.043  1.00  0.00     0.000 HD 
HETATM   13  H2  UNL     1     -11.622   9.133  68.867  1.00  0.00     0.000 HD 
ENDBRANCH   6   7
ENDBRANCH   5   6
ENDBRANCH   3   5
TORSDOF 3
ENDMDL
MODEL      204
REMARK 921   NORMALIZED FREE ENERGY PREDICTED BY IDOCK:   -1.67 KCAL/MOL
REMARK 922        TOTAL FREE ENERGY PREDICTED BY IDOCK:   -2.42 KCAL/MOL
REMARK 923 INTER-LIGAND FREE ENERGY PREDICTED BY IDOCK:   -2.36 KCAL/MOL
REMARK 924 INTRA-LIGAND FREE ENERGY PREDICTED BY IDOCK:   -0.06 KCAL/MOL
REMARK 927      BINDING AFFINITY PREDICTED BY RF-SCORE:    0.00 PKD
ROOT
HETATM    1  N   UNL     1      -8.477   7.600  69.984  1.00  0.00    -0.135 NA 
HETATM    2  H2  UNL     1      -7.513   7.492  69.672  1.00  0.00     0.000 HD 
HETATM    3  C   UNL     1      -8.724   8.918  70.559  1.00  0.00    -0.186 C  
HETATM    4  H1  UNL     1      -8.748   6.879  70.653  1.00  0.00     0.000 HD 
ENDROOT
BRANCH   3   5
HETATM    5  C   UNL     1      -8.318   9.999  69.558  1.00  0.00    -0.180 C  
BRANCH   5   6
HETATM    6  C   UNL     1      -9.219   9.983  68.313  1.00  0.00    -0.129 C  
BRANCH   6   7
HETATM    7  CA  UNL     1      -9.611  11.377  67.804  1.00  0.00    -0.172 C  
HETATM    8  N   UNL     1     -10.039  12.271  68.917  1.00  0.00    -0.427 NA 
HETATM    9  C   UNL     1     -10.756  11.275  66.785  1.00  0.00    -0.275 C  
HETATM   10  OXT UNL     1     -10.634  10.917  65.625  1.00  0.00    -0.236 OA 
HETATM   11  O   UNL     1     -11.948  11.600  67.353  1.00  0.00    -0.621 OA 
HETATM   12  H1  UNL     1     -10.299  13.198  68.580  1.00  0.00     0.000 HD 
HETATM   13  H2  UNL     1      -9.326  12.327  69.645  1.00  0.00     0.000 HD 
ENDBRANCH   6   7
ENDBRANCH   5   6
ENDBRANCH   3   5
TORSDOF 3
ENDMDL
MODEL      205
REMARK 921   NORMALIZED FREE ENERGY PREDICTED BY IDOCK:   -1.67 KCAL/MOL
REMARK 922        TOTAL FREE ENERGY PREDICTED BY IDOCK:   -2.42 KCAL/MOL
REMARK 923 INTER-LIGAND FREE ENERGY PREDICTED BY IDOCK:   -2.23 KCAL/MOL
REMARK 924 INTRA-LIGAND FREE ENERGY PREDICTED BY IDOCK:   -0.19 KCAL/MOL
REMARK 927      BINDING AFFINITY PREDICTED BY RF-SCORE:    0.00 PKD
ROOT
HETATM    1  N   UNL     1      -8.754   4.051  69.068  1.00  0.00    -0.087 NA 
HETATM    2  H2  UNL     1      -9.738   3.857  69.253  1.00  0.00     0.000 HD 
HETATM    3  C   UNL     1      -8.572   5.260  68.272  1.00  0.00    -0.099 C  
HETATM    4  H1  UNL     1      -8.285   3.267  68.613  1.00  0.00     0.000 HD 
ENDROOT
BRANCH   3   5
HETATM    5  C   UNL     1      -9.273   6.434  68.954  1.00  0.00    -0.128 C  
BRANCH   5   6
HETATM    6  C   UNL     1     -10.802   6.310  68.860  1.00  0.00    -0.396 C  
BRANCH   6   7
HETATM    7  CA  UNL     1     -11.524   6.429  70.209  1.00  0.00    -0.402 C  
HETATM    8  N   UNL     1     -11.925   7.835  70.500  1.00  0.00    -0.489 NA 
HETATM    9  C   UNL     1     -10.622   5.928  71.347  1.00  0.00    -0.252 C  
HETATM   10  OXT UNL     1     -10.398   4.756  71.602  1.00  0.00    -0.196 OA 
HETATM   11  O   UNL     1     -10.063   6.966  72.024  1.00  0.00    -0.185 OA 
HETATM   12  H1  UNL     1     -12.405   7.914  71.397  1.00  0.00     0.000 HD 
HETATM   13  H2  UNL     1     -12.485   8.227  69.743  1.00  0.00     0.000 HD 
ENDBRANCH   6   7
ENDBRANCH   5   6
ENDBRANCH   3   5
TORSDOF 3
ENDMDL
MODEL      206
REMARK 921   NORMALIZED FREE ENERGY PREDICTED BY IDOCK:   -1.67 KCAL/MOL
REMARK 922        TOTAL FREE ENERGY PREDICTED BY IDOCK:   -2.42 KCAL/MOL
REMARK 923 INTER-LIGAND FREE ENERGY PREDICTED BY IDOCK:   -2.65 KCAL/MOL
REMARK 924 INTRA-LIGAND FREE ENERGY PREDICTED BY IDOCK:    0.23 KCAL/MOL
REMARK 927      BINDING AFFINITY PREDICTED BY RF-SCORE:    0.00 PKD
ROOT
HETATM    1  N   UNL     1      -8.562  13.709  68.355  1.00  0.00    -0.216 NA 
HETATM    2  H2  UNL     1      -9.434  13.195  68.235  1.00  0.00     0.000 HD 
HETATM    3  C   UNL     1      -8.222  14.499  67.178  1.00  0.00    -0.188 C  
HETATM    4  H1  UNL     1      -7.782  13.095  68.593  1.00  0.00     0.000 HD 
ENDROOT
BRANCH   3   5
HETATM    5  C   UNL     1      -9.390  15.419  66.822  1.00  0.00    -0.267 C  
BRANCH   5   6
HETATM    6  C   UNL     1      -8.901  16.809  66.385  1.00  0.00    -0.331 C  
BRANCH   6   7
HETATM    7  CA  UNL     1      -9.916  17.935  66.628  1.00  0.00    -0.355 C  
HETATM    8  N   UNL     1      -9.294  19.281  66.479  1.00  0.00    -0.339 NA 
HETATM    9  C   UNL     1     -10.516  17.822  68.037  1.00  0.00    -0.394 C  
HETATM   10  OXT UNL     1     -11.369  17.017  68.375  1.00  0.00    -0.170 OA 
HETATM   11  O   UNL     1      -9.944  18.715  68.887  1.00  0.00    -0.389 OA 
HETATM   12  H1  UNL     1      -9.968  20.030  66.640  1.00  0.00     0.000 HD 
HETATM   13  H2  UNL     1      -8.837  19.382  65.572  1.00  0.00     0.000 HD 
ENDBRANCH   6   7
ENDBRANCH   5   6
ENDBRANCH   3   5
TORSDOF 3
ENDMDL
MODEL      207
REMARK 921   NORMALIZED FREE ENERGY PREDICTED BY IDOCK:   -1.66 KCAL/MOL
REMARK 922        TOTAL FREE ENERGY PREDICTED BY IDOCK:   -2.41 KCAL/MOL
REMARK 923 INTER-LIGAND FREE ENERGY PREDICTED BY IDOCK:   -2.10 KCAL/MOL
REMARK 924 INTRA-LIGAND FREE ENERGY PREDICTED BY IDOCK:   -0.30 KCAL/MOL
REMARK 927      BINDING AFFINITY PREDICTED BY RF-SCORE:    0.00 PKD
ROOT
HETATM    1  N   UNL     1      -8.587   8.083  70.731  1.00  0.00    -0.126 NA 
HETATM    2  H2  UNL     1      -9.066   7.470  70.071  1.00  0.00     0.000 HD 
HETATM    3  C   UNL     1      -9.510   8.977  71.420  1.00  0.00    -0.264 C  
HETATM    4  H1  UNL     1      -7.850   8.629  70.284  1.00  0.00     0.000 HD 
ENDROOT
BRANCH   3   5
HETATM    5  C   UNL     1     -10.614   8.160  72.090  1.00  0.00    -0.358 C  
BRANCH   5   6
HETATM    6  C   UNL     1     -10.159   7.601  73.447  1.00  0.00    -0.379 C  
BRANCH   6   7
HETATM    7  CA  UNL     1      -9.826   6.102  73.427  1.00  0.00    -0.167 C  
HETATM    8  N   UNL     1      -8.473   5.844  72.858  1.00  0.00    -0.122 NA 
HETATM    9  C   UNL     1     -10.865   5.332  72.598  1.00  0.00    -0.253 C  
HETATM   10  OXT UNL     1     -11.991   5.049  72.972  1.00  0.00    -0.226 OA 
HETATM   11  O   UNL     1     -10.383   5.034  71.363  1.00  0.00    -0.209 OA 
HETATM   12  H1  UNL     1      -8.251   4.848  72.845  1.00  0.00     0.000 HD 
HETATM   13  H2  UNL     1      -7.755   6.378  73.348  1.00  0.00     0.000 HD 
ENDBRANCH   6   7
ENDBRANCH   5   6
ENDBRANCH   3   5
TORSDOF 3
ENDMDL
MODEL      208
REMARK 921   NORMALIZED FREE ENERGY PREDICTED BY IDOCK:   -1.65 KCAL/MOL
REMARK 922        TOTAL FREE ENERGY PREDICTED BY IDOCK:   -2.40 KCAL/MOL
REMARK 923 INTER-LIGAND FREE ENERGY PREDICTED BY IDOCK:   -2.36 KCAL/MOL
REMARK 924 INTRA-LIGAND FREE ENERGY PREDICTED BY IDOCK:   -0.04 KCAL/MOL
REMARK 927      BINDING AFFINITY PREDICTED BY RF-SCORE:    0.00 PKD
ROOT
HETATM    1  N   UNL     1     -11.381  14.498  70.591  1.00  0.00    -0.501 NA 
HETATM    2  H2  UNL     1     -10.568  13.889  70.679  1.00  0.00     0.000 HD 
HETATM    3  C   UNL     1     -11.102  15.672  69.773  1.00  0.00    -0.313 C  
HETATM    4  H1  UNL     1     -11.742  14.791  71.500  1.00  0.00     0.000 HD 
ENDROOT
BRANCH   3   5
HETATM    5  C   UNL     1     -10.561  15.234  68.413  1.00  0.00    -0.246 C  
BRANCH   5   6
HETATM    6  C   UNL     1      -9.298  14.371  68.558  1.00  0.00    -0.204 C  
BRANCH   6   7
HETATM    7  CA  UNL     1      -8.417  14.333  67.302  1.00  0.00    -0.210 C  
HETATM    8  N   UNL     1      -9.103  13.653  66.166  1.00  0.00    -0.475 NA 
HETATM    9  C   UNL     1      -7.099  13.598  67.592  1.00  0.00    -0.170 C  
HETATM   10  OXT UNL     1      -6.155  14.067  68.206  1.00  0.00    -0.095 OA 
HETATM   11  O   UNL     1      -7.128  12.328  67.108  1.00  0.00    -0.147 OA 
HETATM   12  H1  UNL     1      -8.518  13.627  65.331  1.00  0.00     0.000 HD 
HETATM   13  H2  UNL     1     -10.010  14.078  65.972  1.00  0.00     0.000 HD 
ENDBRANCH   6   7
ENDBRANCH   5   6
ENDBRANCH   3   5
TORSDOF 3
ENDMDL
MODEL      209
REMARK 921   NORMALIZED FREE ENERGY PREDICTED BY IDOCK:   -1.65 KCAL/MOL
REMARK 922        TOTAL FREE ENERGY PREDICTED BY IDOCK:   -2.40 KCAL/MOL
REMARK 923 INTER-LIGAND FREE ENERGY PREDICTED BY IDOCK:   -2.30 KCAL/MOL
REMARK 924 INTRA-LIGAND FREE ENERGY PREDICTED BY IDOCK:   -0.09 KCAL/MOL
REMARK 927      BINDING AFFINITY PREDICTED BY RF-SCORE:    0.00 PKD
ROOT
HETATM    1  N   UNL     1      -6.647   9.334  72.397  1.00  0.00    -0.293 NA 
HETATM    2  H2  UNL     1      -6.992  10.131  72.931  1.00  0.00     0.000 HD 
HETATM    3  C   UNL     1      -7.641   8.273  72.289  1.00  0.00    -0.123 C  
HETATM    4  H1  UNL     1      -5.782   8.956  72.785  1.00  0.00     0.000 HD 
ENDROOT
BRANCH   3   5
HETATM    5  C   UNL     1      -8.936   8.840  71.707  1.00  0.00    -0.283 C  
BRANCH   5   6
HETATM    6  C   UNL     1      -9.099   8.469  70.225  1.00  0.00    -0.158 C  
BRANCH   6   7
HETATM    7  CA  UNL     1     -10.511   7.998  69.849  1.00  0.00    -0.233 C  
HETATM    8  N   UNL     1     -11.562   8.877  70.436  1.00  0.00    -0.440 NA 
HETATM    9  C   UNL     1     -10.744   6.559  70.334  1.00  0.00    -0.255 C  
HETATM   10  OXT UNL     1     -10.297   5.557  69.801  1.00  0.00    -0.244 OA 
HETATM   11  O   UNL     1     -11.488   6.539  71.471  1.00  0.00    -0.274 OA 
HETATM   12  H1  UNL     1     -12.500   8.564  70.185  1.00  0.00     0.000 HD 
HETATM   13  H2  UNL     1     -11.415   9.853  70.180  1.00  0.00     0.000 HD 
ENDBRANCH   6   7
ENDBRANCH   5   6
ENDBRANCH   3   5
TORSDOF 3
ENDMDL
MODEL      210
REMARK 921   NORMALIZED FREE ENERGY PREDICTED BY IDOCK:   -1.64 KCAL/MOL
REMARK 922        TOTAL FREE ENERGY PREDICTED BY IDOCK:   -2.38 KCAL/MOL
REMARK 923 INTER-LIGAND FREE ENERGY PREDICTED BY IDOCK:   -2.23 KCAL/MOL
REMARK 924 INTRA-LIGAND FREE ENERGY PREDICTED BY IDOCK:   -0.15 KCAL/MOL
REMARK 927      BINDING AFFINITY PREDICTED BY RF-SCORE:    0.00 PKD
ROOT
HETATM    1  N   UNL     1      -8.728  11.256  64.593  1.00  0.00    -0.367 NA 
HETATM    2  H2  UNL     1      -8.295  10.355  64.796  1.00  0.00     0.000 HD 
HETATM    3  C   UNL     1      -9.781  11.588  65.546  1.00  0.00    -0.230 C  
HETATM    4  H1  UNL     1      -9.100  11.299  63.643  1.00  0.00     0.000 HD 
ENDROOT
BRANCH   3   5
HETATM    5  C   UNL     1      -9.225  11.524  66.968  1.00  0.00    -0.180 C  
BRANCH   5   6
HETATM    6  C   UNL     1      -9.442  12.847  67.719  1.00  0.00    -0.202 C  
BRANCH   6   7
HETATM    7  CA  UNL     1      -9.046  14.095  66.918  1.00  0.00    -0.245 C  
HETATM    8  N   UNL     1      -7.874  14.791  67.520  1.00  0.00    -0.173 NA 
HETATM    9  C   UNL     1     -10.221  15.082  66.845  1.00  0.00    -0.258 C  
HETATM   10  OXT UNL     1     -11.197  14.960  66.123  1.00  0.00    -0.335 OA 
HETATM   11  O   UNL     1     -10.059  16.103  67.727  1.00  0.00    -0.241 OA 
HETATM   12  H1  UNL     1      -7.611  15.620  66.988  1.00  0.00     0.000 HD 
HETATM   13  H2  UNL     1      -7.083  14.156  67.635  1.00  0.00     0.000 HD 
ENDBRANCH   6   7
ENDBRANCH   5   6
ENDBRANCH   3   5
TORSDOF 3
ENDMDL
MODEL      211
REMARK 921   NORMALIZED FREE ENERGY PREDICTED BY IDOCK:   -1.62 KCAL/MOL
REMARK 922        TOTAL FREE ENERGY PREDICTED BY IDOCK:   -2.37 KCAL/MOL
REMARK 923 INTER-LIGAND FREE ENERGY PREDICTED BY IDOCK:   -2.32 KCAL/MOL
REMARK 924 INTRA-LIGAND FREE ENERGY PREDICTED BY IDOCK:   -0.05 KCAL/MOL
REMARK 927      BINDING AFFINITY PREDICTED BY RF-SCORE:    0.00 PKD
ROOT
HETATM    1  N   UNL     1     -11.000   8.843  68.092  1.00  0.00    -0.473 NA 
HETATM    2  H2  UNL     1     -11.788   9.450  68.318  1.00  0.00     0.000 HD 
HETATM    3  C   UNL     1      -9.813   9.168  68.875  1.00  0.00    -0.174 C  
HETATM    4  H1  UNL     1     -10.772   8.862  67.098  1.00  0.00     0.000 HD 
ENDROOT
BRANCH   3   5
HETATM    5  C   UNL     1     -10.155   9.138  70.364  1.00  0.00    -0.264 C  
BRANCH   5   6
HETATM    6  C   UNL     1      -9.445   7.982  71.084  1.00  0.00    -0.181 C  
BRANCH   6   7
HETATM    7  CA  UNL     1      -9.221   8.220  72.584  1.00  0.00    -0.274 C  
HETATM    8  N   UNL     1      -7.793   8.518  72.890  1.00  0.00    -0.364 NA 
HETATM    9  C   UNL     1      -9.652   6.987  73.393  1.00  0.00    -0.191 C  
HETATM   10  OXT UNL     1     -10.806   6.679  73.642  1.00  0.00    -0.274 OA 
HETATM   11  O   UNL     1      -8.576   6.248  73.772  1.00  0.00    -0.122 OA 
HETATM   12  H1  UNL     1      -7.645   8.676  73.887  1.00  0.00     0.000 HD 
HETATM   13  H2  UNL     1      -7.449   9.301  72.333  1.00  0.00     0.000 HD 
ENDBRANCH   6   7
ENDBRANCH   5   6
ENDBRANCH   3   5
TORSDOF 3
ENDMDL
MODEL      212
REMARK 921   NORMALIZED FREE ENERGY PREDICTED BY IDOCK:   -1.59 KCAL/MOL
REMARK 922        TOTAL FREE ENERGY PREDICTED BY IDOCK:   -2.33 KCAL/MOL
REMARK 923 INTER-LIGAND FREE ENERGY PREDICTED BY IDOCK:   -2.61 KCAL/MOL
REMARK 924 INTRA-LIGAND FREE ENERGY PREDICTED BY IDOCK:    0.28 KCAL/MOL
REMARK 927      BINDING AFFINITY PREDICTED BY RF-SCORE:    0.00 PKD
ROOT
HETATM    1  N   UNL     1     -12.297  15.515  71.551  1.00  0.00    -0.364 NA 
HETATM    2  H2  UNL     1     -11.950  14.660  71.984  1.00  0.00     0.000 HD 
HETATM    3  C   UNL     1     -11.287  16.161  70.721  1.00  0.00    -0.368 C  
HETATM    4  H1  UNL     1     -12.651  16.179  72.240  1.00  0.00     0.000 HD 
ENDROOT
BRANCH   3   5
HETATM    5  C   UNL     1     -10.758  15.166  69.688  1.00  0.00    -0.289 C  
BRANCH   5   6
HETATM    6  C   UNL     1      -9.283  15.433  69.350  1.00  0.00    -0.268 C  
BRANCH   6   7
HETATM    7  CA  UNL     1      -9.049  15.928  67.917  1.00  0.00    -0.190 C  
HETATM    8  N   UNL     1      -8.172  17.133  67.884  1.00  0.00    -0.198 NA 
HETATM    9  C   UNL     1     -10.385  16.273  67.242  1.00  0.00    -0.285 C  
HETATM   10  OXT UNL     1     -11.180  15.460  66.802  1.00  0.00    -0.298 OA 
HETATM   11  O   UNL     1     -10.596  17.616  67.231  1.00  0.00    -0.347 OA 
HETATM   12  H1  UNL     1      -8.015  17.462  66.931  1.00  0.00     0.000 HD 
HETATM   13  H2  UNL     1      -7.289  16.964  68.368  1.00  0.00     0.000 HD 
ENDBRANCH   6   7
ENDBRANCH   5   6
ENDBRANCH   3   5
TORSDOF 3
ENDMDL
MODEL      213
REMARK 921   NORMALIZED FREE ENERGY PREDICTED BY IDOCK:   -1.57 KCAL/MOL
REMARK 922        TOTAL FREE ENERGY PREDICTED BY IDOCK:   -2.30 KCAL/MOL
REMARK 923 INTER-LIGAND FREE ENERGY PREDICTED BY IDOCK:   -2.20 KCAL/MOL
REMARK 924 INTRA-LIGAND FREE ENERGY PREDICTED BY IDOCK:   -0.10 KCAL/MOL
REMARK 927      BINDING AFFINITY PREDICTED BY RF-SCORE:    0.00 PKD
ROOT
HETATM    1  N   UNL     1      -8.524   3.292  72.150  1.00  0.00    -0.077 NA 
HETATM    2  H2  UNL     1      -8.290   2.654  72.910  1.00  0.00     0.000 HD 
HETATM    3  C   UNL     1      -9.953   3.303  71.861  1.00  0.00    -0.139 C  
HETATM    4  H1  UNL     1      -8.003   3.081  71.297  1.00  0.00     0.000 HD 
ENDROOT
BRANCH   3   5
HETATM    5  C   UNL     1     -10.732   3.619  73.138  1.00  0.00    -0.268 C  
BRANCH   5   6
HETATM    6  C   UNL     1     -10.936   5.132  73.315  1.00  0.00    -0.375 C  
BRANCH   6   7
HETATM    7  CA  UNL     1     -10.746   5.945  72.027  1.00  0.00    -0.233 C  
HETATM    8  N   UNL     1      -9.412   6.607  71.982  1.00  0.00    -0.150 NA 
HETATM    9  C   UNL     1     -11.836   7.022  71.906  1.00  0.00    -0.305 C  
HETATM   10  OXT UNL     1     -12.992   6.817  71.574  1.00  0.00    -0.331 OA 
HETATM   11  O   UNL     1     -11.358   8.245  72.257  1.00  0.00    -0.325 OA 
HETATM   12  H1  UNL     1      -9.286   7.148  71.126  1.00  0.00     0.000 HD 
HETATM   13  H2  UNL     1      -8.657   5.933  72.111  1.00  0.00     0.000 HD 
ENDBRANCH   6   7
ENDBRANCH   5   6
ENDBRANCH   3   5
TORSDOF 3
ENDMDL
MODEL      214
REMARK 921   NORMALIZED FREE ENERGY PREDICTED BY IDOCK:   -1.55 KCAL/MOL
REMARK 922        TOTAL FREE ENERGY PREDICTED BY IDOCK:   -2.28 KCAL/MOL
REMARK 923 INTER-LIGAND FREE ENERGY PREDICTED BY IDOCK:   -2.21 KCAL/MOL
REMARK 924 INTRA-LIGAND FREE ENERGY PREDICTED BY IDOCK:   -0.07 KCAL/MOL
REMARK 927      BINDING AFFINITY PREDICTED BY RF-SCORE:    0.00 PKD
ROOT
HETATM    1  N   UNL     1      -6.534   7.335  72.355  1.00  0.00    -0.051 NA 
HETATM    2  H2  UNL     1      -6.738   7.059  73.316  1.00  0.00     0.000 HD 
HETATM    3  C   UNL     1      -7.378   6.636  71.393  1.00  0.00    -0.083 C  
HETATM    4  H1  UNL     1      -5.552   7.196  72.115  1.00  0.00     0.000 HD 
ENDROOT
BRANCH   3   5
HETATM    5  C   UNL     1      -8.848   6.843  71.752  1.00  0.00    -0.131 C  
BRANCH   5   6
HETATM    6  C   UNL     1      -9.086   8.222  72.387  1.00  0.00    -0.307 C  
BRANCH   6   7
HETATM    7  CA  UNL     1     -10.559   8.526  72.692  1.00  0.00    -0.147 C  
HETATM    8  N   UNL     1     -11.224   7.391  73.394  1.00  0.00    -0.596 NA 
HETATM    9  C   UNL     1     -11.328   8.820  71.395  1.00  0.00    -0.294 C  
HETATM   10  OXT UNL     1     -11.271   9.865  70.767  1.00  0.00    -0.303 OA 
HETATM   11  O   UNL     1     -12.060   7.744  71.003  1.00  0.00    -0.302 OA 
HETATM   12  H1  UNL     1     -12.203   7.592  73.598  1.00  0.00     0.000 HD 
HETATM   13  H2  UNL     1     -10.715   7.127  74.239  1.00  0.00     0.000 HD 
ENDBRANCH   6   7
ENDBRANCH   5   6
ENDBRANCH   3   5
TORSDOF 3
ENDMDL
MODEL      215
REMARK 921   NORMALIZED FREE ENERGY PREDICTED BY IDOCK:   -1.55 KCAL/MOL
REMARK 922        TOTAL FREE ENERGY PREDICTED BY IDOCK:   -2.28 KCAL/MOL
REMARK 923 INTER-LIGAND FREE ENERGY PREDICTED BY IDOCK:   -2.21 KCAL/MOL
REMARK 924 INTRA-LIGAND FREE ENERGY PREDICTED BY IDOCK:   -0.07 KCAL/MOL
REMARK 927      BINDING AFFINITY PREDICTED BY RF-SCORE:    0.00 PKD
ROOT
HETATM    1  N   UNL     1      -6.891   6.320  67.968  1.00  0.00    -0.068 NA 
HETATM    2  H2  UNL     1      -7.156   5.395  68.306  1.00  0.00     0.000 HD 
HETATM    3  C   UNL     1      -7.945   7.305  68.176  1.00  0.00    -0.123 C  
HETATM    4  H1  UNL     1      -6.623   6.307  66.984  1.00  0.00     0.000 HD 
ENDROOT
BRANCH   3   5
HETATM    5  C   UNL     1      -8.346   7.325  69.651  1.00  0.00    -0.132 C  
BRANCH   5   6
HETATM    6  C   UNL     1      -9.674   8.069  69.866  1.00  0.00    -0.180 C  
BRANCH   6   7
HETATM    7  CA  UNL     1     -10.579   7.440  70.934  1.00  0.00    -0.223 C  
HETATM    8  N   UNL     1     -11.960   7.208  70.423  1.00  0.00    -0.559 NA 
HETATM    9  C   UNL     1     -10.657   8.346  72.173  1.00  0.00    -0.329 C  
HETATM   10  OXT UNL     1      -9.784   8.458  73.017  1.00  0.00    -0.241 OA 
HETATM   11  O   UNL     1     -11.820   9.049  72.193  1.00  0.00    -0.358 OA 
HETATM   12  H1  UNL     1     -12.561   6.790  71.133  1.00  0.00     0.000 HD 
HETATM   13  H2  UNL     1     -11.951   6.651  69.568  1.00  0.00     0.000 HD 
ENDBRANCH   6   7
ENDBRANCH   5   6
ENDBRANCH   3   5
TORSDOF 3
ENDMDL
MODEL      216
REMARK 921   NORMALIZED FREE ENERGY PREDICTED BY IDOCK:   -1.54 KCAL/MOL
REMARK 922        TOTAL FREE ENERGY PREDICTED BY IDOCK:   -2.27 KCAL/MOL
REMARK 923 INTER-LIGAND FREE ENERGY PREDICTED BY IDOCK:   -2.07 KCAL/MOL
REMARK 924 INTRA-LIGAND FREE ENERGY PREDICTED BY IDOCK:   -0.21 KCAL/MOL
REMARK 927      BINDING AFFINITY PREDICTED BY RF-SCORE:    0.00 PKD
ROOT
HETATM    1  N   UNL     1     -10.970   5.724  66.272  1.00  0.00    -0.737 NA 
HETATM    2  H2  UNL     1     -10.062   5.752  65.807  1.00  0.00     0.000 HD 
HETATM    3  C   UNL     1     -10.975   6.487  67.515  1.00  0.00    -0.359 C  
HETATM    4  H1  UNL     1     -11.279   4.769  66.455  1.00  0.00     0.000 HD 
ENDROOT
BRANCH   3   5
HETATM    5  C   UNL     1     -10.512   7.917  67.241  1.00  0.00    -0.390 C  
BRANCH   5   6
HETATM    6  C   UNL     1      -9.135   8.195  67.865  1.00  0.00    -0.136 C  
BRANCH   6   7
HETATM    7  CA  UNL     1      -8.476   6.963  68.500  1.00  0.00    -0.123 C  
HETATM    8  N   UNL     1      -8.040   7.230  69.901  1.00  0.00    -0.125 NA 
HETATM    9  C   UNL     1      -7.253   6.525  67.679  1.00  0.00    -0.090 C  
HETATM   10  OXT UNL     1      -7.298   5.920  66.621  1.00  0.00    -0.076 OA 
HETATM   11  O   UNL     1      -6.096   6.934  68.265  1.00  0.00    -0.030 OA 
HETATM   12  H1  UNL     1      -7.602   6.411  70.324  1.00  0.00     0.000 HD 
HETATM   13  H2  UNL     1      -8.813   7.574  70.471  1.00  0.00     0.000 HD 
ENDBRANCH   6   7
ENDBRANCH   5   6
ENDBRANCH   3   5
TORSDOF 3
ENDMDL
MODEL      217
REMARK 921   NORMALIZED FREE ENERGY PREDICTED BY IDOCK:   -1.54 KCAL/MOL
REMARK 922        TOTAL FREE ENERGY PREDICTED BY IDOCK:   -2.26 KCAL/MOL
REMARK 923 INTER-LIGAND FREE ENERGY PREDICTED BY IDOCK:   -2.16 KCAL/MOL
REMARK 924 INTRA-LIGAND FREE ENERGY PREDICTED BY IDOCK:   -0.10 KCAL/MOL
REMARK 927      BINDING AFFINITY PREDICTED BY RF-SCORE:    0.00 PKD
ROOT
HETATM    1  N   UNL     1      -7.984   4.788  70.976  1.00  0.00    -0.082 NA 
HETATM    2  H2  UNL     1      -8.991   4.628  70.971  1.00  0.00     0.000 HD 
HETATM    3  C   UNL     1      -7.652   6.208  70.990  1.00  0.00    -0.097 C  
HETATM    4  H1  UNL     1      -7.518   4.335  70.189  1.00  0.00     0.000 HD 
ENDROOT
BRANCH   3   5
HETATM    5  C   UNL     1      -8.349   6.887  72.169  1.00  0.00    -0.105 C  
BRANCH   5   6
HETATM    6  C   UNL     1      -9.339   7.963  71.697  1.00  0.00    -0.189 C  
BRANCH   6   7
HETATM    7  CA  UNL     1     -10.811   7.623  71.968  1.00  0.00    -0.238 C  
HETATM    8  N   UNL     1     -11.101   7.545  73.428  1.00  0.00    -0.565 NA 
HETATM    9  C   UNL     1     -11.179   6.279  71.321  1.00  0.00    -0.297 C  
HETATM   10  OXT UNL     1     -11.387   6.107  70.131  1.00  0.00    -0.382 OA 
HETATM   11  O   UNL     1     -11.208   5.281  72.243  1.00  0.00    -0.204 OA 
HETATM   12  H1  UNL     1     -12.079   7.320  73.609  1.00  0.00     0.000 HD 
HETATM   13  H2  UNL     1     -10.822   8.402  73.908  1.00  0.00     0.000 HD 
ENDBRANCH   6   7
ENDBRANCH   5   6
ENDBRANCH   3   5
TORSDOF 3
ENDMDL
MODEL      218
REMARK 921   NORMALIZED FREE ENERGY PREDICTED BY IDOCK:   -1.52 KCAL/MOL
REMARK 922        TOTAL FREE ENERGY PREDICTED BY IDOCK:   -2.25 KCAL/MOL
REMARK 923 INTER-LIGAND FREE ENERGY PREDICTED BY IDOCK:   -2.20 KCAL/MOL
REMARK 924 INTRA-LIGAND FREE ENERGY PREDICTED BY IDOCK:   -0.05 KCAL/MOL
REMARK 927      BINDING AFFINITY PREDICTED BY RF-SCORE:    0.00 PKD
ROOT
HETATM    1  N   UNL     1     -11.449   6.502  67.701  1.00  0.00    -0.688 NA 
HETATM    2  H2  UNL     1     -10.583   6.765  67.232  1.00  0.00     0.000 HD 
HETATM    3  C   UNL     1     -11.261   6.305  69.134  1.00  0.00    -0.371 C  
HETATM    4  H1  UNL     1     -11.870   5.668  67.292  1.00  0.00     0.000 HD 
ENDROOT
BRANCH   3   5
HETATM    5  C   UNL     1     -10.631   7.555  69.746  1.00  0.00    -0.245 C  
BRANCH   5   6
HETATM    6  C   UNL     1      -9.357   7.217  70.535  1.00  0.00    -0.158 C  
BRANCH   6   7
HETATM    7  CA  UNL     1      -8.427   8.416  70.767  1.00  0.00    -0.139 C  
HETATM    8  N   UNL     1      -7.225   8.362  69.887  1.00  0.00    -0.054 NA 
HETATM    9  C   UNL     1      -7.964   8.461  72.231  1.00  0.00    -0.116 C  
HETATM   10  OXT UNL     1      -8.642   8.842  73.171  1.00  0.00    -0.366 OA 
HETATM   11  O   UNL     1      -6.698   7.982  72.361  1.00  0.00    -0.065 OA 
HETATM   12  H1  UNL     1      -6.607   9.159  70.040  1.00  0.00     0.000 HD 
HETATM   13  H2  UNL     1      -7.487   8.279  68.904  1.00  0.00     0.000 HD 
ENDBRANCH   6   7
ENDBRANCH   5   6
ENDBRANCH   3   5
TORSDOF 3
ENDMDL
MODEL      219
REMARK 921   NORMALIZED FREE ENERGY PREDICTED BY IDOCK:   -1.52 KCAL/MOL
REMARK 922        TOTAL FREE ENERGY PREDICTED BY IDOCK:   -2.25 KCAL/MOL
REMARK 923 INTER-LIGAND FREE ENERGY PREDICTED BY IDOCK:   -2.16 KCAL/MOL
REMARK 924 INTRA-LIGAND FREE ENERGY PREDICTED BY IDOCK:   -0.09 KCAL/MOL
REMARK 927      BINDING AFFINITY PREDICTED BY RF-SCORE:    0.00 PKD
ROOT
HETATM    1  N   UNL     1      -8.991   9.227  64.026  1.00  0.00    -0.415 NA 
HETATM    2  H2  UNL     1      -9.360   8.319  64.306  1.00  0.00     0.000 HD 
HETATM    3  C   UNL     1      -9.777  10.331  64.565  1.00  0.00    -0.329 C  
HETATM    4  H1  UNL     1      -8.923   9.318  63.012  1.00  0.00     0.000 HD 
ENDROOT
BRANCH   3   5
HETATM    5  C   UNL     1      -9.879  10.195  66.084  1.00  0.00    -0.297 C  
BRANCH   5   6
HETATM    6  C   UNL     1     -10.097   8.734  66.507  1.00  0.00    -0.349 C  
BRANCH   6   7
HETATM    7  CA  UNL     1     -10.080   8.512  68.026  1.00  0.00    -0.200 C  
HETATM    8  N   UNL     1     -10.591   9.702  68.764  1.00  0.00    -0.215 NA 
HETATM    9  C   UNL     1      -8.653   8.208  68.508  1.00  0.00    -0.130 C  
HETATM   10  OXT UNL     1      -8.079   7.141  68.373  1.00  0.00    -0.121 OA 
HETATM   11  O   UNL     1      -8.084   9.304  69.077  1.00  0.00    -0.101 OA 
HETATM   12  H1  UNL     1     -10.580   9.554  69.774  1.00  0.00     0.000 HD 
HETATM   13  H2  UNL     1     -11.520   9.971  68.438  1.00  0.00     0.000 HD 
ENDBRANCH   6   7
ENDBRANCH   5   6
ENDBRANCH   3   5
TORSDOF 3
ENDMDL
MODEL      220
REMARK 921   NORMALIZED FREE ENERGY PREDICTED BY IDOCK:   -1.51 KCAL/MOL
REMARK 922        TOTAL FREE ENERGY PREDICTED BY IDOCK:   -2.23 KCAL/MOL
REMARK 923 INTER-LIGAND FREE ENERGY PREDICTED BY IDOCK:   -1.93 KCAL/MOL
REMARK 924 INTRA-LIGAND FREE ENERGY PREDICTED BY IDOCK:   -0.30 KCAL/MOL
REMARK 927      BINDING AFFINITY PREDICTED BY RF-SCORE:    0.00 PKD
ROOT
HETATM    1  N   UNL     1     -11.148   5.596  72.765  1.00  0.00    -0.272 NA 
HETATM    2  H2  UNL     1     -10.154   5.663  72.551  1.00  0.00     0.000 HD 
HETATM    3  C   UNL     1     -11.930   6.610  72.066  1.00  0.00    -0.319 C  
HETATM    4  H1  UNL     1     -11.332   5.652  73.767  1.00  0.00     0.000 HD 
ENDROOT
BRANCH   3   5
HETATM    5  C   UNL     1     -11.656   6.526  70.565  1.00  0.00    -0.455 C  
BRANCH   5   6
HETATM    6  C   UNL     1     -10.312   5.839  70.274  1.00  0.00    -0.319 C  
BRANCH   6   7
HETATM    7  CA  UNL     1      -9.144   6.813  70.066  1.00  0.00    -0.148 C  
HETATM    8  N   UNL     1      -8.292   6.415  68.909  1.00  0.00    -0.120 NA 
HETATM    9  C   UNL     1      -8.267   6.876  71.326  1.00  0.00    -0.114 C  
HETATM   10  OXT UNL     1      -8.549   7.477  72.349  1.00  0.00    -0.115 OA 
HETATM   11  O   UNL     1      -7.137   6.135  71.174  1.00  0.00    -0.070 OA 
HETATM   12  H1  UNL     1      -7.515   7.062  68.771  1.00  0.00     0.000 HD 
HETATM   13  H2  UNL     1      -8.845   6.311  68.058  1.00  0.00     0.000 HD 
ENDBRANCH   6   7
ENDBRANCH   5   6
ENDBRANCH   3   5
TORSDOF 3
ENDMDL
MODEL      221
REMARK 921   NORMALIZED FREE ENERGY PREDICTED BY IDOCK:   -1.50 KCAL/MOL
REMARK 922        TOTAL FREE ENERGY PREDICTED BY IDOCK:   -2.22 KCAL/MOL
REMARK 923 INTER-LIGAND FREE ENERGY PREDICTED BY IDOCK:   -2.08 KCAL/MOL
REMARK 924 INTRA-LIGAND FREE ENERGY PREDICTED BY IDOCK:   -0.14 KCAL/MOL
REMARK 927      BINDING AFFINITY PREDICTED BY RF-SCORE:    0.00 PKD
ROOT
HETATM    1  N   UNL     1     -10.879  17.909  68.348  1.00  0.00    -0.264 NA 
HETATM    2  H2  UNL     1     -10.267  17.936  69.163  1.00  0.00     0.000 HD 
HETATM    3  C   UNL     1     -10.130  17.817  67.100  1.00  0.00    -0.338 C  
HETATM    4  H1  UNL     1     -11.508  18.711  68.312  1.00  0.00     0.000 HD 
ENDROOT
BRANCH   3   5
HETATM    5  C   UNL     1      -9.188  16.615  67.154  1.00  0.00    -0.233 C  
BRANCH   5   6
HETATM    6  C   UNL     1      -7.986  16.797  66.214  1.00  0.00    -0.352 C  
BRANCH   6   7
HETATM    7  CA  UNL     1      -6.645  16.973  66.940  1.00  0.00    -0.216 C  
HETATM    8  N   UNL     1      -6.703  16.468  68.341  1.00  0.00    -0.139 NA 
HETATM    9  C   UNL     1      -6.240  18.455  66.967  1.00  0.00    -0.169 C  
HETATM   10  OXT UNL     1      -5.779  19.075  66.023  1.00  0.00    -0.151 OA 
HETATM   11  O   UNL     1      -6.498  19.012  68.180  1.00  0.00    -0.218 OA 
HETATM   12  H1  UNL     1      -5.812  16.585  68.823  1.00  0.00     0.000 HD 
HETATM   13  H2  UNL     1      -7.019  15.498  68.373  1.00  0.00     0.000 HD 
ENDBRANCH   6   7
ENDBRANCH   5   6
ENDBRANCH   3   5
TORSDOF 3
ENDMDL
MODEL      222
REMARK 921   NORMALIZED FREE ENERGY PREDICTED BY IDOCK:   -1.50 KCAL/MOL
REMARK 922        TOTAL FREE ENERGY PREDICTED BY IDOCK:   -2.22 KCAL/MOL
REMARK 923 INTER-LIGAND FREE ENERGY PREDICTED BY IDOCK:   -2.11 KCAL/MOL
REMARK 924 INTRA-LIGAND FREE ENERGY PREDICTED BY IDOCK:   -0.11 KCAL/MOL
REMARK 927      BINDING AFFINITY PREDICTED BY RF-SCORE:    0.00 PKD
ROOT
HETATM    1  N   UNL     1      -9.672   2.887  70.996  1.00  0.00    -0.144 NA 
HETATM    2  H2  UNL     1      -8.659   2.772  70.957  1.00  0.00     0.000 HD 
HETATM    3  C   UNL     1     -10.084   3.762  72.087  1.00  0.00    -0.150 C  
HETATM    4  H1  UNL     1     -10.158   1.993  71.072  1.00  0.00     0.000 HD 
ENDROOT
BRANCH   3   5
HETATM    5  C   UNL     1      -9.357   5.101  71.975  1.00  0.00    -0.164 C  
BRANCH   5   6
HETATM    6  C   UNL     1      -9.544   5.731  70.585  1.00  0.00    -0.214 C  
BRANCH   6   7
HETATM    7  CA  UNL     1     -10.758   6.664  70.479  1.00  0.00    -0.247 C  
HETATM    8  N   UNL     1     -11.661   6.271  69.360  1.00  0.00    -0.540 NA 
HETATM    9  C   UNL     1     -10.303   8.115  70.259  1.00  0.00    -0.209 C  
HETATM   10  OXT UNL     1      -9.850   8.848  71.123  1.00  0.00    -0.224 OA 
HETATM   11  O   UNL     1     -10.431   8.477  68.955  1.00  0.00    -0.215 OA 
HETATM   12  H1  UNL     1     -12.468   6.891  69.289  1.00  0.00     0.000 HD 
HETATM   13  H2  UNL     1     -11.948   5.295  69.439  1.00  0.00     0.000 HD 
ENDBRANCH   6   7
ENDBRANCH   5   6
ENDBRANCH   3   5
TORSDOF 3
ENDMDL
MODEL      223
REMARK 921   NORMALIZED FREE ENERGY PREDICTED BY IDOCK:   -1.48 KCAL/MOL
REMARK 922        TOTAL FREE ENERGY PREDICTED BY IDOCK:   -2.20 KCAL/MOL
REMARK 923 INTER-LIGAND FREE ENERGY PREDICTED BY IDOCK:   -2.03 KCAL/MOL
REMARK 924 INTRA-LIGAND FREE ENERGY PREDICTED BY IDOCK:   -0.16 KCAL/MOL
REMARK 927      BINDING AFFINITY PREDICTED BY RF-SCORE:    0.00 PKD
ROOT
HETATM    1  N   UNL     1      -6.409   5.876  70.021  1.00  0.00    -0.027 NA 
HETATM    2  H2  UNL     1      -6.398   5.554  70.989  1.00  0.00     0.000 HD 
HETATM    3  C   UNL     1      -7.727   5.740  69.411  1.00  0.00    -0.092 C  
HETATM    4  H1  UNL     1      -5.715   5.395  69.448  1.00  0.00     0.000 HD 
ENDROOT
BRANCH   3   5
HETATM    5  C   UNL     1      -8.766   6.461  70.269  1.00  0.00    -0.143 C  
BRANCH   5   6
HETATM    6  C   UNL     1      -9.254   7.754  69.598  1.00  0.00    -0.153 C  
BRANCH   6   7
HETATM    7  CA  UNL     1     -10.642   7.641  68.954  1.00  0.00    -0.159 C  
HETATM    8  N   UNL     1     -11.454   6.557  69.577  1.00  0.00    -0.606 NA 
HETATM    9  C   UNL     1     -10.514   7.357  67.449  1.00  0.00    -0.296 C  
HETATM   10  OXT UNL     1     -10.219   8.183  66.602  1.00  0.00    -0.292 OA 
HETATM   11  O   UNL     1     -10.736   6.044  67.177  1.00  0.00    -0.266 OA 
HETATM   12  H1  UNL     1     -12.377   6.482  69.149  1.00  0.00     0.000 HD 
HETATM   13  H2  UNL     1     -11.522   6.678  70.588  1.00  0.00     0.000 HD 
ENDBRANCH   6   7
ENDBRANCH   5   6
ENDBRANCH   3   5
TORSDOF 3
ENDMDL
MODEL      224
REMARK 921   NORMALIZED FREE ENERGY PREDICTED BY IDOCK:   -1.47 KCAL/MOL
REMARK 922        TOTAL FREE ENERGY PREDICTED BY IDOCK:   -2.19 KCAL/MOL
REMARK 923 INTER-LIGAND FREE ENERGY PREDICTED BY IDOCK:   -2.11 KCAL/MOL
REMARK 924 INTRA-LIGAND FREE ENERGY PREDICTED BY IDOCK:   -0.08 KCAL/MOL
REMARK 927      BINDING AFFINITY PREDICTED BY RF-SCORE:    0.00 PKD
ROOT
HETATM    1  N   UNL     1     -10.956   5.763  66.315  1.00  0.00    -0.737 NA 
HETATM    2  H2  UNL     1     -10.033   5.840  65.889  1.00  0.00     0.000 HD 
HETATM    3  C   UNL     1     -11.031   6.458  67.595  1.00  0.00    -0.349 C  
HETATM    4  H1  UNL     1     -11.245   4.792  66.435  1.00  0.00     0.000 HD 
ENDROOT
BRANCH   3   5
HETATM    5  C   UNL     1     -10.598   7.913  67.416  1.00  0.00    -0.342 C  
BRANCH   5   6
HETATM    6  C   UNL     1      -9.181   8.152  67.959  1.00  0.00    -0.137 C  
BRANCH   6   7
HETATM    7  CA  UNL     1      -8.221   8.789  66.945  1.00  0.00    -0.108 C  
HETATM    8  N   UNL     1      -6.826   8.291  67.115  1.00  0.00    -0.069 NA 
HETATM    9  C   UNL     1      -8.219  10.318  67.093  1.00  0.00    -0.121 C  
HETATM   10  OXT UNL     1      -9.096  11.064  66.689  1.00  0.00    -0.159 OA 
HETATM   11  O   UNL     1      -7.123  10.744  67.775  1.00  0.00    -0.083 OA 
HETATM   12  H1  UNL     1      -6.188   8.714  66.441  1.00  0.00     0.000 HD 
HETATM   13  H2  UNL     1      -6.788   7.272  67.075  1.00  0.00     0.000 HD 
ENDBRANCH   6   7
ENDBRANCH   5   6
ENDBRANCH   3   5
TORSDOF 3
ENDMDL
MODEL      225
REMARK 921   NORMALIZED FREE ENERGY PREDICTED BY IDOCK:   -1.47 KCAL/MOL
REMARK 922        TOTAL FREE ENERGY PREDICTED BY IDOCK:   -2.18 KCAL/MOL
REMARK 923 INTER-LIGAND FREE ENERGY PREDICTED BY IDOCK:   -2.25 KCAL/MOL
REMARK 924 INTRA-LIGAND FREE ENERGY PREDICTED BY IDOCK:    0.07 KCAL/MOL
REMARK 927      BINDING AFFINITY PREDICTED BY RF-SCORE:    0.00 PKD
ROOT
HETATM    1  N   UNL     1      -7.102  15.550  68.868  1.00  0.00    -0.125 NA 
HETATM    2  H2  UNL     1      -7.732  14.764  69.030  1.00  0.00     0.000 HD 
HETATM    3  C   UNL     1      -6.760  15.698  67.458  1.00  0.00    -0.191 C  
HETATM    4  H1  UNL     1      -6.249  15.480  69.423  1.00  0.00     0.000 HD 
ENDROOT
BRANCH   3   5
HETATM    5  C   UNL     1      -8.038  15.802  66.627  1.00  0.00    -0.282 C  
BRANCH   5   6
HETATM    6  C   UNL     1      -9.155  14.913  67.194  1.00  0.00    -0.236 C  
BRANCH   6   7
HETATM    7  CA  UNL     1     -10.495  15.637  67.386  1.00  0.00    -0.291 C  
HETATM    8  N   UNL     1     -11.509  15.199  66.384  1.00  0.00    -0.231 NA 
HETATM    9  C   UNL     1     -10.307  17.157  67.264  1.00  0.00    -0.320 C  
HETATM   10  OXT UNL     1      -9.827  17.877  68.124  1.00  0.00    -0.300 OA 
HETATM   11  O   UNL     1     -10.710  17.605  66.045  1.00  0.00    -0.274 OA 
HETATM   12  H1  UNL     1     -12.399  15.680  66.512  1.00  0.00     0.000 HD 
HETATM   13  H2  UNL     1     -11.628  14.186  66.396  1.00  0.00     0.000 HD 
ENDBRANCH   6   7
ENDBRANCH   5   6
ENDBRANCH   3   5
TORSDOF 3
ENDMDL
MODEL      226
REMARK 921   NORMALIZED FREE ENERGY PREDICTED BY IDOCK:   -1.47 KCAL/MOL
REMARK 922        TOTAL FREE ENERGY PREDICTED BY IDOCK:   -2.18 KCAL/MOL
REMARK 923 INTER-LIGAND FREE ENERGY PREDICTED BY IDOCK:   -1.89 KCAL/MOL
REMARK 924 INTRA-LIGAND FREE ENERGY PREDICTED BY IDOCK:   -0.29 KCAL/MOL
REMARK 927      BINDING AFFINITY PREDICTED BY RF-SCORE:    0.00 PKD
ROOT
HETATM    1  N   UNL     1      -8.989   9.073  65.793  1.00  0.00    -0.184 NA 
HETATM    2  H2  UNL     1      -9.462   8.230  66.119  1.00  0.00     0.000 HD 
HETATM    3  C   UNL     1      -9.565  10.284  66.367  1.00  0.00    -0.185 C  
HETATM    4  H1  UNL     1      -8.987   9.144  64.775  1.00  0.00     0.000 HD 
ENDROOT
BRANCH   3   5
HETATM    5  C   UNL     1      -9.569  10.178  67.891  1.00  0.00    -0.166 C  
BRANCH   5   6
HETATM    6  C   UNL     1     -10.480   9.041  68.377  1.00  0.00    -0.234 C  
BRANCH   6   7
HETATM    7  CA  UNL     1      -9.729   7.869  69.024  1.00  0.00    -0.162 C  
HETATM    8  N   UNL     1      -9.217   6.909  68.005  1.00  0.00    -0.123 NA 
HETATM    9  C   UNL     1     -10.649   7.113  69.996  1.00  0.00    -0.232 C  
HETATM   10  OXT UNL     1     -10.958   7.495  71.112  1.00  0.00    -0.241 OA 
HETATM   11  O   UNL     1     -11.115   5.965  69.436  1.00  0.00    -0.363 OA 
HETATM   12  H1  UNL     1      -8.718   6.131  68.436  1.00  0.00     0.000 HD 
HETATM   13  H2  UNL     1      -8.641   7.380  67.307  1.00  0.00     0.000 HD 
ENDBRANCH   6   7
ENDBRANCH   5   6
ENDBRANCH   3   5
TORSDOF 3
ENDMDL
MODEL      227
REMARK 921   NORMALIZED FREE ENERGY PREDICTED BY IDOCK:   -1.46 KCAL/MOL
REMARK 922        TOTAL FREE ENERGY PREDICTED BY IDOCK:   -2.18 KCAL/MOL
REMARK 923 INTER-LIGAND FREE ENERGY PREDICTED BY IDOCK:   -2.08 KCAL/MOL
REMARK 924 INTRA-LIGAND FREE ENERGY PREDICTED BY IDOCK:   -0.09 KCAL/MOL
REMARK 927      BINDING AFFINITY PREDICTED BY RF-SCORE:    0.00 PKD
ROOT
HETATM    1  N   UNL     1      -7.385  14.594  67.409  1.00  0.00    -0.198 NA 
HETATM    2  H2  UNL     1      -8.055  15.356  67.312  1.00  0.00     0.000 HD 
HETATM    3  C   UNL     1      -8.009  13.372  67.904  1.00  0.00    -0.155 C  
HETATM    4  H1  UNL     1      -6.600  14.846  68.010  1.00  0.00     0.000 HD 
ENDROOT
BRANCH   3   5
HETATM    5  C   UNL     1      -9.184  12.995  67.004  1.00  0.00    -0.232 C  
BRANCH   5   6
HETATM    6  C   UNL     1     -10.078  11.930  67.658  1.00  0.00    -0.202 C  
BRANCH   6   7
HETATM    7  CA  UNL     1     -11.582  12.201  67.517  1.00  0.00    -0.343 C  
HETATM    8  N   UNL     1     -11.877  13.094  66.360  1.00  0.00    -0.382 NA 
HETATM    9  C   UNL     1     -12.133  12.853  68.795  1.00  0.00    -0.139 C  
HETATM   10  OXT UNL     1     -12.365  12.265  69.838  1.00  0.00    -0.176 OA 
HETATM   11  O   UNL     1     -12.296  14.192  68.632  1.00  0.00    -0.257 OA 
HETATM   12  H1  UNL     1     -12.876  13.275  66.266  1.00  0.00     0.000 HD 
HETATM   13  H2  UNL     1     -11.483  12.724  65.495  1.00  0.00     0.000 HD 
ENDBRANCH   6   7
ENDBRANCH   5   6
ENDBRANCH   3   5
TORSDOF 3
ENDMDL
MODEL      228
REMARK 921   NORMALIZED FREE ENERGY PREDICTED BY IDOCK:   -1.46 KCAL/MOL
REMARK 922        TOTAL FREE ENERGY PREDICTED BY IDOCK:   -2.18 KCAL/MOL
REMARK 923 INTER-LIGAND FREE ENERGY PREDICTED BY IDOCK:   -2.10 KCAL/MOL
REMARK 924 INTRA-LIGAND FREE ENERGY PREDICTED BY IDOCK:   -0.07 KCAL/MOL
REMARK 927      BINDING AFFINITY PREDICTED BY RF-SCORE:    0.00 PKD
ROOT
HETATM    1  N   UNL     1     -11.815  10.910  68.344  1.00  0.00    -0.705 NA 
HETATM    2  H2  UNL     1     -11.792  10.299  67.528  1.00  0.00     0.000 HD 
HETATM    3  C   UNL     1     -10.720  10.637  69.268  1.00  0.00    -0.238 C  
HETATM    4  H1  UNL     1     -12.705  10.855  68.841  1.00  0.00     0.000 HD 
ENDROOT
BRANCH   3   5
HETATM    5  C   UNL     1      -9.388  10.720  68.524  1.00  0.00    -0.174 C  
BRANCH   5   6
HETATM    6  C   UNL     1      -9.564  10.465  67.019  1.00  0.00    -0.197 C  
BRANCH   6   7
HETATM    7  CA  UNL     1      -8.270  10.600  66.205  1.00  0.00    -0.156 C  
HETATM    8  N   UNL     1      -8.537  11.070  64.816  1.00  0.00    -0.375 NA 
HETATM    9  C   UNL     1      -7.536   9.252  66.136  1.00  0.00    -0.096 C  
HETATM   10  OXT UNL     1      -6.883   8.761  67.042  1.00  0.00    -0.068 OA 
HETATM   11  O   UNL     1      -7.738   8.643  64.938  1.00  0.00    -0.095 OA 
HETATM   12  H1  UNL     1      -7.676  11.160  64.275  1.00  0.00     0.000 HD 
HETATM   13  H2  UNL     1      -9.070  11.940  64.814  1.00  0.00     0.000 HD 
ENDBRANCH   6   7
ENDBRANCH   5   6
ENDBRANCH   3   5
TORSDOF 3
ENDMDL
MODEL      229
REMARK 921   NORMALIZED FREE ENERGY PREDICTED BY IDOCK:   -1.46 KCAL/MOL
REMARK 922        TOTAL FREE ENERGY PREDICTED BY IDOCK:   -2.18 KCAL/MOL
REMARK 923 INTER-LIGAND FREE ENERGY PREDICTED BY IDOCK:   -1.91 KCAL/MOL
REMARK 924 INTRA-LIGAND FREE ENERGY PREDICTED BY IDOCK:   -0.26 KCAL/MOL
REMARK 927      BINDING AFFINITY PREDICTED BY RF-SCORE:    0.00 PKD
ROOT
HETATM    1  N   UNL     1      -8.340  11.379  67.042  1.00  0.00    -0.155 NA 
HETATM    2  H2  UNL     1      -8.083  10.576  67.615  1.00  0.00     0.000 HD 
HETATM    3  C   UNL     1      -9.349  11.042  66.044  1.00  0.00    -0.201 C  
HETATM    4  H1  UNL     1      -7.531  11.799  66.583  1.00  0.00     0.000 HD 
ENDROOT
BRANCH   3   5
HETATM    5  C   UNL     1     -10.561  10.414  66.731  1.00  0.00    -0.270 C  
BRANCH   5   6
HETATM    6  C   UNL     1     -11.480  11.482  67.344  1.00  0.00    -0.349 C  
BRANCH   6   7
HETATM    7  CA  UNL     1     -11.319  11.652  68.861  1.00  0.00    -0.267 C  
HETATM    8  N   UNL     1     -10.107  12.450  69.203  1.00  0.00    -0.394 NA 
HETATM    9  C   UNL     1     -11.216  10.281  69.547  1.00  0.00    -0.261 C  
HETATM   10  OXT UNL     1     -12.153   9.529  69.758  1.00  0.00     0.223 OA 
HETATM   11  O   UNL     1      -9.927   9.984  69.860  1.00  0.00    -0.237 OA 
HETATM   12  H1  UNL     1     -10.000  12.563  70.211  1.00  0.00     0.000 HD 
HETATM   13  H2  UNL     1     -10.109  13.352  68.726  1.00  0.00     0.000 HD 
ENDBRANCH   6   7
ENDBRANCH   5   6
ENDBRANCH   3   5
TORSDOF 3
ENDMDL
MODEL      230
REMARK 921   NORMALIZED FREE ENERGY PREDICTED BY IDOCK:   -1.46 KCAL/MOL
REMARK 922        TOTAL FREE ENERGY PREDICTED BY IDOCK:   -2.18 KCAL/MOL
REMARK 923 INTER-LIGAND FREE ENERGY PREDICTED BY IDOCK:   -1.60 KCAL/MOL
REMARK 924 INTRA-LIGAND FREE ENERGY PREDICTED BY IDOCK:   -0.57 KCAL/MOL
REMARK 927      BINDING AFFINITY PREDICTED BY RF-SCORE:    0.00 PKD
ROOT
HETATM    1  N   UNL     1     -10.086   9.359  69.430  1.00  0.00    -0.189 NA 
HETATM    2  H2  UNL     1      -9.895   8.979  70.357  1.00  0.00     0.000 HD 
HETATM    3  C   UNL     1      -9.963   8.349  68.386  1.00  0.00    -0.187 C  
HETATM    4  H1  UNL     1      -9.487  10.155  69.210  1.00  0.00     0.000 HD 
ENDROOT
BRANCH   3   5
HETATM    5  C   UNL     1     -10.860   7.157  68.716  1.00  0.00    -0.157 C  
BRANCH   5   6
HETATM    6  C   UNL     1     -10.086   6.055  69.456  1.00  0.00    -0.246 C  
BRANCH   6   7
HETATM    7  CA  UNL     1     -10.208   6.121  70.985  1.00  0.00    -0.196 C  
HETATM    8  N   UNL     1     -11.393   6.919  71.411  1.00  0.00    -0.258 NA 
HETATM    9  C   UNL     1      -8.946   6.748  71.598  1.00  0.00    -0.136 C  
HETATM   10  OXT UNL     1      -7.875   6.180  71.736  1.00  0.00    -0.100 OA 
HETATM   11  O   UNL     1      -9.159   8.047  71.937  1.00  0.00    -0.132 OA 
HETATM   12  H1  UNL     1     -11.475   6.963  72.427  1.00  0.00     0.000 HD 
HETATM   13  H2  UNL     1     -12.251   6.567  70.984  1.00  0.00     0.000 HD 
ENDBRANCH   6   7
ENDBRANCH   5   6
ENDBRANCH   3   5
TORSDOF 3
ENDMDL
MODEL      231
REMARK 921   NORMALIZED FREE ENERGY PREDICTED BY IDOCK:   -1.45 KCAL/MOL
REMARK 922        TOTAL FREE ENERGY PREDICTED BY IDOCK:   -2.17 KCAL/MOL
REMARK 923 INTER-LIGAND FREE ENERGY PREDICTED BY IDOCK:   -1.97 KCAL/MOL
REMARK 924 INTRA-LIGAND FREE ENERGY PREDICTED BY IDOCK:   -0.20 KCAL/MOL
REMARK 927      BINDING AFFINITY PREDICTED BY RF-SCORE:    0.00 PKD
ROOT
HETATM    1  N   UNL     1     -10.919   5.242  72.142  1.00  0.00    -0.199 NA 
HETATM    2  H2  UNL     1      -9.900   5.251  72.161  1.00  0.00     0.000 HD 
HETATM    3  C   UNL     1     -11.485   6.569  72.361  1.00  0.00    -0.271 C  
HETATM    4  H1  UNL     1     -11.311   4.586  72.818  1.00  0.00     0.000 HD 
ENDROOT
BRANCH   3   5
HETATM    5  C   UNL     1     -10.898   7.551  71.349  1.00  0.00    -0.251 C  
BRANCH   5   6
HETATM    6  C   UNL     1      -9.791   6.900  70.506  1.00  0.00    -0.187 C  
BRANCH   6   7
HETATM    7  CA  UNL     1      -8.368   7.258  70.957  1.00  0.00    -0.119 C  
HETATM    8  N   UNL     1      -7.886   6.352  72.038  1.00  0.00    -0.099 NA 
HETATM    9  C   UNL     1      -8.314   8.706  71.466  1.00  0.00    -0.166 C  
HETATM   10  OXT UNL     1      -8.310   9.700  70.759  1.00  0.00    -0.264 OA 
HETATM   11  O   UNL     1      -8.311   8.749  72.825  1.00  0.00    -0.412 OA 
HETATM   12  H1  UNL     1      -6.940   6.590  72.338  1.00  0.00     0.000 HD 
HETATM   13  H2  UNL     1      -7.953   5.373  71.760  1.00  0.00     0.000 HD 
ENDBRANCH   6   7
ENDBRANCH   5   6
ENDBRANCH   3   5
TORSDOF 3
ENDMDL
MODEL      232
REMARK 921   NORMALIZED FREE ENERGY PREDICTED BY IDOCK:   -1.45 KCAL/MOL
REMARK 922        TOTAL FREE ENERGY PREDICTED BY IDOCK:   -2.16 KCAL/MOL
REMARK 923 INTER-LIGAND FREE ENERGY PREDICTED BY IDOCK:   -1.83 KCAL/MOL
REMARK 924 INTRA-LIGAND FREE ENERGY PREDICTED BY IDOCK:   -0.33 KCAL/MOL
REMARK 927      BINDING AFFINITY PREDICTED BY RF-SCORE:    0.00 PKD
ROOT
HETATM    1  N   UNL     1      -7.886   7.557  69.832  1.00  0.00    -0.105 NA 
HETATM    2  H2  UNL     1      -7.981   6.599  70.167  1.00  0.00     0.000 HD 
HETATM    3  C   UNL     1      -7.886   7.633  68.376  1.00  0.00    -0.121 C  
HETATM    4  H1  UNL     1      -7.050   8.012  70.200  1.00  0.00     0.000 HD 
ENDROOT
BRANCH   3   5
HETATM    5  C   UNL     1      -9.138   6.952  67.825  1.00  0.00    -0.118 C  
BRANCH   5   6
HETATM    6  C   UNL     1      -9.261   5.505  68.328  1.00  0.00    -0.118 C  
BRANCH   6   7
HETATM    7  CA  UNL     1     -10.506   5.245  69.188  1.00  0.00    -0.157 C  
HETATM    8  N   UNL     1     -11.440   6.406  69.174  1.00  0.00    -0.608 NA 
HETATM    9  C   UNL     1     -10.104   4.953  70.641  1.00  0.00    -0.236 C  
HETATM   10  OXT UNL     1      -9.640   3.898  71.043  1.00  0.00    -0.157 OA 
HETATM   11  O   UNL     1     -10.294   6.042  71.431  1.00  0.00    -0.206 OA 
HETATM   12  H1  UNL     1     -12.268   6.233  69.745  1.00  0.00     0.000 HD 
HETATM   13  H2  UNL     1     -11.694   6.668  68.221  1.00  0.00     0.000 HD 
ENDBRANCH   6   7
ENDBRANCH   5   6
ENDBRANCH   3   5
TORSDOF 3
ENDMDL
MODEL      233
REMARK 921   NORMALIZED FREE ENERGY PREDICTED BY IDOCK:   -1.45 KCAL/MOL
REMARK 922        TOTAL FREE ENERGY PREDICTED BY IDOCK:   -2.16 KCAL/MOL
REMARK 923 INTER-LIGAND FREE ENERGY PREDICTED BY IDOCK:   -2.10 KCAL/MOL
REMARK 924 INTRA-LIGAND FREE ENERGY PREDICTED BY IDOCK:   -0.06 KCAL/MOL
REMARK 927      BINDING AFFINITY PREDICTED BY RF-SCORE:    0.00 PKD
ROOT
HETATM    1  N   UNL     1      -9.979  10.963  69.981  1.00  0.00    -0.159 NA 
HETATM    2  H2  UNL     1      -9.009  11.251  70.109  1.00  0.00     0.000 HD 
HETATM    3  C   UNL     1     -10.822  12.060  69.522  1.00  0.00     0.094 C  
HETATM    4  H1  UNL     1     -10.375  10.557  70.829  1.00  0.00     0.000 HD 
ENDROOT
BRANCH   3   5
HETATM    5  C   UNL     1     -10.229  12.668  68.251  1.00  0.00    -0.240 C  
BRANCH   5   6
HETATM    6  C   UNL     1     -10.116  11.627  67.127  1.00  0.00    -0.227 C  
BRANCH   6   7
HETATM    7  CA  UNL     1      -9.708  12.213  65.768  1.00  0.00    -0.229 C  
HETATM    8  N   UNL     1      -9.800  13.701  65.758  1.00  0.00    -0.442 NA 
HETATM    9  C   UNL     1     -10.604  11.657  64.651  1.00  0.00    -0.312 C  
HETATM   10  OXT UNL     1     -10.510  10.541  64.166  1.00  0.00    -0.256 OA 
HETATM   11  O   UNL     1     -11.555  12.559  64.290  1.00  0.00    -0.327 OA 
HETATM   12  H1  UNL     1      -9.528  14.091  64.856  1.00  0.00     0.000 HD 
HETATM   13  H2  UNL     1      -9.258  14.112  66.519  1.00  0.00     0.000 HD 
ENDBRANCH   6   7
ENDBRANCH   5   6
ENDBRANCH   3   5
TORSDOF 3
ENDMDL
MODEL      234
REMARK 921   NORMALIZED FREE ENERGY PREDICTED BY IDOCK:   -1.44 KCAL/MOL
REMARK 922        TOTAL FREE ENERGY PREDICTED BY IDOCK:   -2.15 KCAL/MOL
REMARK 923 INTER-LIGAND FREE ENERGY PREDICTED BY IDOCK:   -2.46 KCAL/MOL
REMARK 924 INTRA-LIGAND FREE ENERGY PREDICTED BY IDOCK:    0.31 KCAL/MOL
REMARK 927      BINDING AFFINITY PREDICTED BY RF-SCORE:    0.00 PKD
ROOT
HETATM    1  N   UNL     1      -7.283  14.943  68.336  1.00  0.00    -0.110 NA 
HETATM    2  H2  UNL     1      -7.389  15.784  67.768  1.00  0.00     0.000 HD 
HETATM    3  C   UNL     1      -8.225  14.909  69.449  1.00  0.00    -0.084 C  
HETATM    4  H1  UNL     1      -6.332  14.834  68.688  1.00  0.00     0.000 HD 
ENDROOT
BRANCH   3   5
HETATM    5  C   UNL     1      -9.649  15.073  68.922  1.00  0.00    -0.221 C  
BRANCH   5   6
HETATM    6  C   UNL     1     -10.534  15.845  69.914  1.00  0.00    -0.311 C  
BRANCH   6   7
HETATM    7  CA  UNL     1     -12.018  15.458  69.862  1.00  0.00    -0.359 C  
HETATM    8  N   UNL     1     -12.664  15.564  71.202  1.00  0.00    -0.435 NA 
HETATM    9  C   UNL     1     -12.181  14.019  69.350  1.00  0.00    -0.292 C  
HETATM   10  OXT UNL     1     -12.079  13.673  68.184  1.00  0.00    -0.359 OA 
HETATM   11  O   UNL     1     -12.417  13.157  70.374  1.00  0.00    -0.289 OA 
HETATM   12  H1  UNL     1     -13.651  15.307  71.168  1.00  0.00     0.000 HD 
HETATM   13  H2  UNL     1     -12.535  16.493  71.604  1.00  0.00     0.000 HD 
ENDBRANCH   6   7
ENDBRANCH   5   6
ENDBRANCH   3   5
TORSDOF 3
ENDMDL
MODEL      235
REMARK 921   NORMALIZED FREE ENERGY PREDICTED BY IDOCK:   -1.44 KCAL/MOL
REMARK 922        TOTAL FREE ENERGY PREDICTED BY IDOCK:   -2.15 KCAL/MOL
REMARK 923 INTER-LIGAND FREE ENERGY PREDICTED BY IDOCK:   -2.40 KCAL/MOL
REMARK 924 INTRA-LIGAND FREE ENERGY PREDICTED BY IDOCK:    0.26 KCAL/MOL
REMARK 927      BINDING AFFINITY PREDICTED BY RF-SCORE:    0.00 PKD
ROOT
HETATM    1  N   UNL     1      -8.354   3.500  69.959  1.00  0.00    -0.051 NA 
HETATM    2  H2  UNL     1      -9.016   2.775  70.233  1.00  0.00     0.000 HD 
HETATM    3  C   UNL     1      -8.958   4.490  69.074  1.00  0.00    -0.109 C  
HETATM    4  H1  UNL     1      -7.519   3.112  69.520  1.00  0.00     0.000 HD 
ENDROOT
BRANCH   3   5
HETATM    5  C   UNL     1     -10.208   5.072  69.732  1.00  0.00    -0.336 C  
BRANCH   5   6
HETATM    6  C   UNL     1     -10.154   4.943  71.262  1.00  0.00    -0.269 C  
BRANCH   6   7
HETATM    7  CA  UNL     1     -10.783   6.125  72.013  1.00  0.00    -0.233 C  
HETATM    8  N   UNL     1     -11.800   5.671  73.004  1.00  0.00    -0.532 NA 
HETATM    9  C   UNL     1     -11.455   7.092  71.026  1.00  0.00    -0.303 C  
HETATM   10  OXT UNL     1     -10.868   7.891  70.316  1.00  0.00    -0.238 OA 
HETATM   11  O   UNL     1     -12.804   6.918  71.010  1.00  0.00    -0.333 OA 
HETATM   12  H1  UNL     1     -12.218   6.456  73.504  1.00  0.00     0.000 HD 
HETATM   13  H2  UNL     1     -11.408   4.986  73.651  1.00  0.00     0.000 HD 
ENDBRANCH   6   7
ENDBRANCH   5   6
ENDBRANCH   3   5
TORSDOF 3
ENDMDL
MODEL      236
REMARK 921   NORMALIZED FREE ENERGY PREDICTED BY IDOCK:   -1.41 KCAL/MOL
REMARK 922        TOTAL FREE ENERGY PREDICTED BY IDOCK:   -2.12 KCAL/MOL
REMARK 923 INTER-LIGAND FREE ENERGY PREDICTED BY IDOCK:   -1.97 KCAL/MOL
REMARK 924 INTRA-LIGAND FREE ENERGY PREDICTED BY IDOCK:   -0.15 KCAL/MOL
REMARK 927      BINDING AFFINITY PREDICTED BY RF-SCORE:    0.00 PKD
ROOT
HETATM    1  N   UNL     1      -7.260   8.793  65.174  1.00  0.00    -0.086 NA 
HETATM    2  H2  UNL     1      -7.003   9.318  64.338  1.00  0.00     0.000 HD 
HETATM    3  C   UNL     1      -6.871   9.484  66.398  1.00  0.00    -0.083 C  
HETATM    4  H1  UNL     1      -6.868   7.851  65.172  1.00  0.00     0.000 HD 
ENDROOT
BRANCH   3   5
HETATM    5  C   UNL     1      -7.458  10.895  66.401  1.00  0.00    -0.145 C  
BRANCH   5   6
HETATM    6  C   UNL     1      -8.978  10.874  66.174  1.00  0.00    -0.196 C  
BRANCH   6   7
HETATM    7  CA  UNL     1      -9.782  10.333  67.364  1.00  0.00    -0.160 C  
HETATM    8  N   UNL     1     -10.673   9.208  66.963  1.00  0.00    -0.253 NA 
HETATM    9  C   UNL     1     -10.642  11.447  67.981  1.00  0.00    -0.191 C  
HETATM   10  OXT UNL     1     -10.225  12.337  68.703  1.00  0.00    -0.219 OA 
HETATM   11  O   UNL     1     -11.939  11.340  67.588  1.00  0.00    -0.634 OA 
HETATM   12  H1  UNL     1     -11.208   8.848  67.754  1.00  0.00     0.000 HD 
HETATM   13  H2  UNL     1     -10.148   8.465  66.501  1.00  0.00     0.000 HD 
ENDBRANCH   6   7
ENDBRANCH   5   6
ENDBRANCH   3   5
TORSDOF 3
ENDMDL
MODEL      237
REMARK 921   NORMALIZED FREE ENERGY PREDICTED BY IDOCK:   -1.39 KCAL/MOL
REMARK 922        TOTAL FREE ENERGY PREDICTED BY IDOCK:   -2.09 KCAL/MOL
REMARK 923 INTER-LIGAND FREE ENERGY PREDICTED BY IDOCK:   -1.89 KCAL/MOL
REMARK 924 INTRA-LIGAND FREE ENERGY PREDICTED BY IDOCK:   -0.21 KCAL/MOL
REMARK 927      BINDING AFFINITY PREDICTED BY RF-SCORE:    0.00 PKD
ROOT
HETATM    1  N   UNL     1     -11.046   9.297  71.494  1.00  0.00    -0.354 NA 
HETATM    2  H2  UNL     1     -11.867   8.748  71.239  1.00  0.00     0.000 HD 
HETATM    3  C   UNL     1     -10.069   8.511  72.239  1.00  0.00    -0.316 C  
HETATM    4  H1  UNL     1     -11.292  10.132  72.027  1.00  0.00     0.000 HD 
ENDROOT
BRANCH   3   5
HETATM    5  C   UNL     1      -9.700   7.261  71.441  1.00  0.00    -0.170 C  
BRANCH   5   6
HETATM    6  C   UNL     1     -10.446   7.207  70.098  1.00  0.00    -0.231 C  
BRANCH   6   7
HETATM    7  CA  UNL     1      -9.531   7.302  68.869  1.00  0.00    -0.143 C  
HETATM    8  N   UNL     1      -8.092   7.182  69.240  1.00  0.00    -0.119 NA 
HETATM    9  C   UNL     1      -9.743   8.640  68.144  1.00  0.00    -0.158 C  
HETATM   10  OXT UNL     1     -10.691   8.906  67.425  1.00  0.00    -0.272 OA 
HETATM   11  O   UNL     1      -8.749   9.520  68.438  1.00  0.00    -0.123 OA 
HETATM   12  H1  UNL     1      -7.484   7.245  68.423  1.00  0.00     0.000 HD 
HETATM   13  H2  UNL     1      -7.915   6.328  69.770  1.00  0.00     0.000 HD 
ENDBRANCH   6   7
ENDBRANCH   5   6
ENDBRANCH   3   5
TORSDOF 3
ENDMDL
MODEL      238
REMARK 921   NORMALIZED FREE ENERGY PREDICTED BY IDOCK:   -1.39 KCAL/MOL
REMARK 922        TOTAL FREE ENERGY PREDICTED BY IDOCK:   -2.09 KCAL/MOL
REMARK 923 INTER-LIGAND FREE ENERGY PREDICTED BY IDOCK:   -1.94 KCAL/MOL
REMARK 924 INTRA-LIGAND FREE ENERGY PREDICTED BY IDOCK:   -0.15 KCAL/MOL
REMARK 927      BINDING AFFINITY PREDICTED BY RF-SCORE:    0.00 PKD
ROOT
HETATM    1  N   UNL     1      -7.816   7.241  72.502  1.00  0.00    -0.094 NA 
HETATM    2  H2  UNL     1      -7.743   6.852  73.441  1.00  0.00     0.000 HD 
HETATM    3  C   UNL     1      -7.982   6.205  71.489  1.00  0.00    -0.110 C  
HETATM    4  H1  UNL     1      -7.015   7.828  72.265  1.00  0.00     0.000 HD 
ENDROOT
BRANCH   3   5
HETATM    5  C   UNL     1      -9.181   5.327  71.843  1.00  0.00    -0.156 C  
BRANCH   5   6
HETATM    6  C   UNL     1     -10.199   5.270  70.693  1.00  0.00    -0.327 C  
BRANCH   6   7
HETATM    7  CA  UNL     1     -10.736   6.642  70.262  1.00  0.00    -0.246 C  
HETATM    8  N   UNL     1     -12.209   6.746  70.460  1.00  0.00    -0.566 NA 
HETATM    9  C   UNL     1     -10.418   6.903  68.782  1.00  0.00    -0.205 C  
HETATM   10  OXT UNL     1      -9.325   7.224  68.345  1.00  0.00    -0.143 OA 
HETATM   11  O   UNL     1     -11.510   6.690  68.001  1.00  0.00    -0.098 OA 
HETATM   12  H1  UNL     1     -12.567   7.658  70.174  1.00  0.00     0.000 HD 
HETATM   13  H2  UNL     1     -12.472   6.529  71.422  1.00  0.00     0.000 HD 
ENDBRANCH   6   7
ENDBRANCH   5   6
ENDBRANCH   3   5
TORSDOF 3
ENDMDL
MODEL      239
REMARK 921   NORMALIZED FREE ENERGY PREDICTED BY IDOCK:   -1.34 KCAL/MOL
REMARK 922        TOTAL FREE ENERGY PREDICTED BY IDOCK:   -2.04 KCAL/MOL
REMARK 923 INTER-LIGAND FREE ENERGY PREDICTED BY IDOCK:   -2.00 KCAL/MOL
REMARK 924 INTRA-LIGAND FREE ENERGY PREDICTED BY IDOCK:   -0.04 KCAL/MOL
REMARK 927      BINDING AFFINITY PREDICTED BY RF-SCORE:    0.00 PKD
ROOT
HETATM    1  N   UNL     1      -9.526  12.491  67.239  1.00  0.00    -0.188 NA 
HETATM    2  H2  UNL     1      -9.912  12.138  66.364  1.00  0.00     0.000 HD 
HETATM    3  C   UNL     1      -9.623  11.514  68.318  1.00  0.00    -0.189 C  
HETATM    4  H1  UNL     1      -9.966  13.366  67.528  1.00  0.00     0.000 HD 
ENDROOT
BRANCH   3   5
HETATM    5  C   UNL     1      -8.964  10.205  67.885  1.00  0.00    -0.128 C  
BRANCH   5   6
HETATM    6  C   UNL     1     -10.007   9.169  67.437  1.00  0.00    -0.262 C  
BRANCH   6   7
HETATM    7  CA  UNL     1      -9.462   7.738  67.327  1.00  0.00    -0.148 C  
HETATM    8  N   UNL     1      -8.964   7.441  65.954  1.00  0.00    -0.323 NA 
HETATM    9  C   UNL     1     -10.554   6.719  67.687  1.00  0.00    -0.259 C  
HETATM   10  OXT UNL     1     -10.927   6.460  68.819  1.00  0.00    -0.291 OA 
HETATM   11  O   UNL     1     -11.090   6.159  66.570  1.00  0.00    -0.209 OA 
HETATM   12  H1  UNL     1      -8.601   6.490  65.880  1.00  0.00     0.000 HD 
HETATM   13  H2  UNL     1      -8.271   8.127  65.653  1.00  0.00     0.000 HD 
ENDBRANCH   6   7
ENDBRANCH   5   6
ENDBRANCH   3   5
TORSDOF 3
ENDMDL
MODEL      240
REMARK 921   NORMALIZED FREE ENERGY PREDICTED BY IDOCK:   -1.34 KCAL/MOL
REMARK 922        TOTAL FREE ENERGY PREDICTED BY IDOCK:   -2.03 KCAL/MOL
REMARK 923 INTER-LIGAND FREE ENERGY PREDICTED BY IDOCK:   -1.87 KCAL/MOL
REMARK 924 INTRA-LIGAND FREE ENERGY PREDICTED BY IDOCK:   -0.16 KCAL/MOL
REMARK 927      BINDING AFFINITY PREDICTED BY RF-SCORE:    0.00 PKD
ROOT
HETATM    1  N   UNL     1      -8.644   7.022  64.648  1.00  0.00    -0.339 NA 
HETATM    2  H2  UNL     1      -9.110   7.928  64.701  1.00  0.00     0.000 HD 
HETATM    3  C   UNL     1      -8.490   6.404  65.960  1.00  0.00    -0.144 C  
HETATM    4  H1  UNL     1      -7.735   7.084  64.189  1.00  0.00     0.000 HD 
ENDROOT
BRANCH   3   5
HETATM    5  C   UNL     1      -9.852   6.312  66.647  1.00  0.00    -0.201 C  
BRANCH   5   6
HETATM    6  C   UNL     1     -10.429   7.704  66.947  1.00  0.00    -0.388 C  
BRANCH   6   7
HETATM    7  CA  UNL     1      -9.666   8.479  68.031  1.00  0.00    -0.154 C  
HETATM    8  N   UNL     1     -10.427   8.533  69.311  1.00  0.00    -0.222 NA 
HETATM    9  C   UNL     1      -9.381   9.915  67.565  1.00  0.00    -0.140 C  
HETATM   10  OXT UNL     1      -8.517  10.236  66.766  1.00  0.00    -0.122 OA 
HETATM   11  O   UNL     1     -10.249  10.795  68.131  1.00  0.00    -0.163 OA 
HETATM   12  H1  UNL     1      -9.920   9.047  70.032  1.00  0.00     0.000 HD 
HETATM   13  H2  UNL     1     -10.682   7.598  69.632  1.00  0.00     0.000 HD 
ENDBRANCH   6   7
ENDBRANCH   5   6
ENDBRANCH   3   5
TORSDOF 3
ENDMDL
MODEL      241
REMARK 921   NORMALIZED FREE ENERGY PREDICTED BY IDOCK:   -1.33 KCAL/MOL
REMARK 922        TOTAL FREE ENERGY PREDICTED BY IDOCK:   -2.03 KCAL/MOL
REMARK 923 INTER-LIGAND FREE ENERGY PREDICTED BY IDOCK:   -1.90 KCAL/MOL
REMARK 924 INTRA-LIGAND FREE ENERGY PREDICTED BY IDOCK:   -0.13 KCAL/MOL
REMARK 927      BINDING AFFINITY PREDICTED BY RF-SCORE:    0.00 PKD
ROOT
HETATM    1  N   UNL     1      -7.818   6.186  70.960  1.00  0.00    -0.112 NA 
HETATM    2  H2  UNL     1      -7.959   5.183  70.845  1.00  0.00     0.000 HD 
HETATM    3  C   UNL     1      -8.395   6.952  69.861  1.00  0.00    -0.139 C  
HETATM    4  H1  UNL     1      -6.832   6.426  71.065  1.00  0.00     0.000 HD 
ENDROOT
BRANCH   3   5
HETATM    5  C   UNL     1      -9.872   6.592  69.704  1.00  0.00    -0.168 C  
BRANCH   5   6
HETATM    6  C   UNL     1     -10.073   5.462  68.682  1.00  0.00    -0.246 C  
BRANCH   6   7
HETATM    7  CA  UNL     1      -9.845   5.887  67.225  1.00  0.00    -0.138 C  
HETATM    8  N   UNL     1     -11.086   5.756  66.410  1.00  0.00    -0.767 NA 
HETATM    9  C   UNL     1      -8.741   5.034  66.582  1.00  0.00    -0.108 C  
HETATM   10  OXT UNL     1      -7.545   5.169  66.779  1.00  0.00    -0.086 OA 
HETATM   11  O   UNL     1      -9.269   4.068  65.784  1.00  0.00    -0.134 OA 
HETATM   12  H1  UNL     1     -10.936   6.039  65.441  1.00  0.00     0.000 HD 
HETATM   13  H2  UNL     1     -11.863   6.268  66.830  1.00  0.00     0.000 HD 
ENDBRANCH   6   7
ENDBRANCH   5   6
ENDBRANCH   3   5
TORSDOF 3
ENDMDL
MODEL      242
REMARK 921   NORMALIZED FREE ENERGY PREDICTED BY IDOCK:   -1.33 KCAL/MOL
REMARK 922        TOTAL FREE ENERGY PREDICTED BY IDOCK:   -2.02 KCAL/MOL
REMARK 923 INTER-LIGAND FREE ENERGY PREDICTED BY IDOCK:   -1.88 KCAL/MOL
REMARK 924 INTRA-LIGAND FREE ENERGY PREDICTED BY IDOCK:   -0.14 KCAL/MOL
REMARK 927      BINDING AFFINITY PREDICTED BY RF-SCORE:    0.00 PKD
ROOT
HETATM    1  N   UNL     1     -10.311   6.354  71.891  1.00  0.00    -0.200 NA 
HETATM    2  H2  UNL     1      -9.513   6.970  71.741  1.00  0.00     0.000 HD 
HETATM    3  C   UNL     1     -11.382   6.597  70.932  1.00  0.00    -0.325 C  
HETATM    4  H1  UNL     1     -10.679   6.425  72.841  1.00  0.00     0.000 HD 
ENDROOT
BRANCH   3   5
HETATM    5  C   UNL     1     -10.832   6.490  69.510  1.00  0.00    -0.360 C  
BRANCH   5   6
HETATM    6  C   UNL     1      -9.402   7.044  69.414  1.00  0.00    -0.146 C  
BRANCH   6   7
HETATM    7  CA  UNL     1      -9.304   8.409  68.720  1.00  0.00    -0.143 C  
HETATM    8  N   UNL     1      -7.970   8.614  68.088  1.00  0.00    -0.106 NA 
HETATM    9  C   UNL     1      -9.552   9.543  69.727  1.00  0.00    -0.216 C  
HETATM   10  OXT UNL     1     -10.644   9.872  70.159  1.00  0.00    -0.257 OA 
HETATM   11  O   UNL     1      -8.383  10.119  70.114  1.00  0.00    -0.125 OA 
HETATM   12  H1  UNL     1      -7.905   9.521  67.626  1.00  0.00     0.000 HD 
HETATM   13  H2  UNL     1      -7.741   7.853  67.447  1.00  0.00     0.000 HD 
ENDBRANCH   6   7
ENDBRANCH   5   6
ENDBRANCH   3   5
TORSDOF 3
ENDMDL
MODEL      243
REMARK 921   NORMALIZED FREE ENERGY PREDICTED BY IDOCK:   -1.32 KCAL/MOL
REMARK 922        TOTAL FREE ENERGY PREDICTED BY IDOCK:   -2.01 KCAL/MOL
REMARK 923 INTER-LIGAND FREE ENERGY PREDICTED BY IDOCK:   -1.58 KCAL/MOL
REMARK 924 INTRA-LIGAND FREE ENERGY PREDICTED BY IDOCK:   -0.44 KCAL/MOL
REMARK 927      BINDING AFFINITY PREDICTED BY RF-SCORE:    0.00 PKD
ROOT
HETATM    1  N   UNL     1      -9.021   4.139  69.850  1.00  0.00    -0.090 NA 
HETATM    2  H2  UNL     1      -9.484   4.585  69.059  1.00  0.00     0.000 HD 
HETATM    3  C   UNL     1      -7.600   4.463  69.910  1.00  0.00    -0.050 C  
HETATM    4  H1  UNL     1      -9.141   3.126  69.845  1.00  0.00     0.000 HD 
ENDROOT
BRANCH   3   5
HETATM    5  C   UNL     1      -7.420   5.981  69.917  1.00  0.00    -0.080 C  
BRANCH   5   6
HETATM    6  C   UNL     1      -8.157   6.643  68.743  1.00  0.00    -0.119 C  
BRANCH   6   7
HETATM    7  CA  UNL     1      -9.396   7.450  69.156  1.00  0.00    -0.146 C  
HETATM    8  N   UNL     1      -9.696   7.299  70.608  1.00  0.00    -0.176 NA 
HETATM    9  C   UNL     1     -10.624   7.000  68.349  1.00  0.00    -0.202 C  
HETATM   10  OXT UNL     1     -10.850   7.299  67.189  1.00  0.00    -0.337 OA 
HETATM   11  O   UNL     1     -11.421   6.182  69.086  1.00  0.00    -0.379 OA 
HETATM   12  H1  UNL     1     -10.519   7.835  70.883  1.00  0.00     0.000 HD 
HETATM   13  H2  UNL     1      -8.887   7.539  71.182  1.00  0.00     0.000 HD 
ENDBRANCH   6   7
ENDBRANCH   5   6
ENDBRANCH   3   5
TORSDOF 3
ENDMDL
MODEL      244
REMARK 921   NORMALIZED FREE ENERGY PREDICTED BY IDOCK:   -1.32 KCAL/MOL
REMARK 922        TOTAL FREE ENERGY PREDICTED BY IDOCK:   -2.01 KCAL/MOL
REMARK 923 INTER-LIGAND FREE ENERGY PREDICTED BY IDOCK:   -1.88 KCAL/MOL
REMARK 924 INTRA-LIGAND FREE ENERGY PREDICTED BY IDOCK:   -0.13 KCAL/MOL
REMARK 927      BINDING AFFINITY PREDICTED BY RF-SCORE:    0.00 PKD
ROOT
HETATM    1  N   UNL     1     -12.005   6.312  72.528  1.00  0.00    -0.521 NA 
HETATM    2  H2  UNL     1     -11.758   5.567  73.180  1.00  0.00     0.000 HD 
HETATM    3  C   UNL     1     -11.140   7.477  72.673  1.00  0.00    -0.347 C  
HETATM    4  H1  UNL     1     -12.981   6.595  72.620  1.00  0.00     0.000 HD 
ENDROOT
BRANCH   3   5
HETATM    5  C   UNL     1      -9.679   7.052  72.535  1.00  0.00    -0.170 C  
BRANCH   5   6
HETATM    6  C   UNL     1      -9.246   6.132  73.688  1.00  0.00    -0.131 C  
BRANCH   6   7
HETATM    7  CA  UNL     1      -8.798   4.735  73.240  1.00  0.00    -0.107 C  
HETATM    8  N   UNL     1      -7.678   4.801  72.258  1.00  0.00    -0.088 NA 
HETATM    9  C   UNL     1      -9.969   3.973  72.601  1.00  0.00    -0.155 C  
HETATM   10  OXT UNL     1     -10.886   3.452  73.214  1.00  0.00    -0.184 OA 
HETATM   11  O   UNL     1      -9.880   3.985  71.244  1.00  0.00    -0.180 OA 
HETATM   12  H1  UNL     1      -7.380   3.872  71.960  1.00  0.00     0.000 HD 
HETATM   13  H2  UNL     1      -6.895   5.344  72.623  1.00  0.00     0.000 HD 
ENDBRANCH   6   7
ENDBRANCH   5   6
ENDBRANCH   3   5
TORSDOF 3
ENDMDL
MODEL      245
REMARK 921   NORMALIZED FREE ENERGY PREDICTED BY IDOCK:   -1.32 KCAL/MOL
REMARK 922        TOTAL FREE ENERGY PREDICTED BY IDOCK:   -2.01 KCAL/MOL
REMARK 923 INTER-LIGAND FREE ENERGY PREDICTED BY IDOCK:   -1.71 KCAL/MOL
REMARK 924 INTRA-LIGAND FREE ENERGY PREDICTED BY IDOCK:   -0.30 KCAL/MOL
REMARK 927      BINDING AFFINITY PREDICTED BY RF-SCORE:    0.00 PKD
ROOT
HETATM    1  N   UNL     1     -11.484  11.851  65.322  1.00  0.00    -0.294 NA 
HETATM    2  H2  UNL     1     -11.306  10.897  65.009  1.00  0.00     0.000 HD 
HETATM    3  C   UNL     1     -10.759  12.173  66.546  1.00  0.00    -0.255 C  
HETATM    4  H1  UNL     1     -12.479  12.034  65.454  1.00  0.00     0.000 HD 
ENDROOT
BRANCH   3   5
HETATM    5  C   UNL     1      -9.268  11.901  66.347  1.00  0.00    -0.218 C  
BRANCH   5   6
HETATM    6  C   UNL     1      -9.009  10.438  65.956  1.00  0.00    -0.178 C  
BRANCH   6   7
HETATM    7  CA  UNL     1      -8.396  10.262  64.560  1.00  0.00    -0.168 C  
HETATM    8  N   UNL     1      -9.441  10.227  63.497  1.00  0.00    -0.293 NA 
HETATM    9  C   UNL     1      -7.580   8.962  64.491  1.00  0.00    -0.109 C  
HETATM   10  OXT UNL     1      -6.469   8.804  64.968  1.00  0.00    -0.064 OA 
HETATM   11  O   UNL     1      -8.274   7.980  63.857  1.00  0.00    -0.133 OA 
HETATM   12  H1  UNL     1      -9.034  10.110  62.569  1.00  0.00     0.000 HD 
HETATM   13  H2  UNL     1     -10.041  11.051  63.539  1.00  0.00     0.000 HD 
ENDBRANCH   6   7
ENDBRANCH   5   6
ENDBRANCH   3   5
TORSDOF 3
ENDMDL
MODEL      246
REMARK 921   NORMALIZED FREE ENERGY PREDICTED BY IDOCK:   -1.32 KCAL/MOL
REMARK 922        TOTAL FREE ENERGY PREDICTED BY IDOCK:   -2.01 KCAL/MOL
REMARK 923 INTER-LIGAND FREE ENERGY PREDICTED BY IDOCK:   -1.92 KCAL/MOL
REMARK 924 INTRA-LIGAND FREE ENERGY PREDICTED BY IDOCK:   -0.09 KCAL/MOL
REMARK 927      BINDING AFFINITY PREDICTED BY RF-SCORE:    0.00 PKD
ROOT
HETATM    1  N   UNL     1      -7.567   9.383  71.448  1.00  0.00    -0.316 NA 
HETATM    2  H2  UNL     1      -8.554   9.616  71.558  1.00  0.00     0.000 HD 
HETATM    3  C   UNL     1      -7.340   7.943  71.441  1.00  0.00    -0.066 C  
HETATM    4  H1  UNL     1      -6.987   9.818  72.165  1.00  0.00     0.000 HD 
ENDROOT
BRANCH   3   5
HETATM    5  C   UNL     1      -8.209   7.291  70.366  1.00  0.00    -0.125 C  
BRANCH   5   6
HETATM    6  C   UNL     1      -9.413   6.560  70.980  1.00  0.00    -0.171 C  
BRANCH   6   7
HETATM    7  CA  UNL     1     -10.775   7.105  70.525  1.00  0.00    -0.238 C  
HETATM    8  N   UNL     1     -11.495   6.134  69.652  1.00  0.00    -0.411 NA 
HETATM    9  C   UNL     1     -10.596   8.422  69.755  1.00  0.00    -0.221 C  
HETATM   10  OXT UNL     1     -10.363   9.507  70.263  1.00  0.00    -0.230 OA 
HETATM   11  O   UNL     1     -10.692   8.223  68.413  1.00  0.00    -0.143 OA 
HETATM   12  H1  UNL     1     -12.400   6.496  69.350  1.00  0.00     0.000 HD 
HETATM   13  H2  UNL     1     -11.590   5.226  70.107  1.00  0.00     0.000 HD 
ENDBRANCH   6   7
ENDBRANCH   5   6
ENDBRANCH   3   5
TORSDOF 3
ENDMDL
MODEL      247
REMARK 921   NORMALIZED FREE ENERGY PREDICTED BY IDOCK:   -1.32 KCAL/MOL
REMARK 922        TOTAL FREE ENERGY PREDICTED BY IDOCK:   -2.01 KCAL/MOL
REMARK 923 INTER-LIGAND FREE ENERGY PREDICTED BY IDOCK:   -1.98 KCAL/MOL
REMARK 924 INTRA-LIGAND FREE ENERGY PREDICTED BY IDOCK:   -0.02 KCAL/MOL
REMARK 927      BINDING AFFINITY PREDICTED BY RF-SCORE:    0.00 PKD
ROOT
HETATM    1  N   UNL     1     -13.327   7.618  72.175  1.00  0.00    -0.513 NA 
HETATM    2  H2  UNL     1     -13.101   8.149  73.015  1.00  0.00     0.000 HD 
HETATM    3  C   UNL     1     -12.251   7.659  71.192  1.00  0.00    -0.285 C  
HETATM    4  H1  UNL     1     -14.197   7.931  71.744  1.00  0.00     0.000 HD 
ENDROOT
BRANCH   3   5
HETATM    5  C   UNL     1     -10.948   7.189  71.837  1.00  0.00    -0.262 C  
BRANCH   5   6
HETATM    6  C   UNL     1     -11.169   5.950  72.719  1.00  0.00    -0.317 C  
BRANCH   6   7
HETATM    7  CA  UNL     1     -10.248   4.769  72.382  1.00  0.00    -0.194 C  
HETATM    8  N   UNL     1     -10.792   3.480  72.895  1.00  0.00    -0.098 NA 
HETATM    9  C   UNL     1      -8.851   4.988  72.982  1.00  0.00    -0.116 C  
HETATM   10  OXT UNL     1      -8.003   5.741  72.532  1.00  0.00    -0.102 OA 
HETATM   11  O   UNL     1      -8.685   4.259  74.117  1.00  0.00    -0.096 OA 
HETATM   12  H1  UNL     1     -10.181   2.694  72.671  1.00  0.00     0.000 HD 
HETATM   13  H2  UNL     1     -11.743   3.318  72.561  1.00  0.00     0.000 HD 
ENDBRANCH   6   7
ENDBRANCH   5   6
ENDBRANCH   3   5
TORSDOF 3
ENDMDL
MODEL      248
REMARK 921   NORMALIZED FREE ENERGY PREDICTED BY IDOCK:   -1.31 KCAL/MOL
REMARK 922        TOTAL FREE ENERGY PREDICTED BY IDOCK:   -2.00 KCAL/MOL
REMARK 923 INTER-LIGAND FREE ENERGY PREDICTED BY IDOCK:   -1.92 KCAL/MOL
REMARK 924 INTRA-LIGAND FREE ENERGY PREDICTED BY IDOCK:   -0.08 KCAL/MOL
REMARK 927      BINDING AFFINITY PREDICTED BY RF-SCORE:    0.00 PKD
ROOT
HETATM    1  N   UNL     1      -8.791   4.324  69.514  1.00  0.00    -0.086 NA 
HETATM    2  H2  UNL     1      -7.838   4.001  69.351  1.00  0.00     0.000 HD 
HETATM    3  C   UNL     1      -9.570   4.384  68.282  1.00  0.00    -0.138 C  
HETATM    4  H1  UNL     1      -8.816   5.231  69.980  1.00  0.00     0.000 HD 
ENDROOT
BRANCH   3   5
HETATM    5  C   UNL     1      -9.533   3.025  67.584  1.00  0.00    -0.187 C  
BRANCH   5   6
HETATM    6  C   UNL     1      -9.084   3.154  66.120  1.00  0.00    -0.153 C  
BRANCH   6   7
HETATM    7  CA  UNL     1      -9.748   4.310  65.360  1.00  0.00    -0.200 C  
HETATM    8  N   UNL     1     -11.185   4.031  65.076  1.00  0.00    -0.781 NA 
HETATM    9  C   UNL     1      -9.023   4.564  64.030  1.00  0.00    -0.138 C  
HETATM   10  OXT UNL     1      -7.953   5.138  63.911  1.00  0.00    -0.088 OA 
HETATM   11  O   UNL     1      -9.711   4.029  62.986  1.00  0.00    -0.146 OA 
HETATM   12  H1  UNL     1     -11.627   4.800  64.571  1.00  0.00     0.000 HD 
HETATM   13  H2  UNL     1     -11.696   3.806  65.930  1.00  0.00     0.000 HD 
ENDBRANCH   6   7
ENDBRANCH   5   6
ENDBRANCH   3   5
TORSDOF 3
ENDMDL
MODEL      249
REMARK 921   NORMALIZED FREE ENERGY PREDICTED BY IDOCK:   -1.29 KCAL/MOL
REMARK 922        TOTAL FREE ENERGY PREDICTED BY IDOCK:   -1.98 KCAL/MOL
REMARK 923 INTER-LIGAND FREE ENERGY PREDICTED BY IDOCK:   -1.90 KCAL/MOL
REMARK 924 INTRA-LIGAND FREE ENERGY PREDICTED BY IDOCK:   -0.07 KCAL/MOL
REMARK 927      BINDING AFFINITY PREDICTED BY RF-SCORE:    0.00 PKD
ROOT
HETATM    1  N   UNL     1      -7.038   4.843  70.054  1.00  0.00    -0.052 NA 
HETATM    2  H2  UNL     1      -7.395   3.895  70.170  1.00  0.00     0.000 HD 
HETATM    3  C   UNL     1      -8.095   5.844  70.146  1.00  0.00    -0.110 C  
HETATM    4  H1  UNL     1      -6.531   4.959  69.177  1.00  0.00     0.000 HD 
ENDROOT
BRANCH   3   5
HETATM    5  C   UNL     1      -8.855   5.670  71.460  1.00  0.00    -0.141 C  
BRANCH   5   6
HETATM    6  C   UNL     1     -10.269   5.115  71.227  1.00  0.00    -0.292 C  
BRANCH   6   7
HETATM    7  CA  UNL     1     -11.227   5.326  72.407  1.00  0.00    -0.165 C  
HETATM    8  N   UNL     1     -11.100   6.694  72.985  1.00  0.00    -0.412 NA 
HETATM    9  C   UNL     1     -10.952   4.296  73.513  1.00  0.00    -0.287 C  
HETATM   10  OXT UNL     1     -11.292   3.124  73.482  1.00  0.00    -0.224 OA 
HETATM   11  O   UNL     1     -10.238   4.847  74.530  1.00  0.00    -0.223 OA 
HETATM   12  H1  UNL     1     -11.737   6.834  73.770  1.00  0.00     0.000 HD 
HETATM   13  H2  UNL     1     -11.225   7.412  72.272  1.00  0.00     0.000 HD 
ENDBRANCH   6   7
ENDBRANCH   5   6
ENDBRANCH   3   5
TORSDOF 3
ENDMDL
MODEL      250
REMARK 921   NORMALIZED FREE ENERGY PREDICTED BY IDOCK:   -1.26 KCAL/MOL
REMARK 922        TOTAL FREE ENERGY PREDICTED BY IDOCK:   -1.94 KCAL/MOL
REMARK 923 INTER-LIGAND FREE ENERGY PREDICTED BY IDOCK:   -2.00 KCAL/MOL
REMARK 924 INTRA-LIGAND FREE ENERGY PREDICTED BY IDOCK:    0.06 KCAL/MOL
REMARK 927      BINDING AFFINITY PREDICTED BY RF-SCORE:    0.00 PKD
ROOT
HETATM    1  N   UNL     1      -7.614   9.181  71.495  1.00  0.00    -0.341 NA 
HETATM    2  H2  UNL     1      -8.544   9.504  71.759  1.00  0.00     0.000 HD 
HETATM    3  C   UNL     1      -7.359   7.816  71.941  1.00  0.00    -0.070 C  
HETATM    4  H1  UNL     1      -6.879   9.798  71.842  1.00  0.00     0.000 HD 
ENDROOT
BRANCH   3   5
HETATM    5  C   UNL     1      -8.459   6.891  71.421  1.00  0.00    -0.119 C  
BRANCH   5   6
HETATM    6  C   UNL     1      -9.329   6.349  72.566  1.00  0.00    -0.145 C  
BRANCH   6   7
HETATM    7  CA  UNL     1     -10.537   5.526  72.098  1.00  0.00    -0.226 C  
HETATM    8  N   UNL     1     -10.173   4.103  71.844  1.00  0.00    -0.152 NA 
HETATM    9  C   UNL     1     -11.127   6.121  70.810  1.00  0.00    -0.309 C  
HETATM   10  OXT UNL     1     -11.821   7.122  70.753  1.00  0.00    -0.325 OA 
HETATM   11  O   UNL     1     -10.742   5.407  69.719  1.00  0.00    -0.315 OA 
HETATM   12  H1  UNL     1     -10.976   3.556  71.534  1.00  0.00     0.000 HD 
HETATM   13  H2  UNL     1      -9.729   3.682  72.661  1.00  0.00     0.000 HD 
ENDBRANCH   6   7
ENDBRANCH   5   6
ENDBRANCH   3   5
TORSDOF 3
ENDMDL
MODEL      251
REMARK 921   NORMALIZED FREE ENERGY PREDICTED BY IDOCK:   -1.26 KCAL/MOL
REMARK 922        TOTAL FREE ENERGY PREDICTED BY IDOCK:   -1.93 KCAL/MOL
REMARK 923 INTER-LIGAND FREE ENERGY PREDICTED BY IDOCK:   -1.87 KCAL/MOL
REMARK 924 INTRA-LIGAND FREE ENERGY PREDICTED BY IDOCK:   -0.06 KCAL/MOL
REMARK 927      BINDING AFFINITY PREDICTED BY RF-SCORE:    0.00 PKD
ROOT
HETATM    1  N   UNL     1      -6.399   7.052  69.138  1.00  0.00    -0.034 NA 
HETATM    2  H2  UNL     1      -6.999   7.238  69.942  1.00  0.00     0.000 HD 
HETATM    3  C   UNL     1      -7.071   6.244  68.127  1.00  0.00    -0.082 C  
HETATM    4  H1  UNL     1      -5.523   6.605  69.408  1.00  0.00     0.000 HD 
ENDROOT
BRANCH   3   5
HETATM    5  C   UNL     1      -8.384   6.913  67.723  1.00  0.00    -0.120 C  
BRANCH   5   6
HETATM    6  C   UNL     1      -8.799   7.997  68.730  1.00  0.00    -0.138 C  
BRANCH   6   7
HETATM    7  CA  UNL     1     -10.317   8.151  68.894  1.00  0.00    -0.211 C  
HETATM    8  N   UNL     1     -11.053   7.696  67.680  1.00  0.00    -0.499 NA 
HETATM    9  C   UNL     1     -10.681   9.618  69.169  1.00  0.00    -0.217 C  
HETATM   10  OXT UNL     1     -10.536  10.189  70.237  1.00  0.00    -0.285 OA 
HETATM   11  O   UNL     1     -11.156  10.225  68.049  1.00  0.00    -0.283 OA 
HETATM   12  H1  UNL     1     -12.063   7.798  67.789  1.00  0.00     0.000 HD 
HETATM   13  H2  UNL     1     -10.802   6.739  67.430  1.00  0.00     0.000 HD 
ENDBRANCH   6   7
ENDBRANCH   5   6
ENDBRANCH   3   5
TORSDOF 3
ENDMDL
MODEL      252
REMARK 921   NORMALIZED FREE ENERGY PREDICTED BY IDOCK:   -1.26 KCAL/MOL
REMARK 922        TOTAL FREE ENERGY PREDICTED BY IDOCK:   -1.93 KCAL/MOL
REMARK 923 INTER-LIGAND FREE ENERGY PREDICTED BY IDOCK:   -1.89 KCAL/MOL
REMARK 924 INTRA-LIGAND FREE ENERGY PREDICTED BY IDOCK:   -0.05 KCAL/MOL
REMARK 927      BINDING AFFINITY PREDICTED BY RF-SCORE:    0.00 PKD
ROOT
HETATM    1  N   UNL     1      -7.614   9.181  71.495  1.00  0.00    -0.341 NA 
HETATM    2  H2  UNL     1      -8.545   9.507  71.753  1.00  0.00     0.000 HD 
HETATM    3  C   UNL     1      -7.370   7.812  71.936  1.00  0.00    -0.070 C  
HETATM    4  H1  UNL     1      -6.879   9.792  71.852  1.00  0.00     0.000 HD 
ENDROOT
BRANCH   3   5
HETATM    5  C   UNL     1      -8.470   6.896  71.401  1.00  0.00    -0.119 C  
BRANCH   5   6
HETATM    6  C   UNL     1      -9.353   6.352  72.535  1.00  0.00    -0.145 C  
BRANCH   6   7
HETATM    7  CA  UNL     1     -10.561   5.538  72.053  1.00  0.00    -0.228 C  
HETATM    8  N   UNL     1     -11.675   5.562  73.043  1.00  0.00    -0.542 NA 
HETATM    9  C   UNL     1     -10.158   4.077  71.800  1.00  0.00    -0.129 C  
HETATM   10  OXT UNL     1      -9.536   3.678  70.829  1.00  0.00    -0.161 OA 
HETATM   11  O   UNL     1     -10.550   3.275  72.826  1.00  0.00    -0.152 OA 
HETATM   12  H1  UNL     1     -12.478   5.021  72.722  1.00  0.00     0.000 HD 
HETATM   13  H2  UNL     1     -11.941   6.518  73.280  1.00  0.00     0.000 HD 
ENDBRANCH   6   7
ENDBRANCH   5   6
ENDBRANCH   3   5
TORSDOF 3
ENDMDL
MODEL      253
REMARK 921   NORMALIZED FREE ENERGY PREDICTED BY IDOCK:   -1.26 KCAL/MOL
REMARK 922        TOTAL FREE ENERGY PREDICTED BY IDOCK:   -1.93 KCAL/MOL
REMARK 923 INTER-LIGAND FREE ENERGY PREDICTED BY IDOCK:   -1.86 KCAL/MOL
REMARK 924 INTRA-LIGAND FREE ENERGY PREDICTED BY IDOCK:   -0.07 KCAL/MOL
REMARK 927      BINDING AFFINITY PREDICTED BY RF-SCORE:    0.00 PKD
ROOT
HETATM    1  N   UNL     1      -6.412   7.740  64.005  1.00  0.00    -0.057 NA 
HETATM    2  H2  UNL     1      -7.098   8.085  63.333  1.00  0.00     0.000 HD 
HETATM    3  C   UNL     1      -6.957   7.658  65.355  1.00  0.00    -0.059 C  
HETATM    4  H1  UNL     1      -5.562   8.304  64.011  1.00  0.00     0.000 HD 
ENDROOT
BRANCH   3   5
HETATM    5  C   UNL     1      -8.230   6.813  65.345  1.00  0.00    -0.134 C  
BRANCH   5   6
HETATM    6  C   UNL     1      -9.060   7.027  66.620  1.00  0.00    -0.175 C  
BRANCH   6   7
HETATM    7  CA  UNL     1     -10.197   6.012  66.806  1.00  0.00    -0.214 C  
HETATM    8  N   UNL     1     -11.473   6.676  67.197  1.00  0.00    -0.746 NA 
HETATM    9  C   UNL     1      -9.826   4.982  67.883  1.00  0.00    -0.151 C  
HETATM   10  OXT UNL     1      -9.056   4.049  67.728  1.00  0.00    -0.123 OA 
HETATM   11  O   UNL     1     -10.441   5.263  69.063  1.00  0.00    -0.205 OA 
HETATM   12  H1  UNL     1     -12.228   6.001  67.320  1.00  0.00     0.000 HD 
HETATM   13  H2  UNL     1     -11.731   7.406  66.533  1.00  0.00     0.000 HD 
ENDBRANCH   6   7
ENDBRANCH   5   6
ENDBRANCH   3   5
TORSDOF 3
ENDMDL
MODEL      254
REMARK 921   NORMALIZED FREE ENERGY PREDICTED BY IDOCK:   -1.25 KCAL/MOL
REMARK 922        TOTAL FREE ENERGY PREDICTED BY IDOCK:   -1.93 KCAL/MOL
REMARK 923 INTER-LIGAND FREE ENERGY PREDICTED BY IDOCK:   -2.13 KCAL/MOL
REMARK 924 INTRA-LIGAND FREE ENERGY PREDICTED BY IDOCK:    0.20 KCAL/MOL
REMARK 927      BINDING AFFINITY PREDICTED BY RF-SCORE:    0.00 PKD
ROOT
HETATM    1  N   UNL     1      -8.808   7.505  65.215  1.00  0.00    -0.371 NA 
HETATM    2  H2  UNL     1      -7.826   7.231  65.233  1.00  0.00     0.000 HD 
HETATM    3  C   UNL     1      -9.517   7.092  66.421  1.00  0.00    -0.123 C  
HETATM    4  H1  UNL     1      -9.294   7.146  64.392  1.00  0.00     0.000 HD 
ENDROOT
BRANCH   3   5
HETATM    5  C   UNL     1      -8.790   7.630  67.653  1.00  0.00    -0.125 C  
BRANCH   5   6
HETATM    6  C   UNL     1      -9.253   9.053  68.006  1.00  0.00    -0.143 C  
BRANCH   6   7
HETATM    7  CA  UNL     1      -9.937   9.794  66.849  1.00  0.00    -0.211 C  
HETATM    8  N   UNL     1      -8.945  10.369  65.896  1.00  0.00    -0.156 NA 
HETATM    9  C   UNL     1     -10.820  10.930  67.386  1.00  0.00    -0.279 C  
HETATM   10  OXT UNL     1     -11.915  10.784  67.904  1.00  0.00    -0.518 OA 
HETATM   11  O   UNL     1     -10.206  12.135  67.249  1.00  0.00    -0.201 OA 
HETATM   12  H1  UNL     1      -9.400  10.861  65.127  1.00  0.00     0.000 HD 
HETATM   13  H2  UNL     1      -8.303   9.654  65.552  1.00  0.00     0.000 HD 
ENDBRANCH   6   7
ENDBRANCH   5   6
ENDBRANCH   3   5
TORSDOF 3
ENDMDL
MODEL      255
REMARK 921   NORMALIZED FREE ENERGY PREDICTED BY IDOCK:   -1.23 KCAL/MOL
REMARK 922        TOTAL FREE ENERGY PREDICTED BY IDOCK:   -1.90 KCAL/MOL
REMARK 923 INTER-LIGAND FREE ENERGY PREDICTED BY IDOCK:   -1.80 KCAL/MOL
REMARK 924 INTRA-LIGAND FREE ENERGY PREDICTED BY IDOCK:   -0.10 KCAL/MOL
REMARK 927      BINDING AFFINITY PREDICTED BY RF-SCORE:    0.00 PKD
ROOT
HETATM    1  N   UNL     1     -10.889   5.074  66.573  1.00  0.00    -0.418 NA 
HETATM    2  H2  UNL     1     -10.719   4.150  66.968  1.00  0.00     0.000 HD 
HETATM    3  C   UNL     1     -10.758   6.131  67.569  1.00  0.00    -0.313 C  
HETATM    4  H1  UNL     1     -11.803   5.138  66.124  1.00  0.00     0.000 HD 
ENDROOT
BRANCH   3   5
HETATM    5  C   UNL     1      -9.389   6.036  68.241  1.00  0.00    -0.116 C  
BRANCH   5   6
HETATM    6  C   UNL     1      -9.472   6.362  69.741  1.00  0.00    -0.160 C  
BRANCH   6   7
HETATM    7  CA  UNL     1     -10.054   5.229  70.597  1.00  0.00    -0.239 C  
HETATM    8  N   UNL     1     -10.964   5.747  71.657  1.00  0.00    -0.260 NA 
HETATM    9  C   UNL     1      -8.926   4.427  71.265  1.00  0.00    -0.122 C  
HETATM   10  OXT UNL     1      -8.221   3.605  70.704  1.00  0.00    -0.056 OA 
HETATM   11  O   UNL     1      -8.779   4.780  72.570  1.00  0.00    -0.114 OA 
HETATM   12  H1  UNL     1     -11.351   4.994  72.226  1.00  0.00     0.000 HD 
HETATM   13  H2  UNL     1     -11.702   6.330  71.261  1.00  0.00     0.000 HD 
ENDBRANCH   6   7
ENDBRANCH   5   6
ENDBRANCH   3   5
TORSDOF 3
ENDMDL
MODEL      256
REMARK 921   NORMALIZED FREE ENERGY PREDICTED BY IDOCK:   -1.23 KCAL/MOL
REMARK 922        TOTAL FREE ENERGY PREDICTED BY IDOCK:   -1.90 KCAL/MOL
REMARK 923 INTER-LIGAND FREE ENERGY PREDICTED BY IDOCK:   -1.76 KCAL/MOL
REMARK 924 INTRA-LIGAND FREE ENERGY PREDICTED BY IDOCK:   -0.14 KCAL/MOL
REMARK 927      BINDING AFFINITY PREDICTED BY RF-SCORE:    0.00 PKD
ROOT
HETATM    1  N   UNL     1      -8.879   9.278  67.407  1.00  0.00    -0.118 NA 
HETATM    2  H2  UNL     1      -8.492  10.021  67.988  1.00  0.00     0.000 HD 
HETATM    3  C   UNL     1      -8.199   8.005  67.618  1.00  0.00    -0.124 C  
HETATM    4  H1  UNL     1      -8.862   9.516  66.415  1.00  0.00     0.000 HD 
ENDROOT
BRANCH   3   5
HETATM    5  C   UNL     1      -8.224   7.648  69.103  1.00  0.00    -0.130 C  
BRANCH   5   6
HETATM    6  C   UNL     1      -9.661   7.588  69.645  1.00  0.00    -0.167 C  
BRANCH   6   7
HETATM    7  CA  UNL     1      -9.922   8.524  70.834  1.00  0.00    -0.191 C  
HETATM    8  N   UNL     1     -10.064   7.769  72.111  1.00  0.00    -0.198 NA 
HETATM    9  C   UNL     1     -11.200   9.344  70.601  1.00  0.00    -0.284 C  
HETATM   10  OXT UNL     1     -11.291  10.308  69.858  1.00  0.00    -0.254 OA 
HETATM   11  O   UNL     1     -12.245   8.835  71.305  1.00  0.00    -0.295 OA 
HETATM   12  H1  UNL     1     -10.237   8.391  72.901  1.00  0.00     0.000 HD 
HETATM   13  H2  UNL     1      -9.256   7.169  72.280  1.00  0.00     0.000 HD 
ENDBRANCH   6   7
ENDBRANCH   5   6
ENDBRANCH   3   5
TORSDOF 3
ENDMDL
MODEL      257
REMARK 921   NORMALIZED FREE ENERGY PREDICTED BY IDOCK:   -1.21 KCAL/MOL
REMARK 922        TOTAL FREE ENERGY PREDICTED BY IDOCK:   -1.88 KCAL/MOL
REMARK 923 INTER-LIGAND FREE ENERGY PREDICTED BY IDOCK:   -1.64 KCAL/MOL
REMARK 924 INTRA-LIGAND FREE ENERGY PREDICTED BY IDOCK:   -0.25 KCAL/MOL
REMARK 927      BINDING AFFINITY PREDICTED BY RF-SCORE:    0.00 PKD
ROOT
HETATM    1  N   UNL     1      -8.979   7.726  71.069  1.00  0.00    -0.141 NA 
HETATM    2  H2  UNL     1      -9.717   7.520  71.742  1.00  0.00     0.000 HD 
HETATM    3  C   UNL     1      -9.241   7.125  69.766  1.00  0.00    -0.143 C  
HETATM    4  H1  UNL     1      -8.061   7.433  71.403  1.00  0.00     0.000 HD 
ENDROOT
BRANCH   3   5
HETATM    5  C   UNL     1     -10.617   7.563  69.266  1.00  0.00    -0.215 C  
BRANCH   5   6
HETATM    6  C   UNL     1     -10.506   8.667  68.203  1.00  0.00    -0.241 C  
BRANCH   6   7
HETATM    7  CA  UNL     1     -10.369  10.082  68.781  1.00  0.00    -0.198 C  
HETATM    8  N   UNL     1     -11.384  11.014  68.212  1.00  0.00    -0.277 NA 
HETATM    9  C   UNL     1      -8.968  10.646  68.496  1.00  0.00    -0.156 C  
HETATM   10  OXT UNL     1      -7.951  10.333  69.092  1.00  0.00    -0.112 OA 
HETATM   11  O   UNL     1      -8.994  11.520  67.456  1.00  0.00    -0.154 OA 
HETATM   12  H1  UNL     1     -11.293  11.954  68.597  1.00  0.00     0.000 HD 
HETATM   13  H2  UNL     1     -12.330  10.652  68.335  1.00  0.00     0.000 HD 
ENDBRANCH   6   7
ENDBRANCH   5   6
ENDBRANCH   3   5
TORSDOF 3
ENDMDL
MODEL      258
REMARK 921   NORMALIZED FREE ENERGY PREDICTED BY IDOCK:   -1.20 KCAL/MOL
REMARK 922        TOTAL FREE ENERGY PREDICTED BY IDOCK:   -1.87 KCAL/MOL
REMARK 923 INTER-LIGAND FREE ENERGY PREDICTED BY IDOCK:   -1.75 KCAL/MOL
REMARK 924 INTRA-LIGAND FREE ENERGY PREDICTED BY IDOCK:   -0.12 KCAL/MOL
REMARK 927      BINDING AFFINITY PREDICTED BY RF-SCORE:    0.00 PKD
ROOT
HETATM    1  N   UNL     1     -10.987   8.824  68.085  1.00  0.00    -0.466 NA 
HETATM    2  H2  UNL     1     -11.767   9.421  68.358  1.00  0.00     0.000 HD 
HETATM    3  C   UNL     1      -9.731   9.248  68.694  1.00  0.00    -0.150 C  
HETATM    4  H1  UNL     1     -10.877   8.774  67.072  1.00  0.00     0.000 HD 
ENDROOT
BRANCH   3   5
HETATM    5  C   UNL     1      -9.896   9.323  70.212  1.00  0.00    -0.265 C  
BRANCH   5   6
HETATM    6  C   UNL     1      -9.032   8.271  70.926  1.00  0.00    -0.174 C  
BRANCH   6   7
HETATM    7  CA  UNL     1      -9.744   6.932  71.164  1.00  0.00    -0.173 C  
HETATM    8  N   UNL     1     -10.062   6.723  72.606  1.00  0.00    -0.171 NA 
HETATM    9  C   UNL     1      -8.871   5.766  70.678  1.00  0.00    -0.140 C  
HETATM   10  OXT UNL     1      -8.715   5.444  69.512  1.00  0.00    -0.101 OA 
HETATM   11  O   UNL     1      -8.251   5.149  71.719  1.00  0.00    -0.113 OA 
HETATM   12  H1  UNL     1     -10.535   5.834  72.764  1.00  0.00     0.000 HD 
HETATM   13  H2  UNL     1     -10.599   7.503  72.985  1.00  0.00     0.000 HD 
ENDBRANCH   6   7
ENDBRANCH   5   6
ENDBRANCH   3   5
TORSDOF 3
ENDMDL
MODEL      259
REMARK 921   NORMALIZED FREE ENERGY PREDICTED BY IDOCK:   -1.19 KCAL/MOL
REMARK 922        TOTAL FREE ENERGY PREDICTED BY IDOCK:   -1.86 KCAL/MOL
REMARK 923 INTER-LIGAND FREE ENERGY PREDICTED BY IDOCK:   -1.78 KCAL/MOL
REMARK 924 INTRA-LIGAND FREE ENERGY PREDICTED BY IDOCK:   -0.07 KCAL/MOL
REMARK 927      BINDING AFFINITY PREDICTED BY RF-SCORE:    0.00 PKD
ROOT
HETATM    1  N   UNL     1     -10.795   8.395  68.190  1.00  0.00    -0.456 NA 
HETATM    2  H2  UNL     1     -10.018   8.726  68.760  1.00  0.00     0.000 HD 
HETATM    3  C   UNL     1     -10.648   8.769  66.788  1.00  0.00    -0.150 C  
HETATM    4  H1  UNL     1     -11.696   8.722  68.540  1.00  0.00     0.000 HD 
ENDROOT
BRANCH   3   5
HETATM    5  C   UNL     1      -9.300   8.279  66.264  1.00  0.00    -0.267 C  
BRANCH   5   6
HETATM    6  C   UNL     1      -9.022   8.798  64.845  1.00  0.00    -0.065 C  
BRANCH   6   7
HETATM    7  CA  UNL     1      -8.329  10.168  64.803  1.00  0.00    -0.165 C  
HETATM    8  N   UNL     1      -8.724  10.951  63.599  1.00  0.00    -0.357 NA 
HETATM    9  C   UNL     1      -6.802   9.997  64.802  1.00  0.00    -0.133 C  
HETATM   10  OXT UNL     1      -6.126   9.715  65.777  1.00  0.00    -0.058 OA 
HETATM   11  O   UNL     1      -6.291  10.163  63.553  1.00  0.00    -0.132 OA 
HETATM   12  H1  UNL     1      -8.264  11.862  63.571  1.00  0.00     0.000 HD 
HETATM   13  H2  UNL     1      -9.738  11.045  63.532  1.00  0.00     0.000 HD 
ENDBRANCH   6   7
ENDBRANCH   5   6
ENDBRANCH   3   5
TORSDOF 3
ENDMDL
MODEL      260
REMARK 921   NORMALIZED FREE ENERGY PREDICTED BY IDOCK:   -1.19 KCAL/MOL
REMARK 922        TOTAL FREE ENERGY PREDICTED BY IDOCK:   -1.85 KCAL/MOL
REMARK 923 INTER-LIGAND FREE ENERGY PREDICTED BY IDOCK:   -1.79 KCAL/MOL
REMARK 924 INTRA-LIGAND FREE ENERGY PREDICTED BY IDOCK:   -0.06 KCAL/MOL
REMARK 927      BINDING AFFINITY PREDICTED BY RF-SCORE:    0.00 PKD
ROOT
HETATM    1  N   UNL     1     -10.271   8.828  72.092  1.00  0.00    -0.326 NA 
HETATM    2  H2  UNL     1     -11.185   8.380  72.041  1.00  0.00     0.000 HD 
HETATM    3  C   UNL     1      -9.229   7.905  72.529  1.00  0.00    -0.190 C  
HETATM    4  H1  UNL     1     -10.277   9.649  72.697  1.00  0.00     0.000 HD 
ENDROOT
BRANCH   3   5
HETATM    5  C   UNL     1      -9.219   6.675  71.622  1.00  0.00    -0.145 C  
BRANCH   5   6
HETATM    6  C   UNL     1     -10.540   6.532  70.849  1.00  0.00    -0.275 C  
BRANCH   6   7
HETATM    7  CA  UNL     1     -10.429   5.692  69.569  1.00  0.00    -0.302 C  
HETATM    8  N   UNL     1      -9.931   4.316  69.852  1.00  0.00    -0.192 NA 
HETATM    9  C   UNL     1      -9.478   6.364  68.567  1.00  0.00    -0.120 C  
HETATM   10  OXT UNL     1      -9.754   7.330  67.875  1.00  0.00    -0.137 OA 
HETATM   11  O   UNL     1      -8.257   5.765  68.572  1.00  0.00    -0.106 OA 
HETATM   12  H1  UNL     1      -9.857   3.757  69.001  1.00  0.00     0.000 HD 
HETATM   13  H2  UNL     1     -10.506   3.849  70.554  1.00  0.00     0.000 HD 
ENDBRANCH   6   7
ENDBRANCH   5   6
ENDBRANCH   3   5
TORSDOF 3
ENDMDL
MODEL      261
REMARK 921   NORMALIZED FREE ENERGY PREDICTED BY IDOCK:   -1.19 KCAL/MOL
REMARK 922        TOTAL FREE ENERGY PREDICTED BY IDOCK:   -1.85 KCAL/MOL
REMARK 923 INTER-LIGAND FREE ENERGY PREDICTED BY IDOCK:   -1.76 KCAL/MOL
REMARK 924 INTRA-LIGAND FREE ENERGY PREDICTED BY IDOCK:   -0.09 KCAL/MOL
REMARK 927      BINDING AFFINITY PREDICTED BY RF-SCORE:    0.00 PKD
ROOT
HETATM    1  N   UNL     1     -10.868   9.071  67.461  1.00  0.00    -0.466 NA 
HETATM    2  H2  UNL     1     -10.609   9.661  66.672  1.00  0.00     0.000 HD 
HETATM    3  C   UNL     1     -10.521   7.672  67.239  1.00  0.00    -0.326 C  
HETATM    4  H1  UNL     1     -11.860   9.146  67.688  1.00  0.00     0.000 HD 
ENDROOT
BRANCH   3   5
HETATM    5  C   UNL     1      -9.035   7.559  66.900  1.00  0.00    -0.152 C  
BRANCH   5   6
HETATM    6  C   UNL     1      -8.559   8.746  66.048  1.00  0.00    -0.166 C  
BRANCH   6   7
HETATM    7  CA  UNL     1      -8.651   8.509  64.534  1.00  0.00    -0.029 C  
HETATM    8  N   UNL     1      -8.039   7.208  64.141  1.00  0.00    -0.297 NA 
HETATM    9  C   UNL     1      -7.944   9.638  63.769  1.00  0.00    -0.143 C  
HETATM   10  OXT UNL     1      -8.395  10.757  63.593  1.00  0.00    -0.093 OA 
HETATM   11  O   UNL     1      -6.716   9.244  63.339  1.00  0.00    -0.090 OA 
HETATM   12  H1  UNL     1      -8.100   7.049  63.135  1.00  0.00     0.000 HD 
HETATM   13  H2  UNL     1      -8.445   6.432  64.664  1.00  0.00     0.000 HD 
ENDBRANCH   6   7
ENDBRANCH   5   6
ENDBRANCH   3   5
TORSDOF 3
ENDMDL
MODEL      262
REMARK 921   NORMALIZED FREE ENERGY PREDICTED BY IDOCK:   -1.14 KCAL/MOL
REMARK 922        TOTAL FREE ENERGY PREDICTED BY IDOCK:   -1.80 KCAL/MOL
REMARK 923 INTER-LIGAND FREE ENERGY PREDICTED BY IDOCK:   -1.73 KCAL/MOL
REMARK 924 INTRA-LIGAND FREE ENERGY PREDICTED BY IDOCK:   -0.07 KCAL/MOL
REMARK 927      BINDING AFFINITY PREDICTED BY RF-SCORE:    0.00 PKD
ROOT
HETATM    1  N   UNL     1      -6.622   7.543  68.292  1.00  0.00    -0.049 NA 
HETATM    2  H2  UNL     1      -7.488   7.004  68.311  1.00  0.00     0.000 HD 
HETATM    3  C   UNL     1      -6.240   7.922  66.937  1.00  0.00    -0.054 C  
HETATM    4  H1  UNL     1      -5.851   7.049  68.741  1.00  0.00     0.000 HD 
ENDROOT
BRANCH   3   5
HETATM    5  C   UNL     1      -7.395   8.663  66.265  1.00  0.00    -0.086 C  
BRANCH   5   6
HETATM    6  C   UNL     1      -8.469   9.077  67.283  1.00  0.00    -0.114 C  
BRANCH   6   7
HETATM    7  CA  UNL     1      -9.892   9.124  66.709  1.00  0.00    -0.226 C  
HETATM    8  N   UNL     1      -9.885   9.272  65.226  1.00  0.00    -0.424 NA 
HETATM    9  C   UNL     1     -10.679  10.294  67.318  1.00  0.00    -0.263 C  
HETATM   10  OXT UNL     1     -11.160  10.310  68.438  1.00  0.00    -0.253 OA 
HETATM   11  O   UNL     1     -10.741  11.344  66.456  1.00  0.00    -0.256 OA 
HETATM   12  H1  UNL     1     -10.831   9.303  64.844  1.00  0.00     0.000 HD 
HETATM   13  H2  UNL     1      -9.329   8.541  64.781  1.00  0.00     0.000 HD 
ENDBRANCH   6   7
ENDBRANCH   5   6
ENDBRANCH   3   5
TORSDOF 3
ENDMDL
MODEL      263
REMARK 921   NORMALIZED FREE ENERGY PREDICTED BY IDOCK:   -1.14 KCAL/MOL
REMARK 922        TOTAL FREE ENERGY PREDICTED BY IDOCK:   -1.79 KCAL/MOL
REMARK 923 INTER-LIGAND FREE ENERGY PREDICTED BY IDOCK:   -1.67 KCAL/MOL
REMARK 924 INTRA-LIGAND FREE ENERGY PREDICTED BY IDOCK:   -0.12 KCAL/MOL
REMARK 927      BINDING AFFINITY PREDICTED BY RF-SCORE:    0.00 PKD
ROOT
HETATM    1  N   UNL     1      -9.694   8.831  67.501  1.00  0.00    -0.159 NA 
HETATM    2  H2  UNL     1     -10.073   8.976  68.437  1.00  0.00     0.000 HD 
HETATM    3  C   UNL     1      -9.623   7.417  67.150  1.00  0.00    -0.159 C  
HETATM    4  H1  UNL     1      -8.775   9.259  67.388  1.00  0.00     0.000 HD 
ENDROOT
BRANCH   3   5
HETATM    5  C   UNL     1     -10.999   6.776  67.319  1.00  0.00    -0.433 C  
BRANCH   5   6
HETATM    6  C   UNL     1     -10.893   5.348  67.877  1.00  0.00     0.042 C  
BRANCH   6   7
HETATM    7  CA  UNL     1      -9.610   4.610  67.468  1.00  0.00    -0.163 C  
HETATM    8  N   UNL     1      -9.853   3.662  66.344  1.00  0.00    -0.413 NA 
HETATM    9  C   UNL     1      -9.038   3.826  68.659  1.00  0.00    -0.142 C  
HETATM   10  OXT UNL     1      -8.426   4.316  69.593  1.00  0.00    -0.067 OA 
HETATM   11  O   UNL     1      -9.337   2.504  68.565  1.00  0.00    -0.178 OA 
HETATM   12  H1  UNL     1      -9.000   3.171  66.072  1.00  0.00     0.000 HD 
HETATM   13  H2  UNL     1     -10.281   4.132  65.546  1.00  0.00     0.000 HD 
ENDBRANCH   6   7
ENDBRANCH   5   6
ENDBRANCH   3   5
TORSDOF 3
ENDMDL
MODEL      264
REMARK 921   NORMALIZED FREE ENERGY PREDICTED BY IDOCK:   -1.13 KCAL/MOL
REMARK 922        TOTAL FREE ENERGY PREDICTED BY IDOCK:   -1.78 KCAL/MOL
REMARK 923 INTER-LIGAND FREE ENERGY PREDICTED BY IDOCK:   -1.47 KCAL/MOL
REMARK 924 INTRA-LIGAND FREE ENERGY PREDICTED BY IDOCK:   -0.31 KCAL/MOL
REMARK 927      BINDING AFFINITY PREDICTED BY RF-SCORE:    0.00 PKD
ROOT
HETATM    1  N   UNL     1      -8.128   7.126  68.571  1.00  0.00    -0.123 NA 
HETATM    2  H2  UNL     1      -8.206   6.113  68.475  1.00  0.00     0.000 HD 
HETATM    3  C   UNL     1      -7.960   7.788  67.282  1.00  0.00    -0.118 C  
HETATM    4  H1  UNL     1      -7.370   7.396  69.197  1.00  0.00     0.000 HD 
ENDROOT
BRANCH   3   5
HETATM    5  C   UNL     1      -9.097   7.383  66.344  1.00  0.00    -0.196 C  
BRANCH   5   6
HETATM    6  C   UNL     1      -8.877   5.976  65.766  1.00  0.00    -0.143 C  
BRANCH   6   7
HETATM    7  CA  UNL     1      -9.914   4.941  66.225  1.00  0.00    -0.234 C  
HETATM    8  N   UNL     1      -9.584   4.385  67.568  1.00  0.00    -0.169 NA 
HETATM    9  C   UNL     1      -9.999   3.783  65.220  1.00  0.00    -0.108 C  
HETATM   10  OXT UNL     1     -10.565   3.830  64.140  1.00  0.00    -0.260 OA 
HETATM   11  O   UNL     1      -9.322   2.693  65.669  1.00  0.00    -0.122 OA 
HETATM   12  H1  UNL     1     -10.273   3.698  67.874  1.00  0.00     0.000 HD 
HETATM   13  H2  UNL     1      -9.468   5.127  68.259  1.00  0.00     0.000 HD 
ENDBRANCH   6   7
ENDBRANCH   5   6
ENDBRANCH   3   5
TORSDOF 3
ENDMDL
MODEL      265
REMARK 921   NORMALIZED FREE ENERGY PREDICTED BY IDOCK:   -1.12 KCAL/MOL
REMARK 922        TOTAL FREE ENERGY PREDICTED BY IDOCK:   -1.78 KCAL/MOL
REMARK 923 INTER-LIGAND FREE ENERGY PREDICTED BY IDOCK:   -1.65 KCAL/MOL
REMARK 924 INTRA-LIGAND FREE ENERGY PREDICTED BY IDOCK:   -0.13 KCAL/MOL
REMARK 927      BINDING AFFINITY PREDICTED BY RF-SCORE:    0.00 PKD
ROOT
HETATM    1  N   UNL     1      -7.958   7.116  64.658  1.00  0.00    -0.146 NA 
HETATM    2  H2  UNL     1      -8.138   7.831  65.363  1.00  0.00     0.000 HD 
HETATM    3  C   UNL     1      -8.050   5.768  65.206  1.00  0.00    -0.130 C  
HETATM    4  H1  UNL     1      -7.052   7.242  64.206  1.00  0.00     0.000 HD 
ENDROOT
BRANCH   3   5
HETATM    5  C   UNL     1      -9.406   5.580  65.883  1.00  0.00    -0.140 C  
BRANCH   5   6
HETATM    6  C   UNL     1     -10.062   4.251  65.475  1.00  0.00    -0.235 C  
BRANCH   6   7
HETATM    7  CA  UNL     1      -9.681   3.770  64.068  1.00  0.00    -0.167 C  
HETATM    8  N   UNL     1     -10.584   4.335  63.027  1.00  0.00    -0.427 NA 
HETATM    9  C   UNL     1      -9.738   2.237  63.991  1.00  0.00    -0.139 C  
HETATM   10  OXT UNL     1      -8.898   1.479  64.448  1.00  0.00    -0.089 OA 
HETATM   11  O   UNL     1     -10.876   1.819  63.376  1.00  0.00    -0.175 OA 
HETATM   12  H1  UNL     1     -10.331   4.016  62.091  1.00  0.00     0.000 HD 
HETATM   13  H2  UNL     1     -10.616   5.354  63.075  1.00  0.00     0.000 HD 
ENDBRANCH   6   7
ENDBRANCH   5   6
ENDBRANCH   3   5
TORSDOF 3
ENDMDL
MODEL      266
REMARK 921   NORMALIZED FREE ENERGY PREDICTED BY IDOCK:   -1.09 KCAL/MOL
REMARK 922        TOTAL FREE ENERGY PREDICTED BY IDOCK:   -1.74 KCAL/MOL
REMARK 923 INTER-LIGAND FREE ENERGY PREDICTED BY IDOCK:   -1.68 KCAL/MOL
REMARK 924 INTRA-LIGAND FREE ENERGY PREDICTED BY IDOCK:   -0.06 KCAL/MOL
REMARK 927      BINDING AFFINITY PREDICTED BY RF-SCORE:    0.00 PKD
ROOT
HETATM    1  N   UNL     1      -9.160   7.972  65.428  1.00  0.00    -0.396 NA 
HETATM    2  H2  UNL     1      -9.364   8.964  65.548  1.00  0.00     0.000 HD 
HETATM    3  C   UNL     1      -8.451   7.413  66.573  1.00  0.00    -0.128 C  
HETATM    4  H1  UNL     1      -8.633   7.789  64.574  1.00  0.00     0.000 HD 
ENDROOT
BRANCH   3   5
HETATM    5  C   UNL     1      -9.242   7.688  67.851  1.00  0.00    -0.139 C  
BRANCH   5   6
HETATM    6  C   UNL     1      -8.505   7.167  69.095  1.00  0.00    -0.133 C  
BRANCH   6   7
HETATM    7  CA  UNL     1      -9.304   7.299  70.398  1.00  0.00    -0.158 C  
HETATM    8  N   UNL     1     -10.537   8.115  70.211  1.00  0.00    -0.224 NA 
HETATM    9  C   UNL     1      -8.444   7.950  71.493  1.00  0.00    -0.114 C  
HETATM   10  OXT UNL     1      -7.564   7.387  72.122  1.00  0.00    -0.081 OA 
HETATM   11  O   UNL     1      -8.761   9.262  71.650  1.00  0.00    -0.312 OA 
HETATM   12  H1  UNL     1     -11.069   8.203  71.077  1.00  0.00     0.000 HD 
HETATM   13  H2  UNL     1     -11.116   7.747  69.455  1.00  0.00     0.000 HD 
ENDBRANCH   6   7
ENDBRANCH   5   6
ENDBRANCH   3   5
TORSDOF 3
ENDMDL
MODEL      267
REMARK 921   NORMALIZED FREE ENERGY PREDICTED BY IDOCK:   -1.07 KCAL/MOL
REMARK 922        TOTAL FREE ENERGY PREDICTED BY IDOCK:   -1.72 KCAL/MOL
REMARK 923 INTER-LIGAND FREE ENERGY PREDICTED BY IDOCK:   -1.68 KCAL/MOL
REMARK 924 INTRA-LIGAND FREE ENERGY PREDICTED BY IDOCK:   -0.04 KCAL/MOL
REMARK 927      BINDING AFFINITY PREDICTED BY RF-SCORE:    0.00 PKD
ROOT
HETATM    1  N   UNL     1     -10.677   1.919  72.830  1.00  0.00    -0.151 NA 
HETATM    2  H2  UNL     1      -9.878   1.288  72.900  1.00  0.00     0.000 HD 
HETATM    3  C   UNL     1     -10.815   2.765  74.010  1.00  0.00    -0.184 C  
HETATM    4  H1  UNL     1     -11.549   1.418  72.663  1.00  0.00     0.000 HD 
ENDROOT
BRANCH   3   5
HETATM    5  C   UNL     1      -9.508   3.516  74.259  1.00  0.00    -0.116 C  
BRANCH   5   6
HETATM    6  C   UNL     1      -9.105   4.368  73.046  1.00  0.00    -0.129 C  
BRANCH   6   7
HETATM    7  CA  UNL     1     -10.277   5.097  72.375  1.00  0.00    -0.198 C  
HETATM    8  N   UNL     1     -10.320   4.842  70.907  1.00  0.00    -0.195 NA 
HETATM    9  C   UNL     1     -10.172   6.612  72.609  1.00  0.00    -0.186 C  
HETATM   10  OXT UNL     1     -10.449   7.183  73.652  1.00  0.00    -0.358 OA 
HETATM   11  O   UNL     1      -9.687   7.246  71.509  1.00  0.00    -0.161 OA 
HETATM   12  H1  UNL     1     -11.100   5.327  70.462  1.00  0.00     0.000 HD 
HETATM   13  H2  UNL     1     -10.339   3.843  70.704  1.00  0.00     0.000 HD 
ENDBRANCH   6   7
ENDBRANCH   5   6
ENDBRANCH   3   5
TORSDOF 3
ENDMDL
MODEL      268
REMARK 921   NORMALIZED FREE ENERGY PREDICTED BY IDOCK:   -1.05 KCAL/MOL
REMARK 922        TOTAL FREE ENERGY PREDICTED BY IDOCK:   -1.69 KCAL/MOL
REMARK 923 INTER-LIGAND FREE ENERGY PREDICTED BY IDOCK:   -1.62 KCAL/MOL
REMARK 924 INTRA-LIGAND FREE ENERGY PREDICTED BY IDOCK:   -0.07 KCAL/MOL
REMARK 927      BINDING AFFINITY PREDICTED BY RF-SCORE:    0.00 PKD
ROOT
HETATM    1  N   UNL     1     -11.021   8.791  67.544  1.00  0.00    -0.453 NA 
HETATM    2  H2  UNL     1     -10.586   9.334  66.799  1.00  0.00     0.000 HD 
HETATM    3  C   UNL     1     -10.418   7.470  67.686  1.00  0.00    -0.250 C  
HETATM    4  H1  UNL     1     -12.029   8.695  67.412  1.00  0.00     0.000 HD 
ENDROOT
BRANCH   3   5
HETATM    5  C   UNL     1      -8.910   7.614  67.884  1.00  0.00    -0.126 C  
BRANCH   5   6
HETATM    6  C   UNL     1      -8.480   9.089  67.905  1.00  0.00    -0.121 C  
BRANCH   6   7
HETATM    7  CA  UNL     1      -7.069   9.323  68.462  1.00  0.00    -0.071 C  
HETATM    8  N   UNL     1      -6.556   8.127  69.189  1.00  0.00    -0.043 NA 
HETATM    9  C   UNL     1      -7.062  10.523  69.421  1.00  0.00    -0.110 C  
HETATM   10  OXT UNL     1      -7.092  11.694  69.081  1.00  0.00    -0.113 OA 
HETATM   11  O   UNL     1      -7.059  10.114  70.718  1.00  0.00    -0.333 OA 
HETATM   12  H1  UNL     1      -5.618   8.282  69.559  1.00  0.00     0.000 HD 
HETATM   13  H2  UNL     1      -6.591   7.292  68.603  1.00  0.00     0.000 HD 
ENDBRANCH   6   7
ENDBRANCH   5   6
ENDBRANCH   3   5
TORSDOF 3
ENDMDL
MODEL      269
REMARK 921   NORMALIZED FREE ENERGY PREDICTED BY IDOCK:   -1.03 KCAL/MOL
REMARK 922        TOTAL FREE ENERGY PREDICTED BY IDOCK:   -1.67 KCAL/MOL
REMARK 923 INTER-LIGAND FREE ENERGY PREDICTED BY IDOCK:   -1.52 KCAL/MOL
REMARK 924 INTRA-LIGAND FREE ENERGY PREDICTED BY IDOCK:   -0.16 KCAL/MOL
REMARK 927      BINDING AFFINITY PREDICTED BY RF-SCORE:    0.00 PKD
ROOT
HETATM    1  N   UNL     1      -7.532  16.499  69.201  1.00  0.00    -0.232 NA 
HETATM    2  H2  UNL     1      -7.531  16.047  70.114  1.00  0.00     0.000 HD 
HETATM    3  C   UNL     1      -7.705  15.543  68.113  1.00  0.00    -0.123 C  
HETATM    4  H1  UNL     1      -6.688  17.049  69.042  1.00  0.00     0.000 HD 
ENDROOT
BRANCH   3   5
HETATM    5  C   UNL     1      -8.971  14.719  68.350  1.00  0.00    -0.187 C  
BRANCH   5   6
HETATM    6  C   UNL     1      -8.777  13.253  67.932  1.00  0.00    -0.192 C  
BRANCH   6   7
HETATM    7  CA  UNL     1      -7.314  12.861  67.681  1.00  0.00    -0.145 C  
HETATM    8  N   UNL     1      -7.182  11.931  66.524  1.00  0.00    -0.374 NA 
HETATM    9  C   UNL     1      -6.717  12.187  68.926  1.00  0.00    -0.094 C  
HETATM   10  OXT UNL     1      -6.358  12.770  69.936  1.00  0.00    -0.113 OA 
HETATM   11  O   UNL     1      -6.672  10.837  68.778  1.00  0.00    -0.055 OA 
HETATM   12  H1  UNL     1      -6.210  11.671  66.356  1.00  0.00     0.000 HD 
HETATM   13  H2  UNL     1      -7.613  12.319  65.684  1.00  0.00     0.000 HD 
ENDBRANCH   6   7
ENDBRANCH   5   6
ENDBRANCH   3   5
TORSDOF 3
ENDMDL
MODEL      270
REMARK 921   NORMALIZED FREE ENERGY PREDICTED BY IDOCK:   -1.02 KCAL/MOL
REMARK 922        TOTAL FREE ENERGY PREDICTED BY IDOCK:   -1.66 KCAL/MOL
REMARK 923 INTER-LIGAND FREE ENERGY PREDICTED BY IDOCK:   -1.62 KCAL/MOL
REMARK 924 INTRA-LIGAND FREE ENERGY PREDICTED BY IDOCK:   -0.03 KCAL/MOL
REMARK 927      BINDING AFFINITY PREDICTED BY RF-SCORE:    0.00 PKD
ROOT
HETATM    1  N   UNL     1      -9.563   8.971  71.793  1.00  0.00    -0.302 NA 
HETATM    2  H2  UNL     1     -10.315   9.134  71.124  1.00  0.00     0.000 HD 
HETATM    3  C   UNL     1      -8.812   7.758  71.492  1.00  0.00    -0.129 C  
HETATM    4  H1  UNL     1      -9.905   8.933  72.754  1.00  0.00     0.000 HD 
ENDROOT
BRANCH   3   5
HETATM    5  C   UNL     1      -8.299   7.816  70.054  1.00  0.00    -0.130 C  
BRANCH   5   6
HETATM    6  C   UNL     1      -8.085   6.409  69.474  1.00  0.00    -0.118 C  
BRANCH   6   7
HETATM    7  CA  UNL     1      -8.775   6.176  68.123  1.00  0.00    -0.114 C  
HETATM    8  N   UNL     1      -8.086   6.901  67.017  1.00  0.00    -0.115 NA 
HETATM    9  C   UNL     1     -10.238   6.642  68.180  1.00  0.00    -0.170 C  
HETATM   10  OXT UNL     1     -11.148   6.035  68.718  1.00  0.00    -0.336 OA 
HETATM   11  O   UNL     1     -10.391   7.854  67.582  1.00  0.00    -0.210 OA 
HETATM   12  H1  UNL     1      -8.544   6.746  66.119  1.00  0.00     0.000 HD 
HETATM   13  H2  UNL     1      -7.095   6.659  66.975  1.00  0.00     0.000 HD 
ENDBRANCH   6   7
ENDBRANCH   5   6
ENDBRANCH   3   5
TORSDOF 3
ENDMDL
MODEL      271
REMARK 921   NORMALIZED FREE ENERGY PREDICTED BY IDOCK:   -0.98 KCAL/MOL
REMARK 922        TOTAL FREE ENERGY PREDICTED BY IDOCK:   -1.61 KCAL/MOL
REMARK 923 INTER-LIGAND FREE ENERGY PREDICTED BY IDOCK:   -1.53 KCAL/MOL
REMARK 924 INTRA-LIGAND FREE ENERGY PREDICTED BY IDOCK:   -0.08 KCAL/MOL
REMARK 927      BINDING AFFINITY PREDICTED BY RF-SCORE:    0.00 PKD
ROOT
HETATM    1  N   UNL     1      -8.525   7.323  69.854  1.00  0.00    -0.138 NA 
HETATM    2  H2  UNL     1      -8.718   6.914  68.940  1.00  0.00     0.000 HD 
HETATM    3  C   UNL     1      -9.731   7.449  70.665  1.00  0.00    -0.175 C  
HETATM    4  H1  UNL     1      -8.066   8.231  69.780  1.00  0.00     0.000 HD 
ENDROOT
BRANCH   3   5
HETATM    5  C   UNL     1     -10.419   6.089  70.777  1.00  0.00    -0.298 C  
BRANCH   5   6
HETATM    6  C   UNL     1      -9.588   5.103  71.613  1.00  0.00    -0.204 C  
BRANCH   6   7
HETATM    7  CA  UNL     1      -9.869   5.169  73.121  1.00  0.00    -0.153 C  
HETATM    8  N   UNL     1      -8.674   4.781  73.923  1.00  0.00    -0.105 NA 
HETATM    9  C   UNL     1     -11.034   4.238  73.492  1.00  0.00    -0.287 C  
HETATM   10  OXT UNL     1     -12.213   4.476  73.290  1.00  0.00    -0.011 OA 
HETATM   11  O   UNL     1     -10.582   3.082  74.046  1.00  0.00    -0.160 OA 
HETATM   12  H1  UNL     1      -8.860   4.825  74.926  1.00  0.00     0.000 HD 
HETATM   13  H2  UNL     1      -7.859   5.342  73.672  1.00  0.00     0.000 HD 
ENDBRANCH   6   7
ENDBRANCH   5   6
ENDBRANCH   3   5
TORSDOF 3
ENDMDL
MODEL      272
REMARK 921   NORMALIZED FREE ENERGY PREDICTED BY IDOCK:   -0.98 KCAL/MOL
REMARK 922        TOTAL FREE ENERGY PREDICTED BY IDOCK:   -1.61 KCAL/MOL
REMARK 923 INTER-LIGAND FREE ENERGY PREDICTED BY IDOCK:   -1.45 KCAL/MOL
REMARK 924 INTRA-LIGAND FREE ENERGY PREDICTED BY IDOCK:   -0.16 KCAL/MOL
REMARK 927      BINDING AFFINITY PREDICTED BY RF-SCORE:    0.00 PKD
ROOT
HETATM    1  N   UNL     1      -8.745   7.248  69.833  1.00  0.00    -0.141 NA 
HETATM    2  H2  UNL     1      -8.674   6.856  68.894  1.00  0.00     0.000 HD 
HETATM    3  C   UNL     1     -10.102   7.166  70.361  1.00  0.00    -0.191 C  
HETATM    4  H1  UNL     1      -8.419   8.214  69.873  1.00  0.00     0.000 HD 
ENDROOT
BRANCH   3   5
HETATM    5  C   UNL     1     -10.590   5.719  70.302  1.00  0.00    -0.369 C  
BRANCH   5   6
HETATM    6  C   UNL     1     -10.103   4.908  71.513  1.00  0.00    -0.266 C  
BRANCH   6   7
HETATM    7  CA  UNL     1      -9.561   3.517  71.158  1.00  0.00    -0.170 C  
HETATM    8  N   UNL     1     -10.022   2.480  72.124  1.00  0.00    -0.158 NA 
HETATM    9  C   UNL     1      -8.024   3.526  71.142  1.00  0.00    -0.059 C  
HETATM   10  OXT UNL     1      -7.334   3.992  70.250  1.00  0.00    -0.041 OA 
HETATM   11  O   UNL     1      -7.519   2.979  72.279  1.00  0.00    -0.049 OA 
HETATM   12  H1  UNL     1      -9.663   1.555  71.888  1.00  0.00     0.000 HD 
HETATM   13  H2  UNL     1     -11.040   2.474  72.205  1.00  0.00     0.000 HD 
ENDBRANCH   6   7
ENDBRANCH   5   6
ENDBRANCH   3   5
TORSDOF 3
ENDMDL
MODEL      273
REMARK 921   NORMALIZED FREE ENERGY PREDICTED BY IDOCK:   -0.97 KCAL/MOL
REMARK 922        TOTAL FREE ENERGY PREDICTED BY IDOCK:   -1.60 KCAL/MOL
REMARK 923 INTER-LIGAND FREE ENERGY PREDICTED BY IDOCK:   -1.62 KCAL/MOL
REMARK 924 INTRA-LIGAND FREE ENERGY PREDICTED BY IDOCK:    0.02 KCAL/MOL
REMARK 927      BINDING AFFINITY PREDICTED BY RF-SCORE:    0.00 PKD
ROOT
HETATM    1  N   UNL     1      -6.372   7.026  69.113  1.00  0.00    -0.034 NA 
HETATM    2  H2  UNL     1      -6.933   7.258  69.932  1.00  0.00     0.000 HD 
HETATM    3  C   UNL     1      -7.086   6.157  68.185  1.00  0.00    -0.082 C  
HETATM    4  H1  UNL     1      -5.480   6.600  69.366  1.00  0.00     0.000 HD 
ENDROOT
BRANCH   3   5
HETATM    5  C   UNL     1      -8.422   6.796  67.807  1.00  0.00    -0.122 C  
BRANCH   5   6
HETATM    6  C   UNL     1      -8.731   8.019  68.684  1.00  0.00    -0.131 C  
BRANCH   6   7
HETATM    7  CA  UNL     1     -10.222   8.198  69.006  1.00  0.00    -0.220 C  
HETATM    8  N   UNL     1     -10.494   9.512  69.655  1.00  0.00    -0.211 NA 
HETATM    9  C   UNL     1     -10.707   7.078  69.939  1.00  0.00    -0.240 C  
HETATM   10  OXT UNL     1     -10.947   5.932  69.595  1.00  0.00    -0.347 OA 
HETATM   11  O   UNL     1     -10.801   7.514  71.223  1.00  0.00    -0.232 OA 
HETATM   12  H1  UNL     1     -11.484   9.631  69.869  1.00  0.00     0.000 HD 
HETATM   13  H2  UNL     1     -10.140  10.285  69.091  1.00  0.00     0.000 HD 
ENDBRANCH   6   7
ENDBRANCH   5   6
ENDBRANCH   3   5
TORSDOF 3
ENDMDL
MODEL      274
REMARK 921   NORMALIZED FREE ENERGY PREDICTED BY IDOCK:   -0.92 KCAL/MOL
REMARK 922        TOTAL FREE ENERGY PREDICTED BY IDOCK:   -1.54 KCAL/MOL
REMARK 923 INTER-LIGAND FREE ENERGY PREDICTED BY IDOCK:   -1.38 KCAL/MOL
REMARK 924 INTRA-LIGAND FREE ENERGY PREDICTED BY IDOCK:   -0.15 KCAL/MOL
REMARK 927      BINDING AFFINITY PREDICTED BY RF-SCORE:    0.00 PKD
ROOT
HETATM    1  N   UNL     1      -9.103   7.267  69.850  1.00  0.00    -0.142 NA 
HETATM    2  H2  UNL     1      -8.957   6.737  68.991  1.00  0.00     0.000 HD 
HETATM    3  C   UNL     1     -10.384   6.960  70.475  1.00  0.00    -0.204 C  
HETATM    4  H1  UNL     1      -9.028   8.273  69.698  1.00  0.00     0.000 HD 
ENDROOT
BRANCH   3   5
HETATM    5  C   UNL     1     -10.496   5.453  70.702  1.00  0.00    -0.329 C  
BRANCH   5   6
HETATM    6  C   UNL     1      -9.837   5.030  72.025  1.00  0.00    -0.226 C  
BRANCH   6   7
HETATM    7  CA  UNL     1      -8.826   3.884  71.883  1.00  0.00    -0.104 C  
HETATM    8  N   UNL     1      -8.473   3.631  70.457  1.00  0.00    -0.067 NA 
HETATM    9  C   UNL     1      -9.393   2.590  72.487  1.00  0.00    -0.090 C  
HETATM   10  OXT UNL     1      -9.462   2.344  73.680  1.00  0.00    -0.082 OA 
HETATM   11  O   UNL     1      -9.850   1.755  71.518  1.00  0.00    -0.139 OA 
HETATM   12  H1  UNL     1      -7.801   2.870  70.362  1.00  0.00     0.000 HD 
HETATM   13  H2  UNL     1      -8.140   4.480  70.000  1.00  0.00     0.000 HD 
ENDBRANCH   6   7
ENDBRANCH   5   6
ENDBRANCH   3   5
TORSDOF 3
ENDMDL
MODEL      275
REMARK 921   NORMALIZED FREE ENERGY PREDICTED BY IDOCK:   -0.90 KCAL/MOL
REMARK 922        TOTAL FREE ENERGY PREDICTED BY IDOCK:   -1.51 KCAL/MOL
REMARK 923 INTER-LIGAND FREE ENERGY PREDICTED BY IDOCK:   -1.38 KCAL/MOL
REMARK 924 INTRA-LIGAND FREE ENERGY PREDICTED BY IDOCK:   -0.14 KCAL/MOL
REMARK 927      BINDING AFFINITY PREDICTED BY RF-SCORE:    0.00 PKD
ROOT
HETATM    1  N   UNL     1      -7.561   8.229  64.762  1.00  0.00    -0.097 NA 
HETATM    2  H2  UNL     1      -6.803   7.595  64.513  1.00  0.00     0.000 HD 
HETATM    3  C   UNL     1      -8.531   7.603  65.654  1.00  0.00    -0.142 C  
HETATM    4  H1  UNL     1      -8.040   8.599  63.941  1.00  0.00     0.000 HD 
ENDROOT
BRANCH   3   5
HETATM    5  C   UNL     1      -7.814   7.050  66.885  1.00  0.00    -0.107 C  
BRANCH   5   6
HETATM    6  C   UNL     1      -7.839   8.050  68.051  1.00  0.00    -0.126 C  
BRANCH   6   7
HETATM    7  CA  UNL     1      -8.745   7.632  69.217  1.00  0.00    -0.136 C  
HETATM    8  N   UNL     1      -8.651   6.170  69.492  1.00  0.00    -0.126 NA 
HETATM    9  C   UNL     1     -10.209   7.984  68.913  1.00  0.00    -0.209 C  
HETATM   10  OXT UNL     1     -10.690   9.103  68.977  1.00  0.00    -0.217 OA 
HETATM   11  O   UNL     1     -10.906   6.885  68.519  1.00  0.00    -0.215 OA 
HETATM   12  H1  UNL     1      -9.253   5.891  70.268  1.00  0.00     0.000 HD 
HETATM   13  H2  UNL     1      -7.685   5.882  69.650  1.00  0.00     0.000 HD 
ENDBRANCH   6   7
ENDBRANCH   5   6
ENDBRANCH   3   5
TORSDOF 3
ENDMDL
MODEL      276
REMARK 921   NORMALIZED FREE ENERGY PREDICTED BY IDOCK:   -0.89 KCAL/MOL
REMARK 922        TOTAL FREE ENERGY PREDICTED BY IDOCK:   -1.51 KCAL/MOL
REMARK 923 INTER-LIGAND FREE ENERGY PREDICTED BY IDOCK:   -1.41 KCAL/MOL
REMARK 924 INTRA-LIGAND FREE ENERGY PREDICTED BY IDOCK:   -0.10 KCAL/MOL
REMARK 927      BINDING AFFINITY PREDICTED BY RF-SCORE:    0.00 PKD
ROOT
HETATM    1  N   UNL     1     -10.331   5.771  68.327  1.00  0.00    -0.195 NA 
HETATM    2  H2  UNL     1      -9.618   6.478  68.147  1.00  0.00     0.000 HD 
HETATM    3  C   UNL     1      -9.776   4.577  68.952  1.00  0.00    -0.154 C  
HETATM    4  H1  UNL     1     -10.838   5.511  67.480  1.00  0.00     0.000 HD 
ENDROOT
BRANCH   3   5
HETATM    5  C   UNL     1      -9.017   4.966  70.221  1.00  0.00    -0.147 C  
BRANCH   5   6
HETATM    6  C   UNL     1      -9.963   5.527  71.295  1.00  0.00    -0.249 C  
BRANCH   6   7
HETATM    7  CA  UNL     1      -9.276   6.441  72.318  1.00  0.00    -0.139 C  
HETATM    8  N   UNL     1      -7.941   6.902  71.841  1.00  0.00    -0.099 NA 
HETATM    9  C   UNL     1      -9.094   5.709  73.657  1.00  0.00    -0.127 C  
HETATM   10  OXT UNL     1      -9.979   5.506  74.472  1.00  0.00    -0.203 OA 
HETATM   11  O   UNL     1      -7.816   5.271  73.807  1.00  0.00    -0.101 OA 
HETATM   12  H1  UNL     1      -7.484   7.510  72.521  1.00  0.00     0.000 HD 
HETATM   13  H2  UNL     1      -8.008   7.351  70.927  1.00  0.00     0.000 HD 
ENDBRANCH   6   7
ENDBRANCH   5   6
ENDBRANCH   3   5
TORSDOF 3
ENDMDL
MODEL      277
REMARK 921   NORMALIZED FREE ENERGY PREDICTED BY IDOCK:   -0.89 KCAL/MOL
REMARK 922        TOTAL FREE ENERGY PREDICTED BY IDOCK:   -1.50 KCAL/MOL
REMARK 923 INTER-LIGAND FREE ENERGY PREDICTED BY IDOCK:   -1.44 KCAL/MOL
REMARK 924 INTRA-LIGAND FREE ENERGY PREDICTED BY IDOCK:   -0.07 KCAL/MOL
REMARK 927      BINDING AFFINITY PREDICTED BY RF-SCORE:    0.00 PKD
ROOT
HETATM    1  N   UNL     1     -11.007   7.544  67.864  1.00  0.00    -0.487 NA 
HETATM    2  H2  UNL     1     -10.663   8.297  67.269  1.00  0.00     0.000 HD 
HETATM    3  C   UNL     1     -11.097   6.276  67.149  1.00  0.00    -0.303 C  
HETATM    4  H1  UNL     1     -11.910   7.766  68.283  1.00  0.00     0.000 HD 
ENDROOT
BRANCH   3   5
HETATM    5  C   UNL     1      -9.744   5.942  66.522  1.00  0.00    -0.185 C  
BRANCH   5   6
HETATM    6  C   UNL     1      -9.327   4.493  66.815  1.00  0.00    -0.159 C  
BRANCH   6   7
HETATM    7  CA  UNL     1      -7.976   4.094  66.205  1.00  0.00    -0.098 C  
HETATM    8  N   UNL     1      -7.950   2.657  65.810  1.00  0.00    -0.081 NA 
HETATM    9  C   UNL     1      -6.838   4.350  67.205  1.00  0.00    -0.052 C  
HETATM   10  OXT UNL     1      -6.366   5.444  67.467  1.00  0.00    -0.036 OA 
HETATM   11  O   UNL     1      -6.441   3.196  67.803  1.00  0.00    -0.035 OA 
HETATM   12  H1  UNL     1      -7.052   2.392  65.404  1.00  0.00     0.000 HD 
HETATM   13  H2  UNL     1      -8.723   2.430  65.183  1.00  0.00     0.000 HD 
ENDBRANCH   6   7
ENDBRANCH   5   6
ENDBRANCH   3   5
TORSDOF 3
ENDMDL
MODEL      278
REMARK 921   NORMALIZED FREE ENERGY PREDICTED BY IDOCK:   -0.86 KCAL/MOL
REMARK 922        TOTAL FREE ENERGY PREDICTED BY IDOCK:   -1.47 KCAL/MOL
REMARK 923 INTER-LIGAND FREE ENERGY PREDICTED BY IDOCK:   -1.40 KCAL/MOL
REMARK 924 INTRA-LIGAND FREE ENERGY PREDICTED BY IDOCK:   -0.07 KCAL/MOL
REMARK 927      BINDING AFFINITY PREDICTED BY RF-SCORE:    0.00 PKD
ROOT
HETATM    1  N   UNL     1      -5.952   6.239  65.423  1.00  0.00    -0.025 NA 
HETATM    2  H2  UNL     1      -6.315   7.015  64.871  1.00  0.00     0.000 HD 
HETATM    3  C   UNL     1      -5.648   6.633  66.794  1.00  0.00    -0.014 C  
HETATM    4  H1  UNL     1      -5.127   5.816  64.997  1.00  0.00     0.000 HD 
ENDROOT
BRANCH   3   5
HETATM    5  C   UNL     1      -6.884   7.266  67.432  1.00  0.00    -0.077 C  
BRANCH   5   6
HETATM    6  C   UNL     1      -8.040   6.260  67.544  1.00  0.00    -0.113 C  
BRANCH   6   7
HETATM    7  CA  UNL     1      -9.308   6.832  68.192  1.00  0.00    -0.122 C  
HETATM    8  N   UNL     1      -9.978   5.834  69.074  1.00  0.00    -0.156 NA 
HETATM    9  C   UNL     1     -10.305   7.284  67.114  1.00  0.00    -0.297 C  
HETATM   10  OXT UNL     1     -10.213   8.308  66.456  1.00  0.00    -0.288 OA 
HETATM   11  O   UNL     1     -11.299   6.371  66.951  1.00  0.00    -0.304 OA 
HETATM   12  H1  UNL     1     -10.821   6.215  69.505  1.00  0.00     0.000 HD 
HETATM   13  H2  UNL     1      -9.334   5.468  69.776  1.00  0.00     0.000 HD 
ENDBRANCH   6   7
ENDBRANCH   5   6
ENDBRANCH   3   5
TORSDOF 3
ENDMDL
MODEL      279
REMARK 921   NORMALIZED FREE ENERGY PREDICTED BY IDOCK:   -0.83 KCAL/MOL
REMARK 922        TOTAL FREE ENERGY PREDICTED BY IDOCK:   -1.44 KCAL/MOL
REMARK 923 INTER-LIGAND FREE ENERGY PREDICTED BY IDOCK:   -1.10 KCAL/MOL
REMARK 924 INTRA-LIGAND FREE ENERGY PREDICTED BY IDOCK:   -0.34 KCAL/MOL
REMARK 927      BINDING AFFINITY PREDICTED BY RF-SCORE:    0.00 PKD
ROOT
HETATM    1  N   UNL     1      -6.365   8.489  71.033  1.00  0.00    -0.040 NA 
HETATM    2  H2  UNL     1      -6.092   8.819  70.107  1.00  0.00     0.000 HD 
HETATM    3  C   UNL     1      -7.638   9.053  71.465  1.00  0.00     0.009 C  
HETATM    4  H1  UNL     1      -5.649   8.679  71.735  1.00  0.00     0.000 HD 
ENDROOT
BRANCH   3   5
HETATM    5  C   UNL     1      -8.710   8.769  70.413  1.00  0.00    -0.181 C  
BRANCH   5   6
HETATM    6  C   UNL     1      -9.565   7.551  70.793  1.00  0.00    -0.166 C  
BRANCH   6   7
HETATM    7  CA  UNL     1      -9.556   6.427  69.748  1.00  0.00    -0.151 C  
HETATM    8  N   UNL     1     -10.718   5.509  69.912  1.00  0.00    -0.323 NA 
HETATM    9  C   UNL     1      -8.261   5.607  69.852  1.00  0.00    -0.109 C  
HETATM   10  OXT UNL     1      -7.169   5.962  69.440  1.00  0.00    -0.063 OA 
HETATM   11  O   UNL     1      -8.475   4.434  70.506  1.00  0.00    -0.075 OA 
HETATM   12  H1  UNL     1     -10.713   4.762  69.217  1.00  0.00     0.000 HD 
HETATM   13  H2  UNL     1     -11.601   6.020  69.901  1.00  0.00     0.000 HD 
ENDBRANCH   6   7
ENDBRANCH   5   6
ENDBRANCH   3   5
TORSDOF 3
ENDMDL
MODEL      280
REMARK 921   NORMALIZED FREE ENERGY PREDICTED BY IDOCK:   -0.83 KCAL/MOL
REMARK 922        TOTAL FREE ENERGY PREDICTED BY IDOCK:   -1.43 KCAL/MOL
REMARK 923 INTER-LIGAND FREE ENERGY PREDICTED BY IDOCK:   -1.30 KCAL/MOL
REMARK 924 INTRA-LIGAND FREE ENERGY PREDICTED BY IDOCK:   -0.13 KCAL/MOL
REMARK 927      BINDING AFFINITY PREDICTED BY RF-SCORE:    0.00 PKD
ROOT
HETATM    1  N   UNL     1      -9.107   4.249  71.279  1.00  0.00    -0.121 NA 
HETATM    2  H2  UNL     1      -8.477   3.899  70.557  1.00  0.00     0.000 HD 
HETATM    3  C   UNL     1      -9.685   5.541  70.926  1.00  0.00    -0.176 C  
HETATM    4  H1  UNL     1      -8.650   4.315  72.189  1.00  0.00     0.000 HD 
ENDROOT
BRANCH   3   5
HETATM    5  C   UNL     1     -10.369   5.442  69.564  1.00  0.00    -0.350 C  
BRANCH   5   6
HETATM    6  C   UNL     1      -9.383   5.709  68.415  1.00  0.00    -0.133 C  
BRANCH   6   7
HETATM    7  CA  UNL     1      -8.601   4.470  67.960  1.00  0.00    -0.102 C  
HETATM    8  N   UNL     1      -7.181   4.516  68.409  1.00  0.00    -0.060 NA 
HETATM    9  C   UNL     1      -8.630   4.349  66.428  1.00  0.00    -0.112 C  
HETATM   10  OXT UNL     1      -9.581   3.957  65.772  1.00  0.00    -0.171 OA 
HETATM   11  O   UNL     1      -7.462   4.778  65.881  1.00  0.00    -0.076 OA 
HETATM   12  H1  UNL     1      -6.661   3.692  68.107  1.00  0.00     0.000 HD 
HETATM   13  H2  UNL     1      -7.114   4.647  69.419  1.00  0.00     0.000 HD 
ENDBRANCH   6   7
ENDBRANCH   5   6
ENDBRANCH   3   5
TORSDOF 3
ENDMDL
MODEL      281
REMARK 921   NORMALIZED FREE ENERGY PREDICTED BY IDOCK:   -0.83 KCAL/MOL
REMARK 922        TOTAL FREE ENERGY PREDICTED BY IDOCK:   -1.43 KCAL/MOL
REMARK 923 INTER-LIGAND FREE ENERGY PREDICTED BY IDOCK:   -1.39 KCAL/MOL
REMARK 924 INTRA-LIGAND FREE ENERGY PREDICTED BY IDOCK:   -0.04 KCAL/MOL
REMARK 927      BINDING AFFINITY PREDICTED BY RF-SCORE:    0.00 PKD
ROOT
HETATM    1  N   UNL     1      -6.062   6.276  65.437  1.00  0.00    -0.029 NA 
HETATM    2  H2  UNL     1      -6.366   7.025  64.815  1.00  0.00     0.000 HD 
HETATM    3  C   UNL     1      -5.977   6.714  66.825  1.00  0.00    -0.022 C  
HETATM    4  H1  UNL     1      -5.169   5.875  65.148  1.00  0.00     0.000 HD 
ENDROOT
BRANCH   3   5
HETATM    5  C   UNL     1      -7.314   7.315  67.257  1.00  0.00    -0.098 C  
BRANCH   5   6
HETATM    6  C   UNL     1      -8.350   6.223  67.567  1.00  0.00    -0.113 C  
BRANCH   6   7
HETATM    7  CA  UNL     1      -9.795   6.735  67.650  1.00  0.00    -0.128 C  
HETATM    8  N   UNL     1     -10.220   7.396  66.384  1.00  0.00    -0.480 NA 
HETATM    9  C   UNL     1      -9.943   7.739  68.804  1.00  0.00    -0.176 C  
HETATM   10  OXT UNL     1     -10.009   7.445  69.986  1.00  0.00    -0.182 OA 
HETATM   11  O   UNL     1      -9.953   9.018  68.344  1.00  0.00    -0.168 OA 
HETATM   12  H1  UNL     1     -11.181   7.737  66.439  1.00  0.00     0.000 HD 
HETATM   13  H2  UNL     1     -10.090   6.781  65.581  1.00  0.00     0.000 HD 
ENDBRANCH   6   7
ENDBRANCH   5   6
ENDBRANCH   3   5
TORSDOF 3
ENDMDL
MODEL      282
REMARK 921   NORMALIZED FREE ENERGY PREDICTED BY IDOCK:   -0.82 KCAL/MOL
REMARK 922        TOTAL FREE ENERGY PREDICTED BY IDOCK:   -1.42 KCAL/MOL
REMARK 923 INTER-LIGAND FREE ENERGY PREDICTED BY IDOCK:   -1.35 KCAL/MOL
REMARK 924 INTRA-LIGAND FREE ENERGY PREDICTED BY IDOCK:   -0.07 KCAL/MOL
REMARK 927      BINDING AFFINITY PREDICTED BY RF-SCORE:    0.00 PKD
ROOT
HETATM    1  N   UNL     1      -5.425   6.758  64.074  1.00  0.00    -0.027 NA 
HETATM    2  H2  UNL     1      -5.708   7.359  63.301  1.00  0.00     0.000 HD 
HETATM    3  C   UNL     1      -6.417   6.731  65.142  1.00  0.00    -0.043 C  
HETATM    4  H1  UNL     1      -4.517   7.024  64.456  1.00  0.00     0.000 HD 
ENDROOT
BRANCH   3   5
HETATM    5  C   UNL     1      -7.777   6.331  64.570  1.00  0.00    -0.106 C  
BRANCH   5   6
HETATM    6  C   UNL     1      -8.584   5.486  65.568  1.00  0.00    -0.150 C  
BRANCH   6   7
HETATM    7  CA  UNL     1      -9.626   4.569  64.913  1.00  0.00    -0.117 C  
HETATM    8  N   UNL     1     -10.904   4.548  65.681  1.00  0.00    -0.754 NA 
HETATM    9  C   UNL     1      -9.090   3.133  64.809  1.00  0.00    -0.140 C  
HETATM   10  OXT UNL     1      -8.275   2.746  63.989  1.00  0.00    -0.082 OA 
HETATM   11  O   UNL     1      -9.612   2.342  65.784  1.00  0.00     0.069 OA 
HETATM   12  H1  UNL     1     -11.597   3.939  65.246  1.00  0.00     0.000 HD 
HETATM   13  H2  UNL     1     -11.271   5.490  65.819  1.00  0.00     0.000 HD 
ENDBRANCH   6   7
ENDBRANCH   5   6
ENDBRANCH   3   5
TORSDOF 3
ENDMDL
MODEL      283
REMARK 921   NORMALIZED FREE ENERGY PREDICTED BY IDOCK:   -0.82 KCAL/MOL
REMARK 922        TOTAL FREE ENERGY PREDICTED BY IDOCK:   -1.42 KCAL/MOL
REMARK 923 INTER-LIGAND FREE ENERGY PREDICTED BY IDOCK:   -1.51 KCAL/MOL
REMARK 924 INTRA-LIGAND FREE ENERGY PREDICTED BY IDOCK:    0.10 KCAL/MOL
REMARK 927      BINDING AFFINITY PREDICTED BY RF-SCORE:    0.00 PKD
ROOT
HETATM    1  N   UNL     1     -11.007   7.544  67.864  1.00  0.00    -0.487 NA 
HETATM    2  H2  UNL     1     -10.663   8.297  67.269  1.00  0.00     0.000 HD 
HETATM    3  C   UNL     1     -11.097   6.276  67.149  1.00  0.00    -0.303 C  
HETATM    4  H1  UNL     1     -11.910   7.766  68.283  1.00  0.00     0.000 HD 
ENDROOT
BRANCH   3   5
HETATM    5  C   UNL     1      -9.744   5.942  66.522  1.00  0.00    -0.185 C  
BRANCH   5   6
HETATM    6  C   UNL     1      -9.327   4.493  66.815  1.00  0.00    -0.159 C  
BRANCH   6   7
HETATM    7  CA  UNL     1      -7.976   4.094  66.205  1.00  0.00    -0.098 C  
HETATM    8  N   UNL     1      -6.848   4.345  67.147  1.00  0.00    -0.051 NA 
HETATM    9  C   UNL     1      -7.719   4.878  64.909  1.00  0.00    -0.083 C  
HETATM   10  OXT UNL     1      -8.243   4.646  63.832  1.00  0.00    -0.098 OA 
HETATM   11  O   UNL     1      -6.853   5.905  65.120  1.00  0.00    -0.049 OA 
HETATM   12  H1  UNL     1      -5.950   4.079  66.742  1.00  0.00     0.000 HD 
HETATM   13  H2  UNL     1      -7.003   3.882  68.043  1.00  0.00     0.000 HD 
ENDBRANCH   6   7
ENDBRANCH   5   6
ENDBRANCH   3   5
TORSDOF 3
ENDMDL
MODEL      284
REMARK 921   NORMALIZED FREE ENERGY PREDICTED BY IDOCK:   -0.81 KCAL/MOL
REMARK 922        TOTAL FREE ENERGY PREDICTED BY IDOCK:   -1.41 KCAL/MOL
REMARK 923 INTER-LIGAND FREE ENERGY PREDICTED BY IDOCK:   -1.23 KCAL/MOL
REMARK 924 INTRA-LIGAND FREE ENERGY PREDICTED BY IDOCK:   -0.18 KCAL/MOL
REMARK 927      BINDING AFFINITY PREDICTED BY RF-SCORE:    0.00 PKD
ROOT
HETATM    1  N   UNL     1      -7.329   5.595  64.549  1.00  0.00    -0.065 NA 
HETATM    2  H2  UNL     1      -7.759   5.933  63.688  1.00  0.00     0.000 HD 
HETATM    3  C   UNL     1      -7.799   6.324  65.721  1.00  0.00    -0.103 C  
HETATM    4  H1  UNL     1      -6.310   5.631  64.509  1.00  0.00     0.000 HD 
ENDROOT
BRANCH   3   5
HETATM    5  C   UNL     1      -9.325   6.271  65.782  1.00  0.00     0.069 C  
BRANCH   5   6
HETATM    6  C   UNL     1      -9.914   7.579  66.330  1.00  0.00    -0.119 C  
BRANCH   6   7
HETATM    7  CA  UNL     1      -8.974   8.787  66.216  1.00  0.00    -0.173 C  
HETATM    8  N   UNL     1      -8.997   9.625  67.448  1.00  0.00    -0.131 NA 
HETATM    9  C   UNL     1      -9.368   9.663  65.017  1.00  0.00    -0.255 C  
HETATM   10  OXT UNL     1      -9.132   9.403  63.849  1.00  0.00    -0.196 OA 
HETATM   11  O   UNL     1     -10.059  10.763  65.419  1.00  0.00    -0.255 OA 
HETATM   12  H1  UNL     1      -8.371  10.427  67.373  1.00  0.00     0.000 HD 
HETATM   13  H2  UNL     1      -8.790   9.070  68.279  1.00  0.00     0.000 HD 
ENDBRANCH   6   7
ENDBRANCH   5   6
ENDBRANCH   3   5
TORSDOF 3
ENDMDL
MODEL      285
REMARK 921   NORMALIZED FREE ENERGY PREDICTED BY IDOCK:   -0.79 KCAL/MOL
REMARK 922        TOTAL FREE ENERGY PREDICTED BY IDOCK:   -1.38 KCAL/MOL
REMARK 923 INTER-LIGAND FREE ENERGY PREDICTED BY IDOCK:   -1.21 KCAL/MOL
REMARK 924 INTRA-LIGAND FREE ENERGY PREDICTED BY IDOCK:   -0.18 KCAL/MOL
REMARK 927      BINDING AFFINITY PREDICTED BY RF-SCORE:    0.00 PKD
ROOT
HETATM    1  N   UNL     1      -7.411   5.541  64.743  1.00  0.00    -0.068 NA 
HETATM    2  H2  UNL     1      -7.835   6.037  63.960  1.00  0.00     0.000 HD 
HETATM    3  C   UNL     1      -7.727   6.162  66.024  1.00  0.00    -0.092 C  
HETATM    4  H1  UNL     1      -6.399   5.456  64.644  1.00  0.00     0.000 HD 
ENDROOT
BRANCH   3   5
HETATM    5  C   UNL     1      -9.243   6.289  66.174  1.00  0.00    -0.143 C  
BRANCH   5   6
HETATM    6  C   UNL     1      -9.831   5.118  66.977  1.00  0.00    -0.197 C  
BRANCH   6   7
HETATM    7  CA  UNL     1      -8.898   4.575  68.068  1.00  0.00    -0.107 C  
HETATM    8  N   UNL     1      -8.941   3.087  68.142  1.00  0.00    -0.127 NA 
HETATM    9  C   UNL     1      -9.285   5.148  69.440  1.00  0.00    -0.112 C  
HETATM   10  OXT UNL     1      -9.033   6.278  69.825  1.00  0.00    -0.138 OA 
HETATM   11  O   UNL     1      -9.988   4.243  70.169  1.00  0.00    -0.220 OA 
HETATM   12  H1  UNL     1      -8.321   2.726  68.868  1.00  0.00     0.000 HD 
HETATM   13  H2  UNL     1      -8.739   2.663  67.236  1.00  0.00     0.000 HD 
ENDBRANCH   6   7
ENDBRANCH   5   6
ENDBRANCH   3   5
TORSDOF 3
ENDMDL
MODEL      286
REMARK 921   NORMALIZED FREE ENERGY PREDICTED BY IDOCK:   -0.78 KCAL/MOL
REMARK 922        TOTAL FREE ENERGY PREDICTED BY IDOCK:   -1.37 KCAL/MOL
REMARK 923 INTER-LIGAND FREE ENERGY PREDICTED BY IDOCK:   -1.09 KCAL/MOL
REMARK 924 INTRA-LIGAND FREE ENERGY PREDICTED BY IDOCK:   -0.29 KCAL/MOL
REMARK 927      BINDING AFFINITY PREDICTED BY RF-SCORE:    0.00 PKD
ROOT
HETATM    1  N   UNL     1     -10.462   5.993  67.378  1.00  0.00    -0.213 NA 
HETATM    2  H2  UNL     1     -10.824   5.929  66.426  1.00  0.00     0.000 HD 
HETATM    3  C   UNL     1      -9.239   5.220  67.555  1.00  0.00    -0.114 C  
HETATM    4  H1  UNL     1     -11.153   5.706  68.072  1.00  0.00     0.000 HD 
ENDROOT
BRANCH   3   5
HETATM    5  C   UNL     1      -8.204   5.650  66.516  1.00  0.00    -0.106 C  
BRANCH   5   6
HETATM    6  C   UNL     1      -7.737   7.095  66.748  1.00  0.00    -0.098 C  
BRANCH   6   7
HETATM    7  CA  UNL     1      -8.000   8.037  65.565  1.00  0.00    -0.117 C  
HETATM    8  N   UNL     1      -9.459   8.237  65.332  1.00  0.00    -0.339 NA 
HETATM    9  C   UNL     1      -7.368   7.477  64.282  1.00  0.00    -0.090 C  
HETATM   10  OXT UNL     1      -6.180   7.514  64.010  1.00  0.00    -0.047 OA 
HETATM   11  O   UNL     1      -8.305   6.891  63.489  1.00  0.00     0.038 OA 
HETATM   12  H1  UNL     1      -9.635   8.863  64.546  1.00  0.00     0.000 HD 
HETATM   13  H2  UNL     1      -9.930   8.561  66.178  1.00  0.00     0.000 HD 
ENDBRANCH   6   7
ENDBRANCH   5   6
ENDBRANCH   3   5
TORSDOF 3
ENDMDL
MODEL      287
REMARK 921   NORMALIZED FREE ENERGY PREDICTED BY IDOCK:   -0.77 KCAL/MOL
REMARK 922        TOTAL FREE ENERGY PREDICTED BY IDOCK:   -1.37 KCAL/MOL
REMARK 923 INTER-LIGAND FREE ENERGY PREDICTED BY IDOCK:   -1.30 KCAL/MOL
REMARK 924 INTRA-LIGAND FREE ENERGY PREDICTED BY IDOCK:   -0.07 KCAL/MOL
REMARK 927      BINDING AFFINITY PREDICTED BY RF-SCORE:    0.00 PKD
ROOT
HETATM    1  N   UNL     1      -7.680   2.796  71.432  1.00  0.00    -0.040 NA 
HETATM    2  H2  UNL     1      -7.532   3.775  71.188  1.00  0.00     0.000 HD 
HETATM    3  C   UNL     1      -7.829   2.605  72.871  1.00  0.00    -0.053 C  
HETATM    4  H1  UNL     1      -6.933   2.195  71.082  1.00  0.00     0.000 HD 
ENDROOT
BRANCH   3   5
HETATM    5  C   UNL     1      -8.948   3.505  73.395  1.00  0.00    -0.098 C  
BRANCH   5   6
HETATM    6  C   UNL     1      -8.467   4.952  73.584  1.00  0.00    -0.105 C  
BRANCH   6   7
HETATM    7  CA  UNL     1      -9.578   6.003  73.458  1.00  0.00    -0.142 C  
HETATM    8  N   UNL     1     -10.672   5.771  74.444  1.00  0.00    -0.388 NA 
HETATM    9  C   UNL     1     -10.178   5.984  72.044  1.00  0.00    -0.194 C  
HETATM   10  OXT UNL     1      -9.652   6.461  71.052  1.00  0.00    -0.174 OA 
HETATM   11  O   UNL     1     -11.367   5.325  72.023  1.00  0.00    -0.106 OA 
HETATM   12  H1  UNL     1     -11.411   6.470  74.361  1.00  0.00     0.000 HD 
HETATM   13  H2  UNL     1     -10.310   5.725  75.397  1.00  0.00     0.000 HD 
ENDBRANCH   6   7
ENDBRANCH   5   6
ENDBRANCH   3   5
TORSDOF 3
ENDMDL
MODEL      288
REMARK 921   NORMALIZED FREE ENERGY PREDICTED BY IDOCK:   -0.74 KCAL/MOL
REMARK 922        TOTAL FREE ENERGY PREDICTED BY IDOCK:   -1.33 KCAL/MOL
REMARK 923 INTER-LIGAND FREE ENERGY PREDICTED BY IDOCK:   -1.33 KCAL/MOL
REMARK 924 INTRA-LIGAND FREE ENERGY PREDICTED BY IDOCK:    0.00 KCAL/MOL
REMARK 927      BINDING AFFINITY PREDICTED BY RF-SCORE:    0.00 PKD
ROOT
HETATM    1  N   UNL     1      -5.906   6.542  64.634  1.00  0.00    -0.029 NA 
HETATM    2  H2  UNL     1      -6.253   6.410  63.684  1.00  0.00     0.000 HD 
HETATM    3  C   UNL     1      -6.570   7.648  65.313  1.00  0.00    -0.044 C  
HETATM    4  H1  UNL     1      -4.896   6.682  64.658  1.00  0.00     0.000 HD 
ENDROOT
BRANCH   3   5
HETATM    5  C   UNL     1      -8.084   7.439  65.277  1.00  0.00    -0.131 C  
BRANCH   5   6
HETATM    6  C   UNL     1      -8.832   8.765  65.071  1.00  0.00    -0.151 C  
BRANCH   6   7
HETATM    7  CA  UNL     1      -9.414   9.363  66.359  1.00  0.00    -0.201 C  
HETATM    8  N   UNL     1      -8.422  10.221  67.068  1.00  0.00    -0.129 NA 
HETATM    9  C   UNL     1      -9.870   8.247  67.312  1.00  0.00    -0.197 C  
HETATM   10  OXT UNL     1     -10.892   7.592  67.188  1.00  0.00    -0.317 OA 
HETATM   11  O   UNL     1      -8.963   8.048  68.304  1.00  0.00    -0.133 OA 
HETATM   12  H1  UNL     1      -8.808  10.619  67.924  1.00  0.00     0.000 HD 
HETATM   13  H2  UNL     1      -8.052  10.947  66.454  1.00  0.00     0.000 HD 
ENDBRANCH   6   7
ENDBRANCH   5   6
ENDBRANCH   3   5
TORSDOF 3
ENDMDL
MODEL      289
REMARK 921   NORMALIZED FREE ENERGY PREDICTED BY IDOCK:   -0.73 KCAL/MOL
REMARK 922        TOTAL FREE ENERGY PREDICTED BY IDOCK:   -1.32 KCAL/MOL
REMARK 923 INTER-LIGAND FREE ENERGY PREDICTED BY IDOCK:   -1.69 KCAL/MOL
REMARK 924 INTRA-LIGAND FREE ENERGY PREDICTED BY IDOCK:    0.37 KCAL/MOL
REMARK 927      BINDING AFFINITY PREDICTED BY RF-SCORE:    0.00 PKD
ROOT
HETATM    1  N   UNL     1      -9.561   9.064  71.829  1.00  0.00    -0.302 NA 
HETATM    2  H2  UNL     1     -10.256   9.241  71.105  1.00  0.00     0.000 HD 
HETATM    3  C   UNL     1      -8.602   8.040  71.433  1.00  0.00    -0.132 C  
HETATM    4  H1  UNL     1      -9.989   8.807  72.719  1.00  0.00     0.000 HD 
ENDROOT
BRANCH   3   5
HETATM    5  C   UNL     1      -7.960   8.424  70.101  1.00  0.00    -0.102 C  
BRANCH   5   6
HETATM    6  C   UNL     1      -8.986   9.038  69.136  1.00  0.00    -0.140 C  
BRANCH   6   7
HETATM    7  CA  UNL     1      -9.550   8.048  68.107  1.00  0.00    -0.153 C  
HETATM    8  N   UNL     1     -11.036   8.128  68.019  1.00  0.00    -0.461 NA 
HETATM    9  C   UNL     1      -9.155   6.609  68.475  1.00  0.00    -0.128 C  
HETATM   10  OXT UNL     1      -8.052   6.118  68.302  1.00  0.00    -0.109 OA 
HETATM   11  O   UNL     1     -10.190   5.951  69.062  1.00  0.00    -0.168 OA 
HETATM   12  H1  UNL     1     -11.411   7.470  67.336  1.00  0.00     0.000 HD 
HETATM   13  H2  UNL     1     -11.346   9.081  67.827  1.00  0.00     0.000 HD 
ENDBRANCH   6   7
ENDBRANCH   5   6
ENDBRANCH   3   5
TORSDOF 3
ENDMDL
MODEL      290
REMARK 921   NORMALIZED FREE ENERGY PREDICTED BY IDOCK:   -0.72 KCAL/MOL
REMARK 922        TOTAL FREE ENERGY PREDICTED BY IDOCK:   -1.30 KCAL/MOL
REMARK 923 INTER-LIGAND FREE ENERGY PREDICTED BY IDOCK:   -1.20 KCAL/MOL
REMARK 924 INTRA-LIGAND FREE ENERGY PREDICTED BY IDOCK:   -0.11 KCAL/MOL
REMARK 927      BINDING AFFINITY PREDICTED BY RF-SCORE:    0.00 PKD
ROOT
HETATM    1  N   UNL     1      -8.517   3.051  71.568  1.00  0.00    -0.064 NA 
HETATM    2  H2  UNL     1      -7.595   2.809  71.205  1.00  0.00     0.000 HD 
HETATM    3  C   UNL     1      -9.363   3.669  70.554  1.00  0.00    -0.161 C  
HETATM    4  H1  UNL     1      -8.461   3.659  72.385  1.00  0.00     0.000 HD 
ENDROOT
BRANCH   3   5
HETATM    5  C   UNL     1      -9.447   2.758  69.330  1.00  0.00    -0.145 C  
BRANCH   5   6
HETATM    6  C   UNL     1      -8.718   3.367  68.121  1.00  0.00    -0.136 C  
BRANCH   6   7
HETATM    7  CA  UNL     1      -9.487   4.503  67.433  1.00  0.00    -0.162 C  
HETATM    8  N   UNL     1      -9.678   4.240  65.978  1.00  0.00    -0.193 NA 
HETATM    9  C   UNL     1      -8.740   5.836  67.599  1.00  0.00    -0.107 C  
HETATM   10  OXT UNL     1      -8.717   6.506  68.618  1.00  0.00    -0.123 OA 
HETATM   11  O   UNL     1      -8.064   6.163  66.466  1.00  0.00    -0.107 OA 
HETATM   12  H1  UNL     1     -10.189   4.995  65.521  1.00  0.00     0.000 HD 
HETATM   13  H2  UNL     1     -10.127   3.338  65.820  1.00  0.00     0.000 HD 
ENDBRANCH   6   7
ENDBRANCH   5   6
ENDBRANCH   3   5
TORSDOF 3
ENDMDL
MODEL      291
REMARK 921   NORMALIZED FREE ENERGY PREDICTED BY IDOCK:   -0.72 KCAL/MOL
REMARK 922        TOTAL FREE ENERGY PREDICTED BY IDOCK:   -1.30 KCAL/MOL
REMARK 923 INTER-LIGAND FREE ENERGY PREDICTED BY IDOCK:   -1.24 KCAL/MOL
REMARK 924 INTRA-LIGAND FREE ENERGY PREDICTED BY IDOCK:   -0.06 KCAL/MOL
REMARK 927      BINDING AFFINITY PREDICTED BY RF-SCORE:    0.00 PKD
ROOT
HETATM    1  N   UNL     1      -7.495   8.951  67.657  1.00  0.00    -0.092 NA 
HETATM    2  H2  UNL     1      -8.136   8.459  67.036  1.00  0.00     0.000 HD 
HETATM    3  C   UNL     1      -7.898   8.851  69.056  1.00  0.00    -0.091 C  
HETATM    4  H1  UNL     1      -7.389   9.933  67.401  1.00  0.00     0.000 HD 
ENDROOT
BRANCH   3   5
HETATM    5  C   UNL     1      -8.056   7.380  69.440  1.00  0.00    -0.129 C  
BRANCH   5   6
HETATM    6  C   UNL     1      -8.989   7.209  70.649  1.00  0.00    -0.154 C  
BRANCH   6   7
HETATM    7  CA  UNL     1      -9.480   5.771  70.863  1.00  0.00    -0.165 C  
HETATM    8  N   UNL     1     -10.968   5.682  70.819  1.00  0.00    -0.233 NA 
HETATM    9  C   UNL     1      -8.995   5.233  72.218  1.00  0.00    -0.129 C  
HETATM   10  OXT UNL     1      -7.861   4.852  72.456  1.00  0.00    -0.090 OA 
HETATM   11  O   UNL     1      -9.988   5.271  73.145  1.00  0.00    -0.161 OA 
HETATM   12  H1  UNL     1     -11.295   4.726  70.961  1.00  0.00     0.000 HD 
HETATM   13  H2  UNL     1     -11.338   6.077  69.954  1.00  0.00     0.000 HD 
ENDBRANCH   6   7
ENDBRANCH   5   6
ENDBRANCH   3   5
TORSDOF 3
ENDMDL
MODEL      292
REMARK 921   NORMALIZED FREE ENERGY PREDICTED BY IDOCK:   -0.70 KCAL/MOL
REMARK 922        TOTAL FREE ENERGY PREDICTED BY IDOCK:   -1.28 KCAL/MOL
REMARK 923 INTER-LIGAND FREE ENERGY PREDICTED BY IDOCK:   -1.41 KCAL/MOL
REMARK 924 INTRA-LIGAND FREE ENERGY PREDICTED BY IDOCK:    0.13 KCAL/MOL
REMARK 927      BINDING AFFINITY PREDICTED BY RF-SCORE:    0.00 PKD
ROOT
HETATM    1  N   UNL     1      -5.660   6.487  64.548  1.00  0.00    -0.029 NA 
HETATM    2  H2  UNL     1      -5.685   6.551  63.530  1.00  0.00     0.000 HD 
HETATM    3  C   UNL     1      -6.291   7.636  65.187  1.00  0.00    -0.038 C  
HETATM    4  H1  UNL     1      -4.710   6.375  64.903  1.00  0.00     0.000 HD 
ENDROOT
BRANCH   3   5
HETATM    5  C   UNL     1      -7.714   7.802  64.655  1.00  0.00    -0.121 C  
BRANCH   5   6
HETATM    6  C   UNL     1      -7.777   8.843  63.526  1.00  0.00    -0.128 C  
BRANCH   6   7
HETATM    7  CA  UNL     1      -7.862  10.295  64.017  1.00  0.00    -0.114 C  
HETATM    8  N   UNL     1      -6.543  10.794  64.501  1.00  0.00    -0.351 NA 
HETATM    9  C   UNL     1      -8.883  10.418  65.158  1.00  0.00    -0.189 C  
HETATM   10  OXT UNL     1     -10.095  10.423  65.018  1.00  0.00    -0.309 OA 
HETATM   11  O   UNL     1      -8.264  10.481  66.367  1.00  0.00    -0.130 OA 
HETATM   12  H1  UNL     1      -6.599  11.759  64.827  1.00  0.00     0.000 HD 
HETATM   13  H2  UNL     1      -5.820  10.683  63.789  1.00  0.00     0.000 HD 
ENDBRANCH   6   7
ENDBRANCH   5   6
ENDBRANCH   3   5
TORSDOF 3
ENDMDL
MODEL      293
REMARK 921   NORMALIZED FREE ENERGY PREDICTED BY IDOCK:   -0.70 KCAL/MOL
REMARK 922        TOTAL FREE ENERGY PREDICTED BY IDOCK:   -1.28 KCAL/MOL
REMARK 923 INTER-LIGAND FREE ENERGY PREDICTED BY IDOCK:   -1.53 KCAL/MOL
REMARK 924 INTRA-LIGAND FREE ENERGY PREDICTED BY IDOCK:    0.25 KCAL/MOL
REMARK 927      BINDING AFFINITY PREDICTED BY RF-SCORE:    0.00 PKD
ROOT
HETATM    1  N   UNL     1      -7.335  11.378  68.273  1.00  0.00    -0.084 NA 
HETATM    2  H2  UNL     1      -8.133  11.094  68.841  1.00  0.00     0.000 HD 
HETATM    3  C   UNL     1      -7.407  10.843  66.918  1.00  0.00    -0.128 C  
HETATM    4  H1  UNL     1      -6.447  11.114  68.700  1.00  0.00     0.000 HD 
ENDROOT
BRANCH   3   5
HETATM    5  C   UNL     1      -8.738  11.238  66.280  1.00  0.00    -0.184 C  
BRANCH   5   6
HETATM    6  C   UNL     1      -9.623  10.011  66.012  1.00  0.00    -0.279 C  
BRANCH   6   7
HETATM    7  CA  UNL     1      -9.198   9.187  64.788  1.00  0.00    -0.018 C  
HETATM    8  N   UNL     1      -7.934   8.438  65.037  1.00  0.00    -0.131 NA 
HETATM    9  C   UNL     1      -8.997  10.101  63.569  1.00  0.00    -0.245 C  
HETATM   10  OXT UNL     1      -9.894  10.585  62.899  1.00  0.00    -0.309 OA 
HETATM   11  O   UNL     1      -7.678  10.342  63.349  1.00  0.00    -0.152 OA 
HETATM   12  H1  UNL     1      -7.652   7.890  64.224  1.00  0.00     0.000 HD 
HETATM   13  H2  UNL     1      -8.007   7.854  65.871  1.00  0.00     0.000 HD 
ENDBRANCH   6   7
ENDBRANCH   5   6
ENDBRANCH   3   5
TORSDOF 3
ENDMDL
MODEL      294
REMARK 921   NORMALIZED FREE ENERGY PREDICTED BY IDOCK:   -0.67 KCAL/MOL
REMARK 922        TOTAL FREE ENERGY PREDICTED BY IDOCK:   -1.25 KCAL/MOL
REMARK 923 INTER-LIGAND FREE ENERGY PREDICTED BY IDOCK:   -1.15 KCAL/MOL
REMARK 924 INTRA-LIGAND FREE ENERGY PREDICTED BY IDOCK:   -0.10 KCAL/MOL
REMARK 927      BINDING AFFINITY PREDICTED BY RF-SCORE:    0.00 PKD
ROOT
HETATM    1  N   UNL     1      -6.172   7.567  71.112  1.00  0.00    -0.035 NA 
HETATM    2  H2  UNL     1      -5.343   7.926  70.639  1.00  0.00     0.000 HD 
HETATM    3  C   UNL     1      -7.140   8.619  71.400  1.00  0.00    -0.088 C  
HETATM    4  H1  UNL     1      -5.940   7.069  71.971  1.00  0.00     0.000 HD 
ENDROOT
BRANCH   3   5
HETATM    5  C   UNL     1      -7.487   9.365  70.112  1.00  0.00    -0.120 C  
BRANCH   5   6
HETATM    6  C   UNL     1      -7.771   8.393  68.956  1.00  0.00    -0.097 C  
BRANCH   6   7
HETATM    7  CA  UNL     1      -9.260   8.249  68.610  1.00  0.00    -0.143 C  
HETATM    8  N   UNL     1      -9.733   6.845  68.778  1.00  0.00    -0.137 NA 
HETATM    9  C   UNL     1      -9.519   8.686  67.160  1.00  0.00    -0.160 C  
HETATM   10  OXT UNL     1      -9.569   9.842  66.774  1.00  0.00    -0.168 OA 
HETATM   11  O   UNL     1      -9.648   7.611  66.339  1.00  0.00    -0.200 OA 
HETATM   12  H1  UNL     1     -10.723   6.749  68.548  1.00  0.00     0.000 HD 
HETATM   13  H2  UNL     1      -9.534   6.495  69.715  1.00  0.00     0.000 HD 
ENDBRANCH   6   7
ENDBRANCH   5   6
ENDBRANCH   3   5
TORSDOF 3
ENDMDL
MODEL      295
REMARK 921   NORMALIZED FREE ENERGY PREDICTED BY IDOCK:   -0.66 KCAL/MOL
REMARK 922        TOTAL FREE ENERGY PREDICTED BY IDOCK:   -1.23 KCAL/MOL
REMARK 923 INTER-LIGAND FREE ENERGY PREDICTED BY IDOCK:   -1.10 KCAL/MOL
REMARK 924 INTRA-LIGAND FREE ENERGY PREDICTED BY IDOCK:   -0.13 KCAL/MOL
REMARK 927      BINDING AFFINITY PREDICTED BY RF-SCORE:    0.00 PKD
ROOT
HETATM    1  N   UNL     1      -7.736   4.752  68.406  1.00  0.00    -0.080 NA 
HETATM    2  H2  UNL     1      -6.730   4.764  68.238  1.00  0.00     0.000 HD 
HETATM    3  C   UNL     1      -8.500   4.708  67.165  1.00  0.00    -0.105 C  
HETATM    4  H1  UNL     1      -8.041   5.546  68.969  1.00  0.00     0.000 HD 
ENDROOT
BRANCH   3   5
HETATM    5  C   UNL     1      -8.043   3.518  66.322  1.00  0.00    -0.092 C  
BRANCH   5   6
HETATM    6  C   UNL     1      -7.817   3.919  64.856  1.00  0.00    -0.085 C  
BRANCH   6   7
HETATM    7  CA  UNL     1      -8.714   5.068  64.375  1.00  0.00    -0.119 C  
HETATM    8  N   UNL     1      -9.592   4.648  63.246  1.00  0.00    -0.355 NA 
HETATM    9  C   UNL     1      -7.860   6.260  63.918  1.00  0.00    -0.112 C  
HETATM   10  OXT UNL     1      -7.298   7.047  64.662  1.00  0.00    -0.077 OA 
HETATM   11  O   UNL     1      -7.772   6.311  62.562  1.00  0.00    -0.073 OA 
HETATM   12  H1  UNL     1     -10.188   5.412  62.926  1.00  0.00     0.000 HD 
HETATM   13  H2  UNL     1     -10.142   3.824  63.489  1.00  0.00     0.000 HD 
ENDBRANCH   6   7
ENDBRANCH   5   6
ENDBRANCH   3   5
TORSDOF 3
ENDMDL
MODEL      296
REMARK 921   NORMALIZED FREE ENERGY PREDICTED BY IDOCK:   -0.58 KCAL/MOL
REMARK 922        TOTAL FREE ENERGY PREDICTED BY IDOCK:   -1.13 KCAL/MOL
REMARK 923 INTER-LIGAND FREE ENERGY PREDICTED BY IDOCK:   -1.00 KCAL/MOL
REMARK 924 INTRA-LIGAND FREE ENERGY PREDICTED BY IDOCK:   -0.13 KCAL/MOL
REMARK 927      BINDING AFFINITY PREDICTED BY RF-SCORE:    0.00 PKD
ROOT
HETATM    1  N   UNL     1      -7.520   7.523  72.347  1.00  0.00    -0.072 NA 
HETATM    2  H2  UNL     1      -7.884   7.100  73.200  1.00  0.00     0.000 HD 
HETATM    3  C   UNL     1      -7.081   6.522  71.381  1.00  0.00    -0.077 C  
HETATM    4  H1  UNL     1      -6.759   8.175  72.535  1.00  0.00     0.000 HD 
ENDROOT
BRANCH   3   5
HETATM    5  C   UNL     1      -8.222   5.545  71.099  1.00  0.00    -0.120 C  
BRANCH   5   6
HETATM    6  C   UNL     1      -8.305   5.189  69.606  1.00  0.00    -0.093 C  
BRANCH   6   7
HETATM    7  CA  UNL     1      -9.203   6.127  68.788  1.00  0.00    -0.124 C  
HETATM    8  N   UNL     1     -10.310   5.388  68.118  1.00  0.00    -0.168 NA 
HETATM    9  C   UNL     1      -8.379   6.859  67.716  1.00  0.00    -0.120 C  
HETATM   10  OXT UNL     1      -7.633   7.801  67.926  1.00  0.00    -0.110 OA 
HETATM   11  O   UNL     1      -8.556   6.295  66.492  1.00  0.00    -0.119 OA 
HETATM   12  H1  UNL     1     -10.907   6.012  67.574  1.00  0.00     0.000 HD 
HETATM   13  H2  UNL     1     -10.854   4.845  68.789  1.00  0.00     0.000 HD 
ENDBRANCH   6   7
ENDBRANCH   5   6
ENDBRANCH   3   5
TORSDOF 3
ENDMDL
MODEL      297
REMARK 921   NORMALIZED FREE ENERGY PREDICTED BY IDOCK:   -0.56 KCAL/MOL
REMARK 922        TOTAL FREE ENERGY PREDICTED BY IDOCK:   -1.12 KCAL/MOL
REMARK 923 INTER-LIGAND FREE ENERGY PREDICTED BY IDOCK:   -1.20 KCAL/MOL
REMARK 924 INTRA-LIGAND FREE ENERGY PREDICTED BY IDOCK:    0.08 KCAL/MOL
REMARK 927      BINDING AFFINITY PREDICTED BY RF-SCORE:    0.00 PKD
ROOT
HETATM    1  N   UNL     1     -10.540   6.021  67.389  1.00  0.00    -0.249 NA 
HETATM    2  H2  UNL     1     -10.555   6.152  66.378  1.00  0.00     0.000 HD 
HETATM    3  C   UNL     1      -9.376   5.260  67.828  1.00  0.00    -0.119 C  
HETATM    4  H1  UNL     1     -11.391   5.575  67.732  1.00  0.00     0.000 HD 
ENDROOT
BRANCH   3   5
HETATM    5  C   UNL     1      -8.101   5.929  67.315  1.00  0.00    -0.102 C  
BRANCH   5   6
HETATM    6  C   UNL     1      -7.842   7.268  68.023  1.00  0.00    -0.118 C  
BRANCH   6   7
HETATM    7  CA  UNL     1      -7.378   8.392  67.086  1.00  0.00    -0.085 C  
HETATM    8  N   UNL     1      -7.308   9.705  67.789  1.00  0.00    -0.086 NA 
HETATM    9  C   UNL     1      -8.334   8.524  65.891  1.00  0.00    -0.138 C  
HETATM   10  OXT UNL     1      -8.364   7.774  64.929  1.00  0.00    -0.136 OA 
HETATM   11  O   UNL     1      -9.182   9.574  66.054  1.00  0.00    -0.168 OA 
HETATM   12  H1  UNL     1      -6.999  10.452  67.167  1.00  0.00     0.000 HD 
HETATM   13  H2  UNL     1      -6.721   9.649  68.623  1.00  0.00     0.000 HD 
ENDBRANCH   6   7
ENDBRANCH   5   6
ENDBRANCH   3   5
TORSDOF 3
ENDMDL
MODEL      298
REMARK 921   NORMALIZED FREE ENERGY PREDICTED BY IDOCK:   -0.56 KCAL/MOL
REMARK 922        TOTAL FREE ENERGY PREDICTED BY IDOCK:   -1.11 KCAL/MOL
REMARK 923 INTER-LIGAND FREE ENERGY PREDICTED BY IDOCK:   -1.00 KCAL/MOL
REMARK 924 INTRA-LIGAND FREE ENERGY PREDICTED BY IDOCK:   -0.11 KCAL/MOL
REMARK 927      BINDING AFFINITY PREDICTED BY RF-SCORE:    0.00 PKD
ROOT
HETATM    1  N   UNL     1     -10.165   8.687  71.552  1.00  0.00    -0.247 NA 
HETATM    2  H2  UNL     1     -10.356   8.555  70.559  1.00  0.00     0.000 HD 
HETATM    3  C   UNL     1      -9.038   7.880  72.006  1.00  0.00    -0.148 C  
HETATM    4  H1  UNL     1     -10.982   8.491  72.131  1.00  0.00     0.000 HD 
ENDROOT
BRANCH   3   5
HETATM    5  C   UNL     1      -7.814   8.172  71.140  1.00  0.00    -0.096 C  
BRANCH   5   6
HETATM    6  C   UNL     1      -8.212   8.503  69.693  1.00  0.00    -0.115 C  
BRANCH   6   7
HETATM    7  CA  UNL     1      -7.906   7.384  68.687  1.00  0.00    -0.122 C  
HETATM    8  N   UNL     1      -7.110   6.286  69.307  1.00  0.00    -0.071 NA 
HETATM    9  C   UNL     1      -7.126   7.940  67.486  1.00  0.00    -0.083 C  
HETATM   10  OXT UNL     1      -7.611   8.589  66.574  1.00  0.00    -0.086 OA 
HETATM   11  O   UNL     1      -5.802   7.650  67.584  1.00  0.00    -0.034 OA 
HETATM   12  H1  UNL     1      -6.907   5.542  68.639  1.00  0.00     0.000 HD 
HETATM   13  H2  UNL     1      -7.569   5.921  70.142  1.00  0.00     0.000 HD 
ENDBRANCH   6   7
ENDBRANCH   5   6
ENDBRANCH   3   5
TORSDOF 3
ENDMDL
MODEL      299
REMARK 921   NORMALIZED FREE ENERGY PREDICTED BY IDOCK:   -0.50 KCAL/MOL
REMARK 922        TOTAL FREE ENERGY PREDICTED BY IDOCK:   -1.05 KCAL/MOL
REMARK 923 INTER-LIGAND FREE ENERGY PREDICTED BY IDOCK:   -1.30 KCAL/MOL
REMARK 924 INTRA-LIGAND FREE ENERGY PREDICTED BY IDOCK:    0.26 KCAL/MOL
REMARK 927      BINDING AFFINITY PREDICTED BY RF-SCORE:    0.00 PKD
ROOT
HETATM    1  N   UNL     1      -9.579   2.404  70.905  1.00  0.00    -0.142 NA 
HETATM    2  H2  UNL     1      -8.899   2.068  71.586  1.00  0.00     0.000 HD 
HETATM    3  C   UNL     1      -9.984   3.781  71.165  1.00  0.00    -0.074 C  
HETATM    4  H1  UNL     1     -10.404   1.806  70.858  1.00  0.00     0.000 HD 
ENDROOT
BRANCH   3   5
HETATM    5  C   UNL     1      -8.747   4.676  71.235  1.00  0.00    -0.139 C  
BRANCH   5   6
HETATM    6  C   UNL     1      -8.786   5.777  70.164  1.00  0.00    -0.144 C  
BRANCH   6   7
HETATM    7  CA  UNL     1      -9.696   6.962  70.517  1.00  0.00    -0.172 C  
HETATM    8  N   UNL     1      -9.398   8.158  69.678  1.00  0.00    -0.159 NA 
HETATM    9  C   UNL     1      -9.530   7.345  71.996  1.00  0.00    -0.136 C  
HETATM   10  OXT UNL     1     -10.007   6.733  72.938  1.00  0.00    -0.165 OA 
HETATM   11  O   UNL     1      -8.741   8.443  72.134  1.00  0.00    -0.174 OA 
HETATM   12  H1  UNL     1     -10.003   8.945  69.913  1.00  0.00     0.000 HD 
HETATM   13  H2  UNL     1      -9.447   7.935  68.684  1.00  0.00     0.000 HD 
ENDBRANCH   6   7
ENDBRANCH   5   6
ENDBRANCH   3   5
TORSDOF 3
ENDMDL
MODEL      300
REMARK 921   NORMALIZED FREE ENERGY PREDICTED BY IDOCK:   -0.30 KCAL/MOL
REMARK 922        TOTAL FREE ENERGY PREDICTED BY IDOCK:   -0.81 KCAL/MOL
REMARK 923 INTER-LIGAND FREE ENERGY PREDICTED BY IDOCK:   -1.60 KCAL/MOL
REMARK 924 INTRA-LIGAND FREE ENERGY PREDICTED BY IDOCK:    0.80 KCAL/MOL
REMARK 927      BINDING AFFINITY PREDICTED BY RF-SCORE:    0.00 PKD
ROOT
HETATM    1  N   UNL     1      -9.710   8.563  65.838  1.00  0.00    -0.466 NA 
HETATM    2  H2  UNL     1      -9.968   8.672  64.858  1.00  0.00     0.000 HD 
HETATM    3  C   UNL     1      -8.297   8.844  66.068  1.00  0.00    -0.124 C  
HETATM    4  H1  UNL     1      -9.937   7.635  66.195  1.00  0.00     0.000 HD 
ENDROOT
BRANCH   3   5
HETATM    5  C   UNL     1      -7.956  10.235  65.534  1.00  0.00    -0.151 C  
BRANCH   5   6
HETATM    6  C   UNL     1      -7.132  11.043  66.548  1.00  0.00    -0.136 C  
BRANCH   6   7
HETATM    7  CA  UNL     1      -7.794  11.180  67.926  1.00  0.00    -0.111 C  
HETATM    8  N   UNL     1      -9.011  10.327  68.042  1.00  0.00    -0.131 NA 
HETATM    9  C   UNL     1      -8.190  12.642  68.189  1.00  0.00    -0.170 C  
HETATM   10  OXT UNL     1      -7.418  13.533  68.501  1.00  0.00    -0.113 OA 
HETATM   11  O   UNL     1      -9.521  12.833  67.989  1.00  0.00    -0.201 OA 
HETATM   12  H1  UNL     1      -9.451  10.418  68.958  1.00  0.00     0.000 HD 
HETATM   13  H2  UNL     1      -8.803   9.352  67.825  1.00  0.00     0.000 HD 
ENDBRANCH   6   7
ENDBRANCH   5   6
ENDBRANCH   3   5
TORSDOF 3
ENDMDL
MODEL      301
REMARK 921   NORMALIZED FREE ENERGY PREDICTED BY IDOCK:   -0.18 KCAL/MOL
REMARK 922        TOTAL FREE ENERGY PREDICTED BY IDOCK:   -0.67 KCAL/MOL
REMARK 923 INTER-LIGAND FREE ENERGY PREDICTED BY IDOCK:   -1.03 KCAL/MOL
REMARK 924 INTRA-LIGAND FREE ENERGY PREDICTED BY IDOCK:    0.37 KCAL/MOL
REMARK 927      BINDING AFFINITY PREDICTED BY RF-SCORE:    0.00 PKD
ROOT
HETATM    1  N   UNL     1      -9.718   8.566  65.893  1.00  0.00    -0.466 NA 
HETATM    2  H2  UNL     1      -9.884   8.857  64.930  1.00  0.00     0.000 HD 
HETATM    3  C   UNL     1      -8.353   8.844  66.324  1.00  0.00    -0.117 C  
HETATM    4  H1  UNL     1      -9.928   7.578  66.038  1.00  0.00     0.000 HD 
ENDROOT
BRANCH   3   5
HETATM    5  C   UNL     1      -8.038  10.324  66.107  1.00  0.00    -0.133 C  
BRANCH   5   6
HETATM    6  C   UNL     1      -7.375  10.948  67.345  1.00  0.00    -0.099 C  
BRANCH   6   7
HETATM    7  CA  UNL     1      -5.963  10.418  67.633  1.00  0.00    -0.048 C  
HETATM    8  N   UNL     1      -5.472   9.529  66.542  1.00  0.00    -0.045 NA 
HETATM    9  C   UNL     1      -5.943   9.634  68.954  1.00  0.00    -0.042 C  
HETATM   10  OXT UNL     1      -5.953  10.133  70.068  1.00  0.00    -0.045 OA 
HETATM   11  O   UNL     1      -5.952   8.294  68.730  1.00  0.00    -0.041 OA 
HETATM   12  H1  UNL     1      -4.534   9.178  66.734  1.00  0.00     0.000 HD 
HETATM   13  H2  UNL     1      -5.517   9.995  65.635  1.00  0.00     0.000 HD 
ENDBRANCH   6   7
ENDBRANCH   5   6
ENDBRANCH   3   5
TORSDOF 3
ENDMDL
MODEL      302
REMARK 921   NORMALIZED FREE ENERGY PREDICTED BY IDOCK:   -0.08 KCAL/MOL
REMARK 922        TOTAL FREE ENERGY PREDICTED BY IDOCK:   -0.55 KCAL/MOL
REMARK 923 INTER-LIGAND FREE ENERGY PREDICTED BY IDOCK:   -0.76 KCAL/MOL
REMARK 924 INTRA-LIGAND FREE ENERGY PREDICTED BY IDOCK:    0.21 KCAL/MOL
REMARK 927      BINDING AFFINITY PREDICTED BY RF-SCORE:    0.00 PKD
ROOT
HETATM    1  N   UNL     1      -9.615   2.377  70.867  1.00  0.00    -0.142 NA 
HETATM    2  H2  UNL     1      -8.952   2.077  71.581  1.00  0.00     0.000 HD 
HETATM    3  C   UNL     1      -9.979   3.782  71.009  1.00  0.00    -0.048 C  
HETATM    4  H1  UNL     1     -10.458   1.803  70.860  1.00  0.00     0.000 HD 
ENDROOT
BRANCH   3   5
HETATM    5  C   UNL     1      -8.716   4.642  71.019  1.00  0.00    -0.140 C  
BRANCH   5   6
HETATM    6  C   UNL     1      -8.692   5.623  69.837  1.00  0.00    -0.127 C  
BRANCH   6   7
HETATM    7  CA  UNL     1      -7.500   5.433  68.888  1.00  0.00    -0.075 C  
HETATM    8  N   UNL     1      -7.846   5.797  67.485  1.00  0.00    -0.101 NA 
HETATM    9  C   UNL     1      -7.021   3.973  68.914  1.00  0.00    -0.047 C  
HETATM   10  OXT UNL     1      -6.358   3.467  69.804  1.00  0.00    -0.027 OA 
HETATM   11  O   UNL     1      -7.467   3.291  67.826  1.00  0.00    -0.057 OA 
HETATM   12  H1  UNL     1      -7.054   5.671  66.854  1.00  0.00     0.000 HD 
HETATM   13  H2  UNL     1      -8.218   6.746  67.429  1.00  0.00     0.000 HD 
ENDBRANCH   6   7
ENDBRANCH   5   6
ENDBRANCH   3   5
TORSDOF 3
ENDMDL
